#------------------------------------------------------------------------------
#$Date: 2017-07-27 01:34:31 +0300 (Thu, 27 Jul 2017) $
#$Revision: 199346 $
#$URL: file:///home/coder/svn-repositories/cod/cif/4/12/63/4126317.cif $
#------------------------------------------------------------------------------
#
# This file is available in the Crystallography Open Database (COD),
# http://www.crystallography.net/
#
# All data on this site have been placed in the public domain by the
# contributors.
#
data_4126317
loop_
_publ_author_name
'Surbella, Robert G.'
'Ducati, Lucas Colucci'
'Pellegrini, Kristi L.'
'McNamara, Bruce K.'
'Autschbach, Jochen'
'Schwantes, Jon Michael'
'Cahill, Christopher L.'
_publ_section_title
;
 Transuranic Hybrid Materials: Crystallographic and Computational Metrics
 of Supramolecular Assembly.
;
_journal_name_full               'Journal of the American Chemical Society'
_journal_paper_doi               10.1021/jacs.7b05689
_journal_year                    2017
_chemical_formula_moiety         '(C5 H5 I N 1+)2, (Pu O2 Cl4 2-)'
_chemical_formula_sum            'C10 H10 Cl4 I2 N2 O2 Pu'
_chemical_formula_weight         827.80
_space_group_crystal_system      monoclinic
_space_group_IT_number           12
_space_group_name_Hall           '-C 2y'
_space_group_name_H-M_alt        'C 1 2/m 1'
_symmetry_cell_setting           monoclinic
_symmetry_Int_Tables_number      12
_symmetry_space_group_name_Hall  '-C 2y'
_symmetry_space_group_name_H-M   'C 1 2/m 1'
_atom_sites_solution_hydrogens   mixed
_audit_creation_method           SHELXL-2014/7
_cell_angle_alpha                90
_cell_angle_beta                 102.267(2)
_cell_angle_gamma                90
_cell_formula_units_Z            2
_cell_length_a                   16.4644(11)
_cell_length_b                   8.7019(5)
_cell_length_c                   6.8794(5)
_cell_measurement_reflns_used    6942
_cell_measurement_temperature    296(2)
_cell_measurement_theta_max      47.476
_cell_measurement_theta_min      4.782
_cell_volume                     963.12(11)
_computing_cell_refinement       'SAINT, Bruker-AXS'
_computing_data_collection       'APEX, Bruker-AXS'
_computing_data_reduction        'SAINT, Bruker-AXS'
_computing_molecular_graphics    'WINGX (Farrugia, 2012)'
_computing_publication_material  'Crystal Maker (Palmer, 2009)'
_computing_structure_refinement  'SHELXL-2014/7 (Sheldrick, 2014)'
_computing_structure_solution    'SIR92 (Gualardi, 1994)'
_diffrn_ambient_temperature      296(2)
_diffrn_measured_fraction_theta_full 0.994
_diffrn_measured_fraction_theta_max 0.994
_diffrn_measurement_device_type  'Bruker D8 Venture, Photon CCD'
_diffrn_measurement_method       'omega and phi scans'
_diffrn_radiation_probe          x-ray
_diffrn_radiation_type           AgK\a
_diffrn_radiation_wavelength     0.56086
_diffrn_reflns_av_R_equivalents  0.0287
_diffrn_reflns_av_unetI/netI     0.0178
_diffrn_reflns_Laue_measured_fraction_full 0.994
_diffrn_reflns_Laue_measured_fraction_max 0.994
_diffrn_reflns_limit_h_max       23
_diffrn_reflns_limit_h_min       -23
_diffrn_reflns_limit_k_max       11
_diffrn_reflns_limit_k_min       -12
_diffrn_reflns_limit_l_max       9
_diffrn_reflns_limit_l_min       -9
_diffrn_reflns_number            9893
_diffrn_reflns_point_group_measured_fraction_full 0.994
_diffrn_reflns_point_group_measured_fraction_max 0.994
_diffrn_reflns_theta_full        23.740
_diffrn_reflns_theta_max         23.740
_diffrn_reflns_theta_min         2.391
_diffrn_source                   'Silver microfocus'
_exptl_absorpt_coefficient_mu    6.725
_exptl_absorpt_correction_T_max  0.7449
_exptl_absorpt_correction_T_min  0.5206
_exptl_absorpt_correction_type   multi-scan
_exptl_absorpt_process_details   'Krause et. al 2015'
_exptl_crystal_colour            Yellow-Orange
_exptl_crystal_density_diffrn    2.854
_exptl_crystal_description       Prismatic
_exptl_crystal_F_000             736
_exptl_crystal_recrystallization_method 'Acidic (HCl) aqueous evaporation'
_exptl_crystal_size_max          0.204
_exptl_crystal_size_mid          0.143
_exptl_crystal_size_min          0.122
_refine_diff_density_max         0.998
_refine_diff_density_min         -1.332
_refine_diff_density_rms         0.134
_refine_ls_extinction_coef       0.0059(3)
_refine_ls_extinction_expression Fc^*^=kFc[1+0.001xFc^2^\l^3^/sin(2\q)]^-1/4^
_refine_ls_extinction_method     'SHELXL-2014/7 (Sheldrick 2014'
_refine_ls_goodness_of_fit_ref   1.107
_refine_ls_hydrogen_treatment    constr
_refine_ls_matrix_type           full
_refine_ls_number_parameters     59
_refine_ls_number_reflns         1570
_refine_ls_number_restraints     0
_refine_ls_restrained_S_all      1.107
_refine_ls_R_factor_all          0.0210
_refine_ls_R_factor_gt           0.0202
_refine_ls_shift/su_max          0.000
_refine_ls_shift/su_mean         0.000
_refine_ls_structure_factor_coef Fsqd
_refine_ls_weighting_details
'w=1/[\s^2^(Fo^2^)+(0.0176P)^2^+5.0468P] where P=(Fo^2^+2Fc^2^)/3'
_refine_ls_weighting_scheme      calc
_refine_ls_wR_factor_gt          0.0512
_refine_ls_wR_factor_ref         0.0517
_reflns_Friedel_coverage         0.000
_reflns_number_gt                1542
_reflns_number_total             1570
_reflns_threshold_expression     'I > 2\s(I)'
_cod_data_source_file            ja7b05689_si_002.cif
_cod_data_source_block           Compound_12
_cod_original_sg_symbol_H-M      'C 2/m'
_cod_database_code               4126317
_shelx_shelxl_version_number     2014/7
_shelx_space_group_comment
;
The symmetry employed for this shelxl refinement is uniquely defined
by the following loop, which should always be used as a source of
symmetry information in preference to the above space-group names.
They are only intended as comments.
;
_shelx_estimated_absorpt_t_min   0.341
_shelx_estimated_absorpt_t_max   0.494
_shelx_res_file
;

    shelx.res created by SHELXL-2014/7

TITL shelx     C 2/m        R = 0.02
CELL  0.56086  16.4644   8.7019   6.8794   90.000  102.267   90.000
ZERR     2.00   0.0011   0.0005   0.0005    0.000    0.002    0.000
LATT   7
SYMM  - X,   Y, - Z
SFAC  C    H    CL   I    N    O    PU
UNIT  20 20 8 4 4 4 2
MERG   2
OMIT     1   1   0
OMIT     2   0   0
FMAP   2
HTAB
PLAN    5
ACTA    51.00
BOND   $H
CONF
SIZE 0.122 0.143 0.204
L.S.  24
TEMP    23.00
WGHT    0.017600    5.046800
EXTI    0.005898
FVAR       0.08120
I1    4    0.238501    0.500000    0.171727    10.50000    0.04177    0.06897 =
         0.03886    0.00000    0.01532    0.00000
N1    5    0.087067    0.500000    0.693587    10.50000    0.04653    0.05756 =
         0.03337    0.00000    0.01316    0.00000
AFIX   3
HN1   2    0.057967    0.500000    0.784987    10.50000   -1.20000
AFIX   0
C1    1    0.106367    0.366383    0.621771    11.00000    0.05199    0.04807 =
         0.04562    0.00603    0.01520   -0.00520
AFIX  43
H1    2    0.091531    0.275021    0.675186    11.00000   -1.20000
AFIX   0
C2    1    0.148138    0.362518    0.468972    11.00000    0.04732    0.04082 =
         0.04573   -0.00379    0.01256   -0.00125
AFIX  43
H2    2    0.161253    0.269267    0.417153    11.00000   -1.20000
AFIX   0
C3    1    0.170330    0.500000    0.393612    10.50000    0.03398    0.04705 =
         0.02881    0.00000    0.00561    0.00000
PU1   7    0.000000    0.000000    0.000000    10.25000    0.02648    0.01564 =
         0.02260    0.00000    0.01136    0.00000
CL1   3    0.000000    0.305366    0.000000    10.50000    0.05871    0.02246 =
         0.04977    0.00000    0.02375    0.00000
CL2   3    0.157902    0.000000    0.192425    10.50000    0.03681    0.04840 =
         0.04760    0.00000    0.00593    0.00000
O1    6   -0.031902    0.000000    0.225880    10.50000    0.05036    0.03834 =
         0.03818    0.00000    0.02040    0.00000
HKLF    4

REM  shelx     C 2/m        R = 0.02
REM R1 =  0.0202 for    1542 Fo > 4sig(Fo)  and  0.0210 for all    1570 data
REM     59 parameters refined using      0 restraints

END

WGHT      0.0160      5.2277

REM Instructions for potential hydrogen bonds
EQIV $1 x, y, z+1
HTAB N1 Cl1_$1
EQIV $2 -x, -y+1, -z+1
HTAB N1 Cl1_$2
HTAB C1 Cl1_$1
HTAB C2 Cl2

REM Highest difference peak  0.998,  deepest hole -1.332,  1-sigma level  0.134
Q1    1   0.0259  0.0000 -0.0151  10.50000  0.05    1.00
Q2    1   0.0205  0.0000  0.0716  10.50000  0.05    0.99
Q3    1   0.2435  0.1965  0.1904  11.00000  0.05    0.50
Q4    1   0.1952  0.5000  0.0311  10.50000  0.05    0.44
Q5    1   0.2177  0.3814  0.2210  11.00000  0.05    0.40
;
_shelx_res_checksum              45938
_shelx_hkl_file
;
  -2   0   0   -0.56    0.02
  -2   0   0   -0.51    0.02
   4   0   0  356.77    9.12
   4   0   0  360.39    9.28
  -4   0   0  377.55    9.37
  -4   0   0  373.53    9.42
   6   0   0   46.94    1.36
   6   0   0   43.73    1.38
   6   0   0   44.05    1.45
  -6   0   0   49.22    1.39
  -6   0   0   46.77    1.34
   8   0   0  357.20    9.04
   8   0   0  374.09    9.12
  -8   0   0  365.80    9.07
   8   0   0  369.03    9.22
  -8   0   0  360.51    9.02
  10   0   0    1.74    0.31
  10   0   0    2.04    0.36
 -10   0   0    2.10    0.32
  10   0   0    1.27    0.30
 -10   0   0    1.71    0.26
 -12   0   0  191.02    5.07
  12   0   0  189.63    5.15
 -12   0   0  189.47    5.00
  12   0   0  185.68    5.22
  12   0   0  194.33    5.07
  14   0   0   10.95    0.88
 -14   0   0   10.57    0.68
 -14   0   0   10.39    0.70
  14   0   0   10.98    0.78
  14   0   0   11.37    0.86
  16   0   0   19.68    1.14
  16   0   0   19.14    1.13
 -16   0   0   20.47    1.01
  16   0   0   21.13    1.21
 -16   0   0   19.95    0.97
  18   0   0   13.40    1.01
  18   0   0   12.50    1.15
 -18   0   0   12.12    0.78
  20   0   0   14.01    1.12
 -20   0   0   15.29    0.93
  22   0   0    2.85    0.87
  22   0   0    2.29    0.67
 -22   0   0    1.92    0.47
   1  -1   0   -0.02    0.02
   1  -1   0   -0.03    0.02
  -3  -1   0  207.18    5.14
  -3  -1   0  201.97    5.00
   3  -1   0  200.51    5.09
   3  -1   0  205.80    5.10
   3  -1   0  210.38    5.06
  -3   1   0  196.06    5.00
   3   1   0  204.43    5.01
  -3   1   0  206.08    5.05
   5  -1   0   80.80    2.35
  -5  -1   0   86.31    2.20
  -5  -1   0   85.64    2.20
   5  -1   0   82.28    2.24
   5  -1   0   84.35    2.38
  -5   1   0   84.86    2.29
   5   1   0   86.08    2.23
   5   1   0   83.15    2.20
  -5   1   0   86.75    2.24
   7  -1   0  225.36    5.91
   7  -1   0  228.92    5.84
   7  -1   0  234.62    6.01
  -7  -1   0  232.33    5.78
  -7  -1   0  237.34    5.81
   7   1   0  229.13    5.84
  -7   1   0  232.44    5.89
   7   1   0  234.66    5.81
  -7   1   0  231.70    5.83
  -9  -1   0    0.99    0.22
   9  -1   0    0.83    0.24
  -9  -1   0    0.32    0.16
   9  -1   0    0.96    0.23
   9  -1   0    0.49    0.24
   9   1   0    0.55    0.23
  -9   1   0    0.20    0.20
   9   1   0    0.52    0.19
  -9   1   0    0.85    0.20
   9   1   0    0.22    0.20
  11  -1   0   96.44    3.09
  11  -1   0   96.39    2.91
  11  -1   0   96.17    2.81
 -11  -1   0   97.19    2.72
 -11  -1   0   99.23    2.77
 -11   1   0   98.08    2.84
  11   1   0   98.99    2.79
  11   1   0   96.50    2.91
  11   1   0   98.62    2.85
 -11   1   0   97.39    2.77
  13  -1   0    2.12    0.45
  13  -1   0    2.06    0.48
 -13  -1   0    1.83    0.35
 -13  -1   0    2.56    0.37
  13  -1   0    2.36    0.44
 -13   1   0    1.89    0.39
  13   1   0    2.57    0.41
  13   1   0    1.61    0.41
  13   1   0    2.27    0.47
 -13   1   0    1.69    0.32
 -15  -1   0   57.12    1.90
  15  -1   0   58.39    2.61
  15  -1   0   54.49    2.11
  15  -1   0   59.88    2.17
 -15  -1   0   56.44    2.05
  15   1   0   56.88    2.07
  15   1   0   57.13    1.99
 -15   1   0   54.81    1.97
 -15   1   0   56.72    1.91
  15   1   0   53.74    2.02
 -17  -1   0    0.01    0.26
  17  -1   0    0.21    0.37
  17  -1   0    0.34    0.49
  17   1   0    0.81    0.39
 -17   1   0   -0.19    0.25
  17   1   0    0.36    0.44
  17   1   0    0.47    0.39
 -17   1   0    0.79    0.38
 -19  -1   0   33.09    1.36
  19  -1   0   30.45    1.53
  19  -1   0   31.75    1.77
  19   1   0   33.55    1.59
 -19   1   0   33.11    1.40
  19   1   0   34.73    1.72
 -21  -1   0   -0.13    0.35
  21  -1   0    0.70    0.53
  21  -1   0   -0.46    0.74
  21   1   0   -0.82    0.49
  21   1   0    0.02    0.67
  21   1   0    0.05    0.48
   2  -2   0   19.21    0.64
   2  -2   0   18.22    0.59
   2  -2   0   18.26    0.64
  -2   2   0   19.02    0.59
  -2   2   0   18.60    0.68
  -2   2   0   19.71    0.64
   4  -2   0  273.78    6.92
  -4  -2   0  267.77    7.05
  -4  -2   0  279.67    6.96
   4  -2   0  286.19    7.01
   4  -2   0  294.54    7.06
  -4   2   0  294.98    7.00
   4   2   0  278.65    6.85
  -4   2   0  276.97    6.92
   6  -2   0    2.27    0.33
   6  -2   0    1.80    0.32
   6  -2   0    1.59    0.27
  -6  -2   0    1.16    0.20
  -6  -2   0    1.34    0.20
  -6   2   0    1.17    0.21
   6   2   0    1.78    0.27
  -6   2   0    1.17    0.25
   6   2   0    1.49    0.22
  -8  -2   0  161.06    4.13
  -8  -2   0  162.67    4.13
   8  -2   0  156.43    4.24
   8  -2   0  172.27    4.46
   8  -2   0  160.31    4.35
  -8   2   0  160.27    4.23
   8   2   0  157.18    4.17
   8   2   0  166.11    4.20
  -8   2   0  161.49    4.31
 -10  -2   0    2.88    0.30
  10  -2   0    3.44    0.46
 -10  -2   0    3.55    0.33
  10  -2   0    3.42    0.40
  10  -2   0    3.97    0.49
 -10   2   0    3.56    0.36
  10   2   0    2.73    0.36
 -10   2   0    3.33    0.39
  10   2   0    3.15    0.41
  10   2   0    3.21    0.40
  12  -2   0  109.08    3.32
  12  -2   0  105.75    3.29
 -12  -2   0  109.82    3.00
 -12  -2   0  107.55    2.97
  12  -2   0  103.67    3.11
  12   2   0  106.03    3.06
 -12   2   0  109.74    3.09
 -12   2   0  105.70    3.16
  12   2   0  110.67    3.12
  12   2   0  106.88    3.16
  14  -2   0    2.75    0.55
  14  -2   0    2.64    0.54
  14  -2   0    2.85    0.52
 -14  -2   0    2.35    0.37
 -14   2   0    3.03    0.46
  14   2   0    2.09    0.45
 -14   2   0    2.26    0.43
  14   2   0    2.36    0.48
  14   2   0    3.05    0.53
  16  -2   0   11.36    0.88
  16  -2   0   12.70    0.97
 -16  -2   0   12.25    0.74
  16  -2   0   12.71    1.07
 -16   2   0   12.05    0.77
  16   2   0   10.58    0.90
  16   2   0   11.30    0.88
  16   2   0   11.56    0.88
 -18  -2   0    4.71    0.55
  18  -2   0    3.68    0.68
  18  -2   0    5.59    0.90
  18  -2   0    6.49    0.80
 -18   2   0    4.80    0.67
  18   2   0    6.05    0.74
  18   2   0    5.51    0.79
 -18   2   0    5.89    0.63
  18   2   0    6.03    0.87
  20  -2   0    7.74    1.18
 -20  -2   0    8.65    0.90
  20  -2   0    5.98    0.85
 -20   2   0    7.52    0.74
  20   2   0    6.91    1.00
  20   2   0    6.31    0.91
  22  -2   0    3.07    0.77
 -22  -2   0    2.00    0.44
  22  -2   0    2.45    0.88
  22   2   0    1.94    0.88
 -22   2   0    2.50    0.58
  22   2   0    2.28    0.62
  22   2   0    0.80    0.64
   1  -3   0  278.60    7.01
   1  -3   0  258.60    7.27
  -1  -3   0  286.57    6.97
   1  -3   0  291.78    6.94
  -1  -3   0  282.24    6.96
  -1   3   0  291.79    6.92
  -1   3   0  290.91    6.93
  -1   3   0  285.83    6.97
   3  -3   0  144.50    3.57
   3  -3   0  137.55    3.64
   3  -3   0  140.71    3.65
  -3   3   0  141.82    3.63
  -3   3   0  140.38    3.56
  -5  -3   0   78.76    2.00
   5  -3   0   77.33    2.25
   5  -3   0   79.34    2.16
   5  -3   0   81.55    2.29
  -5   3   0   83.45    2.24
  -5   3   0   80.35    2.16
   5   3   0   68.70    1.99
   7  -3   0  316.14    7.97
  -7  -3   0  319.52    7.63
   7  -3   0  309.54    7.91
   7  -3   0  312.12    7.80
  -7   3   0  308.78    7.78
  -7   3   0  315.84    7.88
   7   3   0  298.34    7.68
   9  -3   0   12.49    0.67
   9  -3   0   12.06    0.75
  -9  -3   0   12.79    0.53
   9  -3   0   12.26    0.75
  -9   3   0   12.41    0.64
   9   3   0   11.71    0.61
  -9   3   0   13.19    0.72
   9   3   0   12.99    0.61
   9   3   0   13.04    0.63
 -11  -3   0  105.72    2.87
  11  -3   0  104.63    3.06
  11  -3   0  108.42    3.25
  11  -3   0  106.53    3.20
  11   3   0  102.69    2.95
 -11   3   0  106.03    3.12
  11   3   0  105.80    3.02
  11   3   0  105.70    3.02
 -11   3   0  105.25    3.02
 -13  -3   0    9.26    0.55
  13  -3   0    8.92    0.84
  13  -3   0   10.71    0.89
  13  -3   0   11.79    0.78
 -13   3   0    9.99    0.68
  13   3   0    9.54    0.69
  13   3   0    9.78    0.72
  13   3   0    9.80    0.72
 -13   3   0    9.70    0.72
 -15  -3   0   53.23    1.73
  15  -3   0   54.97    1.98
  15  -3   0   55.71    2.12
  15  -3   0   52.06    2.39
  15   3   0   54.00    1.94
 -15   3   0   51.67    1.96
 -15   3   0   52.62    1.87
  15   3   0   51.70    1.89
  15   3   0   54.67    1.91
  17  -3   0    0.36    0.39
  17  -3   0   -0.79    0.51
 -17  -3   0    0.50    0.26
  17  -3   0    1.69    0.50
 -17   3   0    0.29    0.37
  17   3   0   -0.43    0.39
  17   3   0    0.10    0.35
  17   3   0    0.40    0.45
  19  -3   0   38.87    1.76
  19  -3   0   41.37    1.84
 -19  -3   0   36.30    1.44
  19  -3   0   37.00    1.95
  19   3   0   34.51    1.65
  19   3   0   39.01    1.74
  19   3   0   36.73    1.74
  21  -3   0    0.48    0.72
  21  -3   0    0.13    0.57
 -21  -3   0    0.98    0.40
  21  -3   0    0.71    0.64
 -21   3   0    0.74    0.45
  21   3   0    0.92    0.61
  21   3   0    0.17    0.70
  21   3   0    0.82    0.47
   0  -4   0  452.55   11.20
   0  -4   0  449.00   11.06
   0  -4   0  452.07   11.11
   2  -4   0    2.72    0.31
   2  -4   0    2.42    0.24
   2  -4   0    2.82    0.26
  -2   4   0    2.43    0.34
  -2   4   0    2.77    0.36
  -2   4   0    2.65    0.23
   4  -4   0  294.97    7.45
   4  -4   0  298.78    7.55
   4  -4   0  307.22    7.58
  -4   4   0  303.06    7.45
  -4   4   0  302.52    7.53
   6  -4   0   14.98    0.74
   6  -4   0   16.02    0.78
   6  -4   0   15.69    0.68
  -6  -4   0   15.84    0.51
  -6   4   0   15.28    0.66
   6   4   0   14.32    0.64
  -6   4   0   16.00    0.74
   8  -4   0  131.54    3.68
  -8  -4   0  129.97    3.29
   8  -4   0  129.96    3.52
   8  -4   0  123.66    3.64
   8   4   0  130.99    3.44
  -8   4   0  128.35    3.49
  -8   4   0  128.81    3.60
 -10  -4   0    1.51    0.23
  10  -4   0    1.69    0.43
  10  -4   0    1.42    0.35
  10  -4   0    1.08    0.30
  10   4   0    2.00    0.34
  10   4   0    1.63    0.30
 -10   4   0    2.27    0.39
 -10   4   0    1.30    0.27
  10   4   0    2.00    0.34
  12  -4   0   97.73    3.13
  12  -4   0  102.57    3.17
 -12  -4   0  100.26    2.71
  12  -4   0  100.56    2.98
  12   4   0  100.18    2.86
 -12   4   0   90.89    2.93
 -12   4   0  103.98    3.32
  12   4   0   98.69    2.83
  12   4   0   95.50    2.85
  14  -4   0    6.71    0.76
 -14  -4   0    6.22    0.46
  14  -4   0    7.36    0.73
  14  -4   0    6.82    0.87
  14   4   0    6.80    0.68
 -14   4   0    6.04    0.65
 -14   4   0    6.47    0.61
  14   4   0    7.47    0.74
  14   4   0    5.62    0.65
 -16  -4   0   15.11    0.77
  16  -4   0   14.93    1.02
  16  -4   0   15.50    1.09
  16  -4   0   15.33    1.21
  16   4   0   15.23    0.92
 -16   4   0   16.81    1.02
  16   4   0   15.86    0.99
  16   4   0   14.28    0.99
  18  -4   0    7.35    1.05
  18  -4   0    8.52    0.89
  18  -4   0    6.20    0.89
 -18  -4   0    5.34    0.55
  18   4   0    6.41    0.82
  18   4   0    7.18    0.74
  20  -4   0    8.55    0.95
  20  -4   0    7.76    1.01
  20  -4   0    6.02    1.06
 -20  -4   0    6.34    0.64
  20   4   0    4.98    0.88
  20   4   0    5.75    0.96
   1  -5   0   55.88    1.54
  -1  -5   0   54.80    1.44
   1  -5   0   55.65    1.60
   1  -5   0   55.72    1.52
   3  -5   0   35.22    1.16
   3  -5   0   36.29    1.23
   3  -5   0   36.33    1.12
  -3   5   0   37.23    1.19
  -3   5   0   35.67    1.11
   5  -5   0   15.72    0.74
   5  -5   0   16.52    0.80
   5  -5   0   16.28    0.69
  -5   5   0   16.61    0.75
  -5   5   0   16.70    0.68
  -7  -5   0   98.71    2.48
   7  -5   0   95.45    2.87
   7  -5   0   96.90    2.76
   7  -5   0   99.15    2.92
  -7   5   0   99.25    2.75
   7   5   0   97.83    2.55
  -7   5   0   98.45    2.85
  -9  -5   0    1.04    0.17
   9  -5   0    0.80    0.37
   9  -5   0    1.03    0.30
   9  -5   0    1.04    0.34
   9   5   0    1.01    0.35
  -9   5   0    0.79    0.25
  -9   5   0    1.27    0.33
  11  -5   0   37.09    1.43
  11  -5   0   35.78    1.53
 -11  -5   0   36.71    1.14
  11  -5   0   36.64    1.59
 -11   5   0   37.10    1.48
  11   5   0   37.21    1.38
 -11   5   0   33.64    1.64
  11   5   0   36.29    1.23
  13  -5   0    2.70    0.61
 -13  -5   0    2.84    0.32
  13  -5   0    2.58    0.52
  13  -5   0    2.49    0.57
  13   5   0    4.45    0.62
  13   5   0    2.86    0.48
 -13   5   0    2.39    0.42
  13   5   0    3.43    0.50
 -13   5   0    2.99    0.55
  15  -5   0   20.87    1.28
  15  -5   0   22.39    1.18
  15  -5   0   19.97    1.35
 -15  -5   0   21.94    0.89
  15   5   0   22.45    1.17
 -15   5   0   22.35    1.11
 -15   5   0   22.16    1.18
  15   5   0   20.73    1.00
  17  -5   0    0.08    0.56
 -17  -5   0    0.32    0.25
  17  -5   0    0.57    0.40
  17  -5   0    0.79    0.50
  17   5   0    0.37    0.37
  17   5   0    0.42    0.49
  17   5   0   -0.14    0.45
 -19  -5   0   18.68    0.92
  19  -5   0   21.14    1.46
  19  -5   0   17.22    1.27
  19  -5   0   19.74    1.51
  19   5   0   16.86    1.23
  19   5   0   16.27    1.23
  19   5   0   17.40    1.33
  21  -5   0    2.55    0.82
  21  -5   0    0.26    0.85
  21  -5   0    0.63    0.78
 -21  -5   0    0.96    0.40
  21   5   0    1.23    0.54
  21   5   0   -0.26    0.70
  21   5   0    1.85    0.80
   0  -6   0  318.53    7.64
   0  -6   0  308.71    7.63
   0  -6   0  314.29    7.65
   0  -6   0  310.94    7.72
   2  -6   0    9.55    0.46
   2  -6   0    9.26    0.46
   2  -6   0   11.19    0.57
   4  -6   0  127.61    3.44
   4  -6   0  132.53    3.60
   4  -6   0  126.86    3.49
  -4   6   0  132.55    3.52
   6  -6   0   24.52    0.96
   6  -6   0   22.81    1.06
   6  -6   0   23.59    1.00
  -6   6   0   23.72    1.01
  -6   6   0   23.55    0.92
   8  -6   0   97.61    2.98
   8  -6   0   99.80    3.06
   8  -6   0  101.13    2.89
  -8   6   0  100.82    2.86
  10  -6   0    4.70    0.76
  10  -6   0    3.62    0.50
 -10  -6   0    3.43    0.26
  10  -6   0    4.75    0.58
 -10   6   0    4.07    0.55
  10   6   0    2.82    0.43
  12  -6   0   59.92    2.33
  12  -6   0   62.14    2.15
  12  -6   0   62.88    2.27
 -12  -6   0   62.79    1.77
 -12   6   0   63.97    2.22
  12   6   0   64.51    2.07
  12   6   0   59.84    1.88
  12   6   0   65.04    1.85
 -12   6   0   64.35    2.10
  14  -6   0    9.80    0.89
 -14  -6   0    7.89    0.47
  14  -6   0    8.59    0.80
  14  -6   0    9.27    1.00
 -14   6   0    9.51    0.79
 -14   6   0    8.73    0.71
  14   6   0    8.49    0.84
  16  -6   0    9.22    0.95
  16  -6   0    9.75    1.09
 -16  -6   0   10.44    0.59
  16  -6   0   11.29    0.94
  16   6   0   11.18    0.76
  16   6   0    9.21    0.89
  16   6   0    8.66    0.97
 -18  -6   0    7.80    0.61
  18  -6   0    9.34    1.23
  18  -6   0    7.49    0.95
  18  -6   0    6.26    0.86
 -18   6   0    6.65    0.73
  18   6   0    5.58    0.72
  18   6   0    7.03    1.06
  20  -6   0    8.56    1.11
  20  -6   0    8.50    1.10
 -20  -6   0    6.96    0.66
  20  -6   0    5.78    1.11
  20   6   0    7.09    1.20
  20   6   0    6.37    1.01
  -1  -7   0   58.33    1.57
   1  -7   0   56.73    1.63
   1  -7   0   58.38    1.74
   1  -7   0   58.71    1.63
  -1  -7   0   59.01    1.55
   1  -7   0   58.51    1.65
   3  -7   0   76.22    2.16
   3  -7   0   77.08    2.19
   3  -7   0   76.52    2.30
   5  -7   0   50.22    1.65
   5  -7   0   51.66    1.77
   5  -7   0   50.34    1.61
   7  -7   0   75.85    2.29
   7  -7   0   74.68    2.46
   7  -7   0   75.02    2.35
  -7   7   0   74.73    2.24
  -7   7   0   74.56    2.36
   9  -7   0   10.79    0.72
   9  -7   0   10.29    0.86
   9  -7   0    9.65    0.71
  -9   7   0   10.17    0.72
  -9   7   0    9.06    0.99
  11  -7   0   39.58    1.76
  11  -7   0   37.79    1.54
  11  -7   0   39.96    1.64
 -11   7   0   40.54    1.52
 -13  -7   0    8.82    0.43
  13  -7   0    9.41    0.80
  13  -7   0    9.65    1.00
  13  -7   0    8.77    0.87
 -13   7   0    9.62    0.73
  13   7   0    7.49    0.64
  15  -7   0   20.61    1.20
 -15  -7   0   21.29    0.81
  15  -7   0   22.02    1.31
  15  -7   0   21.36    1.44
  15   7   0   20.99    1.12
  17  -7   0    2.12    0.83
 -17  -7   0    2.58    0.35
  17  -7   0    3.50    0.61
  17  -7   0    1.10    0.50
  17   7   0    2.65    0.48
  17   7   0    3.27    1.16
 -17   7   0    2.42    0.50
  19  -7   0   13.06    1.17
  19  -7   0   11.70    1.15
  19  -7   0   13.62    1.61
 -19  -7   0   11.42    0.71
  19   7   0   10.24    0.82
  19   7   0   13.85    1.27
   0  -8   0  105.01    2.80
   0  -8   0  103.02    2.68
   0  -8   0  102.98    2.71
   2  -8   0    1.64    0.24
   2  -8   0    1.73    0.25
   2  -8   0    1.81    0.35
   2  -8   0    1.77    0.27
   4  -8   0   26.34    1.02
   4  -8   0   27.25    1.17
   4  -8   0   27.38    1.03
   6  -8   0    6.70    0.75
   6  -8   0    6.84    0.55
   6  -8   0    6.45    0.52
   8  -8   0   30.32    1.43
   8  -8   0   31.19    1.29
   8  -8   0   30.80    1.25
  10  -8   0    1.15    0.47
  10  -8   0    0.59    0.33
  10  -8   0    1.37    0.40
 -10   8   0    1.37    0.37
  12  -8   0   21.50    1.15
  12  -8   0   21.43    1.33
  12  -8   0   20.97    1.25
 -12   8   0   21.39    1.08
  14  -8   0    1.40    0.69
  14  -8   0    2.84    0.52
  14  -8   0    3.11    0.61
 -16  -8   0    2.69    0.34
  16  -8   0    3.47    0.66
  16  -8   0    2.54    0.58
  16  -8   0    3.82    0.84
 -16   8   0    2.61    0.51
  16   8   0    2.73    0.46
   1  -9   0   26.27    0.90
  -1  -9   0   29.87    0.95
  -1  -9   0   27.40    0.87
   1  -9   0   27.93    0.95
   1  -9   0   27.25    1.04
   3  -9   0   23.32    0.89
   3  -9   0   23.61    0.93
   3  -9   0   25.00    1.08
   3  -9   0   24.12    0.90
   5  -9   0   19.16    1.05
   5  -9   0   20.07    0.88
   5  -9   0   20.35    0.96
   7  -9   0   33.86    1.33
   7  -9   0   33.89    1.51
   7  -9   0   32.91    1.31
   9  -9   0    6.95    1.08
   9  -9   0    5.49    0.66
   9  -9   0    6.45    0.64
  11  -9   0   14.40    0.92
  11  -9   0   15.82    1.01
  11  -9   0   13.15    1.14
  13  -9   0    5.98    0.80
  13  -9   0    7.22    1.12
  13  -9   0    6.09    0.74
  15  -9   0    8.55    0.90
  15  -9   0   10.61    1.01
  15  -9   0    9.32    1.34
   0 -10   0   58.74    1.82
   0 -10   0   57.47    1.61
   2 -10   0   16.65    0.70
   2 -10   0   13.99    0.85
   2 -10   0   16.79    0.68
   2 -10   0   15.47    0.70
   4 -10   0   40.25    1.37
   4 -10   0   42.61    1.39
   4 -10   0   39.19    1.55
   4 -10   0   42.15    1.52
   6 -10   0   18.06    0.88
   6 -10   0   17.14    0.88
   6 -10   0   18.75    0.91
   6 -10   0   17.21    1.05
   8 -10   0   23.92    1.31
   8 -10   0   24.53    1.13
   8 -10   0   22.55    1.09
  10 -10   0    8.56    0.82
  10 -10   0    6.71    0.95
  10 -10   0    7.99    0.74
  12 -10   0   16.75    1.35
  12 -10   0   17.17    1.06
   1 -11   0   11.47    0.54
   1 -11   0   12.43    0.59
   3 -11   0    7.60    0.50
   3 -11   0    5.28    0.67
   3 -11   0    6.15    0.47
   3 -11   0    6.01    0.51
   5 -11   0    5.93    0.55
   5 -11   0    5.02    0.57
   5 -11   0    8.15    0.58
   5 -11   0    7.68    0.79
   7 -11   0   11.74    0.81
   7 -11   0   12.07    0.78
   7 -11   0   11.41    0.97
   7 -11   0   12.84    0.79
   9 -11   0    3.77    0.57
   9 -11   0    3.32    0.55
   9 -11   0    4.08    0.72
   2 -12   0    4.32    0.47
   2 -12   0    4.22    0.41
   4 -12   0   11.09    0.88
   4 -12   0    8.65    0.65
   4 -12   0    9.87    0.60
   4 -12   0    8.57    0.62
   6 -12   0    5.65    0.61
   6 -12   0    5.54    0.71
   6 -12   0    4.07    0.65
 -22   0   1   15.62    1.12
 -22   0   1   16.22    1.00
  22   0  -1   14.84    1.50
  22   0  -1   18.39    1.40
  20   0  -1    3.67    1.37
  20   0  -1    3.27    0.68
 -20   0   1    3.76    0.55
  18   0  -1   34.93    1.74
 -18   0   1   37.90    1.56
  18   0  -1   37.57    1.68
 -18   0   1   36.86    1.47
 -16   0   1    7.36    0.65
 -16   0   1    7.69    0.62
  16   0  -1    8.09    0.90
  16   0  -1    6.39    0.79
  16   0  -1    7.27    1.05
 -14   0   1  109.46    3.19
 -14   0   1  107.87    3.25
  14   0  -1  115.23    3.33
  14   0  -1  110.39    3.41
  12   0  -1    8.79    0.72
  12   0  -1    9.97    0.88
 -12   0   1   10.57    0.62
 -12   0   1    9.69    0.64
  10   0  -1   88.22    2.59
  10   0  -1   91.10    2.67
 -10   0   1   86.93    2.58
 -10   0   1   88.92    2.52
   8   0  -1  207.14    5.14
  -8   0   1  192.26    5.07
  -8   0   1  191.86    5.01
   8   0  -1  191.45    5.05
   6   0  -1  129.09    3.35
  -6   0   1  125.18    3.32
   6   0  -1  123.34    3.30
  -6   0   1  124.95    3.28
  -4   0   1  199.32    4.95
  -4   0   1  204.26    4.98
   4   0  -1  193.28    5.09
   4   0  -1  192.45    4.95
  -2   0   1  150.11    3.80
   2   0  -1  147.68    3.77
   2   0  -1  149.43    3.79
   0   0   1  295.22    7.51
   0   0  -1  296.04    7.56
   0   0   1  296.96    7.46
   2   0   1   57.58    1.50
  -2   0  -1   56.82    1.51
   2   0   1   57.61    1.51
  -4   0  -1 1000.00   24.94
  -6   0  -1   29.28    1.04
   6   0   1   28.90    0.98
   6   0   1   28.47    0.93
  -6   0  -1   28.26    0.92
   6   0   1   28.38    0.98
   8   0   1  179.56    4.64
  -8   0  -1  173.94    4.75
   8   0   1  176.42    4.65
  -8   0  -1  181.20    4.56
   8   0   1  174.87    4.57
  10   0   1    9.41    0.56
  10   0   1    9.28    0.63
  10   0   1    8.80    0.59
 -10   0  -1    9.30    0.53
  12   0   1  208.07    5.53
  12   0   1  204.66    5.41
 -12   0  -1  202.72    5.36
  12   0   1  203.89    5.51
  14   0   1    0.05    0.31
  14   0   1    0.01    0.27
  14   0   1    0.43    0.34
 -16   0  -1   64.45    2.12
  16   0   1   64.89    2.36
  16   0   1   64.65    2.23
  16   0   1   64.63    2.32
  18   0   1    2.27    0.62
  18   0   1    1.47    0.52
 -18   0  -1    1.83    0.41
  20   0   1   16.86    1.35
 -20   0  -1   13.62    0.90
  20   0   1   14.93    1.40
  22   0   1    0.05    0.75
 -22   0  -1    0.33    0.41
  22   0   1    1.46    0.65
  23  -1  -1    3.69    0.97
 -23  -1   1    6.61    0.77
  23  -1  -1    4.19    0.88
  23   1  -1    4.09    1.07
  23   1  -1    4.90    0.92
 -23   1   1    5.90    0.91
  21  -1  -1    3.98    0.90
  21  -1  -1    3.93    0.76
 -21  -1   1    5.95    0.79
 -21  -1   1    3.17    0.48
 -21   1   1    3.68    0.54
  21   1  -1    3.03    0.80
  21   1  -1    5.03    0.86
 -21   1   1    3.13    0.63
  19  -1  -1   25.66    1.62
  19  -1  -1   28.48    1.46
 -19  -1   1   24.97    1.18
 -19  -1   1   25.08    1.24
  19   1  -1   23.59    1.50
 -19   1   1   26.52    1.24
 -19   1   1   25.66    1.31
  19   1  -1   29.02    1.48
 -17  -1   1    0.13    0.27
 -17  -1   1    0.27    0.30
  17  -1  -1   -0.32    0.40
  17  -1  -1    0.00    0.36
  17  -1  -1    0.22    0.48
  17   1  -1    0.30    0.43
 -17   1   1    0.57    0.29
 -17   1   1   -0.17    0.32
  17   1  -1    0.23    0.41
  17   1  -1    0.14    0.48
 -15  -1   1   74.76    2.38
  15  -1  -1   73.20    2.54
  15  -1  -1   73.84    2.66
  15  -1  -1   72.81    2.58
 -15  -1   1   73.25    2.53
 -15   1   1   75.87    2.46
  15   1  -1   78.02    2.50
 -15   1   1   74.26    2.37
  15   1  -1   75.31    2.53
  13  -1  -1    2.32    0.42
 -13  -1   1    2.64    0.41
  13  -1  -1    2.93    0.53
 -13  -1   1    2.61    0.39
  13   1  -1    2.90    0.49
 -13   1   1    1.94    0.36
  13   1  -1    2.13    0.46
 -13   1   1    2.46    0.40
  11  -1  -1  138.93    3.84
 -11  -1   1  140.65    3.79
 -11  -1   1  136.65    3.73
  11  -1  -1  134.39    3.92
 -11   1   1  141.06    3.78
  11   1  -1  138.97    3.82
  11   1  -1  138.13    3.86
  -9  -1   1   12.19    0.60
   9  -1  -1   12.44    0.72
  -9  -1   1   12.19    0.62
   9  -1  -1   12.25    0.66
   9   1  -1   12.51    0.69
  -9   1   1   11.55    0.60
   9   1  -1   11.94    0.64
  -9   1   1   12.64    0.68
   7  -1  -1  350.23    8.64
   7  -1  -1  356.92    8.72
  -7  -1   1  347.72    8.61
  -7  -1   1  349.81    8.59
   7   1  -1  339.36    8.62
   7   1  -1  346.06    8.63
  -7   1   1  342.76    8.59
  -7   1   1  342.66    8.68
   5  -1  -1   47.68    1.40
   5  -1  -1   47.03    1.45
  -5  -1   1   46.39    1.39
  -5  -1   1   46.51    1.39
   5   1  -1   45.88    1.43
  -5   1   1   48.51    1.45
   5   1  -1   48.59    1.41
  -5   1   1   46.63    1.38
   3  -1  -1  393.85    9.30
  -3  -1   1  371.82    9.28
  -3  -1   1  380.90    9.33
   3  -1  -1  385.88    9.75
  -3   1   1  398.02    9.31
   3   1  -1  346.31    9.44
   3   1  -1  363.96    9.66
  -3   1   1  393.34    9.62
  -1  -1   1   34.97    0.94
  -1  -1   1   36.38    0.92
   1  -1  -1   32.43    1.00
   1   1  -1   33.45    0.92
  -1   1   1   32.49    1.02
   1   1  -1   34.36    0.93
  -1   1   1   34.26    1.03
   1  -1   1  439.18   11.12
   1  -1   1  466.87   11.33
  -1   1  -1  426.89   11.27
  -1   1  -1  453.82   11.35
   3  -1   1   45.15    1.30
   3  -1   1   44.85    1.28
  -3  -1  -1   46.17    1.25
   3   1   1   47.44    1.24
  -3   1  -1   44.85    1.32
   5  -1   1  330.28    8.01
  -5  -1  -1  326.17    8.02
  -5  -1  -1  324.64    7.93
   5  -1   1  321.53    8.05
   5  -1   1  321.95    8.06
  -5   1  -1  317.88    7.99
  -5   1  -1  335.39    8.13
   5   1   1  324.88    8.02
   5   1   1  324.11    7.98
  -7  -1  -1   34.77    1.05
   7  -1   1   33.46    1.11
   7  -1   1   32.74    1.17
   7  -1   1   34.60    1.18
  -7  -1  -1   30.48    1.15
  -7   1  -1   33.22    1.25
   7   1   1   33.85    1.10
   7   1   1   32.65    1.05
  -7   1  -1   33.68    1.09
   7   1   1   33.13    1.10
   9  -1   1   93.78    2.59
   9  -1   1   87.64    2.65
   9  -1   1   91.26    2.66
  -9  -1  -1   92.86    2.50
  -9   1  -1   90.80    2.55
   9   1   1   89.94    2.59
   9   1   1   89.99    2.67
   9   1   1   91.57    2.53
  11  -1   1   32.41    1.32
  11  -1   1   33.58    1.26
 -11  -1  -1   33.67    1.17
  11  -1   1   34.62    1.36
  11   1   1   32.66    1.28
  11   1   1   33.64    1.21
  11   1   1   34.01    1.28
 -11   1  -1   33.05    1.21
  13  -1   1   29.60    1.55
  13  -1   1   34.57    1.35
 -13  -1  -1   33.38    1.23
  13  -1   1   33.67    1.45
  13   1   1   34.32    1.31
  13   1   1   33.00    1.37
 -13   1  -1   33.52    1.29
  15  -1   1    4.34    0.68
  15  -1   1    6.34    0.68
 -15  -1  -1    5.68    0.55
  15  -1   1    5.28    0.69
  15   1   1    5.31    0.71
  15   1   1    5.60    0.63
  15   1   1    6.10    0.66
 -15   1  -1    6.06    0.56
 -17  -1  -1    8.52    0.68
  17  -1   1    9.16    1.01
  17  -1   1   10.31    0.87
  17   1   1   12.18    1.02
 -17   1  -1   11.66    0.77
  17   1   1   10.60    0.84
  17   1   1   10.64    0.89
 -19  -1  -1   14.12    0.84
  19  -1   1   11.54    1.01
  19  -1   1   11.01    1.23
  19   1   1   13.85    1.07
 -19   1  -1   12.99    0.85
  19   1   1   10.47    1.13
  21  -1   1    1.51    0.59
 -21  -1  -1    0.85    0.37
  21  -1   1   -0.61    0.68
  21   1   1    0.11    0.51
 -21   1  -1    0.43    0.39
  21   1   1    1.15    0.97
  21   1   1    0.82    0.54
  22  -2  -1   11.94    1.39
 -22  -2   1   10.91    0.84
  22  -2  -1   11.58    1.28
  22  -2  -1   12.01    1.27
 -22   2   1   10.54    1.05
  22   2  -1   10.28    1.40
 -22   2   1   11.11    0.91
  22   2  -1   12.23    1.18
  22   2  -1   10.45    1.28
  20  -2  -1    6.11    0.96
  20  -2  -1    3.05    0.66
  20  -2  -1    3.15    0.80
 -20  -2   1    4.02    0.56
 -20  -2   1    5.06    0.66
 -20   2   1    3.65    0.66
  20   2  -1    2.66    0.73
 -20   2   1    4.77    0.64
  20   2  -1    2.98    0.79
  18  -2  -1   21.48    1.28
  18  -2  -1   21.81    1.44
  18  -2  -1   22.80    1.38
 -18  -2   1   21.71    1.07
 -18  -2   1   22.52    1.06
 -18   2   1   21.56    1.11
  18   2  -1   23.82    1.33
  18   2  -1   22.48    1.33
  18   2  -1   22.90    1.26
 -18   2   1   22.92    1.22
  16  -2  -1    1.07    0.48
 -16  -2   1    0.56    0.26
  16  -2  -1    0.11    0.49
  16  -2  -1    0.01    0.39
  16   2  -1    1.06    0.43
 -16   2   1    0.69    0.45
  16   2  -1    0.97    0.45
  16   2  -1    0.32    0.42
 -16   2   1    0.23    0.26
  14  -2  -1   65.62    2.35
 -14  -2   1   64.69    2.03
  14  -2  -1   59.96    2.42
 -14  -2   1   66.04    2.06
  14  -2  -1   65.07    2.22
 -14   2   1   64.68    2.21
  14   2  -1   65.23    2.19
 -14   2   1   64.19    2.11
  14   2  -1   65.92    2.21
  12  -2  -1    3.68    0.53
 -12  -2   1    3.23    0.42
  12  -2  -1    2.07    0.49
 -12  -2   1    2.10    0.32
  12   2  -1    3.58    0.53
  12   2  -1    2.87    0.43
 -12   2   1    2.51    0.43
 -12   2   1    3.30    0.40
  10  -2  -1   28.74    1.22
 -10  -2   1   28.07    1.04
 -10  -2   1   29.01    1.03
  10  -2  -1   28.41    1.13
  10   2  -1   27.98    1.11
 -10   2   1   29.23    1.09
  10   2  -1   27.91    1.11
 -10   2   1   30.98    1.19
  -8  -2   1   74.26    2.06
   8  -2  -1   72.77    2.15
   8  -2  -1   71.57    2.24
  -8  -2   1   71.04    2.05
   8   2  -1   71.81    2.14
  -8   2   1   70.93    2.10
  -8   2   1   75.72    2.22
  -6  -2   1   31.95    1.00
   6  -2  -1   31.25    1.07
  -6  -2   1   30.23    1.02
   6   2  -1   30.76    1.12
  -6   2   1   30.25    1.02
   6   2  -1   30.06    1.04
  -6   2   1   31.63    1.11
  -4  -2   1   18.97    0.75
   4  -2  -1   20.58    0.70
   4  -2  -1   18.84    0.74
  -4  -2   1   19.78    0.69
  -4   2   1   18.79    0.73
   4   2  -1   18.45    0.71
   4   2  -1   18.39    0.69
  -4   2   1   19.67    0.67
   2  -2  -1   31.71    1.06
   2  -2  -1   36.00    1.06
  -2  -2   1   35.28    0.96
  -2  -2   1   34.45    0.93
   2   2  -1   34.28    0.92
  -2   2   1   34.69    0.97
  -2   2   1   35.63    1.05
   2   2  -1   31.18    0.99
   0  -2   1  228.88    5.71
   0  -2  -1  220.68    5.51
   0  -2  -1  228.42    5.49
   0  -2   1  217.74    5.61
   0   2  -1  223.09    5.73
   0   2   1  211.16    5.46
   0   2  -1  220.64    5.57
   0   2   1  221.13    5.46
   2  -2   1    2.96    0.23
  -2  -2  -1    3.24    0.16
  -2   2  -1    3.48    0.26
   2   2   1    3.29    0.15
   2   2   1    3.45    0.15
  -4  -2  -1  349.93    8.44
   4  -2   1  341.53    8.43
   4  -2   1  330.71    8.37
   4  -2   1  332.29    8.42
   4   2   1  340.61    8.47
  -4   2  -1  349.56    8.48
   6  -2   1    4.95    0.38
  -6  -2  -1    4.99    0.28
   6  -2   1    5.08    0.43
   6  -2   1    5.18    0.41
   6   2   1    4.86    0.31
   6   2   1    4.92    0.34
   6   2   1    5.00    0.32
  -6   2  -1    5.08    0.36
  -6   2  -1    4.97    0.47
  -8  -2  -1  133.49    3.45
   8  -2   1  135.22    3.69
   8  -2   1  135.98    3.61
   8  -2   1  134.54    3.69
   8   2   1  130.99    3.52
   8   2   1  135.19    3.48
  -8   2  -1  131.99    3.57
  10  -2   1    0.62    0.25
  10  -2   1    0.24    0.26
  10  -2   1    0.65    0.25
 -10  -2  -1    0.78    0.19
 -10   2  -1    0.53    0.22
  10   2   1    0.62    0.20
  10   2   1    0.50    0.26
  10   2   1    0.44    0.20
  12  -2   1  115.44    3.47
  12  -2   1  121.69    3.40
 -12  -2  -1  120.52    3.22
  12  -2   1  119.92    3.52
  12   2   1  113.44    3.32
  12   2   1  115.44    3.32
  12   2   1  115.92    3.26
 -12   2  -1  115.66    3.32
  14  -2   1    0.92    0.43
  14  -2   1    1.32    0.43
  14  -2   1    1.61    0.41
 -14  -2  -1    1.38    0.30
  14   2   1    1.46    0.41
 -14   2  -1    0.94    0.32
  14   2   1    1.19    0.35
  14   2   1    1.70    0.41
  16  -2   1   43.05    1.77
  16  -2   1   40.67    1.87
 -16  -2  -1   40.75    1.49
  16  -2   1   43.44    1.73
  16   2   1   42.39    1.64
  16   2   1   41.11    1.64
  16   2   1   39.87    1.68
 -16   2  -1   41.06    1.60
  18  -2   1    1.26    0.59
 -18  -2  -1    0.22    0.30
  18  -2   1    1.53    0.50
 -18   2  -1    0.43    0.31
  18   2   1    0.35    0.47
  18   2   1    0.83    0.42
  18   2   1    0.00    0.52
  20  -2   1    9.45    1.04
  20  -2   1    9.25    1.26
 -20  -2  -1   10.91    0.80
  20   2   1   10.81    1.06
 -20   2  -1   10.38    0.83
  20   2   1    9.59    1.15
  20   2   1   11.86    0.92
  22  -2   1    0.88    0.60
  22  -2   1    0.73    0.80
 -22  -2  -1   -0.09    0.38
  22   2   1    0.13    0.82
  22   2   1   -0.24    0.59
  21  -3  -1    3.99    0.88
  21  -3  -1    3.21    0.70
  21  -3  -1    3.39    0.73
 -21  -3   1    4.55    0.63
 -21   3   1    2.45    0.62
  21   3  -1    4.58    0.67
  21   3  -1    2.88    0.77
  21   3  -1    4.47    0.87
 -19  -3   1   22.81    1.05
 -19  -3   1   23.69    1.09
  19  -3  -1   22.15    1.54
  19  -3  -1   20.70    1.35
  19  -3  -1   23.63    1.36
  19   3  -1   20.86    1.25
 -19   3   1   22.35    1.28
  19   3  -1   22.57    1.41
  19   3  -1   21.87    1.37
  17  -3  -1    3.50    0.73
  17  -3  -1    3.05    0.60
  17  -3  -1    2.71    0.59
 -17  -3   1    2.68    0.43
 -17  -3   1    3.18    0.45
 -17   3   1    1.69    0.47
  17   3  -1    2.65    0.59
  17   3  -1    3.25    0.64
  17   3  -1    2.54    0.56
  15  -3  -1   92.31    2.93
  15  -3  -1   88.88    3.10
  15  -3  -1   89.83    3.12
 -15  -3   1   92.67    2.70
 -15  -3   1   90.46    2.68
  15   3  -1   93.17    2.89
 -15   3   1   90.64    2.93
 -15   3   1   89.76    2.80
  15   3  -1   93.56    2.93
 -13  -3   1    6.17    0.46
  13  -3  -1    6.05    0.73
  13  -3  -1    5.54    0.62
  13  -3  -1    5.27    0.75
 -13  -3   1    5.35    0.48
  13   3  -1    5.96    0.64
 -13   3   1    5.23    0.62
 -13   3   1    4.68    0.67
  13   3  -1    6.15    0.66
  11  -3  -1  140.97    3.87
 -11  -3   1  138.14    3.68
 -11  -3   1  135.55    3.68
  11  -3  -1  140.89    4.13
  11  -3  -1  133.87    3.99
 -11   3   1  139.79    3.94
  11   3  -1  134.26    3.83
  11   3  -1  139.87    3.79
 -11   3   1  138.46    3.80
  -9  -3   1    1.18    0.23
  -9  -3   1    0.84    0.21
   9  -3  -1    1.02    0.26
   9  -3  -1    0.60    0.31
   9   3  -1    1.48    0.33
   9   3  -1    1.83    0.33
  -9   3   1    0.51    0.18
  -9   3   1    1.20    0.31
  -7  -3   1  335.38    8.52
  -7  -3   1  346.21    8.59
   7  -3  -1  347.49    8.68
   7  -3  -1  351.38    8.82
  -7   3   1  347.68    8.65
   7   3  -1  354.88    8.77
  -7   3   1  345.50    8.77
   7   3  -1  352.34    8.64
   5  -3  -1    1.51    0.28
   5  -3  -1    2.03    0.36
  -5  -3   1    1.68    0.28
  -5  -3   1    2.08    0.33
   5   3  -1    1.48    0.26
  -5   3   1    1.47    0.26
   5   3  -1    1.43    0.43
  -5   3   1    1.08    0.27
   3  -3  -1  493.81   12.19
  -3  -3   1  502.79   12.38
   3  -3  -1  493.54   12.29
  -3  -3   1  497.78   12.16
  -3   3   1  493.25   12.31
  -3   3   1  498.65   12.19
   3   3  -1  460.08   12.30
   1  -3  -1   26.00    0.86
  -1  -3   1   25.97    0.77
   1  -3  -1   25.38    0.77
  -1  -3   1   25.26    0.74
   1   3  -1   24.98    0.76
   1   3  -1   27.00    0.78
  -1   3   1   26.22    0.83
  -1   3   1   25.27    0.74
   1  -3   1  355.19    8.91
   1  -3   1  369.39    8.82
  -1   3  -1  374.81    9.00
   1   3   1  313.82    8.57
   3  -3   1   27.46    0.94
   3  -3   1   26.46    0.89
   3  -3   1   26.56    0.91
  -3   3  -1   27.79    0.97
   5  -3   1  397.67   10.12
   5  -3   1  408.61   10.12
   5  -3   1  412.62   10.06
  -5   3  -1  404.78   10.04
   5   3   1  410.02   10.05
  -5   3  -1  416.84   10.22
  -7  -3  -1   23.57    0.74
   7  -3   1   22.99    0.98
   7  -3   1   24.58    0.92
   7  -3   1   22.69    0.96
   7   3   1   23.55    0.78
  -7   3  -1   23.09    0.89
   7   3   1   23.36    0.80
   7   3   1   23.52    0.78
  -9  -3  -1   93.11    2.53
   9  -3   1   94.92    2.75
   9  -3   1   95.31    2.83
  -9   3  -1   93.23    2.71
   9   3   1   96.61    2.61
   9   3   1   98.19    2.60
   9   3   1   96.86    2.62
  11  -3   1   65.53    2.09
  11  -3   1   63.44    2.17
  11  -3   1   62.36    2.19
 -11  -3  -1   64.02    1.87
 -11   3  -1   64.48    2.04
  11   3   1   66.67    1.95
  11   3   1   64.87    1.96
  11   3   1   64.88    1.98
  13  -3   1   42.21    1.69
  13  -3   1   42.93    1.76
 -13  -3  -1   43.14    1.41
  13   3   1   41.44    1.63
  13   3   1   42.86    1.55
  13   3   1   43.26    1.51
 -13   3  -1   41.68    1.55
  15  -3   1   10.59    0.87
 -15  -3  -1    9.70    0.60
  15  -3   1    9.21    0.81
  15  -3   1    7.98    0.98
 -15   3  -1    9.46    0.70
  15   3   1    8.89    0.75
  15   3   1   10.14    0.74
  15   3   1    8.17    0.78
  17  -3   1   14.96    1.05
 -17  -3  -1   14.69    0.80
  17  -3   1   14.58    1.21
  17  -3   1   14.51    1.03
  17   3   1   13.98    0.88
  17   3   1   14.51    1.12
  17   3   1   12.73    1.02
  19  -3   1   13.63    1.09
  19  -3   1   12.41    1.09
  19  -3   1   13.87    1.30
 -19  -3  -1   12.32    0.79
 -19   3  -1   14.03    1.30
  19   3   1   10.98    1.09
  19   3   1   11.63    1.04
  21  -3   1    0.60    0.59
 -21  -3  -1    0.72    0.38
  21  -3   1    0.64    0.77
  21   3   1    1.71    0.67
  21   3   1   -0.12    0.64
  21   3   1    1.27    0.55
 -22  -4   1    9.34    0.79
  22  -4  -1    9.89    1.42
  22  -4  -1   11.35    1.50
  22   4  -1   11.73    1.36
 -22   4   1   11.65    1.04
  22   4  -1   10.05    1.15
  22   4  -1    9.93    1.37
  20  -4  -1    7.15    1.03
  20  -4  -1    5.17    0.95
 -20  -4   1    6.14    0.64
  20  -4  -1    5.95    0.92
 -20   4   1    6.32    0.85
  20   4  -1    5.69    0.86
  20   4  -1    5.68    0.89
  18  -4  -1   22.10    1.49
  18  -4  -1   21.67    1.37
 -18  -4   1   21.72    1.02
  18  -4  -1   21.48    1.29
  18   4  -1   17.88    1.66
  18   4  -1   24.79    1.26
 -18   4   1   20.85    1.21
  18   4  -1   20.68    1.28
  16  -4  -1    1.55    0.50
 -16  -4   1    1.96    0.35
  16  -4  -1    1.21    0.57
 -16  -4   1    1.23    0.30
  16  -4  -1    1.08    0.48
 -16   4   1    1.16    0.41
  16   4  -1    1.91    0.50
  16   4  -1    1.32    0.50
  16   4  -1    1.15    0.47
  14  -4  -1   62.97    2.38
  14  -4  -1   62.75    2.17
  14  -4  -1   60.62    2.45
 -14  -4   1   61.97    1.88
 -14  -4   1   60.52    1.91
 -14   4   1   60.80    2.06
 -14   4   1   61.72    2.20
  14   4  -1   61.52    2.08
  14   4  -1   61.37    2.48
  12  -4  -1   12.08    0.79
  12  -4  -1   12.74    0.96
  12  -4  -1   12.27    0.92
 -12  -4   1   11.66    0.61
 -12  -4   1   12.06    0.60
  12   4  -1   13.11    0.87
 -12   4   1   10.95    0.84
 -10  -4   1   40.10    1.28
  10  -4  -1   38.16    1.61
  10  -4  -1   38.89    1.44
 -10  -4   1   41.14    1.25
 -10   4   1   40.22    1.52
 -10   4   1   39.03    1.39
  10   4  -1   40.41    1.53
  10   4  -1   40.72    1.39
  -8  -4   1   90.08    2.47
   8  -4  -1   91.18    2.82
   8  -4  -1   89.45    2.74
  -8  -4   1   88.33    2.41
   8  -4  -1   92.17    2.61
  -8   4   1   91.98    2.70
   8   4  -1   87.28    2.61
   8   4  -1   89.22    2.58
  -8   4   1   92.40    2.57
   6  -4  -1   51.75    1.59
   6  -4  -1   49.50    1.74
   6  -4  -1   52.58    1.71
  -6  -4   1   51.42    1.56
  -6   4   1   50.59    1.56
   6   4  -1   53.89    1.51
  -4  -4   1   34.13    1.10
  -4  -4   1   38.94    1.15
   4  -4  -1   35.21    1.23
   4  -4  -1   35.88    1.14
  -4   4   1   36.46    1.22
  -4   4   1   36.14    1.11
   4   4  -1   34.79    1.02
   2  -4  -1   77.50    2.06
  -2  -4   1   79.91    2.03
  -2  -4   1   77.44    1.98
   2  -4  -1   79.17    2.17
  -2   4   1   79.77    2.15
   2   4  -1   77.11    2.02
   2   4  -1   72.60    2.05
  -2   4   1   77.89    2.04
   0  -4   1  260.92    6.33
   0  -4   1  268.32    6.34
   0  -4  -1  234.38    6.35
   0  -4  -1  258.71    6.34
   0   4   1  259.49    6.29
   0   4  -1  263.95    6.39
   0   4   1  259.50    6.34
   2  -4   1    5.87    0.41
   2  -4   1    6.59    0.38
   2  -4   1    6.21    0.37
   2  -4   1    6.83    0.37
  -2   4  -1    6.21    0.43
   4  -4   1  235.01    5.95
   4  -4   1  233.69    5.99
   4  -4   1  236.27    6.03
  -4   4  -1  239.59    6.11
   6  -4   1   24.68    0.94
   6  -4   1   26.21    1.01
   6  -4   1   24.88    1.03
  -8  -4  -1  143.40    3.60
   8  -4   1  141.56    4.33
   8  -4   1  143.96    4.01
   8  -4   1  143.18    3.96
  -8   4  -1  141.87    4.16
  -8   4  -1  143.45    3.86
   8   4   1  142.49    3.65
   8   4   1  144.38    3.63
 -10  -4  -1    2.93    0.27
  10  -4   1    2.25    0.45
  10  -4   1    3.38    0.45
  10  -4   1    2.55    0.40
  10   4   1    2.77    0.32
 -10   4  -1    2.68    0.43
  10   4   1    2.56    0.38
  10   4   1    2.54    0.36
  12  -4   1   86.76    3.44
  12  -4   1   87.29    2.94
 -12  -4  -1   93.48    2.52
  12  -4   1   91.37    2.97
  12   4   1   92.10    2.64
 -12   4  -1   89.33    2.75
  12   4   1   91.87    2.62
  12   4   1   95.76    2.61
  14  -4   1    0.98    0.37
 -14  -4  -1    0.75    0.22
  14  -4   1    0.82    0.51
  14  -4   1    0.23    0.34
  14   4   1    0.46    0.30
  14   4   1    0.49    0.33
  14   4   1    1.15    0.33
 -14   4  -1    0.06    0.26
  16  -4   1   38.55    1.81
 -16  -4  -1   34.55    1.29
  16  -4   1   38.19    1.68
  16  -4   1   36.06    1.61
  16   4   1   34.35    1.49
  16   4   1   36.31    1.42
  16   4   1   35.19    1.47
  18  -4   1    1.33    0.70
 -18  -4  -1    1.66    0.37
  18  -4   1    0.72    0.51
  18  -4   1    1.71    0.60
  18   4   1    1.35    0.56
  18   4   1    2.63    0.54
  18   4   1    3.39    0.88
  20  -4   1   12.79    1.38
  20  -4   1   10.38    1.14
 -20  -4  -1    9.89    0.76
  20  -4   1   10.10    1.07
  20   4   1    8.73    1.11
  20   4   1   11.64    1.14
  20   4   1   11.86    0.92
  21  -5  -1    1.07    0.71
 -21  -5   1    1.84    0.42
  21  -5  -1    2.60    0.79
  21  -5  -1    2.38    0.97
  21   5  -1    3.84    0.66
  21   5  -1    2.51    0.79
  21   5  -1    2.63    0.90
 -21   5   1    2.46    0.62
  19  -5  -1   11.33    1.27
  19  -5  -1    9.27    1.06
  19  -5  -1   10.98    1.09
 -19  -5   1   11.34    0.75
  19   5  -1   11.90    0.97
  19   5  -1   10.19    1.25
  19   5  -1   11.71    1.10
  17  -5  -1    0.15    0.49
  17  -5  -1    1.83    0.52
  17  -5  -1    0.65    0.56
 -17  -5   1    0.77    0.40
  17   5  -1    0.10    0.45
  17   5  -1    1.06    0.45
 -17   5   1    1.38    0.41
  17   5  -1    0.58    0.58
  15  -5  -1   37.01    1.71
  15  -5  -1   36.92    1.77
  15  -5  -1   36.71    1.59
 -15  -5   1   35.49    1.28
  15   5  -1   35.11    1.48
  15   5  -1   33.55    1.60
 -15   5   1   36.88    1.47
 -15   5   1   36.55    1.59
  13  -5  -1    0.98    0.35
 -13  -5   1    1.16    0.25
  13  -5  -1    1.16    0.50
  13  -5  -1    1.03    0.45
 -13  -5   1    0.88    0.26
  13   5  -1    1.39    0.48
 -13   5   1    1.07    0.36
 -13   5   1    1.02    0.29
  13   5  -1    1.29    0.42
  11  -5  -1   48.04    1.72
  11  -5  -1   50.28    1.93
 -11  -5   1   46.80    1.48
  11  -5  -1   47.81    1.90
 -11  -5   1   47.52    1.40
 -11   5   1   45.36    1.76
  11   5  -1   51.54    1.77
 -11   5   1   48.10    1.67
  11   5  -1   47.19    1.66
   9  -5  -1    2.86    0.47
  -9  -5   1    1.95    0.28
   9  -5  -1    2.70    0.51
   9  -5  -1    2.35    0.37
  -9   5   1    2.43    0.37
  -9   5   1    1.96    0.37
   9   5  -1    1.87    0.36
   7  -5  -1  122.82    3.40
  -7  -5   1  125.30    3.28
   7  -5  -1  122.65    3.56
   7  -5  -1  128.99    3.62
   7   5  -1  114.86    3.14
  -7   5   1  127.13    3.37
  -7   5   1  126.15    3.51
   7   5  -1  126.83    3.23
   5  -5  -1    5.48    0.48
   5  -5  -1    5.12    0.49
  -5  -5   1    5.75    0.42
   5  -5  -1    5.38    0.40
  -5   5   1    5.44    0.45
   5   5  -1    5.27    0.29
   5   5  -1    5.04    0.25
  -5   5   1    5.17    0.36
   3  -5  -1  154.00    3.87
   3  -5  -1  143.62    3.84
   3  -5  -1  139.32    3.72
  -3  -5   1  142.99    3.65
  -3   5   1  145.98    3.82
   3   5  -1  142.05    3.64
  -3   5   1  145.71    3.69
   1  -5  -1    2.54    0.33
  -1  -5   1    1.81    0.20
  -1  -5   1    1.99    0.24
   1  -5  -1    2.04    0.22
   1  -5  -1    2.39    0.26
  -1  -5   1    1.64    0.18
   1   5  -1    1.76    0.25
  -1   5   1    2.12    0.18
  -1   5   1    2.06    0.25
   1  -5   1  116.57    3.06
   1  -5   1  112.43    2.98
   1  -5   1  114.96    2.99
   1  -5   1  116.00    3.01
   1   5   1  115.13    2.92
   3  -5   1    0.60    0.18
   3  -5   1    0.35    0.17
   3  -5   1    0.72    0.22
  -3   5  -1    0.63    0.25
   5  -5   1  131.78    3.63
   5  -5   1  135.06    3.71
   5  -5   1  133.31    3.59
  -5   5  -1  137.72    3.82
   7  -5   1    4.45    0.45
   7  -5   1    4.47    0.44
   7  -5   1    4.77    0.53
  -7   5  -1    4.74    0.61
   9  -5   1   29.91    1.25
   9  -5   1   31.10    1.34
   9  -5   1   29.69    1.20
   9   5   1   29.35    0.97
  -9   5  -1   29.75    1.16
   9   5   1   29.82    1.00
 -11  -5  -1   20.91    0.73
  11  -5   1   20.59    1.08
  11  -5   1   19.85    1.14
  11   5   1   21.06    0.80
 -11   5  -1   21.30    0.98
  11   5   1   20.46    0.86
  13  -5   1   16.60    1.15
 -13  -5  -1   16.24    0.68
  13  -5   1   17.33    1.01
  13  -5   1   16.60    1.03
 -13   5  -1   15.93    0.91
  13   5   1   16.32    0.88
  13   5   1   16.81    0.84
  13   5   1   16.24    0.78
  15  -5   1    3.67    0.61
  15  -5   1    2.28    0.61
  15  -5   1    2.81    0.58
 -15  -5  -1    2.55    0.35
  15   5   1    3.17    0.49
  15   5   1    2.44    0.52
 -17  -5  -1    6.60    0.55
  17  -5   1    6.89    0.90
  17  -5   1    5.46    0.92
  17  -5   1    6.27    0.88
  17   5   1    5.74    0.80
  17   5   1    6.40    0.81
  17   5   1    7.66    0.69
 -19  -5  -1    5.80    0.59
  19  -5   1    5.13    0.94
  19  -5   1    5.98    0.80
  19  -5   1    6.45    0.98
  19   5   1    5.54    0.80
  19   5   1    5.52    0.82
  20  -6  -1    3.56    0.75
 -20  -6   1    4.47    0.61
  20  -6  -1    2.53    0.88
  20  -6  -1    2.28    0.76
 -20   6   1    3.18    0.75
  20   6  -1    4.49    0.97
  20   6  -1    4.34    0.88
  18  -6  -1   14.82    1.37
 -18  -6   1   12.96    0.93
  18  -6  -1   14.60    1.14
  18  -6  -1   15.42    1.22
  18   6  -1   14.99    1.30
 -18   6   1   16.97    1.00
  18   6  -1   13.73    1.13
  18   6  -1   13.96    0.98
 -18   6   1   14.76    1.06
 -16  -6   1    5.45    0.49
  16  -6  -1    4.65    0.73
  16  -6  -1    3.88    0.68
  16  -6  -1    5.10    0.94
  16   6  -1    5.42    0.83
 -16   6   1    5.52    0.62
  16   6  -1    4.45    0.68
  16   6  -1    5.64    0.81
 -16   6   1    4.53    0.69
  14  -6  -1   42.15    1.83
  14  -6  -1   42.45    1.69
  14  -6  -1   39.66    1.87
 -14  -6   1   40.19    1.35
 -14   6   1   39.42    1.57
  14   6  -1   40.30    1.63
 -14   6   1   39.37    1.69
  14   6  -1   43.12    1.69
  12  -6  -1   10.45    0.97
 -12  -6   1   10.15    0.53
  12  -6  -1    9.91    0.86
  12  -6  -1   10.88    0.79
  12   6  -1    9.79    0.74
 -12   6   1   10.19    0.77
 -12   6   1   10.80    0.72
 -10  -6   1   33.51    1.06
  10  -6  -1   31.17    1.30
  10  -6  -1   33.67    1.46
  10   6  -1   29.29    1.05
  10   6  -1   33.32    1.16
 -10   6   1   32.08    1.37
 -10   6   1   33.90    1.28
  -8  -6   1   60.69    1.74
   8  -6  -1   60.39    2.12
   8  -6  -1   60.71    1.94
   8  -6  -1   61.67    2.10
   8   6  -1   61.68    1.70
  -8   6   1   58.49    2.21
  -8   6   1   61.08    1.89
   6  -6  -1   44.55    1.47
   6  -6  -1   43.63    1.61
   6  -6  -1   46.49    1.61
  -6  -6   1   43.32    1.40
  -6   6   1   45.70    1.44
  -6   6   1   44.63    1.56
   6   6  -1   45.71    1.27
   4  -6  -1   54.24    1.75
   4  -6  -1   52.75    1.62
   4  -6  -1   54.04    1.72
  -4  -6   1   55.68    1.55
   4   6  -1   53.33    1.46
  -4   6   1   53.65    1.58
   4   6  -1   53.86    1.48
  -4   6   1   53.60    1.71
   2  -6  -1   54.39    1.71
  -2  -6   1   58.63    1.56
   2  -6  -1   56.26    1.60
  -2  -6   1   57.53    1.56
   2  -6  -1   58.66    1.67
  -2   6   1   57.03    1.69
   2   6  -1   51.30    1.74
  -2   6   1   57.18    1.56
   0  -6   1  116.62    3.00
   0  -6  -1  102.40    2.94
   0  -6   1  113.60    2.93
   0  -6   1  113.85    2.94
   0  -6   1  111.02    2.90
   0  -6  -1  113.55    2.86
   0   6  -1  113.18    3.04
   0   6   1  114.82    2.94
   2  -6   1   19.11    0.73
   2  -6   1   18.48    0.81
   2  -6   1   19.41    0.73
   2  -6   1   18.88    0.73
  -2   6  -1   18.33    0.87
   4  -6   1  178.66    4.77
   4  -6   1  183.76    4.75
   4  -6   1  186.76    4.88
  -4   6  -1  182.18    4.98
   6  -6   1   21.89    0.92
   6  -6   1   20.87    0.92
   6  -6   1   21.35    1.02
  -6   6  -1   20.40    1.12
   8  -6   1   66.37    2.11
   8  -6   1   67.01    2.26
   8  -6   1   66.80    2.16
  10  -6   1    9.16    0.71
  10  -6   1    8.08    0.75
  10  -6   1    8.88    0.84
  12  -6   1   64.65    2.38
  12  -6   1   62.18    2.36
  12  -6   1   63.72    2.19
  12   6   1   63.68    1.98
  12   6   1   64.14    1.79
 -12   6  -1   62.59    2.12
  12   6   1   62.22    1.86
  14  -6   1    0.66    0.54
  14  -6   1    2.20    0.49
  14  -6   1    2.14    0.52
 -14   6  -1    1.57    0.43
  14   6   1    1.22    0.31
  14   6   1    2.15    0.45
  16  -6   1   23.09    1.34
  16  -6   1   24.44    1.33
  16  -6   1   23.73    1.53
  16   6   1   23.36    1.00
  16   6   1   20.70    1.18
  16   6   1   22.28    1.16
  18  -6   1    2.22    0.83
  18  -6   1    1.95    0.54
  18  -6   1    3.92    0.69
 -18   6  -1    1.37    0.52
  18   6   1    2.41    0.46
  18   6   1    2.82    0.68
  19  -7  -1   12.34    1.23
 -19  -7   1   10.98    0.71
  19  -7  -1   11.22    1.14
  19  -7  -1   13.92    1.48
  19   7  -1   11.64    1.46
  19   7  -1   13.98    1.28
  19   7  -1   12.37    0.97
  17  -7  -1    2.00    0.79
 -17  -7   1    1.92    0.34
  17  -7  -1    2.76    0.58
  17  -7  -1    2.64    0.67
  17   7  -1    1.71    0.47
 -17   7   1    1.97    0.43
  17   7  -1    2.12    1.19
  17   7  -1    1.98    0.57
 -17   7   1    2.38    0.52
 -15  -7   1   26.97    1.00
  15  -7  -1   25.98    1.57
  15  -7  -1   27.49    1.38
  15  -7  -1   28.99    1.51
  15   7  -1   26.36    1.15
  15   7  -1   23.40    1.21
 -15   7   1   28.29    1.26
  13  -7  -1    9.88    1.01
 -13  -7   1   10.99    0.54
  13  -7  -1   11.11    0.84
 -13   7   1   11.03    0.76
  13   7  -1    9.31    0.60
  13   7  -1    9.97    0.69
  11  -7  -1   48.42    1.95
  11  -7  -1   45.33    1.82
 -11  -7   1   45.93    1.38
  11  -7  -1   39.49    1.92
  11   7  -1   50.56    1.46
 -11   7   1   46.31    1.66
   9  -7  -1    5.25    0.61
  -9  -7   1    6.18    0.36
   9  -7  -1    6.36    0.74
   9  -7  -1    5.95    0.57
   9   7  -1    5.96    0.36
  -9   7   1    6.01    0.55
  -9   7   1    6.55    0.63
   7  -7  -1  107.38    3.29
   7  -7  -1  109.01    3.33
   7  -7  -1  114.22    3.30
  -7  -7   1  113.59    2.95
  -7   7   1  109.48    3.24
  -7   7   1  113.86    3.11
   7   7  -1  112.43    2.86
  -5  -7   1    4.39    0.42
   5  -7  -1    4.34    0.46
   5  -7  -1    5.14    0.59
   5  -7  -1    4.84    0.44
  -5   7   1    4.36    0.40
  -5   7   1    5.24    0.51
   3  -7  -1  108.48    2.99
   3  -7  -1  111.12    3.10
   3  -7  -1  109.00    2.95
  -3  -7   1  109.00    2.85
  -3   7   1  108.99    3.04
  -3   7   1  112.16    2.90
   1  -7  -1   41.35    1.38
  -1  -7   1   42.40    1.23
   1  -7  -1   40.78    1.22
  -1  -7   1   41.92    1.25
   1  -7  -1   40.84    1.27
  -1  -7   1   43.16    1.29
  -1  -7   1   41.57    1.19
   1   7  -1   40.46    1.36
  -1   7   1   41.64    1.31
   1  -7   1  126.77    3.29
   1  -7   1  127.47    3.27
   1  -7   1  126.56    3.39
   1  -7   1  122.08    3.30
   1   7   1  123.21    3.20
  -1   7  -1  124.83    3.48
   3  -7   1    6.61    0.44
   3  -7   1    6.05    0.55
   3  -7   1    5.86    0.45
   3  -7   1    6.53    0.43
  -3   7  -1    6.98    0.72
   5  -7   1  104.44    3.22
   5  -7   1  103.87    3.06
   5  -7   1  102.61    2.93
  -5   7  -1  100.74    3.20
   7  -7   1   32.75    1.26
   7  -7   1   26.93    1.59
   7  -7   1   32.04    1.23
   9  -7   1   37.27    1.62
   9  -7   1   39.74    1.51
   9  -7   1   38.53    1.64
  11  -7   1   21.58    1.13
  11  -7   1   21.78    1.11
  11  -7   1   21.42    1.27
  13  -7   1   19.25    1.14
  13  -7   1   19.99    1.31
  13  -7   1   18.63    1.08
  15  -7   1    7.02    0.86
  15  -7   1    5.27    0.69
  15  -7   1    6.34    0.92
  15   7   1    5.45    0.82
  15   7   1    6.05    0.49
  17  -7   1    6.29    1.03
  17  -7   1    8.11    1.00
  17  -7   1    8.15    0.95
  17   7   1    7.40    0.65
  17   7   1    6.88    0.98
  18  -8  -1    6.05    0.91
  18  -8  -1    3.22    0.99
  18   8  -1    6.39    0.75
  18   8  -1    4.59    0.69
  16  -8  -1    1.85    0.68
  16  -8  -1    1.78    0.75
 -16  -8   1    2.39    0.38
  16  -8  -1    2.04    0.55
  16   8  -1    2.26    0.47
 -16   8   1    1.37    0.46
  14  -8  -1   12.25    1.06
  14  -8  -1   13.08    1.22
  14  -8  -1   14.97    1.02
 -14  -8   1   13.63    0.61
  14   8  -1   14.68    0.74
 -14   8   1   14.90    0.93
 -12  -8   1    2.73    0.29
  12  -8  -1    2.83    0.52
  12  -8  -1    3.43    0.61
  12  -8  -1    2.00    0.55
 -12   8   1    2.77    0.50
  12   8  -1    2.70    0.35
  10  -8  -1    9.12    0.87
  10  -8  -1    9.44    0.79
 -10   8   1    8.71    0.67
 -10   8   1    8.55    0.74
   8  -8  -1   18.72    0.97
   8  -8  -1   17.91    1.08
   8  -8  -1   16.75    0.90
  -8   8   1   17.76    0.96
  -8   8   1   18.51    0.88
   6  -8  -1   10.85    0.67
   6  -8  -1    9.11    1.22
   6  -8  -1   10.35    0.66
  -6   8   1   12.42    0.73
  -6   8   1   11.13    0.63
   4  -8  -1   12.99    0.66
  -4  -8   1   12.77    0.49
   4  -8  -1   12.79    0.79
   4  -8  -1   13.20    0.66
  -4  -8   1   12.43    0.56
  -4   8   1   10.76    0.81
  -2  -8   1   13.17    0.55
   2  -8  -1   13.48    0.60
   2  -8  -1   12.69    0.67
  -2  -8   1   13.46    0.55
   2  -8  -1   14.09    0.85
  -2   8   1   13.81    0.68
   0  -8   1   23.44    0.93
   0  -8   1   23.03    0.81
   0  -8   1   23.77    0.83
   0  -8   1   23.73    0.85
   0   8  -1   23.33    1.05
   2  -8   1    3.84    0.47
   2  -8   1    3.63    0.35
   2  -8   1    3.72    0.33
   2  -8   1    4.11    0.38
  -2   8  -1    4.06    0.61
   4  -8   1   60.74    1.99
   4  -8   1   58.61    1.82
   4  -8   1   59.99    1.83
   4  -8   1   58.54    1.84
  -4   8  -1   57.54    2.15
   6  -8   1    5.90    0.51
   6  -8   1    5.72    0.49
   6  -8   1    4.12    0.48
   6  -8   1    4.76    0.64
   8  -8   1   15.88    1.05
   8  -8   1   16.25    1.05
   8  -8   1   15.25    0.87
  10  -8   1    4.23    0.75
  10  -8   1    3.54    0.57
  10  -8   1    4.17    0.58
  12  -8   1   23.00    1.19
  12  -8   1   22.10    1.39
  12  -8   1   21.97    1.21
  14  -8   1    1.46    0.49
  14  -8   1    1.09    0.68
  14  -8   1    1.34    0.49
  16  -8   1    7.22    1.11
  16  -8   1    7.13    0.97
  16  -8   1    6.79    0.92
  15  -9  -1   10.95    1.10
  15  -9  -1   12.72    1.33
  15  -9  -1   13.06    1.06
 -15   9   1   10.82    0.89
  13  -9  -1    6.41    0.89
  13  -9  -1    5.23    0.88
  13  -9  -1    6.30    0.78
 -13   9   1    4.88    0.71
  11  -9  -1   17.05    1.18
  11  -9  -1   18.89    1.07
  11  -9  -1   18.37    1.12
 -11   9   1   18.86    1.02
   9  -9  -1    3.84    0.58
   9  -9  -1    5.00    0.75
  -9   9   1    4.86    0.63
  -9   9   1    3.90    0.55
   7  -9  -1   38.30    1.43
   7  -9  -1   37.15    1.44
   7  -9  -1   37.32    1.60
  -7   9   1   36.64    1.48
  -7   9   1   39.48    1.38
   5  -9  -1    5.95    0.50
   5  -9  -1    4.29    0.46
   5  -9  -1    4.61    0.63
  -5   9   1    4.62    0.55
   3  -9  -1   42.84    1.35
   3  -9  -1   42.10    1.54
  -3  -9   1   42.04    1.26
   3  -9  -1   41.16    1.36
  -3  -9   1   41.06    1.22
  -3   9   1   40.64    1.44
   3   9  -1   42.40    1.42
  -1  -9   1   14.79    0.64
  -1  -9   1   15.71    0.57
   1  -9  -1   15.64    0.57
   1  -9  -1   16.44    0.65
  -1  -9   1   16.28    0.64
  -1  -9   1   16.45    0.70
   1   9  -1   15.76    0.96
   1  -9   1   39.74    1.38
   1  -9   1   39.38    1.25
   1  -9   1   39.91    1.29
   1  -9   1   39.46    1.22
  -1   9  -1   36.20    1.55
   3  -9   1    6.46    0.47
   3  -9   1    7.01    0.52
   3  -9   1    8.06    0.48
   3  -9   1    6.26    0.65
   5  -9   1   39.97    1.58
   5  -9   1   41.10    1.42
   5  -9   1   40.24    1.42
   5  -9   1   39.21    1.43
   7  -9   1   12.01    0.92
   7  -9   1   11.79    0.71
   7  -9   1   10.69    0.73
   7  -9   1   11.62    1.13
   9  -9   1   16.54    0.96
   9  -9   1   15.37    0.93
   9  -9   1   16.29    1.13
  11  -9   1   11.28    1.10
  11  -9   1   10.82    1.12
  11  -9   1   14.39    0.93
  13  -9   1   10.74    0.92
  13  -9   1    9.54    0.92
  13  -9   1    8.35    1.20
  15  -9   1    3.21    0.63
  15  -9   1    1.39    0.83
  15  -9   1    3.20    0.64
  14 -10  -1   12.86    1.38
  14 -10  -1   14.90    1.18
  12 -10  -1    9.27    1.11
  12 -10  -1    8.57    1.02
  12 -10  -1   10.99    0.98
 -12  10   1    9.27    0.83
  10 -10  -1   13.56    0.95
  10 -10  -1   12.97    0.93
  10 -10  -1   12.01    1.10
   8 -10  -1   24.02    1.16
   8 -10  -1   24.10    1.30
   8 -10  -1   25.62    1.22
   6 -10  -1   21.66    0.99
   6 -10  -1   20.43    0.95
   6 -10  -1   20.17    1.14
   4 -10  -1   19.17    0.86
   4 -10  -1   20.50    0.81
   4 -10  -1   18.89    0.82
   4 -10  -1   17.11    1.14
  -2 -10   1   27.15    0.93
   2 -10  -1   27.33    1.16
   2 -10  -1   29.19    0.93
   2 -10  -1   26.82    0.99
  -2 -10   1   28.36    0.93
   0 -10   1   40.62    1.38
   0 -10   1   42.30    1.30
   0 -10   1   40.92    1.23
   0 -10   1   41.17    1.32
   2 -10   1   14.81    0.65
   2 -10   1   14.48    0.86
   2 -10   1   14.66    0.69
   4 -10   1   37.22    1.61
   4 -10   1   40.91    1.48
   4 -10   1   38.63    1.36
   4 -10   1   37.58    1.52
   6 -10   1   17.45    0.87
   6 -10   1   17.59    1.10
   6 -10   1   17.01    0.88
   8 -10   1   21.92    1.08
   8 -10   1   24.02    1.11
   8 -10   1   22.12    1.30
   8 -10   1   24.04    1.13
  10 -10   1    8.71    0.80
  10 -10   1    7.80    0.72
  10 -10   1    7.87    0.98
  10 -10   1    9.38    0.80
  12 -10   1   18.57    1.11
  12 -10   1   17.30    1.12
  12 -10   1   16.46    1.38
  11 -11  -1    7.02    0.86
  11 -11  -1    4.44    0.82
   9 -11  -1    3.03    0.64
   9 -11  -1    2.47    0.51
   9 -11  -1    3.91    0.61
   7 -11  -1   12.66    0.79
   7 -11  -1   13.27    0.84
   7 -11  -1   14.04    1.04
   5 -11  -1    3.13    0.43
   5 -11  -1    2.87    0.44
   5 -11  -1    2.90    0.44
   5 -11  -1    2.81    0.55
   3 -11  -1   12.40    0.71
   3 -11  -1   12.81    0.70
   3 -11  -1   14.72    0.62
   3 -11  -1   11.30    1.12
  -1 -11   1    4.60    0.39
  -1 -11   1    4.66    0.40
   1 -11   1   10.38    0.61
   1 -11   1   11.17    1.10
   1 -11   1    9.98    0.64
   1 -11   1   11.21    0.58
   3 -11   1    4.94    0.44
   3 -11   1    5.56    0.68
   3 -11   1    6.00    0.51
   5 -11   1   13.94    0.98
   5 -11   1   15.40    0.82
   5 -11   1   15.27    1.29
   5 -11   1   14.13    0.75
   7 -11   1    3.07    0.60
   7 -11   1    3.29    0.47
   7 -11   1    3.63    0.51
   7 -11   1    3.74    0.59
   9 -11   1    6.61    0.70
   9 -11   1    5.88    0.82
   9 -11   1    5.01    0.71
   9 -11   1    4.91    0.77
   6 -12  -1    4.41    0.54
   6 -12  -1    6.20    0.87
   4 -12  -1    5.13    0.59
   4 -12  -1    3.78    0.73
   4 -12  -1    3.73    0.47
   4 -12  -1    3.76    0.61
   0 -12   1    9.42    0.54
   0 -12   1    9.02    0.55
   2 -12   1    3.51    0.42
   2 -12   1    4.02    0.67
   2 -12   1    4.58    0.51
   2 -12   1    4.81    0.69
   4 -12   1    7.86    0.66
   4 -12   1    8.12    0.62
   4 -12   1    8.99    0.84
   4 -12   1    9.76    0.75
 -22   0   2   25.32    1.40
  22   0  -2   23.53    1.69
 -22   0   2   25.24    1.32
  22   0  -2   21.68    1.72
  20   0  -2    2.12    0.97
 -20   0   2    3.00    0.49
  20   0  -2    3.80    0.75
 -20   0   2    2.13    0.56
  18   0  -2   52.28    2.17
 -18   0   2   43.91    1.86
  18   0  -2   48.90    2.05
 -18   0   2   48.23    1.81
 -16   0   2    3.89    0.53
 -16   0   2    4.19    0.61
  16   0  -2    5.10    0.77
  16   0  -2    4.70    0.75
  14   0  -2  192.37    5.39
  14   0  -2  196.33    5.36
 -14   0   2  192.29    5.29
 -14   0   2  183.51    5.18
  12   0  -2    1.46    0.43
  12   0  -2    1.16    0.38
 -12   0   2    1.61    0.35
 -12   0   2    1.57    0.38
  10   0  -2  307.70    7.83
 -10   0   2  297.66    7.72
 -10   0   2  310.61    7.82
  10   0  -2  292.32    7.78
  -8   0   2    3.22    0.41
   8   0  -2    2.84    0.44
   8   0  -2    2.69    0.44
  -8   0   2    3.38    0.47
  -6   0   2  389.70    9.63
   6   0  -2  373.07    9.63
  -6   0   2  387.46    9.61
   6   0  -2  379.54    9.61
  -4   0   2   33.29    1.20
   4   0  -2   30.67    1.15
  -4   0   2   33.21    1.19
  -2   0   2  557.83   14.11
   2   0  -2  529.33   13.61
  -2   0   2  548.40   13.92
   2   0  -2  565.06   13.78
   0   0  -2   19.94    0.65
   0   0   2   19.78    0.64
   0   0   2   20.71    0.66
   0   0  -2   18.89    0.64
   2   0   2  182.41    4.56
  -2   0  -2  185.89    4.59
   2   0   2  184.14    4.57
  -2   0  -2  180.53    4.57
  -4   0  -2   59.91    1.73
   4   0   2   60.68    1.71
   4   0   2   60.99    1.70
   6   0   2  185.35    4.69
   6   0   2  184.55    4.72
  -6   0  -2  179.42    4.76
   8   0   2  110.07    3.07
  -8   0  -2  108.78    3.14
   8   0   2  112.13    3.01
   8   0   2  108.44    3.04
  10   0   2   50.79    1.72
  10   0   2   50.74    1.64
 -10   0  -2   49.53    1.82
  10   0   2   48.73    1.66
  12   0   2   45.74    1.57
  12   0   2   45.26    1.66
 -12   0  -2   44.01    1.81
  12   0   2   38.72    1.72
  14   0   2    8.14    0.68
  14   0   2    8.17    0.80
 -14   0  -2    7.52    0.60
  14   0   2    8.46    0.71
  16   0   2   39.55    1.76
  16   0   2   40.89    1.65
 -16   0  -2   39.01    1.51
  18   0   2    3.97    0.79
  18   0   2    3.20    0.62
  20   0   2    9.61    0.99
  20   0   2    7.73    1.05
 -23  -1   2    1.89    0.60
  23  -1  -2    0.64    0.80
 -23  -1   2    2.02    0.47
  23  -1  -2    3.22    0.86
  23   1  -2    1.38    0.80
  23   1  -2    2.36    1.00
  21  -1  -2   19.20    1.54
 -21  -1   2   18.45    1.18
 -21  -1   2   16.53    1.02
  21  -1  -2   17.09    1.42
  21   1  -2   18.68    1.79
 -21   1   2   17.10    1.06
 -21   1   2   17.63    1.19
  21   1  -2   17.37    1.49
  19  -1  -2    4.09    0.68
  19  -1  -2    3.34    0.83
 -19  -1   2    4.01    0.59
 -19  -1   2    3.53    0.54
  19   1  -2    4.13    0.77
  19   1  -2    2.97    0.76
 -19   1   2    3.02    0.49
 -19   1   2    4.12    0.67
 -17  -1   2   25.01    1.22
  17  -1  -2   22.92    1.35
 -17  -1   2   23.34    1.13
  17  -1  -2   22.13    1.41
 -17   1   2   25.01    1.18
 -17   1   2   24.40    1.28
  17   1  -2   23.54    1.36
  17   1  -2   24.22    1.42
 -15  -1   2   28.66    1.50
 -15  -1   2   34.60    1.41
  15  -1  -2   33.27    1.60
  15   1  -2   33.44    1.68
  15   1  -2   33.28    1.56
 -15   1   2   32.37    1.35
 -15   1   2   34.13    1.47
 -13  -1   2   19.59    0.99
 -13  -1   2   19.10    0.94
  13  -1  -2   20.62    1.08
  13  -1  -2   19.33    1.13
  13   1  -2   22.11    1.15
  13   1  -2   21.38    1.11
 -13   1   2   20.32    0.97
 -13   1   2   19.54    1.14
  11  -1  -2   49.25    1.75
  11  -1  -2   44.54    1.66
 -11  -1   2   44.91    1.58
 -11  -1   2   45.21    1.62
  11   1  -2   47.18    1.69
 -11   1   2   44.50    1.66
 -11   1   2   46.98    1.61
  11   1  -2   44.74    1.67
   9  -1  -2   66.07    2.16
  -9  -1   2   68.47    2.12
   9  -1  -2   66.36    2.12
  -9  -1   2   66.49    2.08
  -9   1   2   70.60    2.18
   9   1  -2   68.04    2.14
  -9   1   2   68.42    2.07
   9   1  -2   63.25    2.14
   7  -1  -2  154.37    4.20
   7  -1  -2  157.66    4.25
  -7  -1   2  159.00    4.23
  -7  -1   2  154.32    4.23
  -7   1   2  162.45    4.28
   7   1  -2  156.79    4.24
   7   1  -2  151.28    4.29
  -7   1   2  154.09    4.17
  -5  -1   2   17.13    0.83
  -5  -1   2   17.05    0.80
   5  -1  -2   17.45    0.81
   5  -1  -2   15.99    0.80
   5   1  -2   16.65    0.80
  -5   1   2   16.94    0.82
   5   1  -2   16.22    0.75
   3  -1  -2  283.94    8.02
   3  -1  -2  312.86    8.09
  -3  -1   2  317.74    7.95
  -3  -1   2  334.64    8.01
   3   1  -2  337.91    8.18
   3   1  -2  337.76    7.95
  -3   1   2  327.75    8.14
  -3   1   2  334.04    8.15
   1  -1  -2    2.49    0.21
  -1  -1   2    2.99    0.23
  -1  -1   2    2.95    0.22
   1  -1  -2    3.00    0.22
  -1   1   2    2.66    0.23
  -1   1   2    2.75    0.22
   1   1  -2    2.77    0.21
  -1  -1  -2  206.68    5.07
   1  -1   2  207.06    5.11
   1  -1   2  199.09    5.09
  -1  -1  -2  214.14    5.07
   1   1   2  206.94    5.07
  -1   1  -2  200.12    5.11
   1   1   2  203.54    5.06
   3  -1   2    7.51    0.39
  -3  -1  -2    7.76    0.37
   3  -1   2    8.27    0.41
   3   1   2    8.34    0.37
   3   1   2    7.75    0.35
   5  -1   2  331.24    8.23
  -5  -1  -2  335.54    8.20
   5  -1   2  327.33    8.20
   5   1   2  331.70    8.14
   5   1   2  332.90    8.14
   5   1   2  324.85    8.15
  -5   1  -2  332.70    8.28
   7  -1   2   40.89    1.39
  -7  -1  -2   43.43    1.41
   7  -1   2   41.22    1.36
   7   1   2   42.83    1.34
   7   1   2   42.33    1.31
  -7   1  -2   41.79    1.47
   9  -1   2  182.05    5.07
  -9  -1  -2  176.60    4.84
   9  -1   2  179.25    4.83
   9  -1   2  178.70    4.74
   9   1   2  179.36    4.67
   9   1   2  178.40    4.71
  -9   1  -2  180.59    4.94
   9   1   2  181.17    4.75
 -11  -1  -2    4.81    0.61
  11  -1   2    6.74    0.65
  11  -1   2    6.34    0.56
  11  -1   2    6.10    0.57
  11   1   2    6.28    0.58
 -11   1  -2    5.92    0.70
  11   1   2    5.96    0.51
  11   1   2    6.02    0.53
  13  -1   2   54.04    1.99
  13  -1   2   53.49    1.87
  13  -1   2   52.57    1.90
 -13   1  -2   50.85    1.78
  13   1   2   54.23    1.82
  13   1   2   53.23    1.90
  13   1   2   55.93    1.87
 -15  -1  -2    1.04    0.34
  15  -1   2    0.73    0.48
  15  -1   2    1.02    0.44
 -15   1  -2    0.41    0.27
  15   1   2    1.35    0.39
  15   1   2    0.71    0.60
  15   1   2    0.82    0.46
  17  -1   2   32.67    1.49
  17   1   2   29.43    1.43
  17   1   2   34.95    1.46
  17   1   2   30.61    1.56
 -17   1  -2   31.01    1.34
  19  -1   2    0.28    0.68
  19  -1   2    0.96    0.54
  19   1   2   -0.01    0.42
  19   1   2   -0.60    0.54
  19   1   2   -0.65    0.39
  21  -1   2    6.97    1.08
  21  -1   2    5.56    1.02
  21   1   2    5.49    1.03
  21   1   2    4.03    0.77
 -22  -2   2   18.06    1.16
  22  -2  -2   16.92    1.58
 -22  -2   2   19.43    1.19
  22  -2  -2   18.78    1.53
  22  -2  -2   17.60    1.47
 -22   2   2   20.66    1.21
 -22   2   2   16.63    1.21
  22   2  -2   17.47    1.41
  22   2  -2   16.09    1.49
  22   2  -2   17.21    1.64
 -20  -2   2    0.11    0.42
  20  -2  -2   -0.47    0.64
 -20  -2   2    1.12    0.39
  20  -2  -2    0.14    0.50
  20  -2  -2    0.30    0.56
  20   2  -2    0.29    0.67
 -20   2   2    0.47    0.49
  20   2  -2    0.95    0.58
  18  -2  -2   35.19    1.65
 -18  -2   2   29.32    1.32
 -18  -2   2   30.98    1.36
  18  -2  -2   31.14    1.74
  18  -2  -2   28.96    1.66
  18   2  -2   31.11    1.64
  18   2  -2   30.02    1.63
 -18   2   2   31.84    1.52
  16  -2  -2    1.83    0.62
  16  -2  -2    1.74    0.49
 -16  -2   2    2.99    0.47
 -16  -2   2    2.26    0.43
  16   2  -2    2.38    0.59
 -16   2   2    2.13    0.44
  16   2  -2    1.85    0.57
 -16   2   2    1.86    0.55
 -14  -2   2  110.27    3.24
  14  -2  -2  111.69    3.39
 -14  -2   2  107.54    3.20
  14  -2  -2  112.01    3.67
  14   2  -2  111.70    3.41
 -14   2   2  108.40    3.38
 -14   2   2  103.77    3.22
  14   2  -2  112.81    3.38
 -12  -2   2    8.38    0.60
  12  -2  -2    7.74    0.78
 -12  -2   2    8.16    0.60
  12  -2  -2    8.93    0.71
 -12   2   2    8.49    0.61
  12   2  -2    7.69    0.73
 -12   2   2    8.01    0.69
  12   2  -2    8.44    0.73
 -10  -2   2  197.00    5.14
  10  -2  -2  191.96    5.27
  10  -2  -2  191.31    5.17
 -10  -2   2  195.95    5.12
  10   2  -2  186.71    5.24
 -10   2   2  196.54    5.25
 -10   2   2  189.51    5.09
  10   2  -2  190.90    5.17
   8  -2  -2    0.78    0.33
   8  -2  -2    1.09    0.32
  -8  -2   2    1.33    0.31
  -8  -2   2    0.78    0.26
  -8   2   2    1.19    0.26
   8   2  -2    1.59    0.37
   8   2  -2    1.01    0.33
  -8   2   2    1.27    0.32
  -6  -2   2  166.44    4.34
  -6  -2   2  154.18    4.24
   6  -2  -2  157.93    4.23
   6  -2  -2  156.77    4.29
   6   2  -2  147.28    4.25
  -6   2   2  161.93    4.21
   6   2  -2  157.76    4.20
  -6   2   2  169.28    4.35
  -4  -2   2    1.12    0.24
   4  -2  -2    0.79    0.27
  -4  -2   2    1.21    0.26
   4  -2  -2    1.11    0.31
  -4   2   2    0.84    0.24
   4   2  -2    0.96    0.20
   4   2  -2    1.00    0.21
  -4   2   2    0.93    0.29
   2  -2  -2  218.44    5.89
  -2  -2   2  247.17    5.82
  -2  -2   2  247.90    5.77
   2  -2  -2  221.52    5.86
   2   2  -2  233.85    5.79
  -2   2   2  231.49    5.94
   2   2  -2  234.23    5.76
  -2   2   2  234.93    5.99
   0  -2   2   17.82    0.61
   0  -2  -2   17.09    0.55
   0  -2   2   16.52    0.58
   0  -2  -2   16.84    0.56
   0   2  -2   16.87    0.61
   0   2   2   15.96    0.58
   0   2   2   16.66    0.59
   2  -2   2   92.03    2.43
  -2  -2  -2   90.00    2.32
  -2  -2  -2   88.94    2.35
   2  -2   2   86.92    2.42
   2   2   2   95.19    2.34
   2   2   2   91.97    2.32
  -2   2  -2   92.63    2.47
  -4  -2  -2   35.73    1.08
   4  -2   2   36.63    1.17
   4  -2   2   38.37    1.18
   4  -2   2   36.21    1.18
  -4   2  -2   34.20    1.21
   4   2   2   35.98    1.04
   4   2   2   35.81    1.06
   6  -2   2   47.37    1.54
  -6  -2  -2   48.75    1.47
   6  -2   2   47.16    1.51
   6   2   2   47.22    1.39
   6   2   2   48.53    1.41
  -6   2  -2   49.85    1.63
   6   2   2   49.16    1.40
   8  -2   2   25.19    1.01
   8  -2   2   26.24    1.05
  -8  -2  -2   26.37    1.02
   8  -2   2   25.77    1.09
   8   2   2   26.41    0.92
   8   2   2   26.63    0.94
  -8   2  -2   25.91    1.16
  10  -2   2   32.36    1.28
  10  -2   2   33.33    1.35
 -10  -2  -2   30.90    1.28
  10  -2   2   32.67    1.26
  10   2   2   33.39    1.18
 -10   2  -2   33.12    1.46
  10   2   2   33.56    1.16
  10   2   2   33.22    1.23
  12  -2   2   29.45    1.36
  12  -2   2   28.38    1.25
  12  -2   2   28.97    1.27
 -12   2  -2   29.61    1.51
  12   2   2   29.54    1.19
  12   2   2   28.82    1.22
  14  -2   2    1.46    0.45
  14  -2   2    1.18    0.45
  14  -2   2    1.17    0.39
  14   2   2    1.42    0.38
  14   2   2    1.14    0.36
  14   2   2    1.67    0.45
  16  -2   2   23.29    1.44
  16  -2   2   27.99    1.33
  16   2   2   24.90    1.31
  16   2   2   26.32    1.19
  16   2   2   20.02    1.46
  18  -2   2    2.46    0.62
  18  -2   2    0.81    0.60
  18   2   2    2.10    0.55
  18   2   2    2.46    0.62
  20  -2   2    6.71    0.93
  20  -2   2    5.11    0.91
  20  -2   2    6.61    1.01
  20   2   2    6.50    0.92
  20   2   2    7.05    0.85
  20   2   2    5.28    0.97
  21  -3  -2   20.30    1.61
 -21  -3   2   21.99    1.18
 -21  -3   2   21.95    1.14
  21  -3  -2   22.57    1.52
  21  -3  -2   23.03    1.54
  21   3  -2   22.29    1.60
 -21   3   2   22.13    1.33
  21   3  -2   20.95    1.40
  21   3  -2   20.83    1.55
  19  -3  -2    8.13    1.04
 -19  -3   2    5.99    0.72
 -19  -3   2    8.49    0.74
  19  -3  -2    6.98    1.00
  19  -3  -2    7.44    1.16
  19   3  -2    8.52    1.07
  19   3  -2    7.68    1.10
 -19   3   2    8.05    0.89
 -17  -3   2   18.81    0.97
  17  -3  -2   19.59    1.36
  17  -3  -2   18.07    1.17
  17  -3  -2   19.04    1.34
 -17  -3   2   20.68    1.01
  17   3  -2   19.85    1.26
 -17   3   2   18.68    1.17
  17   3  -2   20.25    1.55
 -15  -3   2   36.04    1.40
  15  -3  -2   37.19    1.61
 -15  -3   2   36.64    1.41
 -15   3   2   36.58    1.47
  15   3  -2   35.79    1.66
 -15   3   2   35.68    1.60
  15   3  -2   35.58    1.58
 -13  -3   2   53.02    1.87
  13  -3  -2   56.34    2.11
 -13  -3   2   53.57    1.80
  13  -3  -2   55.46    1.97
 -13   3   2   49.91    1.87
  13   3  -2   51.53    2.01
 -13   3   2   51.52    1.96
  13   3  -2   52.56    1.91
  11  -3  -2   77.22    2.58
 -11  -3   2   78.23    2.33
  11  -3  -2   78.73    2.47
 -11  -3   2   76.72    2.37
 -11   3   2   80.15    2.54
  11   3  -2   74.11    2.43
 -11   3   2   74.49    2.35
  11   3  -2   77.79    2.56
   9  -3  -2   69.51    2.18
   9  -3  -2   67.41    2.26
  -9  -3   2   67.08    2.14
  -9  -3   2   68.72    2.10
  -9   3   2   67.25    2.09
   9   3  -2   69.49    2.18
  -9   3   2   70.22    2.26
   9   3  -2   74.59    2.29
  -7  -3   2  175.23    4.62
  -7  -3   2  183.77    4.73
   7  -3  -2  174.92    4.74
   7  -3  -2  176.54    4.65
   7   3  -2  164.46    4.72
  -7   3   2  182.88    4.76
  -7   3   2  180.31    4.59
   7   3  -2  160.73    4.63
   5  -3  -2    4.58    0.49
  -5  -3   2    3.82    0.41
  -5  -3   2    4.01    0.42
   5   3  -2    3.51    0.34
   5   3  -2    3.20    0.31
  -5   3   2    4.14    0.37
  -3  -3   2  351.00    8.48
  -3  -3   2  346.15    8.41
   3  -3  -2  347.41    8.60
   3  -3  -2  329.61    8.65
   3   3  -2  327.17    8.43
  -3   3   2  348.79    8.50
  -3   3   2  358.88    8.68
   1  -3  -2   35.33    1.12
  -1  -3   2   36.92    1.09
   1  -3  -2   36.31    1.10
  -1  -3   2   35.68    1.06
   1   3  -2   36.96    1.11
  -1   3   2   34.50    1.26
   1   3  -2   35.87    1.09
  -1   3   2   35.37    1.15
   1  -3   2  271.36    6.71
   1  -3   2  271.71    6.70
  -1  -3  -2  269.82    6.65
   1   3   2  276.22    6.66
  -1   3  -2  265.30    6.74
   1   3   2  272.47    6.64
  -1   3  -2  266.70    6.73
   3  -3   2    6.09    0.40
   3  -3   2    5.79    0.38
  -3  -3  -2    5.74    0.29
  -3   3  -2    5.80    0.43
   3   3   2    5.74    0.29
   3   3   2    5.94    0.27
   5  -3   2  305.84    7.68
   5  -3   2  305.12    7.65
  -5  -3  -2  309.62    7.49
   5   3   2  306.52    7.43
   5   3   2  301.27    7.45
   5   3   2  302.06    7.44
  -5   3  -2  303.22    7.76
   7  -3   2    0.86    0.25
   7  -3   2    0.75    0.28
  -7  -3  -2    0.73    0.22
   7  -3   2    0.64    0.22
   7   3   2    0.41    0.15
   7   3   2    0.49    0.16
  -7   3  -2    0.93    0.31
   7   3   2    0.55    0.15
   9  -3   2  186.01    4.90
   9  -3   2  180.61    5.00
   9  -3   2  181.43    4.94
   9   3   2  182.69    4.70
   9   3   2  184.06    4.80
  -9   3  -2  183.00    5.14
   9   3   2  184.93    4.71
  11  -3   2    5.85    0.60
  11  -3   2    4.96    0.64
  11  -3   2    5.76    0.58
 -11   3  -2    5.51    0.80
  11   3   2    5.28    0.47
  11   3   2    5.95    0.50
  11   3   2    6.33    0.55
  13  -3   2   53.88    2.00
  13  -3   2   54.94    1.96
  13  -3   2   56.19    2.14
  13   3   2   56.57    1.82
  13   3   2   56.47    1.85
  13   3   2   53.50    1.87
  15  -3   2    5.16    0.71
  15  -3   2    4.46    0.65
  15  -3   2    4.85    0.79
  15   3   2    4.85    0.68
  15   3   2    5.39    0.65
  15   3   2    4.59    0.58
  17  -3   2   32.18    1.55
  17  -3   2   32.51    1.50
  17  -3   2   29.90    1.69
  17   3   2   28.31    1.46
  17   3   2   33.26    1.35
  17   3   2   30.53    1.43
  19  -3   2    0.41    0.62
  19  -3   2    0.39    0.66
  19  -3   2    0.09    0.49
  19   3   2    0.35    0.54
  19   3   2   -0.15    0.39
  19   3   2    0.28    0.57
  22  -4  -2   13.37    1.47
  22  -4  -2   13.04    1.59
  22  -4  -2   14.69    1.76
 -22  -4   2   16.00    1.00
 -22  -4   2   14.74    0.96
  22   4  -2   15.02    1.34
  22   4  -2   12.56    1.63
 -22   4   2   13.08    1.18
  22   4  -2   14.33    1.51
 -20  -4   2    0.85    0.38
  20  -4  -2    0.48    0.57
 -20  -4   2    0.57    0.37
  20  -4  -2    0.73    0.61
  20  -4  -2    0.15    0.74
  20   4  -2    0.59    0.67
 -20   4   2    1.11    0.56
  20   4  -2   -0.18    0.69
  18  -4  -2   28.66    1.69
 -18  -4   2   30.78    1.29
  18  -4  -2   28.38    1.53
 -18  -4   2   29.85    1.25
  18  -4  -2   28.33    1.65
  18   4  -2   29.58    1.53
  18   4  -2   27.86    1.67
 -18   4   2   27.51    1.47
  16  -4  -2    9.46    1.01
  16  -4  -2    9.53    1.01
 -16  -4   2    9.42    0.64
  16  -4  -2    7.64    0.85
  16   4  -2    8.46    1.01
 -16   4   2    9.13    0.73
  16   4  -2    8.42    0.89
 -16   4   2    8.18    0.83
 -14  -4   2   87.32    2.62
  14  -4  -2   87.12    2.84
 -14  -4   2   86.81    2.58
  14  -4  -2   90.24    3.02
  14   4  -2   86.57    2.79
  14   4  -2   88.52    2.93
 -14   4   2   84.74    2.86
 -14   4   2   84.21    2.69
 -12  -4   2    1.27    0.29
  12  -4  -2    1.56    0.44
 -12  -4   2    1.37    0.32
  12  -4  -2    1.29    0.52
  12   4  -2    1.56    0.43
  12   4  -2    1.31    0.46
 -10  -4   2  173.16    4.73
  10  -4  -2  178.13    4.97
  10  -4  -2  173.99    4.81
 -10  -4   2  180.04    4.65
 -10   4   2  174.03    4.71
  10   4  -2  178.60    4.80
 -10   4   2  174.08    4.90
  10   4  -2  177.93    4.86
  -8  -4   2    7.57    0.50
   8  -4  -2    6.75    0.54
   8  -4  -2    7.32    0.65
  -8  -4   2    7.38    0.57
   8   4  -2    7.60    0.57
   8   4  -2    7.10    0.50
  -8   4   2    7.20    0.58
  -8   4   2    7.60    0.50
  -6  -4   2  166.87    4.40
   6  -4  -2  157.20    4.41
   6  -4  -2  160.93    4.31
  -6  -4   2  168.99    4.30
  -6   4   2  157.73    4.40
   6   4  -2  162.16    4.13
   6   4  -2  164.89    4.20
  -6   4   2  158.59    4.23
   4  -4  -2   14.01    0.67
   4  -4  -2   13.64    0.75
  -4  -4   2   13.93    0.60
  -4  -4   2   13.79    0.56
   4   4  -2   14.44    0.57
  -4   4   2   14.07    0.60
  -4   4   2   14.66    0.73
   4   4  -2   14.08    0.54
   2  -4  -2  198.47    5.26
  -2  -4   2  209.93    5.16
   2  -4  -2  195.81    5.28
  -2  -4   2  203.43    5.10
   2   4  -2  206.97    5.16
  -2   4   2  202.76    5.12
  -2   4   2  218.71    5.34
   0  -4   2    0.65    0.16
   0  -4   2    0.70    0.17
   0  -4  -2    0.90    0.16
   0  -4  -2    1.03    0.17
   0   4   2    1.36    0.30
   0   4   2    0.93    0.17
   0   4  -2    0.61    0.18
   0   4  -2    0.53    0.18
   2  -4   2  128.74    3.37
   2  -4   2  128.65    3.38
  -2  -4  -2  126.86    3.18
  -2   4  -2  127.31    3.44
   2   4   2  129.67    3.28
   4  -4   2   73.34    2.11
   4  -4   2   74.06    2.11
   4  -4   2   75.56    2.13
   4   4   2   72.08    1.87
  -4   4  -2   69.76    2.18
   4   4   2   69.56    1.83
   6  -4   2   49.30    1.61
   6  -4   2   48.63    1.59
   6  -4   2   50.15    1.77
   6   4   2   49.24    1.33
  -6   4  -2   47.66    1.72
   6   4   2   49.04    1.34
   6   4   2   49.70    1.36
   8  -4   2   26.08    1.16
   8  -4   2   24.73    1.07
   8  -4   2   25.78    1.07
  -8   4  -2   25.21    1.23
   8   4   2   26.02    0.85
   8   4   2   26.28    0.84
   8   4   2   26.35    0.87
  10  -4   2   44.28    1.72
  10  -4   2   42.56    1.62
  10  -4   2   46.15    1.62
 -10   4  -2   44.46    1.87
  10   4   2   43.78    1.37
  10   4   2   43.92    1.39
  10   4   2   43.90    1.43
  12  -4   2   32.83    1.40
  12  -4   2   34.55    1.69
  12  -4   2   33.62    1.43
  12   4   2   35.15    1.23
  12   4   2   31.67    1.25
  12   4   2   31.93    1.34
  14  -4   2    3.46    0.59
  14  -4   2    3.17    0.67
  14  -4   2    3.64    0.58
  14   4   2    3.50    0.48
  14   4   2    3.27    0.50
  14   4   2    4.00    0.56
  16  -4   2   18.89    1.40
  16  -4   2   23.22    1.24
  16  -4   2   23.33    1.30
  16   4   2   22.25    1.19
  16   4   2   23.40    1.05
  16   4   2   20.02    1.10
  18  -4   2    3.50    0.71
  18  -4   2    1.47    0.67
  18  -4   2    2.64    0.55
  18   4   2    3.44    0.67
  18   4   2    3.04    0.65
  20  -4   2    2.53    0.84
  20  -4   2    4.68    0.89
  20   4   2    6.76    1.01
  20   4   2    4.40    0.86
  21  -5  -2   11.76    1.26
  21  -5  -2    8.95    1.24
 -21  -5   2   10.70    0.77
  21  -5  -2    8.54    1.10
 -21  -5   2   10.41    0.83
  21   5  -2    9.02    1.36
 -21   5   2   13.42    1.10
  21   5  -2   11.62    1.40
  21   5  -2   11.17    1.12
 -19  -5   2    2.27    0.45
 -19  -5   2    2.69    0.45
  19  -5  -2    3.33    0.76
  19  -5  -2    3.04    0.83
  19  -5  -2    2.13    0.62
  19   5  -2    3.27    0.76
 -19   5   2    3.41    0.59
  19   5  -2    3.70    0.85
  17  -5  -2    7.67    1.07
 -17  -5   2    7.61    0.59
 -17  -5   2    7.64    0.65
  17  -5  -2    7.01    0.94
  17  -5  -2    9.48    0.97
  17   5  -2    7.88    0.94
  17   5  -2    7.55    1.05
 -17   5   2    8.53    0.82
 -17   5   2    8.77    0.75
  15  -5  -2   18.66    1.41
 -15  -5   2   15.34    0.75
  15  -5  -2   14.15    1.15
 -15  -5   2   14.72    0.83
  15  -5  -2   15.58    1.14
  15   5  -2   13.00    0.99
  15   5  -2   14.46    1.10
 -15   5   2   14.87    0.90
 -15   5   2   15.22    1.01
 -13  -5   2   17.48    0.84
 -13  -5   2   15.59    0.73
  13  -5  -2   15.20    1.00
  13  -5  -2   16.12    1.13
  13  -5  -2   13.99    1.11
 -13   5   2   14.47    0.98
  13   5  -2   16.79    1.05
 -13   5   2   13.88    0.86
  13   5  -2   16.55    0.97
  11  -5  -2   22.13    1.26
 -11  -5   2   23.09    0.89
  11  -5  -2   22.86    1.11
 -11  -5   2   20.61    0.95
 -11   5   2   22.02    1.13
  11   5  -2   19.29    1.05
  11   5  -2   22.06    1.00
 -11   5   2   20.56    0.99
   9  -5  -2   20.41    1.09
  -9  -5   2   19.20    0.93
  -9  -5   2   19.60    0.82
   9  -5  -2   19.13    0.95
   9   5  -2   20.02    0.90
  -9   5   2   20.03    0.89
   9   5  -2   18.00    0.81
  -9   5   2   20.19    1.03
   7  -5  -2   53.10    1.85
  -7  -5   2   53.08    1.78
  -7  -5   2   49.54    1.61
   7  -5  -2   50.40    1.70
   7   5  -2   52.94    1.51
   7   5  -2   53.55    1.58
  -7   5   2   52.79    1.81
  -7   5   2   51.79    1.64
  -5  -5   2    2.84    0.32
  -5  -5   2    2.41    0.32
   5  -5  -2    2.74    0.44
   5  -5  -2    2.23    0.36
  -5   5   2    2.30    0.30
   5   5  -2    2.27    0.26
  -5   5   2    2.87    0.42
   5   5  -2    2.64    0.27
  -3  -5   2  111.84    2.92
   3  -5  -2  110.86    3.10
  -3  -5   2  109.86    2.84
   3  -5  -2  107.04    3.12
  -3   5   2  105.20    2.87
  -3   5   2  106.98    3.05
   3   5  -2  112.78    2.89
   3   5  -2  115.97    3.07
   1  -5  -2    1.56    0.26
   1  -5  -2    1.70    0.26
  -1  -5   2    1.29    0.19
  -1  -5   2    1.46    0.23
  -1   5   2    1.55    0.28
  -1   5   2    1.33    0.18
   1   5  -2    1.74    0.26
   1   5  -2    1.51    0.25
  -1  -5  -2   74.03    1.92
   1  -5   2   75.13    2.09
   1  -5   2   74.95    2.11
   1   5   2   75.97    2.13
  -1   5  -2   75.79    2.18
   3  -5   2    0.65    0.22
   3  -5   2    0.35    0.16
   3  -5   2    0.46    0.19
   3  -5   2    0.67    0.26
   3   5   2    0.69    0.19
  -3   5  -2    0.45    0.24
   5  -5   2  117.47    3.19
   5  -5   2  114.79    3.28
   5  -5   2  116.97    3.21
   5  -5   2  114.13    3.20
  -5   5  -2  112.38    3.34
   7  -5   2    4.26    0.54
   7  -5   2    3.32    0.43
   7  -5   2    4.06    0.45
   7   5   2    4.12    0.26
  -7   5  -2    4.12    0.63
   9  -5   2   73.01    2.46
   9  -5   2   75.32    2.34
   9  -5   2   74.31    2.36
   9   5   2   73.18    1.99
   9   5   2   74.13    2.01
  -9   5  -2   72.60    2.60
   9   5   2   72.88    1.97
  11  -5   2    1.51    0.48
  11  -5   2    2.17    0.42
  11  -5   2    1.74    0.54
  11   5   2    2.34    0.36
  11   5   2    2.12    0.34
  11   5   2    2.20    0.39
 -11   5  -2    2.43    0.73
  13  -5   2   22.47    1.34
  13  -5   2   22.75    1.17
  13  -5   2   23.43    1.21
  13   5   2   22.35    0.96
  13   5   2   22.27    1.01
  13   5   2   21.42    0.89
  15  -5   2    1.58    0.48
  15  -5   2    0.65    0.49
  15  -5   2    1.27    0.45
  15   5   2    1.14    0.40
  15   5   2    1.75    0.37
  15   5   2    1.47    0.46
  17  -5   2   18.12    1.16
  17  -5   2   15.93    1.34
  17  -5   2   14.16    1.15
  17   5   2   16.34    1.10
  17   5   2   16.19    0.90
  17   5   2   16.10    1.04
  19  -5   2    0.72    0.63
  19  -5   2   -0.31    0.78
  19  -5   2    0.34    0.63
  19   5   2    1.14    0.61
  19   5   2    0.17    0.40
  19   5   2    0.65    0.64
 -20  -6   2    2.25    0.47
  20  -6  -2    2.51    0.89
  20  -6  -2    3.21    0.76
  20  -6  -2    0.95    0.72
  20   6  -2    2.77    0.80
  20   6  -2    2.70    0.79
  20   6  -2    2.09    0.68
 -20   6   2    2.41    0.68
  18  -6  -2   19.29    1.31
 -18  -6   2   18.99    0.87
 -18  -6   2   19.13    0.99
  18  -6  -2   19.59    1.37
  18  -6  -2   18.13    1.54
  18   6  -2   19.93    1.28
 -18   6   2   20.27    1.14
 -18   6   2   19.59    1.21
  16  -6  -2    5.88    0.92
  16  -6  -2    6.64    0.84
 -16  -6   2    5.67    0.58
 -16  -6   2    5.91    0.72
  16  -6  -2    6.03    0.95
  16   6  -2    6.63    0.87
 -16   6   2    6.30    0.78
 -16   6   2    7.26    0.69
  16   6  -2    6.93    0.82
  14  -6  -2   59.24    2.38
 -14  -6   2   61.32    1.94
  14  -6  -2   59.59    2.40
  14  -6  -2   61.46    2.22
  14   6  -2   60.68    2.15
 -14   6   2   59.59    2.07
 -14   6   2   57.39    2.20
  14   6  -2   62.02    2.03
  12  -6  -2    2.22    0.56
 -12  -6   2    3.01    0.42
  12  -6  -2    2.69    0.60
 -12  -6   2    2.71    0.39
  12  -6  -2    2.13    0.57
  12   6  -2    2.06    0.45
  12   6  -2    2.04    0.42
 -12   6   2    1.87    0.44
 -12   6   2    2.93    0.48
 -10  -6   2  100.37    2.86
  10  -6  -2   92.72    3.21
  10  -6  -2   95.07    3.18
  10  -6  -2  100.18    3.00
 -10  -6   2   99.87    2.66
  10   6  -2  102.11    2.81
  10   6  -2  100.44    2.71
 -10   6   2   96.42    2.87
 -10   6   2   97.73    3.06
   8  -6  -2   10.28    0.80
   8  -6  -2   11.21    0.79
  -8  -6   2   11.33    0.72
   8  -6  -2   10.56    0.84
  -8   6   2   10.55    0.99
   8   6  -2   11.71    0.58
  -8   6   2   12.08    0.66
   8   6  -2   11.29    0.56
   6  -6  -2   97.82    2.83
   6  -6  -2   98.91    2.99
  -6  -6   2  100.29    2.84
   6   6  -2   97.30    2.60
  -6   6   2   98.38    2.92
   6   6  -2   97.62    2.65
  -6   6   2  101.86    2.75
  -4  -6   2   17.19    0.67
   4  -6  -2   16.57    0.89
  -4  -6   2   17.20    0.69
   4  -6  -2   15.59    0.75
   4   6  -2   15.97    0.66
  -4   6   2   16.72    0.82
  -4   6   2   16.21    0.67
   4   6  -2   16.88    0.67
  -2  -6   2  142.93    3.70
  -2  -6   2  141.23    3.62
   2  -6  -2  139.84    3.75
   2  -6  -2  137.00    3.83
   2   6  -2  142.05    3.72
  -2   6   2  139.96    3.79
  -2   6   2  140.32    3.61
   2   6  -2  153.60    3.88
   0  -6   2   11.76    0.52
   0  -6   2   12.00    0.56
   0  -6  -2   11.79    0.47
   0   6  -2   12.41    0.63
   0   6   2   11.43    0.57
   2  -6   2   71.37    2.05
   2  -6   2   70.88    2.06
   2  -6   2   71.36    2.09
   2  -6   2   71.91    2.15
  -2   6  -2   72.08    2.19
   2   6   2   70.48    1.96
   4  -6   2   38.23    1.33
   4  -6   2   38.08    1.32
   4  -6   2   37.80    1.41
   4  -6   2   37.96    1.31
  -4   6  -2   39.88    1.50
   6  -6   2   48.75    1.64
   6  -6   2   47.06    1.74
   6  -6   2   47.97    1.64
   6  -6   2   50.89    1.64
  -6   6  -2   47.54    1.84
   8  -6   2   30.46    1.39
   8  -6   2   30.37    1.26
   8  -6   2   33.26    1.29
  -8   6  -2   30.42    1.52
  10  -6   2   25.82    1.20
  10  -6   2   26.41    1.21
  10  -6   2   27.06    1.36
  10   6   2   26.50    0.92
 -10   6  -2   25.67    1.53
  12  -6   2   19.22    1.25
  12  -6   2   19.87    1.07
  12  -6   2   20.96    1.11
  12   6   2   20.05    0.74
  12   6   2   20.09    0.77
  12   6   2   19.36    0.83
  14  -6   2    6.40    0.77
  14  -6   2    6.18    0.78
  14  -6   2    5.96    0.89
  14   6   2    5.99    0.49
  14   6   2    5.24    0.74
  14   6   2    5.54    0.45
  14   6   2    5.49    0.59
  16  -6   2   13.82    1.10
  16  -6   2   16.00    1.08
  16  -6   2   16.06    1.33
  16   6   2   14.63    0.79
  16   6   2   15.57    0.94
  16   6   2   14.86    1.05
  18  -6   2    2.74    0.65
  18  -6   2    3.25    0.92
  18  -6   2    2.77    0.63
  18   6   2    3.73    0.67
  18   6   2    2.68    0.73
  19  -7  -2    7.25    1.12
  19  -7  -2    3.11    0.91
 -19  -7   2    4.90    0.65
  19  -7  -2    4.33    0.80
  19   7  -2    4.36    0.79
 -19   7   2    3.05    0.70
  19   7  -2    4.94    0.92
 -17  -7   2   14.15    0.91
  17  -7  -2   14.22    1.18
  17  -7  -2   11.87    1.40
  17  -7  -2   14.91    1.22
 -17   7   2   14.14    1.04
 -17   7   2   11.89    0.93
  17   7  -2   14.49    1.09
  17   7  -2   14.93    1.02
  15  -7  -2   21.16    1.47
 -15  -7   2   20.32    0.93
  15  -7  -2   21.66    1.35
  15  -7  -2   21.45    1.24
  15   7  -2   22.03    1.12
  15   7  -2   18.06    1.08
 -15   7   2   21.27    1.10
 -13  -7   2   15.62    0.77
  13  -7  -2   14.85    1.18
  13  -7  -2   16.19    1.03
  13  -7  -2   13.77    1.30
  13   7  -2   14.34    0.86
 -13   7   2   16.45    0.93
  11  -7  -2   28.02    1.46
 -11  -7   2   27.89    1.09
  11  -7  -2   26.20    1.39
  11   7  -2   27.45    1.06
 -11   7   2   27.73    1.18
   9  -7  -2   41.41    1.74
   9  -7  -2   40.80    1.70
   9  -7  -2   42.21    1.59
  -9  -7   2   41.34    1.48
   9   7  -2   42.97    1.33
  -9   7   2   43.20    1.50
  -9   7   2   41.43    1.63
  -7  -7   2   62.37    2.01
   7  -7  -2   61.88    2.13
   7  -7  -2   62.21    2.18
   7  -7  -2   59.21    1.98
  -7   7   2   63.41    1.91
  -7   7   2   58.88    2.04
   7   7  -2   62.04    1.77
  -5  -7   2   11.10    0.60
  -5  -7   2   11.25    0.58
   5  -7  -2    9.74    0.69
   5  -7  -2    9.99    0.63
   5  -7  -2   10.37    0.76
  -5   7   2   10.25    0.56
   5   7  -2    9.47    0.59
  -5   7   2   10.72    0.72
   5   7  -2   10.44    0.53
   3  -7  -2  109.29    3.01
   3  -7  -2  110.11    3.09
   3  -7  -2  108.14    3.18
  -3  -7   2  110.58    2.94
  -3  -7   2  107.57    2.84
  -3   7   2  107.47    3.07
  -3   7   2  111.04    2.89
   3   7  -2  110.68    2.96
  -1  -7   2   14.42    0.58
  -1  -7   2   14.62    0.69
   1  -7  -2   14.94    0.65
  -1  -7   2   15.19    0.63
   1  -7  -2   14.27    0.69
  -1   7   2   13.49    0.68
  -1   7   2   14.96    0.53
   1   7  -2   13.76    0.72
   1  -7   2   73.62    2.12
   1  -7   2   71.32    2.16
   1  -7   2   71.85    2.04
   1  -7   2   71.02    2.08
  -1   7  -2   72.76    2.23
   1   7   2   71.28    2.00
   3  -7   2   28.18    1.19
   3  -7   2   25.98    1.01
   3  -7   2   27.34    1.04
   3  -7   2   27.94    1.15
  -3   7  -2   27.31    1.22
   5  -7   2  100.10    2.84
   5  -7   2   99.17    2.83
   5  -7   2   97.29    2.84
  -5   7  -2   94.82    3.06
   7  -7   2    0.49    0.27
   7  -7   2    0.73    0.37
   7  -7   2    0.61    0.26
   7  -7   2    0.69    0.25
  -7   7  -2    0.77    0.47
   9  -7   2   57.01    2.00
   9  -7   2   59.64    2.19
   9  -7   2   57.53    2.00
  -9   7  -2   57.32    2.38
  11  -7   2   13.61    1.06
  11  -7   2   10.32    0.84
  11  -7   2   13.22    0.87
  13  -7   2   20.37    1.15
  13  -7   2   18.18    1.29
  13  -7   2   18.97    1.11
  15  -7   2    3.06    0.83
  15  -7   2    2.72    0.59
  15  -7   2    3.04    0.67
  15   7   2    3.28    0.50
  15   7   2    4.26    0.51
  15   7   2    3.37    0.41
  15   7   2    3.69    0.55
  17  -7   2   12.30    1.06
  17  -7   2   14.47    1.49
  17  -7   2   14.77    1.22
  17   7   2   12.42    1.00
  17   7   2   11.75    0.71
  17   7   2   12.98    0.73
  18  -8  -2    7.42    1.17
  18  -8  -2    4.58    0.85
  18  -8  -2    7.26    1.08
 -18   8   2    6.86    0.91
  18   8  -2    5.13    0.74
  18   8  -2    6.27    0.78
  16  -8  -2    2.33    0.55
 -16  -8   2    2.09    0.38
  16  -8  -2    2.57    0.71
  16  -8  -2    3.08    0.81
  16   8  -2    1.54    0.48
  16   8  -2    1.76    0.56
 -16   8   2    1.42    0.60
  14  -8  -2   18.57    1.31
  14  -8  -2   21.17    1.23
  14  -8  -2   20.67    1.44
 -14  -8   2   20.78    0.90
  14   8  -2   20.25    0.97
  14   8  -2   21.55    0.86
 -14   8   2   21.05    1.08
  12  -8  -2    1.37    0.56
 -12  -8   2    1.20    0.28
  12  -8  -2    1.65    0.54
  12  -8  -2    0.71    0.46
  12   8  -2    1.44    0.26
  12   8  -2    1.03    0.29
 -12   8   2    1.70    0.37
  10  -8  -2   28.43    1.38
  10  -8  -2   27.95    1.34
  10  -8  -2   28.21    1.44
 -10  -8   2   28.72    1.10
 -10   8   2   29.28    1.21
 -10   8   2   29.78    1.33
  10   8  -2   28.78    0.93
  10   8  -2   28.57    1.01
   8  -8  -2    2.28    0.51
   8  -8  -2    2.89    0.47
   8  -8  -2    2.92    0.59
  -8  -8   2    2.33    0.42
   8   8  -2    2.54    0.32
  -8   8   2    2.81    0.48
  -8   8   2    2.54    0.41
   8   8  -2    2.64    0.35
   6  -8  -2   24.79    1.53
  -6  -8   2   25.89    1.06
   6  -8  -2   25.95    1.15
   6  -8  -2   26.12    1.09
  -6   8   2   25.33    1.15
  -6   8   2   25.92    1.00
   6   8  -2   26.06    0.93
   4  -8  -2    4.57    0.64
   4  -8  -2    3.12    0.44
  -4  -8   2    3.47    0.33
   4  -8  -2    4.19    0.45
  -4  -8   2    3.81    0.37
  -4  -8   2    3.13    0.39
   4   8  -2    3.89    0.47
  -4   8   2    4.53    0.52
  -4   8   2    3.76    0.37
  -2  -8   2   38.17    1.26
   2  -8  -2   38.14    1.31
   2  -8  -2   38.33    1.28
   2  -8  -2   37.65    1.35
  -2  -8   2   40.61    1.26
  -2  -8   2   38.24    1.17
  -2   8   2   40.18    1.16
  -2   8   2   39.65    1.36
   2   8  -2   39.15    1.36
   0  -8   2    2.02    0.27
   0  -8   2    2.83    0.35
   0  -8   2    2.66    0.41
   0  -8   2    3.21    0.33
   0   8   2    2.77    0.36
   0   8  -2    2.66    0.45
   2  -8   2   16.56    0.86
   2  -8   2   16.24    0.72
   2  -8   2   17.19    0.77
   2  -8   2   16.99    0.79
  -2   8  -2   16.15    0.96
   4  -8   2    8.41    0.59
   4  -8   2    7.56    0.53
   4  -8   2    8.67    0.72
   4  -8   2    8.86    0.58
  -4   8  -2    8.23    0.84
   6  -8   2   15.67    0.99
   6  -8   2   14.82    0.80
   6  -8   2   15.74    0.86
   6  -8   2   16.13    0.83
  -6   8  -2   16.77    1.19
   8  -8   2   11.94    0.77
   8  -8   2   11.06    0.74
   8  -8   2   11.43    0.93
   8  -8   2   12.39    0.75
  -8   8  -2   10.60    1.15
  10  -8   2    8.23    0.88
  10  -8   2    7.06    0.86
  10  -8   2    8.09    0.72
  10  -8   2    8.80    0.69
  12  -8   2    7.16    0.76
  12  -8   2    5.91    0.70
  12  -8   2    5.55    0.86
  14  -8   2    2.59    0.57
  14  -8   2    1.46    0.77
  14  -8   2    2.88    0.62
  16  -8   2    6.29    1.08
  16  -8   2    8.75    0.92
 -15  -9   2    8.18    0.57
  15  -9  -2    9.08    1.09
  15  -9  -2   10.80    1.00
  15  -9  -2    9.11    1.37
  15   9  -2    9.42    0.67
  13  -9  -2    8.57    1.49
  13  -9  -2    9.55    1.12
 -13  -9   2    9.30    0.58
  13  -9  -2   10.70    0.92
  13   9  -2    9.08    0.58
 -13   9   2    9.30    0.78
 -11  -9   2   12.98    0.66
  11  -9  -2   10.81    1.05
  11  -9  -2   13.20    0.91
  11  -9  -2   11.84    0.98
 -11   9   2   12.22    0.83
  11   9  -2   11.99    0.61
   9  -9  -2   17.80    0.99
  -9  -9   2   17.02    0.81
   9  -9  -2   16.70    1.16
   9  -9  -2   18.70    1.07
  -9   9   2   17.15    1.01
   9   9  -2   16.29    0.71
  -9   9   2   17.99    0.92
   7  -9  -2   24.03    1.11
   7  -9  -2   25.69    1.16
  -7  -9   2   25.96    1.09
   7  -9  -2   21.57    1.24
  -7   9   2   23.40    1.14
   7   9  -2   23.49    0.86
  -7   9   2   25.36    1.03
   5  -9  -2    5.95    0.55
  -5  -9   2    5.12    0.48
   5  -9  -2    5.45    0.54
   5  -9  -2    4.82    0.71
  -5   9   2    5.48    0.46
  -3  -9   2   38.26    1.24
  -3  -9   2   37.79    1.22
   3  -9  -2   36.47    1.26
   3  -9  -2   36.11    1.41
   3  -9  -2   36.25    1.30
  -3   9   2   37.79    1.36
   3   9  -2   36.61    1.34
  -1  -9   2    9.09    0.55
  -1  -9   2   10.19    0.49
  -1  -9   2   11.71    0.57
  -1  -9   2   10.15    0.63
   1   9  -2    9.64    0.74
   1  -9   2   26.82    1.08
   1  -9   2   26.93    0.96
   1  -9   2   26.67    1.00
   1  -9   2   26.17    1.16
  -1   9  -2   26.06    1.25
   3  -9   2   11.03    0.60
   3  -9   2   11.32    0.68
   3  -9   2    9.71    0.76
   3  -9   2   10.21    0.65
  -3   9  -2   11.77    0.95
   5  -9   2   33.82    1.39
   5  -9   2   35.36    1.31
   5  -9   2   36.06    1.50
   5  -9   2   33.06    1.27
  -5   9  -2   34.22    1.69
   7  -9   2    2.10    0.42
   7  -9   2    1.72    0.41
   7  -9   2    1.72    0.36
   7  -9   2    1.70    0.47
  -7   9  -2    1.74    0.71
   9  -9   2   22.37    1.13
   9  -9   2   22.75    1.09
   9  -9   2   22.68    1.13
   9  -9   2   21.99    1.31
  11  -9   2    6.74    0.72
  11  -9   2    4.54    0.64
  11  -9   2    5.81    0.92
  11  -9   2    5.38    0.62
  13  -9   2    8.20    0.77
  13  -9   2    8.84    0.88
  13  -9   2    8.19    0.90
  13  -9   2    8.31    1.22
  14 -10  -2   16.49    1.23
  12 -10  -2    4.90    0.82
  12 -10  -2    5.71    0.88
 -12  10   2    4.39    0.70
 -12  10   2    3.95    0.68
  10 -10  -2   25.95    1.49
  10 -10  -2   26.95    1.34
  10 -10  -2   28.27    1.37
 -10  10   2   28.58    1.25
 -10  10   2   25.79    1.27
   8 -10  -2   12.33    0.88
   8 -10  -2   12.67    1.02
   8 -10  -2   14.21    0.94
  -8 -10   2   13.30    0.73
  -8  10   2   12.99    0.97
  -6 -10   2   26.84    1.14
   6 -10  -2   25.62    1.34
   6 -10  -2   28.92    1.20
  -6 -10   2   26.55    0.92
   6 -10  -2   28.59    1.18
  -6  10   2   26.94    1.21
   4 -10  -2   17.38    0.87
   4 -10  -2   18.31    0.82
   4 -10  -2   17.63    1.01
  -4 -10   2   16.76    0.71
  -4 -10   2   18.34    0.80
  -4  10   2   17.25    0.89
  -2 -10   2   37.83    1.27
  -2 -10   2   37.32    1.27
  -2 -10   2   43.04    1.44
  -2 -10   2   37.59    1.27
   2  10  -2   36.64    1.49
  -2  10   2   37.34    1.36
   0 -10   2   12.30    0.72
   0 -10   2   10.54    0.62
   0 -10   2   10.52    0.54
   0 -10   2   10.32    0.61
   0  10   2   11.74    0.63
   0  10  -2   10.13    0.90
   2 -10   2   28.09    1.08
   2 -10   2   27.71    1.10
   2 -10   2   26.40    1.18
   2 -10   2   26.83    1.01
  -2  10  -2   27.13    1.43
   4 -10   2   21.54    0.93
   4 -10   2   18.81    1.38
   4 -10   2   24.70    1.18
   4 -10   2   21.65    0.99
  -4  10  -2   21.92    1.44
   6 -10   2   16.35    0.87
   6 -10   2   17.92    1.08
   6 -10   2   16.38    0.89
   6 -10   2   16.30    0.92
   8 -10   2   11.29    0.77
   8 -10   2   10.91    0.80
   8 -10   2   12.24    0.82
   8 -10   2   12.40    1.03
  10 -10   2   15.91    0.93
  10 -10   2   14.68    1.14
  10 -10   2   11.84    0.91
  10 -10   2   16.70    1.24
   9 -11  -2    6.97    0.83
   9 -11  -2    5.44    0.74
   9 -11  -2    7.92    0.96
  -9  11   2    7.69    0.85
   7 -11  -2    9.17    0.79
   7 -11  -2    7.75    0.91
   7 -11  -2    7.72    0.69
  -7  11   2    6.07    0.83
   5 -11  -2    3.97    0.63
   5 -11  -2    3.29    0.46
  -5 -11   2    2.56    0.33
   5 -11  -2    2.71    0.44
  -5 -11   2    3.13    0.45
   5  11  -2    3.24    0.49
  -5  11   2    3.08    0.58
  -3 -11   2   12.09    0.61
   3 -11  -2   12.08    0.55
  -3 -11   2   12.18    0.66
   3 -11  -2   13.06    0.76
  -1 -11   2    5.34    0.38
  -1 -11   2    6.14    0.57
  -1 -11   2    5.15    0.45
  -1 -11   2    5.71    0.50
   1 -11   2    9.58    0.63
   1 -11   2    8.60    0.52
   1 -11   2    9.65    0.86
   1 -11   2    9.81    0.63
  -1  11  -2   10.79    1.10
   3 -11   2    3.64    0.53
   3 -11   2    4.02    0.50
   3 -11   2    3.04    0.42
   5 -11   2   10.33    0.90
   5 -11   2    9.42    0.71
   5 -11   2   12.30    1.21
   5 -11   2   10.28    0.68
   7 -11   2    2.42    0.43
   7 -11   2    2.54    0.43
   7 -11   2    3.00    0.78
   7 -11   2    2.46    0.56
  -4 -12   2    4.41    0.60
   4 -12  -2    3.46    0.42
   4 -12  -2    5.19    0.71
   4 -12  -2    4.98    0.61
  -4 -12   2    4.76    0.41
  -2 -12   2    6.99    0.70
  -2 -12   2    9.62    0.63
   0 -12   2    3.15    0.48
   0 -12   2    2.71    0.38
   2 -12   2    6.71    0.74
   2 -12   2    6.46    0.60
  22   0  -3    8.66    1.17
  22   0  -3    8.18    1.24
 -22   0   3   10.15    1.07
 -22   0   3    8.28    0.89
  20   0  -3    6.47    1.05
 -20   0   3    7.50    0.77
 -20   0   3    6.68    0.95
  20   0  -3    7.01    1.04
  18   0  -3   27.60    1.66
 -18   0   3   29.51    1.53
  18   0  -3   28.14    1.61
 -18   0   3   28.88    1.36
  16   0  -3   30.23    1.60
  16   0  -3   32.21    1.67
 -16   0   3   31.04    1.41
 -16   0   3   32.45    1.53
  14   0  -3   69.46    2.54
  14   0  -3   68.13    2.61
 -14   0   3   72.08    2.41
 -14   0   3   72.73    2.51
 -12   0   3   14.85    0.90
 -12   0   3   15.16    0.97
  12   0  -3   13.61    0.97
  12   0  -3   14.80    1.00
 -10   0   3  325.75    8.35
  10   0  -3  301.52    8.32
  10   0  -3  317.13    8.32
 -10   0   3  323.86    8.27
  -8   0   3   25.37    1.17
  -8   0   3   23.15    1.12
   8   0  -3   23.71    1.13
   8   0  -3   24.68    1.18
  -6   0   3  301.80    7.74
   6   0  -3  286.50    7.67
   6   0  -3  283.07    7.59
  -6   0   3  315.64    7.76
   4   0  -3   13.48    0.70
  -4   0   3   13.39    0.74
  -4   0   3   12.99    0.69
   4   0  -3   12.75    0.66
   2   0  -3  588.30   14.65
   2   0  -3  580.54   14.72
  -2   0   3  580.50   14.74
  -2   0   3  566.69   14.38
   0   0  -3    0.60    0.19
   0   0  -3    0.34    0.16
   0   0   3    0.44    0.17
   0   0   3    0.57    0.19
   2   0   3  441.45   11.05
  -2   0  -3  442.28   10.93
  -2   0  -3  448.80   10.95
   2   0   3  453.29   10.92
   4   0   3    4.52    0.34
   4   0   3    4.56    0.34
  -4   0  -3    3.77    0.36
   6   0   3  128.63    3.44
   6   0   3  129.88    3.43
   6   0   3  128.57    3.44
  -6   0  -3  123.98    3.49
   8   0   3    1.46    0.26
  -8   0  -3    1.80    0.37
   8   0   3    2.06    0.36
   8   0   3    1.80    0.31
  10   0   3  160.42    4.28
  10   0   3  147.88    4.50
 -10   0  -3  162.26    4.47
  12   0   3    2.91    0.46
  12   0   3    2.96    0.46
 -12   0  -3    2.31    0.54
  12   0   3    3.87    0.60
 -14   0  -3   28.66    1.54
  14   0   3   27.06    1.26
  14   0   3   28.07    1.39
  16   0   3    7.36    0.95
  16   0   3    6.91    0.82
  18   0   3    6.33    1.00
  18   0   3    6.37    0.90
  20   0   3    2.63    0.83
  20   0   3    2.61    0.67
  23  -1  -3    0.68    0.84
 -23  -1   3    1.15    0.55
 -23  -1   3   -0.35    0.64
  23  -1  -3    0.22    0.72
 -23   1   3    0.89    0.65
  23   1  -3   -0.44    0.83
  23   1  -3   -0.40    0.80
 -21  -1   3   26.33    1.56
  21  -1  -3   24.82    1.69
  21  -1  -3   25.56    1.80
 -21  -1   3   27.86    1.40
 -21   1   3   24.53    1.51
  21   1  -3   25.87    1.72
 -21   1   3   28.23    1.41
  21   1  -3   25.53    1.81
  19  -1  -3    0.64    0.55
 -19  -1   3    0.77    0.48
  19  -1  -3    1.07    0.70
 -19  -1   3    0.41    0.33
  19   1  -3    0.49    0.64
 -19   1   3    0.18    0.35
  19   1  -3    0.67    0.58
 -19   1   3    0.07    0.48
  17  -1  -3   68.95    2.71
 -17  -1   3   68.87    2.39
 -17  -1   3   67.92    2.47
  17  -1  -3   73.67    2.66
  17   1  -3   67.10    2.62
  17   1  -3   69.37    2.65
 -17   1   3   69.62    2.42
 -17   1   3   66.52    2.82
  15  -1  -3    1.13    0.50
  15  -1  -3    0.96    0.54
 -15  -1   3    2.00    0.42
 -15  -1   3    1.76    0.41
  15   1  -3    1.18    0.54
 -15   1   3    1.10    0.39
 -15   1   3    0.23    0.39
  15   1  -3    1.72    0.55
  13  -1  -3   98.32    3.15
 -13  -1   3   91.47    3.01
  13  -1  -3   95.45    3.12
 -13  -1   3   95.08    2.98
  13   1  -3   94.03    3.09
  13   1  -3   91.81    3.10
 -13   1   3   92.97    3.21
 -13   1   3   98.19    3.11
  11  -1  -3    4.62    0.64
 -11  -1   3    5.67    0.59
  11  -1  -3    5.64    0.68
 -11  -1   3    5.75    0.62
  11   1  -3    5.88    0.70
 -11   1   3    6.06    0.64
  11   1  -3    6.24    0.74
 -11   1   3    5.92    0.58
   9  -1  -3  185.00    5.27
  -9  -1   3  188.63    5.26
  -9  -1   3  191.93    5.26
   9  -1  -3  191.05    5.29
  -9   1   3  187.04    5.20
   9   1  -3  197.49    5.25
   9   1  -3  197.15    5.33
  -9   1   3  191.97    5.32
  -7  -1   3    2.51    0.48
   7  -1  -3    2.33    0.45
  -7  -1   3    2.41    0.42
   7  -1  -3    2.66    0.49
   7   1  -3    2.84    0.44
  -7   1   3    2.02    0.41
  -7   1   3    2.96    0.49
   5  -1  -3  236.57    6.37
  -5  -1   3  243.90    6.41
   5  -1  -3  242.55    6.44
  -5  -1   3  246.69    6.37
   5   1  -3  241.61    6.36
   5   1  -3  244.04    6.30
  -5   1   3  259.05    6.52
  -5   1   3  258.12    6.54
   3  -1  -3   60.09    1.79
   3  -1  -3   61.57    1.83
  -3  -1   3   59.80    1.74
  -3  -1   3   59.60    1.78
   3   1  -3   58.89    1.73
  -3   1   3   60.55    1.84
  -3   1   3   60.41    1.88
   1  -1  -3   28.92    0.94
  -1  -1   3   30.39    0.96
  -1  -1   3   28.56    0.97
   1  -1  -3   28.50    0.94
  -1   1   3   28.24    0.95
  -1   1   3   28.75    0.97
   1   1  -3   28.48    0.96
   1   1  -3   28.98    0.95
  -1  -1  -3   48.40    1.41
   1  -1   3   48.19    1.43
   1  -1   3   46.03    1.41
  -1  -1  -3   47.69    1.40
   1   1   3   49.52    1.41
   1   1   3   49.75    1.42
  -1   1  -3   48.88    1.47
   3  -1   3   59.57    1.79
  -3  -1  -3   63.89    1.80
   3  -1   3   63.35    1.81
  -3  -1  -3   63.76    1.78
   3   1   3   62.60    1.76
  -3   1  -3   62.61    1.84
  -3   1  -3   62.49    1.85
   3   1   3   62.56    1.76
  -5  -1  -3   44.04    1.46
   5  -1   3   47.29    1.50
   5  -1   3   48.41    1.49
   5   1   3   48.81    1.45
  -5   1  -3   47.67    1.55
   5   1   3   47.65    1.43
   7  -1   3   11.46    0.64
   7  -1   3   11.01    0.62
   7  -1   3   12.20    0.63
  -7  -1  -3   11.14    0.64
   7   1   3   12.58    0.59
   7   1   3   11.67    0.59
  -7   1  -3   12.58    0.91
   7   1   3   12.39    0.62
   9  -1   3   81.94    2.45
   9  -1   3   83.52    2.48
  -9  -1  -3   80.95    2.52
   9  -1   3   83.38    2.46
   9   1   3   81.77    2.40
   9   1   3   82.42    2.38
  -9   1  -3   81.81    2.61
   9   1   3   78.95    2.38
  11  -1   3    0.58    0.35
  11  -1   3    0.74    0.33
  11  -1   3    1.04    0.48
 -11  -1  -3    0.51    0.35
 -11   1  -3    0.48    0.40
  11   1   3    0.71    0.32
  11   1   3    1.11    0.32
  11   1   3    0.51    0.32
  13  -1   3   34.47    1.41
 -13  -1  -3   35.28    1.59
  13  -1   3   35.79    1.51
  13  -1   3   31.89    1.50
  13   1   3   34.86    1.36
 -13   1  -3   30.89    1.61
  13   1   3   32.93    1.44
  13   1   3   32.72    1.36
  15  -1   3    4.10    0.73
  15  -1   3    4.00    0.59
  15   1   3    4.55    0.57
  15   1   3    3.85    0.65
  15   1   3    3.40    0.56
  17  -1   3   17.73    1.19
  17  -1   3   15.93    1.33
  17   1   3   18.64    1.14
  17   1   3   16.95    1.24
  19  -1   3   -0.09    0.50
  19  -1   3    0.03    0.62
  19   1   3    1.23    0.48
  19   1   3   -0.16    0.47
  19   1   3    0.81    0.83
  22  -2  -3    6.54    1.14
  22  -2  -3    3.47    0.99
 -22  -2   3    4.74    0.78
  22  -2  -3    2.90    0.83
 -22  -2   3    4.53    0.66
  22   2  -3    6.68    1.13
 -22   2   3    4.29    0.75
 -22   2   3    5.01    0.83
  20  -2  -3    4.48    0.84
 -20  -2   3    3.77    0.65
  20  -2  -3    3.81    0.90
 -20  -2   3    4.31    0.67
 -20   2   3    6.02    0.92
  20   2  -3    4.24    0.91
  20   2  -3    3.31    0.85
  18  -2  -3   15.26    1.17
  18  -2  -3   10.95    1.26
 -18  -2   3   13.87    0.93
 -18  -2   3   13.34    0.96
 -18   2   3   12.00    1.04
  18   2  -3   11.52    1.20
  18   2  -3   11.83    1.16
  16  -2  -3   10.60    1.00
 -16  -2   3   10.98    0.83
 -16  -2   3   10.13    0.82
  16   2  -3   10.92    1.11
 -16   2   3   10.21    0.95
 -16   2   3   10.12    0.79
  16   2  -3    9.89    1.05
 -14  -2   3   44.79    1.73
  14  -2  -3   43.97    1.90
 -14  -2   3   38.69    1.92
  14   2  -3   42.13    1.88
 -14   2   3   41.78    1.67
  14   2  -3   42.14    1.81
 -14   2   3   43.37    1.83
  12  -2  -3    5.59    0.68
  12  -2  -3    6.08    0.79
 -12  -2   3    4.97    0.60
 -12  -2   3    5.43    0.60
 -12   2   3    5.59    0.58
 -12   2   3    6.15    0.70
  12   2  -3    5.47    0.72
  12   2  -3    5.12    0.73
  10  -2  -3  157.78    4.59
 -10  -2   3  155.03    4.49
  10  -2  -3  157.32    4.53
 -10  -2   3  158.99    4.52
  10   2  -3  166.31    4.53
 -10   2   3  159.28    4.61
  10   2  -3  163.64    4.59
 -10   2   3  160.91    4.47
  -8  -2   3    0.43    0.32
   8  -2  -3    0.71    0.36
  -8  -2   3    1.11    0.35
   8  -2  -3    1.31    0.35
   8   2  -3    0.70    0.29
  -8   2   3    0.56    0.32
   8   2  -3    0.75    0.30
  -8   2   3    0.83    0.27
  -6  -2   3  181.04    4.81
  -6  -2   3  180.96    4.86
   6  -2  -3  182.03    4.89
   6  -2  -3  179.36    4.91
  -6   2   3  172.68    4.83
   6   2  -3  171.80    4.74
   6   2  -3  174.04    4.67
  -6   2   3  183.31    4.96
   4  -2  -3    0.41    0.26
   4  -2  -3    0.82    0.32
  -4  -2   3    0.26    0.18
  -4  -2   3    0.78    0.22
   4   2  -3    0.56    0.19
  -4   2   3    0.78    0.35
   4   2  -3    0.52    0.19
  -4   2   3    0.84    0.34
   2  -2  -3  283.56    6.98
  -2  -2   3  286.26    6.99
   2  -2  -3  289.72    7.00
  -2  -2   3  272.91    6.93
   2   2  -3  268.47    6.92
   2   2  -3  267.61    6.95
  -2   2   3  279.77    7.06
  -2   2   3  283.51    7.11
   0  -2  -3   18.72    0.69
   0  -2   3   18.28    0.73
   0  -2  -3   19.82    0.68
   0  -2   3   18.63    0.71
   0   2   3   19.23    0.71
   0   2   3   19.27    0.72
   0   2  -3   19.71    0.75
  -2  -2  -3  239.36    5.81
  -2  -2  -3  235.21    5.83
   2  -2   3  226.74    5.88
   2   2   3  236.07    5.82
  -2   2  -3  237.36    5.95
   2   2   3  234.65    5.82
  -2   2  -3  225.41    5.92
  -4  -2  -3    6.39    0.39
   4  -2   3    6.13    0.42
   4   2   3    6.60    0.36
  -4   2  -3    6.02    0.48
   4   2   3    6.40    0.37
   6  -2   3   88.42    2.49
   6  -2   3   81.73    2.46
   6  -2   3   85.61    2.46
  -6  -2  -3   83.80    2.40
  -6   2  -3   84.22    2.55
   6   2   3   87.71    2.36
   6   2   3   83.01    2.34
   6   2   3   85.15    2.32
   8  -2   3    0.33    0.17
   8  -2   3    0.30    0.26
   8  -2   3    0.23    0.20
  -8  -2  -3    0.51    0.24
  -8   2  -3    0.59    0.30
   8   2   3    0.33    0.17
   8   2   3    0.32    0.20
   8   2   3    0.34    0.20
 -10  -2  -3   76.44    2.48
  10  -2   3   78.45    2.56
  10  -2   3   80.09    2.47
  10   2   3   79.25    2.40
  10   2   3   80.17    2.35
  10   2   3   81.21    2.33
 -10   2  -3   81.94    2.69
  12  -2   3    0.61    0.36
  12  -2   3    0.36    0.31
 -12  -2  -3    0.44    0.74
  12  -2   3    0.54    0.39
  12   2   3    0.49    0.27
  12   2   3    0.36    0.28
  12   2   3    0.37    0.33
 -12   2  -3    0.06    0.41
  14  -2   3   20.67    1.12
  14  -2   3   21.46    1.14
 -14   2  -3   25.24    1.48
  14   2   3   20.99    1.15
  14   2   3   23.02    1.06
  14   2   3   22.74    1.12
  16  -2   3    5.11    0.77
  16  -2   3    2.93    0.72
  16   2   3    4.60    0.60
  16   2   3    4.77    0.72
  16   2   3    5.13    0.74
  18  -2   3    3.58    0.85
  18  -2   3    3.65    0.74
  18   2   3    2.81    0.51
  18   2   3    3.35    0.75
  18   2   3    4.53    0.69
  20  -2   3    1.07    0.70
  20  -2   3    1.58    0.78
  20   2   3    1.77    0.62
  20   2   3    0.64    0.74
 -21  -3   3   25.35    1.27
  21  -3  -3   21.80    1.74
 -21  -3   3   25.07    1.32
  21  -3  -3   18.33    1.62
  21  -3  -3   21.93    1.67
  21   3  -3   22.56    1.66
  21   3  -3   23.67    1.73
 -21   3   3   23.19    1.45
  19  -3  -3    1.46    0.64
 -19  -3   3   -0.09    0.38
 -19  -3   3    0.28    0.42
  19  -3  -3    2.29    0.83
  19   3  -3    1.71    0.71
 -19   3   3    0.40    0.50
  19   3  -3    0.32    0.62
  17  -3  -3   86.32    3.13
  17  -3  -3   86.67    3.03
 -17  -3   3   84.29    2.77
 -17  -3   3   85.04    2.76
  17   3  -3   85.02    2.98
  17   3  -3   79.69    3.03
 -17   3   3   82.26    2.97
  15  -3  -3    8.75    0.92
 -15  -3   3    7.49    0.71
  15  -3  -3    6.59    0.99
 -15  -3   3    6.11    0.69
 -15   3   3    7.20    0.67
  15   3  -3    6.93    0.87
  15   3  -3    6.25    0.93
 -15   3   3    7.51    0.84
  13  -3  -3   74.44    2.57
 -13  -3   3   73.26    2.41
  13  -3  -3   71.35    2.61
 -13  -3   3   70.72    2.40
 -13   3   3   70.38    2.38
  13   3  -3   70.61    2.46
  13   3  -3   75.73    2.58
  11  -3  -3   20.65    1.19
 -11  -3   3   17.10    0.98
 -11  -3   3   18.33    0.99
  11  -3  -3   20.39    1.10
 -11   3   3   19.34    1.12
  11   3  -3   19.25    1.02
 -11   3   3   18.03    0.95
  11   3  -3   19.94    1.11
  -9  -3   3  280.07    7.14
  -9  -3   3  281.64    7.21
   9  -3  -3  270.99    7.17
   9  -3  -3  260.98    7.21
   9   3  -3  258.00    7.11
  -9   3   3  270.66    7.06
   9   3  -3  271.92    7.02
  -9   3   3  274.02    7.28
  -7  -3   3   19.12    0.92
  -7  -3   3   17.36    0.95
   7  -3  -3   18.07    0.95
   7  -3  -3   18.00    1.00
  -7   3   3   18.24    1.00
   7   3  -3   17.84    0.87
  -7   3   3   18.22    0.89
   7   3  -3   18.16    0.81
  -5  -3   3  212.41    5.42
   5  -3  -3  213.79    5.65
  -5  -3   3  207.01    5.48
   5  -3  -3  209.09    5.62
  -5   3   3  209.79    5.71
   5   3  -3  213.77    5.36
   5   3  -3  210.56    5.42
  -5   3   3  210.03    5.56
   3  -3  -3   95.94    2.80
  -3  -3   3  103.39    2.76
   3  -3  -3   91.27    2.82
  -3  -3   3  107.12    2.71
  -3   3   3  106.33    3.03
   3   3  -3   99.99    2.72
   3   3  -3   99.08    2.69
  -3   3   3  100.75    2.91
  -1  -3   3   69.61    1.96
   1  -3  -3   70.98    1.96
   1  -3  -3   69.56    1.95
  -1   3   3   71.06    2.09
  -1   3   3   74.00    2.15
   1   3  -3   70.16    2.02
   1   3  -3   69.31    2.00
   1  -3   3   85.47    2.33
  -1  -3  -3   81.35    2.20
  -1  -3  -3   81.83    2.22
   1  -3   3   84.94    2.31
   1   3   3   84.56    2.26
  -1   3  -3   80.84    2.35
  -1   3  -3   85.83    2.38
   1   3   3   83.56    2.26
  -3  -3  -3  124.92    3.26
  -3  -3  -3  126.51    3.23
   3  -3   3  128.55    3.40
   3   3   3  126.14    3.24
   3   3   3  124.16    3.25
  -3   3  -3  126.40    3.46
   5  -3   3   65.05    2.01
   5  -3   3   66.35    1.98
   5  -3   3   65.42    1.99
  -5  -3  -3   63.89    1.84
   5   3   3   66.65    1.79
  -5   3  -3   60.64    2.03
   5   3   3   65.53    1.81
   7  -3   3    9.92    0.64
   7  -3   3    9.89    0.61
  -7  -3  -3   10.35    0.57
   7  -3   3   11.01    0.64
   7   3   3   10.49    0.52
   7   3   3    9.54    0.52
  -7   3  -3   10.33    0.73
   7   3   3   10.09    0.49
   9  -3   3   90.03    2.77
   9  -3   3   92.24    2.88
   9  -3   3   91.60    2.79
  -9  -3  -3   93.49    2.72
   9   3   3   92.68    2.59
  -9   3  -3   92.54    2.97
   9   3   3   95.25    2.60
   9   3   3   94.40    2.58
  11  -3   3    5.60    0.57
 -11  -3  -3    4.86    0.61
  11  -3   3    4.72    0.58
  11  -3   3    4.76    0.68
  11   3   3    4.53    0.50
 -11   3  -3    4.55    0.92
  11   3   3    4.31    0.43
  11   3   3    4.09    0.54
  11   3   3    4.49    0.47
  13  -3   3   30.89    1.54
  13  -3   3   31.64    1.40
  13  -3   3   31.66    1.41
 -13   3  -3   30.53    1.70
  13   3   3   30.42    1.33
  13   3   3   31.42    1.23
  13   3   3   31.48    1.21
  13   3   3   32.08    1.26
  15  -3   3    4.57    0.69
  15  -3   3    3.91    0.56
  15  -3   3    3.32    0.70
 -15   3  -3    3.54    0.85
  15   3   3    3.77    0.62
  15   3   3    4.36    0.54
  15   3   3    4.15    0.59
  17  -3   3   17.61    1.21
  17  -3   3   16.00    1.36
  17  -3   3   19.50    1.15
  17   3   3   18.84    1.14
  17   3   3   18.60    1.22
  19  -3   3    0.78    0.64
  19  -3   3    0.08    0.67
  19   3   3    1.35    0.51
  19   3   3    0.65    0.54
  19   3   3    0.05    0.63
  22  -4  -3    6.19    1.54
  22  -4  -3    6.00    1.04
 -22  -4   3    5.15    0.72
 -22  -4   3    8.09    0.82
  22  -4  -3    5.69    1.19
 -22   4   3    5.60    0.90
  22   4  -3    5.86    1.09
  22   4  -3    6.06    1.09
  20  -4  -3    5.48    0.98
  20  -4  -3    5.75    0.91
 -20  -4   3    5.17    0.71
  20  -4  -3    5.54    1.01
 -20  -4   3    7.85    0.78
 -20   4   3    4.58    0.82
  20   4  -3    7.48    1.07
  20   4  -3    5.06    0.88
 -18  -4   3   13.96    0.93
 -18  -4   3   11.64    0.88
  18  -4  -3   11.35    1.26
  18  -4  -3   13.34    1.19
  18   4  -3   12.10    1.16
  18   4  -3   13.85    1.26
 -18   4   3   12.85    1.13
 -16  -4   3   11.52    0.83
 -16  -4   3   10.78    0.79
  16  -4  -3   10.49    1.14
  16  -4  -3   10.67    1.02
 -16   4   3   10.27    0.94
  16   4  -3    9.91    0.97
 -16   4   3   10.24    0.83
 -14  -4   3   50.64    1.93
 -14  -4   3   51.24    1.87
  14  -4  -3   52.57    2.24
  14  -4  -3   53.47    2.10
 -14   4   3   52.54    2.11
  14   4  -3   55.18    2.10
 -14   4   3   51.54    1.91
  14   4  -3   54.49    1.98
 -12  -4   3   19.12    1.03
 -12  -4   3   17.86    0.98
  12  -4  -3   19.01    1.13
  12  -4  -3   17.90    1.22
 -12   4   3   19.93    1.17
 -12   4   3   18.53    0.99
  12   4  -3   20.95    1.04
  12   4  -3   19.78    1.11
  10  -4  -3  121.64    3.75
 -10  -4   3  128.54    3.66
 -10  -4   3  123.80    3.56
  10  -4  -3  123.92    3.66
 -10   4   3  128.10    3.78
 -10   4   3  123.41    3.53
  10   4  -3  113.89    3.56
  10   4  -3  120.29    3.55
   8  -4  -3    2.23    0.50
   8  -4  -3    3.76    0.55
  -8  -4   3    3.36    0.49
  -8  -4   3    2.52    0.45
   8   4  -3    2.83    0.41
  -8   4   3    2.84    0.44
  -8   4   3    2.40    0.48
   8   4  -3    2.64    0.40
  -6  -4   3  176.90    4.66
   6  -4  -3  171.89    4.80
  -6  -4   3  176.87    4.72
   6  -4  -3  169.42    4.86
   6   4  -3  176.95    4.53
   6   4  -3  173.93    4.59
  -6   4   3  175.58    4.68
  -6   4   3  183.46    4.92
  -4  -4   3   14.01    0.60
   4  -4  -3   13.16    0.77
  -4  -4   3   13.53    0.65
   4  -4  -3   12.41    0.74
  -4   4   3   13.43    0.83
   4   4  -3   13.42    0.59
  -4   4   3   13.23    0.68
   4   4  -3   12.99    0.61
   2  -4  -3  238.45    6.19
   2  -4  -3  249.86    6.19
  -2  -4   3  244.82    6.11
  -2  -4   3  248.33    6.18
  -2   4   3  246.80    6.43
  -2   4   3  243.87    6.26
   2   4  -3  241.59    6.17
   2   4  -3  237.75    6.15
   0  -4   3    0.57    0.15
   0  -4  -3    0.58    0.15
   0  -4   3    0.40    0.15
   0  -4  -3    0.50    0.14
   0   4   3    0.66    0.27
   0   4   3    1.10    0.27
   0   4  -3    0.47    0.18
   0   4  -3    0.39    0.20
   2  -4   3  191.65    4.89
  -2  -4  -3  189.90    4.67
  -2  -4  -3  186.22    4.71
   2  -4   3  185.49    4.86
   2   4   3  189.72    4.77
  -2   4  -3  186.36    4.95
   2   4   3  189.11    4.77
  -4  -4  -3    0.44    0.16
   4  -4   3    0.58    0.21
   4  -4   3    0.48    0.17
  -4   4  -3    0.52    0.26
   4   4   3    0.55    0.14
   4   4   3    0.36    0.14
   6  -4   3   95.63    2.76
   6  -4   3   94.62    2.76
   6  -4   3   95.40    2.75
  -6  -4  -3   97.03    2.77
   6   4   3   93.79    2.51
   6   4   3   93.73    2.48
   6   4   3   94.55    2.50
  -6   4  -3   90.93    2.87
   8  -4   3    4.57    0.52
  -8  -4  -3    4.89    0.49
   8  -4   3    4.76    0.49
   8  -4   3    5.23    0.52
   8  -4   3    5.51    0.65
   8   4   3    4.32    0.39
   8   4   3    4.85    0.38
  -8   4  -3    4.82    0.67
   8   4   3    5.08    0.35
  10  -4   3   59.62    2.02
 -10  -4  -3   62.15    1.96
  10  -4   3   59.46    2.04
  10  -4   3   60.58    2.09
  10   4   3   60.06    1.80
  10   4   3   59.12    1.77
  10   4   3   58.57    1.83
 -10   4  -3   61.49    2.31
  12  -4   3    0.05    0.33
  12  -4   3    0.78    0.38
  12  -4   3    0.41    0.41
  12   4   3    0.25    0.31
  12   4   3    0.64    0.28
 -12   4  -3    0.82    0.53
  12   4   3    0.68    0.23
  12   4   3    0.48    0.31
  14  -4   3   23.74    1.28
  14  -4   3   24.93    1.25
  14  -4   3   23.70    1.42
 -14   4  -3   24.10    1.62
  14   4   3   23.95    1.02
  14   4   3   23.17    1.16
  14   4   3   24.85    1.11
  14   4   3   25.93    1.07
  16  -4   3    6.19    0.79
  16  -4   3    5.77    0.94
  16  -4   3    5.82    0.82
  16   4   3    6.84    0.78
  16   4   3    5.81    0.62
  16   4   3    6.66    0.87
  16   4   3    6.11    0.66
  18  -4   3    3.51    0.67
  18  -4   3    2.99    0.77
  18  -4   3    4.21    0.79
  18   4   3    3.14    0.61
  18   4   3    4.24    0.65
  18   4   3    2.79    0.66
  18   4   3    3.75    0.52
  21  -5  -3   11.72    1.57
  21  -5  -3   12.81    1.43
  21  -5  -3   10.92    1.38
 -21  -5   3    9.90    0.86
 -21  -5   3   10.95    0.91
 -21   5   3   12.62    1.21
  21   5  -3   13.20    1.35
  21   5  -3   10.27    1.33
 -19  -5   3    1.07    0.46
  19  -5  -3    0.38    0.61
  19  -5  -3    0.60    0.68
  19  -5  -3    1.52    0.73
 -19  -5   3    1.12    0.45
  19   5  -3    0.15    0.61
 -19   5   3    0.56    0.60
  19   5  -3    0.50    0.63
 -19   5   3    0.27    0.39
 -17  -5   3   35.87    1.50
  17  -5  -3   37.83    1.82
 -17  -5   3   35.00    1.49
  17  -5  -3   34.84    1.90
 -17   5   3   33.49    1.70
  17   5  -3   37.59    1.82
 -17   5   3   38.11    1.92
  17   5  -3   35.07    1.62
  15  -5  -3    1.77    0.57
  15  -5  -3    2.49    0.72
 -15  -5   3    0.19    0.43
 -15  -5   3    1.33    0.38
  15   5  -3    1.92    0.49
 -15   5   3    1.50    0.43
 -15   5   3    1.32    0.49
  15   5  -3    1.88    0.58
  13  -5  -3   26.56    1.49
 -13  -5   3   25.41    1.15
  13  -5  -3   27.29    1.40
 -13  -5   3   25.04    1.22
 -13   5   3   28.08    1.25
  13   5  -3   29.43    1.37
 -13   5   3   28.13    1.43
  13   5  -3   26.99    1.21
  11  -5  -3    2.90    0.55
  11  -5  -3    3.52    0.71
 -11  -5   3    4.03    0.52
 -11  -5   3    3.99    0.57
  11   5  -3    3.64    0.53
 -11   5   3    3.76    0.60
  11   5  -3    3.53    0.60
   9  -5  -3   94.63    3.06
  -9  -5   3   97.99    2.97
   9  -5  -3   97.42    2.96
  -9  -5   3   99.79    2.85
   9   5  -3   96.37    2.80
   9   5  -3   95.90    2.69
  -9   5   3   80.16    3.35
  -9   5   3   93.46    2.80
   7  -5  -3    1.94    0.43
  -7  -5   3    1.61    0.38
   7  -5  -3    1.68    0.50
  -7  -5   3    1.31    0.33
  -7   5   3    1.23    0.39
   7   5  -3    1.28    0.29
  -7   5   3    1.55    0.31
   7   5  -3    2.00    0.29
   5  -5  -3   71.13    2.34
  -5  -5   3   72.36    2.06
  -5  -5   3   73.75    2.16
   5  -5  -3   68.77    2.28
   5   5  -3   72.04    2.07
   5   5  -3   69.91    2.02
  -5   5   3   71.41    2.12
  -5   5   3   73.09    2.35
  -3  -5   3   22.25    0.86
   3  -5  -3   20.49    0.92
   3  -5  -3   21.06    0.95
  -3  -5   3   22.61    0.80
   3   5  -3   22.40    0.86
  -3   5   3   22.11    0.86
  -3   5   3   21.85    1.05
   3   5  -3   20.91    0.83
  -1  -5   3   12.89    0.58
   1  -5  -3   13.52    0.58
   1  -5  -3   13.66    0.57
  -1  -5   3   14.01    0.63
   1   5  -3   13.38    0.65
  -1   5   3   14.02    0.61
   1   5  -3   13.47    0.67
  -1   5   3   12.70    0.79
   1  -5   3   19.75    0.79
   1  -5   3   19.78    0.81
  -1  -5  -3   21.62    0.67
  -1  -5  -3   20.32    0.69
   1   5   3   19.72    0.92
  -1   5  -3   19.42    0.88
   1   5   3   21.67    0.81
   3  -5   3   36.47    1.24
  -3  -5  -3   34.00    1.03
   3  -5   3   35.40    1.24
   3   5   3   35.16    1.14
  -3   5  -3   33.55    1.33
   3   5   3   36.33    1.14
  -5  -5  -3   17.13    0.62
   5  -5   3   16.59    0.81
   5  -5   3   16.19    0.79
   5  -5   3   16.85    0.83
   5   5   3   16.32    0.59
  -5   5  -3   16.11    0.92
   5   5   3   16.77    0.62
   5   5   3   16.82    0.58
   7  -5   3    2.16    0.38
   7  -5   3    2.72    0.51
   7  -5   3    3.08    0.45
  -7  -5  -3    2.14    0.32
   7  -5   3    2.98    0.41
  -7   5  -3    2.76    0.57
   7   5   3    2.43    0.27
   7   5   3    2.52    0.25
   7   5   3    2.96    0.30
   9  -5   3   35.59    1.48
   9  -5   3   36.60    1.45
   9  -5   3   36.86    1.42
   9  -5   3   38.14    1.60
   9   5   3   35.10    1.16
   9   5   3   36.90    1.16
  -9   5  -3   35.63    1.68
   9   5   3   35.19    1.12
  11  -5   3    0.93    0.44
  11  -5   3   -0.01    0.34
  11  -5   3    0.85    0.35
  11  -5   3    0.76    0.27
  11   5   3    0.63    0.20
 -11   5  -3    0.64    0.51
  11   5   3    0.76    0.31
  11   5   3    0.89    0.25
  11   5   3    0.98    0.26
  13  -5   3   15.72    1.00
  13  -5   3   15.32    1.13
  13  -5   3   14.98    0.96
  13   5   3   14.88    0.70
  13   5   3   12.97    0.69
  13   5   3   13.00    0.84
 -13   5  -3   15.20    1.37
  13   5   3   14.36    0.79
  15  -5   3    1.41    0.49
  15  -5   3    1.65    0.60
  15  -5   3    2.75    0.51
  15   5   3    2.15    0.39
  15   5   3    2.29    0.51
  15   5   3    2.46    0.47
  15   5   3    1.98    0.37
  17  -5   3    8.47    1.18
  17  -5   3    8.68    1.03
  17  -5   3    9.82    0.92
  17   5   3    8.47    0.98
  17   5   3    8.47    0.71
  17   5   3    7.99    0.88
 -20  -6   3    3.26    0.56
  20  -6  -3    4.02    0.87
 -20  -6   3    3.77    0.50
  20  -6  -3    4.63    1.10
  20  -6  -3    4.27    0.84
  20   6  -3    5.56    0.89
 -20   6   3    3.69    0.98
  20   6  -3    5.47    0.84
 -18  -6   3   13.69    0.92
  18  -6  -3   11.57    1.34
 -18  -6   3   12.46    0.78
  18  -6  -3   10.34    1.26
  18  -6  -3   14.52    1.23
  18   6  -3   12.16    1.00
 -18   6   3   12.50    0.94
 -18   6   3   11.05    1.08
  18   6  -3   12.06    1.16
 -16  -6   3   15.96    0.97
  16  -6  -3   16.53    1.37
  16  -6  -3   14.30    1.16
  16  -6  -3   14.87    1.27
 -16  -6   3   13.79    0.81
 -16   6   3   14.36    0.98
  16   6  -3   16.28    1.18
  16   6  -3   14.43    0.96
 -16   6   3   15.43    1.13
  14  -6  -3   27.57    1.58
 -14  -6   3   28.36    1.16
 -14  -6   3   28.76    1.31
  14  -6  -3   30.01    1.50
  14   6  -3   27.94    1.40
 -14   6   3   28.75    1.30
  14   6  -3   29.83    1.28
 -12  -6   3   13.39    0.84
  12  -6  -3   13.43    1.10
 -12  -6   3   14.09    0.78
  12  -6  -3   14.40    1.01
 -12   6   3   12.53    0.81
  12   6  -3   11.63    0.83
  12   6  -3   10.62    0.75
 -10  -6   3   92.47    2.80
  10  -6  -3   94.22    3.16
 -10  -6   3   98.33    2.98
  10  -6  -3   95.37    3.02
  10   6  -3   98.28    2.82
 -10   6   3   95.31    2.86
 -10   6   3   94.99    3.09
  10   6  -3   94.81    2.70
  -8  -6   3   12.10    0.84
   8  -6  -3   12.00    0.82
   8  -6  -3   12.20    0.95
  -8  -6   3   12.71    0.76
   8   6  -3   12.72    0.62
   8   6  -3   12.25    0.66
  -8   6   3   10.74    0.68
  -8   6   3   12.16    0.88
  -6  -6   3   97.66    2.80
   6  -6  -3   93.07    2.87
  -6  -6   3   97.17    2.71
   6  -6  -3   98.18    3.04
   6   6  -3   94.00    2.60
  -6   6   3   93.31    3.01
   6   6  -3   93.75    2.66
  -6   6   3   94.80    2.70
  -4  -6   3   18.70    0.73
  -4  -6   3   17.83    0.79
   4  -6  -3   16.75    0.92
   4  -6  -3   17.94    0.95
  -4   6   3   18.60    0.76
   4   6  -3   18.84    0.80
   4   6  -3   17.33    0.76
  -4   6   3   19.04    0.98
  -2  -6   3  151.35    3.91
  -2  -6   3  145.53    3.86
   2  -6  -3  147.76    3.86
   2  -6  -3  138.31    3.85
  -2   6   3  141.90    3.74
   2   6  -3  144.95    3.88
   2   6  -3  145.34    3.89
  -2   6   3  147.12    4.04
   0  -6   3    3.01    0.34
   0  -6  -3    2.74    0.26
   0  -6  -3    2.92    0.33
   0  -6   3    2.51    0.30
   0   6   3    3.20    0.47
   0   6  -3    2.77    0.41
   0   6   3    2.78    0.28
  -2  -6  -3  128.57    3.20
   2  -6   3  132.65    3.48
   2  -6   3  128.32    3.44
  -2   6  -3  124.39    3.58
   2   6   3  118.86    3.51
   4  -6   3    5.64    0.48
   4  -6   3    5.55    0.48
   4  -6   3    6.42    0.53
   4  -6   3    5.96    0.60
  -4   6  -3    6.08    0.64
   4   6   3    6.36    0.49
   6  -6   3   46.84    1.68
   6  -6   3   49.59    1.81
   6  -6   3   47.79    1.66
   6  -6   3   49.58    1.67
  -6   6  -3   46.41    1.86
   6   6   3   48.04    1.40
   8  -6   3    5.89    0.72
   8  -6   3    5.97    0.55
   8  -6   3    4.34    0.54
   8  -6   3    4.41    0.57
  -8   6  -3    5.05    0.77
   8   6   3    5.73    0.36
  10  -6   3   50.34    2.11
  10  -6   3   48.34    1.79
  10  -6   3   50.02    1.98
  10   6   3   47.79    1.43
 -10   6  -3   46.25    2.21
  10   6   3   47.55    1.37
  10   6   3   48.29    1.44
  12  -6   3    1.59    0.34
  12  -6   3    2.40    0.63
  12  -6   3    3.12    0.53
  12  -6   3    2.30    0.53
  12   6   3    2.70    0.33
  12   6   3    2.95    0.39
 -12   6  -3    2.36    0.78
  12   6   3    2.66    0.40
  12   6   3    2.79    0.50
  14  -6   3   11.42    0.98
  14  -6   3   12.79    0.94
  14  -6   3   13.44    1.20
  14   6   3   13.61    0.71
  14   6   3   13.31    0.90
 -14   6  -3   13.21    1.50
  14   6   3   12.82    0.79
  14   6   3   13.10    0.66
  16  -6   3    2.60    0.78
  16  -6   3    6.44    0.96
  16  -6   3    4.88    0.69
  16   6   3    4.59    0.57
  16   6   3    4.84    0.63
  16   6   3    4.74    0.62
 -19  -7   3    1.76    0.49
  19  -7  -3    1.27    0.78
  19  -7  -3    1.04    0.92
  19  -7  -3    1.64    0.66
 -19   7   3    1.30    0.90
  19   7  -3    1.94    0.70
  19   7  -3    2.04    0.67
  17  -7  -3   23.48    1.58
  17  -7  -3   22.50    1.72
 -17  -7   3   22.93    1.15
  17  -7  -3   22.91    1.46
 -17   7   3   23.07    1.40
  17   7  -3   22.49    1.22
  17   7  -3   22.73    1.46
 -17   7   3   23.41    1.23
  15  -7  -3    5.17    0.88
  15  -7  -3    6.05    0.84
  15  -7  -3    5.96    0.87
 -15   7   3    5.23    0.66
  15   7  -3    4.79    0.73
  15   7  -3    4.50    0.69
 -13  -7   3   37.81    1.50
  13  -7  -3   38.92    1.72
  13  -7  -3   36.54    1.84
  13   7  -3   37.82    1.51
  13   7  -3   37.30    1.48
 -13   7   3   38.60    1.54
 -11  -7   3   14.08    1.33
 -11  -7   3   15.62    0.94
  11  -7  -3   13.45    1.19
  11  -7  -3   15.62    1.15
  11   7  -3   16.27    0.77
 -11   7   3   15.72    0.88
  11   7  -3   15.92    0.86
  -9  -7   3   62.68    2.02
  -9  -7   3   65.65    2.21
   9  -7  -3   64.33    2.21
   9  -7  -3   62.60    2.37
  -9   7   3   63.91    2.04
   9   7  -3   63.41    1.88
   9   7  -3   62.97    1.94
  -9   7   3   64.46    2.28
   7  -7  -3   12.98    0.86
  -7  -7   3   14.29    0.79
  -7  -7   3   15.07    0.84
   7  -7  -3   12.34    1.21
   7   7  -3   14.33    0.76
  -7   7   3   13.91    0.73
   7   7  -3   13.87    0.69
  -7   7   3   14.69    0.91
  -5  -7   3   87.52    2.50
  -5  -7   3   85.79    2.38
   5  -7  -3   87.29    2.73
   5  -7  -3   81.20    2.61
  -5   7   3   83.58    2.40
  -5   7   3   82.13    2.64
   5   7  -3   83.55    2.40
   5   7  -3   86.25    2.43
  -3  -7   3   41.86    1.32
   3  -7  -3   41.17    1.49
  -3  -7   3   44.17    1.43
   3  -7  -3   42.72    1.48
  -3   7   3   41.30    1.54
   3   7  -3   43.82    1.45
  -3   7   3   43.09    1.32
   3   7  -3   41.36    1.43
  -1  -7   3   34.42    1.15
  -1  -7   3   35.15    1.23
   1  -7  -3   34.44    1.08
   1  -7  -3   36.01    1.12
  -1   7   3   34.56    1.05
  -1   7   3   34.80    1.31
   1   7  -3   33.48    1.29
   1  -7   3   35.78    1.25
   1  -7   3   35.55    1.21
  -1   7  -3   34.80    1.39
   1   7   3   34.77    1.28
   3  -7   3   36.89    1.35
   3  -7   3   38.89    1.33
   3  -7   3   38.72    1.40
   3  -7   3   32.92    1.60
  -3   7  -3   38.45    1.54
   3   7   3   38.34    1.33
   5  -7   3   25.43    1.13
   5  -7   3   26.02    1.23
   5  -7   3   26.47    1.10
   5  -7   3   26.22    1.09
  -5   7  -3   25.35    1.31
   7  -7   3   16.10    1.04
   7  -7   3   17.59    0.89
   7  -7   3   18.11    0.92
   7  -7   3   17.98    0.97
  -7   7  -3   16.76    1.18
   9  -7   3   33.46    1.35
   9  -7   3   27.42    1.55
   9  -7   3   31.82    1.51
   9  -7   3   32.00    1.37
  -9   7  -3   30.83    1.74
  11  -7   3    2.22    0.63
  11  -7   3    1.39    0.41
  11  -7   3    2.21    0.47
  11  -7   3    1.53    0.38
 -11   7  -3    1.86    0.75
  11   7   3    2.62    0.39
  13  -7   3   13.50    0.96
  13  -7   3   12.21    0.96
  13  -7   3   12.63    0.86
  13  -7   3   12.09    1.24
  13   7   3   14.28    0.79
 -13   7  -3   12.51    1.53
  13   7   3   13.94    0.65
  15  -7   3    4.99    0.91
  15  -7   3    5.50    0.75
  15  -7   3    5.73    0.72
  15  -7   3    5.17    0.75
  15   7   3    6.10    0.53
  15   7   3    5.61    0.46
  15   7   3    4.29    0.65
  16  -8  -3    7.26    0.96
  16  -8  -3    6.70    1.15
  16  -8  -3    5.81    0.94
 -16  -8   3    6.88    0.75
  16   8  -3    5.35    0.68
  16   8  -3    6.33    0.86
 -14  -8   3    8.17    0.75
  14  -8  -3    7.15    0.92
  14  -8  -3    7.52    0.93
  14  -8  -3    8.19    1.17
  14   8  -3    8.19    0.74
 -14   8   3    7.37    0.76
  14   8  -3    9.11    0.76
  12  -8  -3    4.08    0.80
 -12  -8   3    3.58    0.54
  12  -8  -3    3.35    0.73
  12  -8  -3    4.80    0.73
  12   8  -3    4.09    0.54
 -12   8   3    3.63    0.54
  12   8  -3    3.22    0.46
 -10  -8   3   32.04    1.36
  10  -8  -3   30.97    1.52
  10  -8  -3   30.86    1.67
  10  -8  -3   31.14    1.60
  10   8  -3   32.16    1.14
 -10   8   3   30.33    1.28
 -10   8   3   33.70    1.49
  10   8  -3   31.47    1.28
   8  -8  -3    5.10    0.76
  -8  -8   3    3.55    0.53
   8  -8  -3    4.09    0.59
  -8  -8   3    5.63    0.65
   8  -8  -3    4.38    0.62
  -8   8   3    4.53    0.63
   8   8  -3    3.54    0.47
   8   8  -3    4.24    0.46
  -8   8   3    4.92    0.53
   6  -8  -3   23.95    1.27
   6  -8  -3   24.59    1.18
  -6  -8   3   23.60    1.02
   6  -8  -3   23.14    1.13
  -6  -8   3   23.70    1.05
  -6   8   3   22.78    1.13
   6   8  -3   23.14    0.96
  -6   8   3   24.87    0.98
   6   8  -3   24.14    0.97
  -4  -8   3    4.55    0.37
  -4  -8   3    4.17    0.43
   4  -8  -3    4.02    0.58
   4  -8  -3    4.01    0.56
   4  -8  -3    4.67    0.53
  -4   8   3    4.01    0.39
   4   8  -3    3.80    0.48
  -4   8   3    4.41    0.55
   4   8  -3    3.85    0.45
  -2  -8   3   41.09    1.38
   2  -8  -3   39.39    1.32
   2  -8  -3   41.45    1.43
   2  -8  -3   43.50    1.33
  -2  -8   3   39.90    1.28
   2   8  -3   40.10    1.45
  -2   8   3   40.21    1.21
  -2   8   3   36.21    1.59
   0  -8   3    0.52    0.24
   0  -8   3    0.70    0.21
   0  -8   3    0.82    0.40
   0   8   3    0.99    0.29
   0   8  -3    0.74    0.36
   2  -8   3   38.72    1.32
   2  -8   3   38.81    1.48
   2  -8   3   38.28    1.49
   2  -8   3   37.34    1.39
  -2   8  -3   39.23    1.57
   2   8   3   37.54    1.27
   4  -8   3    2.21    0.49
   4  -8   3    1.72    0.34
   4  -8   3    1.59    0.64
   4  -8   3    2.28    0.36
  -4   8  -3    2.10    0.55
   6  -8   3   12.16    0.79
   6  -8   3   11.34    0.87
   6  -8   3   11.59    0.72
   6  -8   3   12.71    0.75
  -6   8  -3   10.75    1.05
   8  -8   3    1.23    0.40
   8  -8   3    1.36    0.33
   8  -8   3    1.85    0.49
   8  -8   3    1.43    0.43
  -8   8  -3    0.89    0.70
  10  -8   3   18.84    1.07
  10  -8   3   18.02    1.26
  10  -8   3   19.92    1.03
  10  -8   3   18.47    1.06
 -10   8  -3   20.82    1.66
  12  -8   3    1.64    0.51
  12  -8   3    0.83    0.62
  12  -8   3    1.40    0.44
  12  -8   3    1.91    0.45
 -12   8  -3    1.00    0.85
  14  -8   3    5.61    0.85
  14  -8   3    5.26    0.69
  14  -8   3    4.87    0.99
  14  -8   3    4.37    0.76
 -15  -9   3    5.34    0.69
  15  -9  -3    5.65    0.97
  15  -9  -3    3.48    0.66
  15  -9  -3    6.67    0.94
  15   9  -3    6.07    0.70
 -13  -9   3   11.38    0.82
  13  -9  -3   12.64    1.29
  13  -9  -3   12.77    1.08
 -13   9   3   12.60    1.34
  13   9  -3   13.50    0.77
 -13   9   3   13.79    0.93
  11  -9  -3    8.77    0.92
  11  -9  -3    7.75    1.01
  11  -9  -3    8.66    0.87
 -11  -9   3    7.28    0.73
 -11   9   3    8.21    1.07
 -11   9   3    8.97    0.77
  11   9  -3    8.02    0.61
   9  -9  -3   28.42    1.40
   9  -9  -3   27.04    1.48
  -9  -9   3   29.08    1.29
   9  -9  -3   28.29    1.34
  -9   9   3   27.50    1.19
  -9   9   3   25.17    1.48
   9   9  -3   28.19    1.08
   7  -9  -3    8.05    0.74
  -7  -9   3    7.36    0.70
   7  -9  -3    6.58    0.86
   7  -9  -3    7.29    0.70
  -7   9   3    8.08    0.60
   7   9  -3    6.67    0.55
   7   9  -3    8.39    0.65
  -7   9   3    7.60    0.72
   5  -9  -3   30.67    1.30
  -5  -9   3   30.61    1.22
   5  -9  -3   31.86    1.36
  -5  -9   3   31.66    1.10
   5  -9  -3   34.53    1.43
   5   9  -3   31.64    1.29
  -5   9   3   32.53    1.36
  -5   9   3   31.57    1.12
   3  -9  -3   19.12    0.90
  -3  -9   3   20.16    0.87
   3  -9  -3   18.89    0.87
   3  -9  -3   18.21    0.87
  -3  -9   3   19.02    0.76
  -3   9   3   19.77    0.98
  -3   9   3   19.23    0.74
   3   9  -3   18.10    0.94
  -1  -9   3   13.93    0.74
  -1  -9   3   13.65    0.71
  -1  -9   3   13.73    0.64
  -1  -9   3   13.79    0.77
  -1   9   3   12.50    0.75
   1   9  -3   12.76    0.85
   1  -9   3   15.90    0.81
   1  -9   3   11.84    0.88
   1  -9   3   14.87    0.87
   1  -9   3   15.53    0.70
   1   9   3   14.78    0.76
  -1   9  -3   15.24    1.00
   3  -9   3   19.32    0.87
   3  -9   3   19.50    0.91
   3  -9   3   18.45    1.03
   3  -9   3   18.48    1.02
  -3   9  -3   20.23    1.20
   5  -9   3   10.09    0.68
   5  -9   3   10.68    0.85
   5  -9   3    9.51    0.68
   5  -9   3   10.74    0.76
  -5   9  -3   11.66    1.10
   7  -9   3    6.22    0.62
   7  -9   3    6.84    0.67
   7  -9   3    6.74    0.82
   7  -9   3    6.95    0.64
  -7   9  -3    7.79    1.19
   9  -9   3   14.12    0.87
   9  -9   3   14.79    1.15
   9  -9   3   13.00    0.90
   9  -9   3   13.66    0.91
  -9   9  -3   16.01    1.61
  11  -9   3    3.19    0.74
  11  -9   3    1.69    0.46
  11  -9   3    2.08    0.40
  11  -9   3    2.95    0.56
 -11   9  -3    2.14    0.91
  12 -10  -3   12.19    1.11
  12 -10  -3   12.53    1.29
 -12 -10   3   11.57    0.78
  12 -10  -3   12.96    1.07
 -12  10   3   12.00    0.89
  12  10  -3   10.33    0.75
 -12  10   3   10.00    1.15
  10 -10  -3   20.62    1.43
  10 -10  -3   24.47    1.30
 -10 -10   3   21.38    1.10
  10 -10  -3   21.82    1.28
 -10  10   3   24.91    1.28
  10  10  -3   22.30    0.92
  10  10  -3   21.97    1.03
 -10  10   3   23.17    1.10
   8 -10  -3   12.50    1.04
   8 -10  -3   11.15    0.91
  -8 -10   3   10.82    0.88
   8 -10  -3    9.93    0.87
  -8  10   3    9.41    1.26
   6 -10  -3   31.73    1.43
  -6 -10   3   27.52    1.25
   6 -10  -3   29.96    1.29
   6 -10  -3   29.16    1.37
  -6  10   3   30.52    1.15
   6  10  -3   30.34    1.25
  -6  10   3   29.69    1.33
   4 -10  -3   15.37    0.84
  -4 -10   3   16.85    0.79
   4 -10  -3   17.12    0.89
  -4 -10   3   13.64    0.84
  -4 -10   3   16.62    0.83
   4 -10  -3   16.95    0.84
  -4  10   3   16.27    0.71
  -4  10   3   15.59    0.91
  -2 -10   3   34.35    1.27
  -2 -10   3   34.59    1.26
  -2 -10   3   36.03    1.28
  -2 -10   3   32.73    1.13
   2  10  -3   33.80    1.44
  -2  10   3   33.85    1.31
   0 -10   3   10.88    0.68
   0 -10   3   10.90    0.67
   0 -10   3    9.91    0.58
   0 -10   3   10.54    0.73
   0  10   3   10.49    0.67
   0  10  -3    8.62    0.89
   2 -10   3   30.28    1.19
   2 -10   3   29.51    1.30
   2 -10   3   29.94    1.24
   2 -10   3   30.37    1.13
  -2  10  -3   29.96    1.52
   4 -10   3    8.77    0.66
   4 -10   3    7.10    0.81
   4 -10   3    6.61    0.58
   4 -10   3    7.38    0.66
  -4  10  -3    7.98    1.09
   6 -10   3   16.69    0.92
   6 -10   3   17.70    1.17
   6 -10   3   17.13    0.96
   6 -10   3   15.86    0.92
  -6  10  -3   18.91    1.47
   8 -10   3    8.39    1.00
   8 -10   3    6.89    0.75
   8 -10   3    8.00    0.76
   8 -10   3    7.42    0.70
  -8  10  -3   10.96    2.52
  10 -10   3   14.33    0.98
  10 -10   3   11.61    0.92
  10 -10   3   11.59    1.23
  10 -10   3   12.76    0.90
   9 -11  -3   12.32    0.95
  -9 -11   3   10.57    0.86
   9 -11  -3   11.83    1.01
   9 -11  -3   13.60    1.20
  -9  11   3   11.26    0.86
  -9  11   3   12.02    1.02
   7 -11  -3    4.63    0.78
   7 -11  -3    4.01    0.67
   7 -11  -3    4.13    0.64
  -7 -11   3    4.28    0.61
  -7  11   3    4.64    0.72
  -7  11   3    3.54    0.52
   5 -11  -3    9.32    0.67
   5 -11  -3   10.61    0.75
   5 -11  -3    8.71    0.75
  -5 -11   3    7.76    0.72
  -5 -11   3   10.24    0.60
   5  11  -3   10.75    1.00
  -3 -11   3    8.64    0.66
  -3 -11   3    6.50    0.87
  -3 -11   3    8.08    0.55
  -3 -11   3    7.85    0.56
   3  11  -3    7.56    0.91
  -3  11   3    8.07    0.72
  -1 -11   3    4.34    0.53
  -1 -11   3    6.00    0.58
  -1 -11   3    4.54    0.60
  -1 -11   3    4.67    0.44
  -1  11   3    4.14    0.58
   1  11  -3    4.86    0.74
   1 -11   3    5.71    0.61
   1 -11   3    5.36    0.49
   1 -11   3    7.40    0.74
   1 -11   3    6.68    0.61
  -1  11  -3    6.01    0.86
   3 -11   3    7.78    0.61
   3 -11   3    7.75    0.65
   3 -11   3    8.44    0.83
   3 -11   3    9.09    0.71
  -3  11  -3    7.82    1.19
   5 -11   3    4.12    0.64
   5 -11   3    4.92    0.56
   5 -11   3    4.89    0.72
   5 -11   3    5.15    0.62
  -5  11  -3    4.67    0.97
  22   0  -4    0.93    0.93
  22   0  -4    0.98    0.81
 -22   0   4    0.96    0.56
 -22   0   4    0.38    0.68
 -20   0   4   30.84    1.54
  20   0  -4   29.72    1.94
 -20   0   4   30.37    1.71
  20   0  -4   29.15    1.89
 -18   0   4    4.38    0.78
  18   0  -4    4.32    0.84
 -18   0   4    4.99    0.73
  18   0  -4    3.53    0.94
 -16   0   4   58.77    2.27
  16   0  -4   60.91    2.52
  16   0  -4   58.76    2.50
 -16   0   4   64.72    2.46
 -14   0   4    6.77    0.77
 -14   0   4    7.35    0.88
  14   0  -4    7.06    0.95
  14   0  -4    5.93    0.93
  12   0  -4  128.88    3.85
  12   0  -4  126.47    3.89
 -12   0   4  126.59    3.87
 -12   0   4  105.56    4.56
 -10   0   4   44.70    1.81
  10   0  -4   45.12    1.77
 -10   0   4   45.27    1.83
  10   0  -4   45.30    1.83
  -8   0   4   88.55    2.85
   8   0  -4   87.84    2.73
  -8   0   4   88.41    2.86
  -6   0   4  155.08    4.38
  -6   0   4  158.53    4.35
   6   0  -4  149.25    4.19
   6   0  -4  148.26    4.25
   4   0  -4  160.85    4.27
  -4   0   4  152.34    4.29
  -4   0   4  159.11    4.25
   4   0  -4  161.54    4.23
  -2   0   4   93.61    2.60
   2   0  -4   93.35    2.59
   2   0  -4   91.60    2.60
  -2   0   4   94.49    2.65
   0   0   4   48.33    1.52
   0   0  -4   48.89    1.51
   0   0  -4   48.74    1.51
   0   0   4   49.16    1.50
  -2   0  -4  281.97    7.05
   2   0   4  277.62    7.02
   2   0   4  275.41    7.01
  -2   0  -4  281.82    7.07
   4   0   4    8.05    0.49
   4   0   4    7.60    0.48
  -4   0  -4    8.40    0.54
  -4   0  -4    7.79    0.50
  -6   0  -4  124.69    3.49
   6   0   4  121.27    3.39
   6   0   4  125.97    3.41
   8   0   4   10.30    0.64
   8   0   4   10.09    0.68
  -8   0  -4   10.56    0.74
  10   0   4   46.35    1.66
  10   0   4   46.77    1.66
  10   0   4   47.10    1.64
 -10   0  -4   45.64    1.79
  12   0   4   -0.59    0.32
  12   0   4    0.41    0.34
  12   0   4    0.57    0.25
 -12   0  -4   -0.11    0.38
 -14   0  -4   51.73    2.17
  14   0   4   52.02    1.94
  14   0   4   54.11    2.11
  14   0   4   53.23    1.89
  16   0   4    1.16    0.44
 -16   0  -4   -0.47    0.64
  16   0   4    0.80    0.72
  16   0   4    0.24    0.32
  18   0   4    6.16    0.99
  18   0   4    6.44    0.96
  18   0   4    6.97    0.70
  23  -1  -4    1.33    0.94
 -23  -1   4    4.72    0.86
 -23   1   4    3.82    0.92
  23   1  -4    3.97    1.22
 -21  -1   4    6.74    0.90
  21  -1  -4    8.66    1.25
  21  -1  -4    6.84    1.17
 -21  -1   4    6.08    0.89
 -21   1   4    5.67    0.88
  21   1  -4    9.28    1.45
  21   1  -4    7.39    1.19
 -21   1   4    6.30    0.95
  19  -1  -4    1.53    0.71
  19  -1  -4    1.37    0.67
 -19  -1   4    3.27    0.60
  19   1  -4    2.89    0.80
 -19   1   4    1.95    0.60
 -17  -1   4   51.30    2.05
 -17  -1   4   53.61    2.22
  17  -1  -4   50.41    2.33
  17  -1  -4   49.78    2.27
 -17   1   4   50.83    2.21
  17   1  -4   52.18    2.30
  17   1  -4   50.62    2.30
  15  -1  -4    0.99    0.56
 -15  -1   4    1.14    0.51
  15  -1  -4    0.76    0.57
 -15  -1   4    0.45    0.34
  15   1  -4    0.00    0.49
 -15   1   4    0.90    0.43
  15   1  -4    0.43    0.47
  13  -1  -4   79.30    2.91
 -13  -1   4   84.98    2.83
  13  -1  -4   79.17    3.26
 -13  -1   4   84.58    2.88
 -13   1   4   83.11    2.82
  13   1  -4   88.44    2.97
 -13   1   4   83.43    2.94
  13   1  -4   83.88    2.86
  11  -1  -4    2.81    0.62
 -11  -1   4    2.27    0.49
 -11  -1   4    3.35    0.60
  11  -1  -4    2.18    0.52
  11   1  -4    3.29    0.57
 -11   1   4    2.99    0.56
 -11   1   4    2.21    0.51
  11   1  -4    3.27    0.61
  -9  -1   4  172.51    4.91
  -9  -1   4  168.91    4.89
   9  -1  -4  173.81    4.93
   9  -1  -4  169.90    4.85
   9   1  -4  178.20    4.90
  -9   1   4  174.24    4.91
   9   1  -4  168.04    4.75
  -9   1   4  170.31    4.96
   7  -1  -4    3.34    0.53
  -7  -1   4    3.36    0.53
   7  -1  -4    3.30    0.48
  -7  -1   4    2.53    0.45
   7   1  -4    3.37    0.47
  -7   1   4    4.23    0.64
   7   1  -4    3.47    0.53
  -7   1   4    3.62    0.58
   5  -1  -4  285.90    7.77
  -5  -1   4  302.72    7.72
  -5  -1   4  306.32    7.80
   5  -1  -4  288.16    7.72
   5   1  -4  313.10    7.75
   5   1  -4  311.87    7.69
  -5   1   4  305.54    7.88
  -5   1   4  303.86    7.92
   3  -1  -4    0.40    0.20
  -3  -1   4    0.48    0.19
   3  -1  -4    0.52    0.22
  -3  -1   4    0.53    0.22
  -3   1   4    0.24    0.19
   3   1  -4    0.39    0.18
   3   1  -4    0.59    0.21
  -3   1   4    0.71    0.26
  -1  -1   4  256.48    6.32
   1  -1  -4  250.55    6.29
   1  -1  -4  250.09    6.30
  -1  -1   4  248.52    6.35
   1   1  -4  246.17    6.33
  -1   1   4  252.75    6.32
   1   1  -4  240.38    6.30
  -1   1   4  249.93    6.35
  -1  -1  -4    3.13    0.32
   1  -1   4    3.08    0.32
  -1  -1  -4    3.20    0.32
   1  -1   4    3.26    0.33
  -1   1  -4    3.50    0.34
   1   1   4    3.41    0.32
  -1   1  -4    2.83    0.34
   1   1   4    3.51    0.32
   3  -1   4  130.29    3.58
   3  -1   4  135.29    3.58
  -3  -1  -4  137.45    3.59
  -3  -1  -4  134.16    3.56
  -3   1  -4  131.05    3.64
  -3   1  -4  136.61    3.63
   3   1   4  133.09    3.54
   3   1   4  131.13    3.54
   5  -1   4    0.27    0.17
  -5  -1  -4    0.18    0.18
   5  -1   4    0.69    0.22
   5   1   4    0.34    0.17
   5   1   4    0.43    0.19
  -5   1  -4    0.22    0.21
   7  -1   4   81.73    2.47
  -7  -1  -4   79.15    2.49
   7  -1   4   84.40    2.52
   7  -1   4   87.12    2.51
   7   1   4   86.32    2.47
   7   1   4   83.11    2.43
   7   1   4   83.42    2.41
  -7   1  -4   82.58    2.59
  -9  -1  -4    7.20    0.67
   9  -1   4    7.00    0.62
   9  -1   4    7.14    0.57
   9  -1   4    6.31    0.58
   9   1   4    8.00    0.61
   9   1   4    7.13    0.58
  -9   1  -4    7.50    0.84
   9   1   4    6.87    0.53
 -11  -1  -4   16.69    1.04
  11  -1   4   18.21    0.93
  11  -1   4   18.78    1.02
  11  -1   4   18.72    0.93
  11   1   4   17.95    0.91
  11   1   4   18.57    0.95
  11   1   4   17.13    0.92
 -11   1  -4   17.64    1.14
  13  -1   4    4.86    0.67
  13  -1   4    4.09    0.57
  13  -1   4    5.80    0.85
 -13  -1  -4    4.30    0.70
 -13   1  -4    5.33    0.79
  13   1   4    5.54    0.57
  13   1   4    5.09    0.76
  13   1   4    4.58    0.56
  13   1   4    4.89    0.66
  15  -1   4    7.34    1.03
  15  -1   4    6.69    0.59
  15  -1   4    5.43    0.76
 -15  -1  -4    5.49    0.87
  15   1   4    4.75    0.62
  15   1   4    6.55    0.91
 -15   1  -4    5.84    0.90
  15   1   4    6.66    0.75
  17  -1   4    2.06    0.71
  17  -1   4    2.89    0.60
  17  -1   4    3.75    0.56
  17   1   4    2.81    0.54
  17   1   4    2.25    0.74
  17   1   4    3.29    0.59
  17   1   4    3.20    0.64
  22  -2  -4    1.84    0.89
 -22  -2   4    0.02    0.48
 -22  -2   4    0.84    0.70
  22  -2  -4    0.81    0.80
  22   2  -4   -0.86    0.85
 -22   2   4    1.09    0.71
  22   2  -4    1.60    0.97
  20  -2  -4   16.69    1.53
  20  -2  -4   18.90    1.57
 -20  -2   4   17.92    1.34
 -20  -2   4   16.97    1.20
  20   2  -4   20.55    1.69
 -20   2   4   20.78    1.45
  20   2  -4   15.19    1.50
 -18  -2   4    0.34    0.49
 -18  -2   4    0.90    0.49
  18  -2  -4    0.59    0.64
  18  -2  -4    1.03    0.73
  18   2  -4    0.65    0.57
 -18   2   4    1.14    0.60
  18   2  -4    1.18    0.73
 -16  -2   4   35.51    1.64
  16  -2  -4   36.26    1.84
  16  -2  -4   34.61    1.88
 -16  -2   4   36.63    1.70
 -16   2   4   39.97    1.87
  16   2  -4   36.44    1.78
  16   2  -4   37.69    1.83
 -14  -2   4    0.10    0.37
 -14  -2   4   -0.15    0.38
  14  -2  -4    0.18    0.73
  14  -2  -4    0.36    0.50
 -14   2   4    0.38    0.38
  14   2  -4    0.42    0.44
 -14   2   4   -0.34    0.42
 -12  -2   4   56.86    2.20
 -12  -2   4   59.40    2.17
  12  -2  -4   54.73    2.25
  12  -2  -4   54.38    2.25
  12   2  -4   60.20    2.21
 -12   2   4   56.18    2.15
 -12   2   4   55.79    2.27
  12   2  -4   60.53    2.11
  10  -2  -4   20.48    1.23
  10  -2  -4   21.21    1.25
 -10  -2   4   22.70    1.18
 -10  -2   4   23.87    1.23
 -10   2   4   21.67    1.18
 -10   2   4   21.86    1.28
  10   2  -4   23.63    1.13
  10   2  -4   23.71    1.20
   8  -2  -4   43.60    1.75
   8  -2  -4   43.64    1.67
  -8  -2   4   42.29    1.65
  -8  -2   4   41.41    1.68
   8   2  -4   38.09    1.57
  -8   2   4   40.29    1.65
   8   2  -4   39.17    1.51
  -8   2   4   43.39    1.76
  -6  -2   4   44.58    1.58
  -6  -2   4   43.54    1.63
   6  -2  -4   45.45    1.69
   6  -2  -4   44.37    1.63
  -6   2   4   47.33    1.80
   6   2  -4   43.97    1.58
  -6   2   4   47.68    1.76
   6   2  -4   45.59    1.53
  -4  -2   4   52.99    1.67
   4  -2  -4   51.82    1.73
   4  -2  -4   53.15    1.77
  -4  -2   4   54.55    1.74
   4   2  -4   53.55    1.70
   4   2  -4   54.92    1.67
  -4   2   4   52.49    1.89
  -4   2   4   54.16    1.88
  -2  -2   4   50.67    1.59
   2  -2  -4   50.40    1.56
  -2  -2   4   50.51    1.55
   2  -2  -4   51.20    1.55
  -2   2   4   48.22    1.60
   2   2  -4   47.34    1.55
  -2   2   4   49.29    1.64
   2   2  -4   50.38    1.55
   0  -2   4   13.73    0.65
   0  -2  -4   14.43    0.62
   0  -2  -4   13.91    0.61
   0  -2   4   13.43    0.63
   0   2  -4   13.43    0.67
   0   2   4   14.19    0.64
   0   2   4   14.59    0.66
   0   2  -4   13.49    0.67
  -2  -2  -4  148.51    3.93
   2  -2   4  146.30    3.97
  -2  -2  -4  150.91    3.90
   2  -2   4  152.69    3.97
  -2   2  -4  150.91    4.04
   2   2   4  151.11    3.92
   2   2   4  150.09    3.91
  -2   2  -4  147.82    4.02
  -4  -2  -4    0.35    0.17
  -4  -2  -4    0.56    0.21
   4  -2   4    0.55    0.20
   4  -2   4    0.36    0.19
   4   2   4    0.43    0.17
  -4   2  -4    0.57    0.31
   4   2   4    0.47    0.19
  -6  -2  -4   59.48    1.90
   6  -2   4   62.95    1.96
   6   2   4   61.84    1.83
   6   2   4   61.91    1.84
   8  -2   4    1.54    0.30
  -8  -2  -4    2.46    0.43
   8  -2   4    1.88    0.42
   8  -2   4    2.57    0.45
  -8   2  -4    2.15    0.46
   8   2   4    2.16    0.34
   8   2   4    1.83    0.36
   8   2   4    1.64    0.40
  10  -2   4   34.77    1.42
  10  -2   4   34.35    1.38
 -10  -2  -4   35.00    1.48
  10  -2   4   33.54    1.35
  10   2   4   33.67    1.26
 -10   2  -4   33.39    1.56
  10   2   4   36.37    1.32
  10   2   4   34.95    1.29
  12  -2   4   -0.04    0.34
 -12  -2  -4    0.73    0.39
  12  -2   4    0.37    0.29
  12  -2   4    0.23    0.34
  12   2   4    0.88    0.31
 -12   2  -4    0.74    0.49
  12   2   4    0.44    0.37
  12   2   4    0.42    0.28
  12   2   4    0.52    0.36
 -14  -2  -4   30.97    1.54
  14  -2   4   31.12    1.62
  14  -2   4   32.41    1.37
  14  -2   4   31.91    1.47
  14   2   4   31.42    1.48
  14   2   4   32.56    1.31
  14   2   4   32.10    1.30
 -14   2  -4   28.31    1.65
  14   2   4   32.07    1.39
  16  -2   4    1.13    0.43
  16  -2   4    0.33    0.55
  16  -2   4    0.13    0.45
 -16   2  -4    0.76    0.69
  16   2   4   -0.19    0.51
  16   2   4    0.00    0.34
  16   2   4    0.35    0.37
  16   2   4    0.64    0.45
  18  -2   4    5.40    0.82
  18  -2   4    5.39    0.97
  18  -2   4    6.13    0.74
  18   2   4    6.43    0.94
  18   2   4    3.94    0.85
  18   2   4    6.59    0.95
 -21  -3   4    7.61    1.06
  21  -3  -4    8.26    1.24
  21  -3  -4    9.67    1.42
 -21  -3   4    7.27    1.02
  21   3  -4   10.15    1.36
 -21   3   4    7.32    1.00
  21   3  -4   10.31    1.50
  19  -3  -4    2.99    0.86
 -19  -3   4    5.55    0.79
 -19  -3   4    4.68    0.66
  19  -3  -4    5.71    0.96
 -19   3   4    3.26    0.70
  19   3  -4    4.90    0.91
  19   3  -4    5.08    0.91
  17  -3  -4   47.59    2.26
 -17  -3   4   47.88    1.99
 -17  -3   4   46.41    1.98
  17  -3  -4   48.81    2.20
 -17   3   4   48.21    2.15
  17   3  -4   44.14    2.20
  17   3  -4   47.86    2.13
  15  -3  -4    2.90    0.69
  15  -3  -4    2.72    0.78
 -15  -3   4    2.03    0.47
 -15  -3   4    4.02    0.65
  15   3  -4    2.19    0.59
  15   3  -4    2.85    0.65
 -15   3   4    1.97    0.52
 -15   3   4    2.84    0.72
 -13  -3   4  123.19    3.75
  13  -3  -4  115.02    3.83
 -13  -3   4  121.09    3.73
  13  -3  -4  115.21    4.14
 -13   3   4  120.51    3.92
  13   3  -4  127.68    3.80
  13   3  -4  122.83    3.63
 -13   3   4  118.35    3.69
  11  -3  -4   11.73    1.05
  11  -3  -4   11.41    0.97
 -11  -3   4   12.59    0.90
 -11  -3   4   11.69    0.87
 -11   3   4   10.03    1.29
  11   3  -4   11.77    0.91
  11   3  -4   10.22    0.80
   9  -3  -4  124.05    3.79
  -9  -3   4  127.99    3.80
   9  -3  -4  126.85    3.84
  -9  -3   4  132.48    3.74
  -9   3   4  127.82    3.73
  -9   3   4  126.28    3.90
   9   3  -4  117.79    3.53
   9   3  -4  112.70    3.61
   7  -3  -4    5.81    0.64
  -7  -3   4    5.05    0.53
  -7  -3   4    4.77    0.56
   7  -3  -4    4.31    0.59
   7   3  -4    4.88    0.49
  -7   3   4    5.21    0.70
   7   3  -4    5.07    0.53
  -7   3   4    4.42    0.57
  -5  -3   4  394.29    9.71
   5  -3  -4  368.81    9.76
   5  -3  -4  356.56    9.69
  -5  -3   4  382.87    9.60
  -5   3   4  396.87    9.98
   5   3  -4  388.69    9.57
  -5   3   4  395.68    9.89
   5   3  -4  386.05    9.63
   3  -3  -4    5.29    0.46
   3  -3  -4    5.72    0.46
  -3  -3   4    5.59    0.45
  -3  -3   4    5.34    0.41
   3   3  -4    5.33    0.44
  -3   3   4    4.96    0.57
  -3   3   4    5.56    0.59
   3   3  -4    4.97    0.42
  -1  -3   4  217.77    5.59
  -1  -3   4  217.25    5.54
   1  -3  -4  212.76    5.49
   1  -3  -4  215.09    5.50
   1   3  -4  215.52    5.59
  -1   3   4  217.97    5.62
   1   3  -4  221.59    5.60
  -1   3   4  213.38    5.65
  -1  -3  -4   21.31    0.79
   1  -3   4   20.92    0.83
  -1  -3  -4   20.28    0.76
   1  -3   4   20.19    0.85
  -1   3  -4   20.28    0.90
   1   3   4   20.80    0.81
   1   3   4   20.23    0.81
  -1   3  -4   21.44    0.90
   3  -3   4  141.25    3.87
   3  -3   4  146.74    3.90
  -3  -3  -4  145.20    3.76
  -3  -3  -4  144.07    3.89
   3   3   4  143.16    3.77
   3   3   4  144.60    3.78
  -3   3  -4  144.04    3.98
   5  -3   4    4.56    0.45
   5  -3   4    4.88    0.46
  -5  -3  -4    4.07    0.40
   5   3   4    4.72    0.39
   5   3   4    4.73    0.36
  -5   3  -4    5.07    0.54
   7  -3   4  108.55    3.11
   7  -3   4  106.70    3.13
   7  -3   4  104.09    3.08
  -7  -3  -4  107.88    3.01
   7   3   4  106.60    2.90
   7   3   4  106.44    2.93
  -7   3  -4  104.62    3.23
   7   3   4  104.51    2.91
   9  -3   4   10.84    0.75
  -9  -3  -4   11.31    0.71
   9  -3   4   11.27    0.74
   9  -3   4    9.63    0.68
   9   3   4    9.81    0.58
  -9   3  -4    8.57    1.08
   9   3   4    9.94    0.63
   9   3   4   11.03    0.63
  11  -3   4   14.56    0.83
  11  -3   4   14.60    0.89
  11  -3   4   15.41    0.95
 -11  -3  -4   13.95    0.89
  11  -3   4   13.03    1.02
  11   3   4   15.05    0.78
  11   3   4   14.97    0.76
  11   3   4   14.84    0.81
 -11   3  -4   14.30    1.10
  13  -3   4    9.74    0.80
 -13  -3  -4    9.34    0.88
  13  -3   4   11.04    1.05
  13  -3   4    8.20    0.81
  13   3   4    8.90    0.80
 -13   3  -4   10.62    1.07
  13   3   4    9.68    0.77
  13   3   4    8.28    0.65
  13   3   4    9.28    0.70
  15  -3   4   10.04    0.94
  15  -3   4    9.08    1.11
  15  -3   4   10.90    0.85
  15   3   4   10.48    0.91
 -15   3  -4   10.87    1.35
  15   3   4    9.57    0.94
  15   3   4   10.18    0.77
  17  -3   4    2.02    0.52
  17  -3   4    1.40    0.55
  17  -3   4    1.64    0.72
  17  -3   4    2.80    0.54
  17   3   4    2.32    0.49
 -17   3  -4    3.81    0.99
  17   3   4    2.90    0.50
  17   3   4    1.94    0.70
  17   3   4    2.60    0.58
  20  -4  -4   15.45    1.47
  20  -4  -4   15.93    1.60
 -20  -4   4   17.03    1.20
 -20  -4   4   16.69    1.14
  20   4  -4   16.57    1.45
  20   4  -4   16.16    1.38
 -20   4   4   17.14    1.31
 -18  -4   4    4.25    0.70
  18  -4  -4    3.60    0.91
  18  -4  -4    3.29    0.78
 -18  -4   4    3.97    0.64
  18   4  -4    3.75    0.75
  18   4  -4    4.00    0.84
 -18   4   4    2.92    0.68
 -16  -4   4   39.49    1.71
 -16  -4   4   37.76    1.70
  16  -4  -4   40.12    1.93
  16  -4  -4   36.34    1.98
 -16   4   4   40.47    1.72
 -16   4   4   39.98    1.91
  16   4  -4   42.01    1.87
  16   4  -4   39.88    1.70
 -14  -4   4    1.53    0.45
 -14  -4   4    0.85    0.41
  14  -4  -4    0.65    0.57
  14  -4  -4    1.69    0.58
  14   4  -4    2.07    0.49
 -14   4   4    1.63    0.46
 -14   4   4    2.60    0.65
 -12  -4   4   53.27    1.99
  12  -4  -4   53.47    2.23
 -12  -4   4   49.80    2.25
 -12   4   4   55.07    2.22
  12   4  -4   51.03    2.01
  12   4  -4   55.53    1.93
 -12   4   4   52.43    1.98
 -10  -4   4   47.33    1.72
 -10  -4   4   43.64    1.75
  10  -4  -4   41.36    1.85
  10  -4  -4   41.81    1.82
  10   4  -4   38.99    1.54
 -10   4   4   45.04    1.90
  10   4  -4   36.07    1.60
 -10   4   4   44.62    1.70
   8  -4  -4   60.22    2.18
  -8  -4   4   58.80    2.06
   8  -4  -4   57.36    2.16
  -8  -4   4   57.35    2.11
  -8   4   4   58.74    2.28
  -8   4   4   60.24    2.09
   8   4  -4   61.32    1.92
   8   4  -4   61.35    2.00
  -6  -4   4   41.54    1.56
  -6  -4   4   43.97    1.49
   6  -4  -4   43.07    1.67
   6  -4  -4   43.26    1.63
   6   4  -4   44.29    1.54
   6   4  -4   45.54    1.46
  -6   4   4   41.02    1.77
  -6   4   4   40.89    1.61
   4  -4  -4   53.81    1.91
   4  -4  -4   56.25    1.89
  -4  -4   4   59.45    1.81
  -4  -4   4   60.58    1.89
   4   4  -4   60.84    1.85
   4   4  -4   60.39    1.81
  -4   4   4   57.36    2.01
  -4   4   4   64.60    2.19
   2  -4  -4   70.71    2.04
  -2  -4   4   69.30    2.09
   2  -4  -4   70.00    2.04
  -2  -4   4   70.42    2.03
  -2   4   4   70.11    2.25
   2   4  -4   68.92    2.08
   2   4  -4   66.02    2.06
  -2   4   4   69.02    2.29
   0  -4   4   29.35    1.06
   0  -4  -4   29.70    0.99
   0  -4  -4   30.28    1.01
   0  -4   4   31.17    1.12
   0   4  -4   29.60    1.15
   0   4   4   29.01    1.13
   0   4   4   29.99    1.17
   0   4  -4   30.00    1.14
   2  -4   4  130.70    3.63
   2  -4   4  132.12    3.66
  -2  -4  -4  135.33    3.48
  -2  -4  -4  135.28    3.52
  -2   4  -4  139.85    3.75
  -2   4  -4  134.36    3.76
   2   4   4  132.91    3.57
   2   4   4  134.60    3.57
   4  -4   4    5.03    0.47
  -4  -4  -4    5.40    0.41
   4  -4   4    5.60    0.47
   4   4   4    5.01    0.38
  -4   4  -4    4.79    0.56
   4   4   4    5.27    0.39
   6  -4   4   52.29    1.82
   6  -4   4   52.96    1.79
  -6  -4  -4   50.93    1.63
   6  -4   4   53.03    1.78
  -6   4  -4   52.10    1.95
   6   4   4   53.33    1.57
   6   4   4   54.11    1.60
   6   4   4   52.69    1.59
   8  -4   4    5.09    0.58
   8  -4   4    6.10    0.58
  -8  -4  -4    6.17    0.53
   8  -4   4    5.33    0.52
   8   4   4    5.23    0.44
  -8   4  -4    6.41    0.75
   8   4   4    5.44    0.47
   8   4   4    5.06    0.41
  10  -4   4   36.13    1.63
  10  -4   4   35.92    1.49
  10  -4   4   37.80    1.49
  10   4   4   36.69    1.24
  10   4   4   36.68    1.27
 -10   4  -4   34.14    1.68
  10   4   4   37.26    1.30
  12  -4   4    0.67    0.49
  12  -4   4    0.37    0.33
  12  -4   4    0.10    0.34
 -12  -4  -4    0.39    0.40
  12   4   4    0.45    0.36
  12   4   4   -0.15    0.25
  12   4   4    0.37    0.31
 -12   4  -4    0.10    0.51
  12   4   4    0.40    0.25
  14  -4   4   25.20    1.32
  14  -4   4   23.44    1.50
  14  -4   4   23.14    1.21
 -14   4  -4   21.35    1.57
  14   4   4   24.17    1.10
  14   4   4   22.90    1.14
  14   4   4   24.03    1.23
  14   4   4   24.93    1.06
  16  -4   4    0.30    0.60
  16  -4   4    0.90    0.43
  16  -4   4    0.00    0.47
  16   4   4    0.28    0.45
 -16   4  -4   -0.07    0.80
  16   4   4    0.95    0.41
  16   4   4   -0.35    0.76
  16   4   4    0.47    0.37
 -19  -5   4    1.24    0.55
  19  -5  -4    1.65    0.71
  19  -5  -4    1.85    0.88
 -19  -5   4    0.82    0.52
  19   5  -4    1.56    0.64
 -19   5   4    2.18    0.59
  19   5  -4    1.42    0.60
 -19   5   4    2.41    0.78
 -17  -5   4   21.56    1.20
  17  -5  -4   22.30    1.59
 -17  -5   4   20.90    1.22
  17  -5  -4   20.00    1.44
 -17   5   4   22.92    1.47
  17   5  -4   22.22    1.24
  17   5  -4   22.62    1.39
  15  -5  -4    0.12    0.62
  15  -5  -4    0.10    0.49
 -15  -5   4    0.52    0.44
 -15  -5   4   -0.05    0.41
  15   5  -4    0.42    0.38
 -15   5   4   -0.14    0.33
 -15   5   4    0.11    0.48
  15   5  -4    0.84    0.54
 -13  -5   4   43.75    1.72
  13  -5  -4   43.93    1.93
  13  -5  -4   39.78    1.96
 -13  -5   4   44.96    1.80
  13   5  -4   42.66    1.65
  13   5  -4   40.75    1.76
 -13   5   4   41.21    1.71
 -13   5   4   43.55    1.97
 -11  -5   4    2.26    0.46
 -11  -5   4    2.22    0.49
  11  -5  -4    1.96    0.59
  11  -5  -4    2.14    0.58
  11   5  -4    1.77    0.47
  11   5  -4    1.36    0.39
 -11   5   4    1.35    0.50
 -11   5   4    1.66    0.40
  -9  -5   4   45.94    1.85
   9  -5  -4   45.94    1.89
   9  -5  -4   43.13    2.54
  -9  -5   4   49.61    1.77
   9   5  -4   44.52    1.67
  -9   5   4   46.24    1.73
  -9   5   4   46.50    1.97
   9   5  -4   47.30    1.60
   7  -5  -4    0.17    0.37
  -7  -5   4    0.41    0.29
   7  -5  -4    1.04    0.38
  -7  -5   4    0.81    0.33
   7   5  -4    0.57    0.29
  -7   5   4   -0.16    0.40
  -7   5   4    0.49    0.30
   7   5  -4    0.41    0.24
  -5  -5   4  145.32    4.00
  -5  -5   4  149.56    3.91
   5  -5  -4  145.17    4.11
   5  -5  -4  145.50    4.08
   5   5  -4  143.09    3.92
  -5   5   4  149.21    4.07
   5   5  -4  144.78    3.88
  -5   5   4  138.10    4.28
  -3  -5   4    0.60    0.20
   3  -5  -4    0.68    0.26
  -3  -5   4    0.41    0.21
   3  -5  -4    0.04    0.25
  -3   5   4    0.51    0.28
   3   5  -4    0.71    0.26
   3   5  -4    0.34    0.20
  -3   5   4    0.37    0.40
  -1  -5   4   79.13    2.29
   1  -5  -4   78.58    2.22
  -1  -5   4   82.39    2.37
   1  -5  -4   79.80    2.25
   1   5  -4   81.15    2.40
  -1   5   4   78.09    2.45
  -1   5   4   82.49    2.62
   1   5  -4   79.76    2.39
   1  -5   4    3.63    0.38
  -1  -5  -4    2.97    0.28
   1  -5   4    3.40    0.39
  -1  -5  -4    3.02    0.31
   1   5   4    3.94    0.48
  -1   5  -4    3.40    0.45
   1   5   4    3.76    0.51
  -1   5  -4    2.92    0.46
  -3  -5  -4   52.21    1.54
   3  -5   4   53.04    1.71
   3  -5   4   47.95    1.84
  -3  -5  -4   52.35    1.49
  -3   5  -4   51.80    1.84
   3   5   4   53.86    1.62
   3   5   4   52.50    1.61
  -5  -5  -4    0.47    0.20
   5  -5   4    0.41    0.23
   5  -5   4    0.58    0.26
   5  -5   4    0.36    0.28
   5   5   4    0.81    0.22
   5   5   4    0.23    0.19
  -5   5  -4    0.37    0.33
   7  -5   4   42.51    1.55
   7  -5   4   41.44    1.59
   7  -5   4   39.62    1.59
  -7  -5  -4   41.07    1.35
   7   5   4   41.31    1.29
  -7   5  -4   40.39    1.73
   7   5   4   40.82    1.27
  -9  -5  -4    3.52    0.49
   9  -5   4    3.39    0.52
   9  -5   4    3.56    0.51
   9  -5   4    3.75    0.45
   9  -5   4    4.80    0.74
   9   5   4    3.00    0.34
   9   5   4    3.27    0.41
  -9   5  -4    3.56    0.68
   9   5   4    3.76    0.41
  11  -5   4    7.49    0.89
 -11  -5  -4    6.54    0.68
  11  -5   4    6.05    0.73
  11  -5   4    7.47    0.80
  11   5   4    6.70    0.55
  11   5   4    7.30    0.53
  11   5   4    6.72    0.48
 -11   5  -4    5.17    0.82
  13  -5   4    4.00    0.77
  13  -5   4    4.61    0.71
  13  -5   4    3.61    0.64
  13   5   4    3.19    0.52
  13   5   4    3.65    0.47
  13   5   4    3.73    0.51
 -13   5  -4    3.88    0.85
  13   5   4    3.19    0.48
  15  -5   4    4.35    0.62
  15  -5   4    5.88    0.89
  15  -5   4    3.39    0.76
  15   5   4    5.20    0.76
  15   5   4    3.95    0.66
 -15   5  -4    4.05    0.97
  20  -6  -4   13.63    1.57
 -18  -6   4    3.20    0.59
  18  -6  -4    4.90    0.86
  18  -6  -4    4.26    0.95
 -18  -6   4    5.88    0.91
 -18   6   4    3.94    0.64
 -18   6   4    3.60    0.79
  18   6  -4    5.83    0.86
  18   6  -4    4.49    0.80
 -16  -6   4   24.06    1.22
  16  -6  -4   23.46    1.65
  16  -6  -4   21.96    1.48
 -16  -6   4   23.14    1.29
  16   6  -4   25.55    1.44
  16   6  -4   25.71    1.30
 -16   6   4   25.33    1.51
  14  -6  -4    4.52    0.80
 -14  -6   4    4.81    0.60
  14  -6  -4    5.06    0.90
 -14  -6   4    5.26    0.76
  14   6  -4    4.81    0.71
 -14   6   4    7.20    0.74
  12  -6  -4   46.40    2.07
  12  -6  -4   45.32    1.95
 -12  -6   4   44.85    1.71
  12   6  -4   42.39    1.60
 -12   6   4   45.60    1.73
  12   6  -4   41.76    1.72
 -10  -6   4   25.87    1.20
  10  -6  -4   23.16    1.42
  10  -6  -4   23.08    1.32
 -10  -6   4   23.73    1.28
 -10   6   4   25.52    1.41
  10   6  -4   25.38    1.07
 -10   6   4   25.06    1.18
  10   6  -4   23.58    1.12
  -8  -6   4   34.25    1.41
  -8  -6   4   35.78    1.51
   8  -6  -4   35.42    1.61
   8  -6  -4   35.87    1.60
   8   6  -4   36.73    1.35
  -8   6   4   34.97    1.65
   8   6  -4   36.35    1.28
  -8   6   4   35.68    1.40
   6  -6  -4   48.38    1.83
  -6  -6   4   50.14    1.73
  -6  -6   4   48.70    1.61
   6  -6  -4   49.06    1.83
   6   6  -4   48.52    1.58
  -6   6   4   47.18    1.94
  -6   6   4   48.62    1.68
   6   6  -4   46.51    1.61
   4  -6  -4   51.15    1.76
   4  -6  -4   51.69    1.77
  -4  -6   4   52.87    1.74
  -4  -6   4   53.86    1.65
   4   6  -4   50.74    1.74
   4   6  -4   52.89    1.70
  -4   6   4   55.10    1.74
  -4   6   4   46.42    2.18
  -2  -6   4   38.69    1.33
  -2  -6   4   40.37    1.42
   2  -6  -4   41.94    1.34
   2  -6  -4   42.15    1.36
  -2   6   4   42.71    1.42
   2   6  -4   42.39    1.47
  -2   6   4   37.01    1.65
   2   6  -4   41.85    1.47
   0  -6   4   28.58    1.11
   0  -6  -4   27.50    0.95
   0  -6   4   27.93    1.05
   0  -6  -4   28.31    0.91
   0   6   4   27.83    1.33
   0   6  -4   28.62    1.18
   0   6  -4   28.02    1.20
   0   6   4   28.38    1.08
  -2  -6  -4   84.40    2.27
  -2  -6  -4   84.47    2.21
   2  -6   4   83.77    2.45
   2  -6   4   85.84    2.68
  -2   6  -4   82.82    2.63
   2   6   4   78.17    2.41
   2   6   4   85.35    2.59
   4  -6   4    7.36    0.56
  -4  -6  -4    7.73    0.43
   4  -6   4    7.36    0.56
   4   6   4    6.41    0.57
  -4   6  -4    7.46    0.74
   4   6   4    7.06    0.55
  -6  -6  -4   40.48    1.26
   6  -6   4   40.10    1.52
   6  -6   4   41.94    1.53
   6  -6   4   39.72    1.56
   6   6   4   40.37    1.20
   6   6   4   40.65    1.27
  -6   6  -4   40.88    1.74
   6   6   4   38.61    1.33
   8  -6   4    9.54    0.76
   8  -6   4    8.43    0.68
  -8  -6  -4    7.97    0.56
   8  -6   4    9.27    0.87
   8  -6   4    9.74    0.73
   8   6   4    9.17    0.51
   8   6   4   10.30    0.54
  -8   6  -4    7.93    1.16
   8   6   4    8.63    0.49
  10  -6   4   19.02    1.03
  10  -6   4   17.87    0.95
  10  -6   4   16.84    1.17
  10  -6   4   17.63    1.06
  10   6   4   18.05    0.77
  10   6   4   18.12    0.71
 -10   6  -4   17.58    1.36
  10   6   4   17.55    0.77
  12  -6   4    0.55    0.55
  12  -6   4    1.01    0.40
  12  -6   4    1.18    0.51
  12   6   4    1.31    0.32
  12   6   4    0.66    0.48
 -12   6  -4    0.72    0.66
  12   6   4    0.96    0.33
  12   6   4    0.86    0.25
  14  -6   4   16.80    1.18
  14  -6   4   16.81    1.36
  14  -6   4   20.29    1.17
  14  -6   4   14.86    1.44
  14   6   4   18.84    0.85
  14   6   4   17.57    0.82
  14   6   4   17.34    1.06
  14   6   4   17.50    0.96
 -14   6  -4   20.11    1.68
  17  -7  -4   20.15    1.59
  17  -7  -4   20.81    1.69
 -17  -7   4   21.61    1.10
  17  -7  -4   21.43    1.52
 -17  -7   4   19.49    1.23
  17   7  -4   22.32    1.34
 -17   7   4   24.29    1.31
  17   7  -4   21.26    1.23
 -17   7   4   22.21    1.50
 -15  -7   4    4.17    0.55
 -15  -7   4    4.51    0.67
  15  -7  -4    2.69    0.66
  15  -7  -4    2.38    0.74
  15   7  -4    2.55    0.56
  15   7  -4    3.02    0.69
 -15   7   4    3.98    0.69
  13  -7  -4   30.06    1.59
 -13  -7   4   28.77    1.27
  13  -7  -4   27.68    1.69
 -13  -7   4   28.99    1.41
  13   7  -4   29.31    1.40
  13   7  -4   28.00    1.24
 -13   7   4   32.08    1.39
 -11  -7   4   11.92    0.83
  11  -7  -4   14.59    1.21
  11  -7  -4   13.02    1.03
 -11  -7   4   13.25    1.10
  11   7  -4   12.18    0.84
 -11   7   4   12.96    0.86
  11   7  -4   13.58    0.79
  -9  -7   4   54.96    2.17
   9  -7  -4   60.47    2.27
  -9  -7   4   60.05    2.05
   9  -7  -4   62.09    2.98
   9   7  -4   61.45    1.90
  -9   7   4   63.00    2.34
   9   7  -4   61.95    1.98
  -7  -7   4    7.01    0.67
  -7  -7   4    6.78    0.59
   7  -7  -4    7.90    0.79
   7  -7  -4    7.45    0.78
   7   7  -4    7.71    0.59
  -7   7   4    6.62    0.59
  -7   7   4    7.47    0.81
   7   7  -4    7.37    0.60
   5  -7  -4   89.28    2.80
   5  -7  -4   80.16    2.91
  -5  -7   4   95.46    2.75
  -5  -7   4   93.16    2.62
   5   7  -4   93.55    2.69
   5   7  -4   94.85    2.79
  -5   7   4   90.76    2.97
  -5   7   4   91.75    2.64
  -3  -7   4   10.03    0.65
  -3  -7   4   11.32    0.59
   3  -7  -4    9.84    0.62
   3  -7  -4   12.22    0.68
   3   7  -4   10.85    0.72
   3   7  -4   11.71    0.72
  -3   7   4   11.49    0.62
  -3   7   4   10.51    0.90
   1  -7  -4   75.74    2.16
   1  -7  -4   80.44    2.17
  -1  -7   4   77.17    2.26
  -1  -7   4   76.31    2.51
  -1   7   4   77.17    2.17
  -1   7   4   74.44    2.59
   1   7  -4   80.57    2.45
   1  -7   4   16.09    0.77
   1  -7   4   15.97    0.81
  -1  -7  -4   16.92    0.63
  -1  -7  -4   14.97    0.55
   1   7   4   16.36    0.65
  -1   7  -4   17.34    0.97
   1   7   4   14.19    1.04
   3  -7   4   48.48    1.68
   3  -7   4   52.86    1.81
  -3  -7  -4   49.99    1.43
   3  -7   4   50.98    1.73
   3   7   4   49.00    1.83
  -3   7  -4   50.20    1.92
   5  -7   4    6.38    0.73
   5  -7   4    6.23    0.56
   5  -7   4    5.40    0.59
   5  -7   4    5.74    0.57
  -5   7  -4    5.68    0.82
   5   7   4    5.26    0.65
   7  -7   4   31.63    1.53
   7  -7   4   32.77    1.35
   7  -7   4   30.70    1.37
   7   7   4   31.95    1.12
  -7   7  -4   29.48    1.67
   9  -7   4    9.56    0.79
   9  -7   4    8.17    0.67
   9  -7   4    7.72    0.71
   9  -7   4    8.42    0.94
   9   7   4    7.72    0.52
  -9   7  -4    7.72    1.12
  11  -7   4   11.59    0.85
  11  -7   4   10.12    0.77
  11  -7   4    9.88    1.06
  11  -7   4   10.85    0.90
  11   7   4    9.70    0.59
 -11   7  -4   11.88    1.27
  13  -7   4    3.80    0.63
  13  -7   4    5.24    0.80
  13  -7   4    4.05    0.84
  13  -7   4    2.82    0.49
 -13   7  -4    3.26    0.91
  13   7   4    4.41    0.83
  13   7   4    4.51    0.51
  13   7   4    3.54    0.54
 -16  -8   4    8.66    0.91
  16  -8  -4    8.26    1.21
  16  -8  -4    9.75    1.12
  16  -8  -4    7.80    1.09
  16   8  -4    8.23    1.02
  16   8  -4    5.56    0.87
 -16   8   4    7.12    0.88
  14  -8  -4    2.04    0.74
  14  -8  -4    3.99    1.06
  14  -8  -4    0.81    0.59
 -14  -8   4    2.75    0.53
 -14  -8   4    2.63    0.61
 -14   8   4    2.80    0.55
  14   8  -4    2.01    0.66
  14   8  -4    2.07    0.49
  12  -8  -4   14.97    1.14
  12  -8  -4   14.08    1.30
 -12  -8   4   15.97    0.95
 -12  -8   4   13.44    1.02
 -12   8   4   14.56    0.96
  12   8  -4   15.58    0.93
  12   8  -4   14.23    0.84
  10  -8  -4    6.18    0.87
 -10  -8   4    5.83    0.93
 -10  -8   4    7.26    0.67
  10  -8  -4    5.65    0.83
  10   8  -4    6.62    0.64
 -10   8   4    5.62    0.64
 -10   8   4    5.06    0.95
  10   8  -4    6.40    0.60
   8  -8  -4    9.65    0.90
  -8  -8   4    8.28    0.71
   8  -8  -4   10.67    0.93
  -8  -8   4    8.86    0.80
   8   8  -4    9.08    0.66
  -8   8   4    8.47    0.69
   8   8  -4    9.03    0.64
  -8   8   4    9.94    0.91
   6  -8  -4   17.43    1.00
  -6  -8   4   16.36    0.94
   6  -8  -4   17.18    1.00
  -6  -8   4   17.27    1.08
  -6   8   4   16.97    1.07
   6   8  -4   16.67    0.88
  -6   8   4   16.13    0.82
   6   8  -4   16.68    0.86
   4  -8  -4   18.12    0.90
  -4  -8   4   16.52    0.77
   4  -8  -4   15.80    0.85
  -4  -8   4   17.53    0.90
   4   8  -4   17.74    0.90
   4   8  -4   17.33    0.92
  -4   8   4   17.03    0.77
  -4   8   4   18.15    1.06
   2  -8  -4    9.02    0.49
   2  -8  -4    9.35    0.53
  -2  -8   4    7.61    0.62
  -2  -8   4    8.75    0.53
  -2   8   4    9.07    0.50
   2   8  -4   10.12    0.75
  -2   8   4    8.56    0.79
   0  -8   4    7.70    0.59
   0  -8   4    7.89    0.53
   0  -8  -4    7.35    0.42
   0   8  -4    8.25    0.77
   0   8   4    8.03    0.76
   2  -8   4   28.42    1.22
   2  -8   4   26.66    1.08
   2  -8   4   28.74    1.15
   2   8   4   26.72    1.23
  -2   8  -4   27.39    1.37
   4  -8   4    2.54    0.40
   4  -8   4    2.65    0.45
   4  -8   4    2.81    0.54
   4  -8   4    1.73    0.35
  -4   8  -4    1.99    0.59
   4   8   4    1.56    0.75
   6  -8   4   14.38    0.84
   6  -8   4   12.67    0.97
   6  -8   4   13.18    0.86
   6  -8   4   13.68    0.82
   6   8   4    9.99    1.04
  -6   8  -4   12.14    1.19
   8  -8   4    3.76    0.57
   8  -8   4    4.33    0.77
   8  -8   4    4.17    0.59
   8  -8   4    3.21    0.50
  -8   8  -4    4.52    0.87
  10  -8   4    6.79    0.72
  10  -8   4    5.02    0.74
  10  -8   4    5.84    0.68
  10  -8   4    5.09    0.80
 -10   8  -4    5.63    0.96
  12  -8   4    0.61    0.46
  12  -8   4    0.44    0.40
  12  -8   4    0.95    0.46
  12  -8   4   -0.06    0.60
 -12   8  -4    1.44    0.88
  15  -9  -4    2.90    0.86
  13  -9  -4   14.98    1.43
  13  -9  -4   14.00    1.19
 -13  -9   4   17.10    1.09
  13  -9  -4   13.15    1.31
  13   9  -4   13.32    1.09
 -13   9   4   14.67    1.21
 -13   9   4   15.44    1.01
  13   9  -4   16.63    1.29
  11  -9  -4    7.81    1.07
 -11  -9   4    6.31    0.90
  11  -9  -4    6.40    0.91
  11  -9  -4    6.73    0.96
 -11   9   4    6.53    0.73
 -11   9   4    8.73    0.94
  11   9  -4    7.09    0.74
   9  -9  -4   17.56    1.22
  -9  -9   4   17.99    1.62
   9  -9  -4   18.55    1.23
   9   9  -4   19.26    0.94
  -9   9   4   19.42    1.00
   9   9  -4   19.91    0.98
   7  -9  -4    5.79    0.79
  -7  -9   4    4.89    0.61
   7  -9  -4    5.16    0.72
   7   9  -4    4.78    0.62
  -7   9   4    5.89    0.78
  -7   9   4    5.00    0.59
   7   9  -4    5.30    0.71
  -5  -9   4   30.91    1.65
   5  -9  -4   38.70    1.48
  -5  -9   4   38.90    1.32
   5  -9  -4   37.58    1.45
  -5   9   4   37.54    1.30
  -5   9   4   39.38    1.59
   5   9  -4   37.71    1.45
   5   9  -4   38.77    1.45
   3  -9  -4    5.47    0.47
   3  -9  -4    7.55    0.68
  -3  -9   4    5.59    0.65
  -3  -9   4    5.49    0.57
   3   9  -4    6.15    0.70
  -3   9   4    6.75    0.46
  -3   9   4    5.02    0.69
  -1  -9   4   29.17    1.18
  -1  -9   4   29.00    1.07
   1  -9  -4   27.94    1.16
   1  -9  -4   28.66    0.94
   1   9  -4   29.15    1.33
  -1   9   4   26.78    1.22
   1  -9   4    9.69    0.77
   1  -9   4    9.46    0.71
   1  -9   4    8.66    0.59
   1  -9   4   10.09    0.68
   1   9   4    9.93    0.73
  -1   9  -4    9.26    0.89
   3  -9   4   17.90    0.97
   3  -9   4   19.05    1.09
   3  -9   4   18.04    0.92
   3  -9   4   18.63    0.90
   3   9   4   17.70    0.92
  -3   9  -4   19.54    1.25
   5  -9   4    3.75    0.54
   5  -9   4    3.34    0.49
   5  -9   4    3.76    0.63
   5  -9   4    4.62    0.62
  -5   9  -4    4.57    0.82
   7  -9   4   16.31    1.00
   7  -9   4   14.83    1.13
   7  -9   4   15.41    0.92
   7  -9   4   16.87    0.97
  -7   9  -4   15.24    1.49
   9  -9   4    5.99    0.89
   9  -9   4    3.20    0.49
   9  -9   4    4.04    0.59
   9  -9   4    3.42    0.60
  -9   9  -4    3.51    0.97
  12 -10  -4   13.93    1.20
  12 -10  -4   15.96    1.38
  12 -10  -4   12.87    1.27
 -12 -10   4   13.05    1.02
  12  10  -4   12.81    0.92
 -12  10   4   14.88    1.03
  10 -10  -4   13.59    1.35
  10 -10  -4   14.59    1.20
 -10 -10   4   13.29    1.05
  10 -10  -4   14.05    1.15
  10  10  -4   15.68    0.95
 -10  10   4   13.06    0.94
 -10  10   4   14.39    1.11
  10  10  -4   13.82    0.88
   8 -10  -4   16.63    1.12
   8 -10  -4   17.66    1.15
   8 -10  -4   16.15    1.12
  -8 -10   4   17.67    0.93
  -8 -10   4   17.13    1.15
  -8  10   4   19.53    1.13
   8  10  -4   16.59    1.05
   8  10  -4   15.53    0.94
  -8  10   4   16.18    0.97
   6 -10  -4   15.52    0.95
   6 -10  -4   15.92    1.01
  -6 -10   4   14.45    0.89
  -6 -10   4   18.09    1.01
   6 -10  -4   16.62    0.96
  -6  10   4   16.24    0.83
   6  10  -4   18.13    1.05
  -4 -10   4   20.72    0.94
   4 -10  -4   19.83    1.09
   4 -10  -4   19.52    1.00
   4 -10  -4   18.51    0.87
  -4 -10   4   21.06    1.02
  -4 -10   4   20.67    0.88
   4  10  -4   20.63    1.11
  -4  10   4   19.41    1.09
  -4  10   4   20.71    0.83
  -2 -10   4   18.38    1.01
  -2 -10   4   17.91    0.93
   2 -10  -4   18.31    0.85
  -2 -10   4   16.78    0.79
   2  10  -4   16.91    1.10
  -2  10   4   16.49    0.98
   0 -10   4   14.50    0.83
   0 -10   4   14.59    1.03
   0 -10   4   15.62    0.76
   0 -10   4   16.40    0.93
   0  10   4   15.22    0.88
   0  10  -4   15.41    1.13
   2 -10   4   23.02    1.21
   2 -10   4   23.15    1.12
   2 -10   4   23.03    1.00
   2 -10   4   24.66    1.10
  -2  10  -4   24.10    1.48
   4 -10   4    9.14    0.88
   4 -10   4    8.96    0.69
   4 -10   4    6.44    0.65
   4 -10   4    8.87    0.74
  -4  10  -4   10.71    1.23
   6 -10   4   12.21    1.06
   6 -10   4   12.28    0.82
   6 -10   4   10.81    0.87
   6 -10   4   10.89    0.83
   8 -10   4    5.05    0.86
   8 -10   4    6.34    0.72
   8 -10   4    6.59    0.74
  -8  10  -4    6.84    1.15
   7 -11  -4    4.60    0.72
   7 -11  -4    4.24    0.62
   7 -11  -4    3.08    0.71
  -7 -11   4    2.64    0.64
  -7  11   4    3.56    0.51
   5 -11  -4   16.12    0.91
  -5 -11   4   15.21    0.98
   5 -11  -4   15.76    0.82
  -5 -11   4   15.60    0.79
   5 -11  -4   13.33    0.81
  -5  11   4   16.41    1.03
  -5  11   4   15.15    0.77
   5  11  -4   15.66    1.11
  -3 -11   4    3.77    0.58
  -3 -11   4    3.05    0.47
  -3 -11   4    4.94    0.65
  -3 -11   4    3.58    0.53
   3  11  -4    2.77    0.68
  -1 -11   4    8.31    0.68
  -1 -11   4    9.54    0.73
  -1 -11   4    9.06    0.74
  -1 -11   4    8.73    0.59
   1  11  -4    8.01    1.06
  -1  11   4    6.33    0.74
   1 -11   4    6.02    0.74
   1 -11   4    5.80    0.65
   1 -11   4    5.34    0.63
   1 -11   4    4.38    0.55
  -1  11  -4    4.94    0.89
   3 -11   4    6.30    0.62
   3 -11   4    7.08    0.69
   3 -11   4    5.78    0.71
   3 -11   4    8.33    0.86
  -3  11  -4    7.51    1.06
  22   0  -5    1.59    0.94
  22   0  -5    1.25    0.92
 -22   0   5    1.29    0.76
  20   0  -5   34.16    2.07
  20   0  -5   31.92    1.95
 -20   0   5   28.31    1.80
 -20   0   5   31.02    1.61
 -18   0   5    5.39    0.86
  18   0  -5    4.48    0.90
  18   0  -5    7.64    1.19
 -18   0   5    5.55    0.78
  16   0  -5   65.55    2.69
  16   0  -5   69.32    2.72
 -16   0   5   65.36    2.86
 -16   0   5   70.00    2.71
 -14   0   5    0.29    0.60
  14   0  -5    1.20    0.56
 -14   0   5    0.86    0.37
  14   0  -5    1.40    0.51
 -12   0   5  159.48    4.80
  12   0  -5  157.56    4.74
  12   0  -5  161.20    4.63
 -12   0   5  155.19    4.70
  10   0  -5    0.48    0.36
 -10   0   5    1.21    0.46
 -10   0   5    1.02    0.45
  10   0  -5    1.19    0.46
  -8   0   5  184.27    5.12
   8   0  -5  171.17    4.89
   8   0  -5  177.06    4.99
  -8   0   5  173.87    5.10
   6   0  -5    8.13    0.64
  -6   0   5   10.53    0.75
  -6   0   5    8.11    0.74
   6   0  -5    9.24    0.68
   4   0  -5  190.26    5.14
  -4   0   5  188.77    5.14
   4   0  -5  204.89    5.28
  -4   0   5  186.95    5.21
  -2   0   5   14.17    0.72
   2   0  -5   14.37    0.72
   2   0  -5   13.89    0.71
  -2   0   5   13.79    0.75
   0   0  -5  207.43    5.42
   0   0  -5  205.72    5.42
   0   0   5  205.26    5.40
   0   0   5  213.10    5.45
  -2   0  -5   11.72    0.65
   2   0   5   10.95    0.61
   2   0   5   11.46    0.63
  -4   0  -5   65.28    2.08
   4   0   5   63.07    1.97
  -4   0  -5   63.69    2.02
   4   0   5   62.27    1.99
   6   0   5   46.49    1.65
   6   0   5   50.11    1.64
  -6   0  -5   47.04    1.77
   8   0   5   30.76    1.21
   8   0   5   29.71    1.21
   8   0   5   29.11    1.28
  -8   0  -5   31.14    1.48
  10   0   5   12.67    0.78
  10   0   5   11.95    0.85
 -10   0  -5   11.84    0.93
  12   0   5    9.32    0.82
 -12   0  -5   10.15    0.97
  12   0   5   11.11    0.74
 -14   0  -5    8.13    0.98
  14   0   5    8.12    0.73
  14   0   5    9.05    1.08
 -16   0  -5    1.29    0.72
  16   0   5    0.58    0.70
  16   0   5    0.95    0.41
  16   0   5    0.53    0.48
  21  -1  -5    0.23    0.81
 -21  -1   5    2.29    0.66
 -21  -1   5    2.47    0.83
  21  -1  -5    0.84    0.87
  21   1  -5    0.99    0.79
 -21   1   5    1.10    0.62
  21   1  -5    1.12    0.85
 -21   1   5    1.23    0.74
  19  -1  -5   21.97    1.72
  19  -1  -5   22.68    2.14
 -19  -1   5   24.18    1.56
 -19  -1   5   23.95    1.37
  19   1  -5   20.96    1.61
  19   1  -5   22.30    1.68
 -19   1   5   23.72    1.60
  17  -1  -5    4.50    0.92
  17  -1  -5    3.59    0.82
 -17  -1   5    4.90    0.77
 -17  -1   5    3.27    0.71
  17   1  -5    2.59    0.75
 -17   1   5    4.45    0.83
  15  -1  -5   18.61    1.35
  15  -1  -5   16.53    1.31
 -15  -1   5   18.25    1.28
 -15  -1   5   17.23    1.15
 -15   1   5   18.26    1.30
  15   1  -5   17.37    1.27
  15   1  -5   17.59    1.22
 -13  -1   5   30.41    1.54
  13  -1  -5   28.43    1.84
 -13  -1   5   29.69    1.50
  13  -1  -5   30.32    1.56
  13   1  -5   29.94    1.44
  13   1  -5   28.69    1.53
 -13   1   5   30.62    1.51
 -13   1   5   28.86    1.58
 -11  -1   5   20.23    1.22
  11  -1  -5   20.69    1.18
  11  -1  -5   17.50    1.21
 -11  -1   5   19.48    1.18
  11   1  -5   19.84    1.21
 -11   1   5   20.04    1.26
 -11   1   5   20.38    1.20
  11   1  -5   20.85    1.13
   9  -1  -5   30.07    1.40
  -9  -1   5   27.17    1.46
   9  -1  -5   29.80    1.35
  -9  -1   5   29.01    1.42
   9   1  -5   27.59    1.30
   9   1  -5   28.20    1.36
  -9   1   5   29.16    1.45
  -9   1   5   29.07    1.46
  -7  -1   5   17.25    1.04
  -7  -1   5   16.44    0.98
   7  -1  -5   16.13    0.97
   7  -1  -5   15.82    0.94
   7   1  -5   16.51    0.95
  -7   1   5   18.50    1.09
  -7   1   5   16.40    1.04
   7   1  -5   17.18    0.94
  -5  -1   5  109.84    3.11
   5  -1  -5  104.46    3.08
   5  -1  -5  103.32    3.12
  -5  -1   5  106.98    3.17
   5   1  -5  106.68    3.11
  -5   1   5  103.35    3.23
   5   1  -5  107.03    3.07
  -5   1   5  105.02    3.19
   3  -1  -5    0.70    0.24
  -3  -1   5    0.77    0.23
   3  -1  -5    0.23    0.20
  -3  -1   5    0.35    0.21
   3   1  -5    0.34    0.19
   3   1  -5    0.58    0.25
  -3   1   5    0.79    0.31
  -3   1   5    0.59    0.25
   1  -1  -5  130.74    3.54
  -1  -1   5  129.58    3.54
  -1  -1   5  129.59    3.59
   1  -1  -5  131.30    3.54
  -1   1   5  130.38    3.60
   1   1  -5  123.84    3.54
   1   1  -5  126.92    3.56
  -1   1   5  133.82    3.57
  -1  -1  -5    7.69    0.53
  -1  -1  -5    8.24    0.53
   1  -1   5    7.40    0.52
   1  -1   5    7.82    0.54
   1   1   5    7.66    0.54
  -1   1  -5    8.16    0.55
  -1   1  -5    8.41    0.58
   1   1   5    9.15    0.55
  -3  -1  -5  107.59    3.05
  -3  -1  -5  109.56    3.03
   3  -1   5  103.16    3.00
   3  -1   5  106.36    3.03
  -3   1  -5  109.46    3.12
   3   1   5  106.04    3.00
   3   1   5  108.31    3.00
  -3   1  -5  107.51    3.09
   5  -1   5    0.05    0.21
  -5  -1  -5    0.55    0.29
   5   1   5    0.45    0.25
   5   1   5    0.43    0.22
  -5   1  -5   -0.09    0.27
  -7  -1  -5   82.51    2.62
   7  -1   5   86.17    2.56
   7  -1   5   82.73    2.54
  -7   1  -5   84.22    2.70
   7   1   5   84.24    2.49
   7   1   5   82.82    2.49
   9  -1   5    0.50    0.28
   9  -1   5    0.20    0.32
  -9  -1  -5    0.52    0.38
   9  -1   5    0.94    0.37
   9   1   5    0.11    0.31
   9   1   5    0.73    0.27
  -9   1  -5    0.34    0.39
   9   1   5    0.42    0.27
 -11  -1  -5   27.96    1.39
  11  -1   5   28.72    1.25
  11  -1   5   29.45    1.35
 -11   1  -5   29.52    1.50
  11   1   5   28.63    1.29
  11   1   5   28.12    1.22
  13  -1   5    1.90    0.49
 -13  -1  -5    0.99    0.52
  13  -1   5    1.32    0.33
  13  -1   5    1.47    0.60
  13   1   5    1.64    0.39
  13   1   5    1.00    0.44
 -13   1  -5    1.90    0.54
 -15  -1  -5   11.34    1.17
  15  -1   5   12.09    1.05
  15  -1   5   13.24    1.21
  15  -1   5   13.01    1.00
  15   1   5   10.75    0.89
  15   1   5   11.85    0.97
  15   1   5    8.95    1.30
  15   1   5   11.32    0.83
 -15   1  -5   12.50    1.24
 -17  -1  -5    1.23    0.78
  17  -1   5   -0.14    0.55
  17  -1   5    0.02    0.44
  17  -1   5   -0.73    0.69
  17   1   5    0.75    0.44
 -17   1  -5    0.26    0.84
  17   1   5    0.05    0.73
  17   1   5    0.27    0.53
 -22  -2   5    1.16    0.80
  22  -2  -5    0.19    0.99
  22  -2  -5    0.66    0.96
 -22  -2   5   -1.28    0.80
 -22   2   5    0.80    0.78
  22   2  -5   -1.22    0.82
  22   2  -5    0.43    0.86
 -20  -2   5   19.97    1.30
  20  -2  -5   17.79    1.72
  20  -2  -5   17.26    1.71
 -20  -2   5   21.44    1.53
  20   2  -5   21.50    1.63
  20   2  -5   19.13    1.58
 -20   2   5   20.90    1.58
  18  -2  -5    1.42    0.80
 -18  -2   5    1.83    0.67
  18  -2  -5    1.16    0.72
 -18   2   5    1.77    0.70
  18   2  -5    2.20    0.74
  18   2  -5    2.52    0.69
  16  -2  -5   36.52    2.01
 -16  -2   5   38.57    1.83
  16  -2  -5   35.88    1.95
 -16  -2   5   39.76    1.75
  16   2  -5   38.18    1.78
  16   2  -5   37.98    1.84
 -16   2   5   41.38    2.00
 -14  -2   5    0.45    0.40
  14  -2  -5    0.39    0.49
  14  -2  -5    0.16    0.52
 -14  -2   5    1.28    0.47
 -14   2   5    1.51    0.51
  14   2  -5    0.40    0.43
  14   2  -5    0.59    0.40
 -14   2   5    1.11    0.56
 -12  -2   5   97.33    3.25
  12  -2  -5   97.51    3.32
 -12  -2   5   97.80    3.24
 -12   2   5   94.90    3.22
  12   2  -5   98.91    3.11
 -12   2   5  100.92    3.42
  12   2  -5  101.03    3.28
 -10  -2   5    9.16    0.86
  10  -2  -5    7.73    0.79
  10  -2  -5    6.90    0.79
 -10  -2   5    8.02    0.80
  10   2  -5    8.35    0.75
  10   2  -5    7.69    0.82
 -10   2   5    6.21    0.75
  -8  -2   5   88.01    2.98
   8  -2  -5   90.74    2.87
   8  -2  -5   95.04    2.96
  -8  -2   5   87.71    2.91
  -8   2   5   98.53    3.11
   8   2  -5   82.89    2.82
  -8   2   5   96.47    3.03
   8   2  -5   84.53    2.75
   6  -2  -5    3.39    0.55
  -6  -2   5    4.24    0.49
   6  -2  -5    2.70    0.48
  -6  -2   5    2.21    0.41
  -6   2   5    3.73    0.62
   6   2  -5    2.71    0.44
  -6   2   5    3.12    0.56
   6   2  -5    3.16    0.47
   4  -2  -5  107.70    3.10
  -4  -2   5  108.06    3.14
  -4  -2   5  108.70    3.08
   4  -2  -5  108.17    3.13
  -4   2   5  104.42    3.27
  -4   2   5  107.24    3.23
   4   2  -5  106.24    3.09
   4   2  -5  110.78    3.07
   2  -2  -5    1.03    0.27
  -2  -2   5    0.63    0.23
  -2  -2   5    1.30    0.31
   2  -2  -5    0.92    0.27
   2   2  -5    1.04    0.28
  -2   2   5    0.87    0.30
   2   2  -5    0.54    0.24
  -2   2   5    0.75    0.26
   0  -2  -5  116.54    3.18
   0  -2   5  111.74    3.19
   0  -2  -5  111.72    3.17
   0  -2   5  115.93    3.25
   0   2  -5  116.36    3.27
   0   2  -5  117.09    3.26
   0   2   5  116.50    3.25
   0   2   5  119.70    3.23
  -2  -2  -5    4.12    0.39
   2  -2   5    4.38    0.44
  -2  -2  -5    4.29    0.43
   2  -2   5    3.69    0.40
   2   2   5    4.18    0.42
   2   2   5    4.23    0.42
  -2   2  -5    4.66    0.47
  -2   2  -5    4.07    0.56
   4  -2   5   31.26    1.19
   4  -2   5   27.14    1.34
  -4  -2  -5   31.92    1.21
  -4  -2  -5   30.54    1.18
   4   2   5   30.32    1.12
  -4   2  -5   31.08    1.30
   6  -2   5   24.16    1.06
   6  -2   5   25.21    1.06
  -6  -2  -5   22.03    1.18
   6   2   5   23.39    0.96
   6   2   5   23.87    0.98
  -6   2  -5   23.23    1.35
   8  -2   5   17.31    0.98
  -8  -2  -5   17.45    0.97
   8  -2   5   16.34    0.87
   8  -2   5   16.55    0.91
   8   2   5   16.91    0.89
   8   2   5   17.21    0.84
  -8   2  -5   16.17    1.06
   8   2   5   18.69    0.85
  10  -2   5    4.35    0.52
 -10  -2  -5    4.50    0.64
  10  -2   5    4.28    0.61
  10  -2   5    5.37    0.59
  10   2   5    4.19    0.49
 -10   2  -5    4.51    0.72
  10   2   5    4.48    0.52
  10   2   5    4.24    0.61
  12  -2   5    7.32    0.79
  12  -2   5    5.73    0.65
 -12  -2  -5    5.54    0.83
  12  -2   5    6.11    0.91
  12  -2   5    6.26    0.62
  12   2   5    5.84    0.59
 -12   2  -5    6.09    0.94
  12   2   5    6.04    0.62
  12   2   5    5.76    0.71
 -14  -2  -5    7.88    0.95
  14  -2   5    9.36    0.95
  14  -2   5    7.93    0.88
  14  -2   5    8.41    0.77
  14  -2   5    8.29    1.07
 -14   2  -5    7.38    1.10
  14   2   5    8.83    0.74
  14   2   5    6.79    0.73
  14   2   5    8.30    0.83
  14   2   5    9.04    1.01
  16  -2   5    0.17    0.64
  16  -2   5    0.87    0.38
 -16  -2  -5    0.21    0.67
  16  -2   5    0.81    0.54
  16   2   5    0.39    0.45
  16   2   5    0.95    0.64
  16   2   5    0.71    0.48
 -16   2  -5   -0.27    0.77
  16   2   5    0.92    0.42
  21  -3  -5    2.69    0.98
  21  -3  -5    2.19    1.08
 -21  -3   5    2.96    0.71
  21   3  -5    3.58    0.90
 -21   3   5    3.75    0.85
  21   3  -5    4.40    0.95
 -19  -3   5   22.96    1.53
  19  -3  -5   26.85    1.86
  19  -3  -5   24.08    1.85
 -19  -3   5   26.04    1.41
 -19   3   5   24.30    1.66
  19   3  -5   26.31    1.60
  19   3  -5   25.52    1.65
  17  -3  -5    6.71    1.02
  17  -3  -5    9.35    1.21
 -17  -3   5    8.21    1.02
 -17  -3   5    7.77    0.87
  17   3  -5    8.39    0.99
  17   3  -5    7.78    0.92
 -17   3   5    8.50    1.19
 -15  -3   5   24.08    1.32
 -15  -3   5   22.55    1.34
  15  -3  -5   21.27    1.48
  15  -3  -5   21.58    1.52
 -15   3   5   22.84    1.31
  15   3  -5   24.22    1.29
  15   3  -5   21.79    1.35
 -15   3   5   20.43    1.46
 -13  -3   5   32.84    1.56
  13  -3  -5   31.67    1.71
 -13  -3   5   32.76    1.57
  13  -3  -5   31.62    1.66
 -13   3   5   31.99    1.73
  13   3  -5   33.03    1.57
  13   3  -5   32.86    1.47
 -13   3   5   31.02    1.57
 -11  -3   5   37.49    1.70
  11  -3  -5   40.25    1.74
 -11  -3   5   37.64    1.64
  11  -3  -5   34.02    2.00
  11   3  -5   36.35    1.54
 -11   3   5   38.67    1.84
  11   3  -5   30.88    2.22
 -11   3   5   35.93    1.65
  -9  -3   5   59.50    2.20
   9  -3  -5   68.84    2.32
  -9  -3   5   51.78    2.52
   9  -3  -5   62.36    2.21
   9   3  -5   56.03    2.03
  -9   3   5   67.42    2.44
  -9   3   5   56.72    2.51
   9   3  -5   56.34    2.12
   7  -3  -5   25.87    1.28
   7  -3  -5   26.62    1.28
  -7  -3   5   25.57    1.26
  -7  -3   5   24.82    1.16
   7   3  -5   26.20    1.19
   7   3  -5   25.48    1.13
  -7   3   5   26.98    1.34
   5  -3  -5   85.19    2.69
   5  -3  -5   80.39    2.69
  -5  -3   5   92.11    2.76
  -5  -3   5   92.08    2.66
  -5   3   5   88.87    2.94
   5   3  -5   88.91    2.67
   5   3  -5   91.54    2.64
  -5   3   5   91.88    2.92
  -3  -3   5   13.81    0.76
   3  -3  -5   13.96    0.75
   3  -3  -5   13.68    0.73
  -3  -3   5   14.60    0.73
  -3   3   5   14.69    0.95
   3   3  -5   13.84    0.76
  -3   3   5   13.29    0.86
   3   3  -5   12.92    0.73
  -1  -3   5  177.18    4.64
   1  -3  -5  170.85    4.53
  -1  -3   5  176.96    4.58
   1  -3  -5  175.45    4.53
  -1   3   5  169.06    4.63
   1   3  -5  166.87    4.62
   1   3  -5  170.66    4.63
  -1   3   5  170.09    4.67
   1  -3   5   14.42    0.72
  -1  -3  -5   14.71    0.71
   1  -3   5   14.01    0.78
  -1  -3  -5   14.30    0.68
  -1   3  -5   15.07    0.82
  -1   3  -5   14.47    0.80
   1   3   5   14.24    0.74
   1   3   5   13.44    0.72
  -3  -3  -5   97.22    2.80
   3  -3   5   98.54    2.88
  -3  -3  -5  100.31    2.77
   3  -3   5   98.12    2.85
  -3   3  -5  101.98    2.98
   3   3   5   99.15    2.79
  -3   3  -5   97.34    2.98
   5  -3   5    3.21    0.45
   5  -3   5    3.14    0.51
  -5  -3  -5    3.06    0.45
   5   3   5    3.45    0.41
   5   3   5    3.81    0.43
  -5   3  -5    3.49    0.58
   7  -3   5   81.19    2.59
   7  -3   5   81.14    2.51
   7  -3   5   82.23    2.52
  -7  -3  -5   79.38    2.49
   7   3   5   80.40    2.35
  -7   3  -5   76.03    2.73
   7   3   5   79.53    2.36
  -9  -3  -5    1.18    0.40
   9  -3   5    1.12    0.35
   9  -3   5    1.04    0.37
   9  -3   5    1.45    0.42
   9   3   5    1.03    0.31
   9   3   5    1.36    0.32
   9   3   5    1.05    0.34
  -9   3  -5    0.66    0.48
 -11  -3  -5   31.81    1.40
  11  -3   5   31.70    1.37
  11  -3   5   29.95    1.43
 -11   3  -5   29.99    1.63
  11   3   5   32.27    1.32
  11   3   5   32.02    1.25
  11   3   5   32.78    1.25
 -13  -3  -5    1.79    0.53
  13  -3   5    2.16    0.62
  13  -3   5    1.29    0.45
  13  -3   5    1.47    0.47
  13   3   5    2.30    0.43
 -13   3  -5    1.36    0.67
  13   3   5    1.76    0.50
 -15  -3  -5    9.85    1.09
  15  -3   5    8.89    1.03
  15  -3   5    8.34    0.80
  15  -3   5    8.85    0.90
  15  -3   5    8.34    1.18
  15   3   5    9.05    0.77
  15   3   5    8.58    0.78
 -15   3  -5    9.54    1.35
  15   3   5    9.18    0.87
  15   3   5    9.31    1.02
  20  -4  -5   15.41    1.94
  20  -4  -5   19.35    1.75
 -20  -4   5   16.85    1.36
 -20  -4   5   19.05    1.25
  20   4  -5   20.55    1.43
  20   4  -5   18.72    1.40
 -20   4   5   18.95    1.51
  18  -4  -5    3.83    0.92
 -18  -4   5    4.79    0.73
  18  -4  -5    4.57    0.91
 -18  -4   5    3.17    0.73
 -18   4   5    3.28    0.87
  18   4  -5    3.26    0.74
  18   4  -5    3.90    0.71
 -18   4   5    4.50    0.73
  16  -4  -5   35.28    1.95
  16  -4  -5   32.43    1.95
 -16  -4   5   33.97    1.67
 -16  -4   5   34.08    1.61
  16   4  -5   38.71    1.74
  16   4  -5   37.07    1.61
 -16   4   5   33.30    1.88
 -16   4   5   35.10    1.80
  14  -4  -5    0.33    0.60
 -14  -4   5    1.15    0.46
 -14  -4   5    2.24    0.53
  14  -4  -5    0.55    0.53
 -14   4   5    1.42    0.46
 -14   4   5    1.37    0.59
  14   4  -5    0.77    0.48
  14   4  -5    1.47    0.50
 -12  -4   5   87.62    2.95
 -12  -4   5   87.60    2.89
  12  -4  -5   83.48    3.03
  12  -4  -5   81.13    2.98
  12   4  -5   85.28    2.76
 -12   4   5   88.94    2.96
 -12   4   5   86.26    3.14
  12   4  -5   82.06    2.87
 -10  -4   5    1.25    0.41
 -10  -4   5    1.70    0.55
  10  -4  -5    2.24    0.58
  10  -4  -5    1.32    0.47
 -10   4   5    0.84    0.41
 -10   4   5    0.82    0.52
  10   4  -5    1.03    0.42
  10   4  -5    1.32    0.43
  -8  -4   5   76.55    3.12
   8  -4  -5   83.65    2.74
   8  -4  -5   74.55    2.96
  -8  -4   5   80.56    2.64
   8   4  -5   81.14    2.71
  -8   4   5   84.84    2.92
   8   4  -5   83.47    2.53
  -8   4   5   82.01    2.75
  -6  -4   5   20.10    1.07
  -6  -4   5   18.79    0.93
   6  -4  -5   19.59    1.04
   6  -4  -5   18.67    1.03
  -6   4   5   20.64    1.18
  -6   4   5   22.56    1.29
   6   4  -5   20.90    1.00
   6   4  -5   20.04    0.95
   4  -4  -5   96.67    3.21
  -4  -4   5  100.04    2.90
  -4  -4   5  103.10    3.02
   4  -4  -5  100.71    2.96
   4   4  -5  102.49    2.93
  -4   4   5  107.14    3.21
   4   4  -5  103.87    2.97
  -4   4   5   94.74    3.52
  -2  -4   5    0.58    0.23
   2  -4  -5    0.94    0.28
  -2  -4   5    0.34    0.25
   2  -4  -5    0.77    0.24
   2   4  -5    0.43    0.25
  -2   4   5    0.71    0.39
  -2   4   5    0.26    0.49
   2   4  -5    1.38    0.33
   0  -4  -5  104.85    2.84
   0  -4  -5  105.35    2.81
   0  -4   5  103.24    2.90
   0  -4   5   95.84    3.18
   0   4  -5  103.80    3.02
   0   4  -5  108.82    3.03
   0   4   5  105.54    3.03
   0   4   5   86.69    3.26
  -2  -4  -5   13.49    0.68
  -2  -4  -5   12.82    0.62
   2  -4   5   14.07    0.74
   2  -4   5   13.50    0.75
   2   4   5   12.65    0.83
  -2   4  -5   14.44    0.86
   2   4   5   12.55    0.71
  -2   4  -5   13.23    0.80
  -4  -4  -5   33.94    1.17
   4  -4   5   34.03    1.31
   4  -4   5   33.08    1.31
  -4  -4  -5   33.40    1.21
  -4   4  -5   35.85    1.50
   4   4   5   33.76    1.21
   4   4   5   33.52    1.21
   6  -4   5   26.56    1.16
  -6  -4  -5   22.55    1.44
  -6   4  -5   23.67    1.67
   6   4   5   26.50    1.00
   6   4   5   27.32    1.03
   8  -4   5   16.93    1.02
  -8  -4  -5   17.27    0.92
   8  -4   5   16.93    0.95
  -8   4  -5   18.78    1.20
   8   4   5   19.17    0.85
   8   4   5   18.00    0.87
   8   4   5   18.13    0.81
  10  -4   5    4.72    0.64
 -10  -4  -5    6.82    0.69
  10  -4   5    5.22    0.73
  10   4   5    4.67    0.50
 -10   4  -5    4.36    0.72
  10   4   5    4.68    0.56
  10   4   5    5.12    0.52
  12  -4   5    6.80    0.99
  12  -4   5    6.86    0.75
 -12  -4  -5    6.83    0.75
  12  -4   5    7.12    0.81
  12   4   5    7.89    0.75
 -12   4  -5    8.63    1.12
  12   4   5    8.36    0.66
  12   4   5    7.24    0.62
  14  -4   5    8.40    0.87
 -14  -4  -5    9.12    0.97
  14  -4   5    9.59    1.00
  14  -4   5    7.53    1.12
 -14   4  -5    6.09    0.99
  14   4   5    8.39    0.95
  14   4   5    8.09    0.82
  14   4   5    9.32    0.70
  14   4   5    9.42    0.72
  19  -5  -5   12.57    1.66
 -19  -5   5   11.59    1.04
  19  -5  -5   13.48    1.84
 -19  -5   5    9.35    1.16
  19   5  -5   13.05    1.13
 -19   5   5   14.82    1.51
 -19   5   5   13.84    1.21
  19   5  -5   12.98    1.18
  17  -5  -5    1.61    0.81
  17  -5  -5    2.93    0.82
 -17  -5   5    2.25    0.54
 -17  -5   5    0.88    0.57
 -17   5   5    2.28    0.70
 -17   5   5    0.98    0.57
  17   5  -5    2.70    0.66
  17   5  -5    1.67    0.55
 -15  -5   5    8.10    0.88
  15  -5  -5    7.71    1.09
 -15  -5   5    6.54    0.84
  15  -5  -5    6.82    1.02
 -15   5   5    7.64    0.88
 -15   5   5    7.95    1.11
  15   5  -5    7.40    0.90
  15   5  -5    7.21    0.85
 -13  -5   5    9.72    0.91
  13  -5  -5   11.65    1.12
  13  -5  -5   12.75    1.17
 -13  -5   5   13.25    0.95
  13   5  -5   11.81    0.99
  13   5  -5   11.78    0.91
 -13   5   5    9.53    0.90
 -11  -5   5   11.50    0.92
  11  -5  -5   10.38    0.99
  11  -5  -5   12.26    1.05
 -11  -5   5    8.94    0.87
  11   5  -5   10.42    0.92
  11   5  -5    7.95    0.77
 -11   5   5   10.83    0.88
  -9  -5   5   16.16    1.09
   9  -5  -5   19.41    1.16
  -9  -5   5   16.50    0.99
   9  -5  -5   17.74    1.09
  -9   5   5   16.15    1.09
   9   5  -5   16.10    1.00
   9   5  -5   16.69    0.93
  -9   5   5   13.88    1.15
   7  -5  -5    7.88    0.74
  -7  -5   5    7.92    0.72
  -7  -5   5    7.90    0.64
   7  -5  -5    4.96    0.67
  -7   5   5    7.44    0.88
   7   5  -5    6.17    0.60
  -7   5   5    4.81    0.71
   7   5  -5    6.67    0.64
  -5  -5   5   27.31    1.64
  -5  -5   5   30.86    1.19
   5  -5  -5   28.18    1.32
   5   5  -5   30.59    1.20
  -5   5   5   31.14    1.55
   5   5  -5   31.25    1.24
  -5   5   5   29.59    1.39
   3  -5  -5    1.81    0.35
  -3  -5   5    1.03    0.35
  -3  -5   5    2.02    0.33
   3  -5  -5    1.58    0.34
   3   5  -5    1.19    0.38
   3   5  -5    1.46    0.36
  -3   5   5    2.56    0.56
  -3   5   5    2.54    0.50
  -1  -5   5   64.80    2.00
   1  -5  -5   64.81    1.94
   1  -5  -5   63.42    1.90
  -1  -5   5   63.75    2.06
   1   5  -5   64.29    2.10
  -1   5   5   63.23    2.24
   1   5  -5   62.33    2.10
  -1   5   5   67.98    2.25
   1  -5   5    3.98    0.43
  -1  -5  -5    3.31    0.40
   1  -5   5    3.06    0.45
  -1  -5  -5    3.24    0.34
   1   5   5    4.20    0.56
  -1   5  -5    3.71    0.56
   1   5   5    3.44    0.53
  -3  -5  -5   37.33    1.26
   3  -5   5   37.60    1.42
   3  -5   5   37.39    1.39
  -3  -5  -5   34.82    1.19
   3   5   5   36.98    1.33
  -3   5  -5   38.62    1.57
   3   5   5   37.94    1.35
   5  -5   5    0.82    0.29
   5  -5   5    0.65    0.28
  -5  -5  -5    0.13    0.24
   5   5   5    0.53    0.25
  -5   5  -5    0.63    0.45
   5   5   5    0.92    0.26
   7  -5   5   37.04    1.46
   7  -5   5   37.58    1.55
  -7  -5  -5   36.17    1.33
   7   5   5   36.34    1.25
  -7   5  -5   37.04    1.70
   7   5   5   36.44    1.27
   7   5   5   35.52    1.26
   9  -5   5   -0.21    0.30
  -9  -5  -5    0.33    0.35
   9  -5   5   -0.28    0.31
   9   5   5    0.36    0.23
   9   5   5    0.22    0.27
   9   5   5   -0.01    0.25
  -9   5  -5    0.48    0.55
 -11  -5  -5   13.44    0.88
  11  -5   5   12.64    1.12
  11  -5   5   14.93    1.06
  11  -5   5   14.91    0.94
 -11   5  -5   14.41    1.29
  11   5   5   13.82    0.75
  11   5   5   13.71    0.74
  11   5   5   13.34    0.80
 -13  -5  -5    2.32    0.56
  13  -5   5    1.05    0.50
  13  -5   5    0.76    0.41
  13  -5   5    1.30    0.68
 -13   5  -5    0.95    0.73
  13   5   5    0.95    0.42
  13   5   5    1.12    0.51
  15  -5   5    3.06    0.82
  15  -5   5    3.77    0.92
  15   5   5    5.30    0.80
 -15   5  -5    3.48    1.07
  18  -6  -5    4.10    0.88
 -18  -6   5    4.79    0.70
  18  -6  -5    4.33    1.12
 -18  -6   5    3.98    0.75
 -18   6   5    1.84    1.05
  18   6  -5    4.59    0.75
  18   6  -5    5.60    0.90
 -18   6   5    4.32    0.76
 -16  -6   5   25.34    1.35
 -16  -6   5   22.86    1.32
  16  -6  -5   21.90    1.78
  16  -6  -5   23.21    1.63
 -16   6   5   26.36    1.69
  16   6  -5   26.26    1.35
  16   6  -5   27.08    1.47
 -14  -6   5    2.39    0.51
  14  -6  -5    2.51    0.75
  14  -6  -5    2.96    0.82
 -14  -6   5    3.30    0.66
  14   6  -5    2.32    0.58
 -14   6   5    2.49    0.56
  14   6  -5    1.59    0.53
 -12  -6   5   51.60    1.96
 -12  -6   5   52.84    2.07
  12  -6  -5   50.24    2.16
  12  -6  -5   50.27    2.19
 -12   6   5   51.80    2.02
  12   6  -5   48.51    1.96
  12   6  -5   49.68    1.86
  10  -6  -5    3.74    0.65
  10  -6  -5    2.44    0.57
 -10  -6   5    1.50    0.46
 -10  -6   5    2.96    0.50
 -10   6   5    3.12    0.54
  10   6  -5    3.03    0.51
  10   6  -5    2.49    0.54
  -8  -6   5   56.84    2.14
  -8  -6   5   58.41    2.05
   8  -6  -5   63.10    2.19
   8  -6  -5   58.69    2.17
   8   6  -5   61.09    1.95
   8   6  -5   56.80    2.23
  -8   6   5   55.91    2.36
  -8   6   5   55.22    2.37
   6  -6  -5   11.69    0.85
  -6  -6   5   12.37    0.82
  -6  -6   5   12.52    0.72
   6  -6  -5   12.95    0.86
  -6   6   5   12.03    1.03
   6   6  -5   11.83    0.75
   6   6  -5   11.75    0.78
  -6   6   5   12.64    0.89
   4  -6  -5   61.22    2.00
  -4  -6   5   62.81    1.95
   4  -6  -5   60.98    2.00
  -4  -6   5   60.95    2.05
  -4   6   5   59.26    2.10
   4   6  -5   59.21    2.00
  -4   6   5   61.86    2.35
   4   6  -5   63.36    2.05
  -2  -6   5    7.12    0.52
   2  -6  -5    6.93    0.49
   2  -6  -5    6.68    0.85
  -2  -6   5    7.58    0.59
  -2   6   5    6.63    0.73
  -2   6   5    7.61    0.87
   2   6  -5    8.72    0.70
   0  -6   5   70.54    2.22
   0  -6   5   67.64    2.13
   0  -6  -5   68.33    2.03
   0  -6  -5   70.01    1.99
   0   6   5   69.65    2.44
   0   6   5   70.70    2.30
   0   6  -5   70.27    2.33
   0   6  -5   70.91    2.29
  -2  -6  -5    9.96    0.50
  -2  -6  -5    9.16    0.55
   2  -6   5   10.27    0.66
   2  -6   5   11.54    0.71
   2   6   5   11.24    0.83
   2   6   5    8.61    0.75
  -2   6  -5    9.87    0.86
   4  -6   5   26.77    1.16
  -4  -6  -5   26.08    0.97
   4  -6   5   23.78    1.11
   4   6   5   25.13    1.07
  -4   6  -5   26.10    1.37
   4   6   5   26.87    1.11
   6  -6   5   20.40    1.01
   6  -6   5   21.24    1.13
   6  -6   5   21.58    1.05
  -6   6  -5   19.77    1.31
   6   6   5   20.83    0.91
   6   6   5   20.40    0.82
   6   6   5   20.18    0.88
   8  -6   5   14.11    0.98
   8  -6   5   13.21    0.87
   8  -6   5   14.49    0.88
  -8  -6  -5   13.64    0.74
   8  -6   5   13.57    1.07
   8   6   5   12.86    0.66
  -8   6  -5   13.88    1.21
   8   6   5   13.54    0.68
   8   6   5   13.70    0.70
  10  -6   5    6.24    0.77
 -10  -6  -5    4.32    0.62
  10  -6   5    4.78    0.74
  10   6   5    5.85    0.53
  10   6   5    5.39    0.55
  10   6   5    4.68    0.49
 -10   6  -5    5.41    0.90
  12  -6   5    7.99    0.91
  12  -6   5    7.31    0.75
  12  -6   5    6.65    0.81
  12  -6   5    4.16    0.88
  12   6   5    6.54    0.57
  12   6   5    5.07    0.66
 -12   6  -5    7.07    1.07
  14  -6   5    3.10    0.61
  14   6   5    4.63    0.62
 -17  -7   5    7.96    0.95
  17  -7  -5    4.56    1.13
  17  -7  -5    6.11    0.98
 -17  -7   5    6.70    0.87
 -17   7   5    5.94    0.95
  17   7  -5    4.01    0.75
  17   7  -5    4.60    0.81
  15  -7  -5   12.89    1.43
 -15  -7   5   11.31    0.93
 -15  -7   5   14.03    1.08
  15  -7  -5   12.00    1.31
  15   7  -5    8.84    0.97
  15   7  -5   11.43    1.09
 -13  -7   5   21.50    1.14
  13  -7  -5   19.41    1.43
 -13  -7   5   20.66    1.23
  13  -7  -5   19.77    1.44
  13   7  -5   17.29    1.18
 -13   7   5   20.84    1.20
  13   7  -5   18.08    1.10
 -11  -7   5   15.45    1.00
  11  -7  -5   17.14    1.22
 -11  -7   5   15.86    1.12
  11  -7  -5   15.52    1.18
 -11   7   5   16.44    1.06
  11   7  -5   16.39    0.96
  11   7  -5   14.79    1.01
  -9  -7   5   14.60    1.06
  -9  -7   5   15.40    0.99
   9  -7  -5   16.88    1.08
  -9   7   5   17.00    1.24
  -9   7   5   17.51    1.04
   9   7  -5   16.67    0.98
   9   7  -5   18.08    0.95
  -7  -7   5   22.89    1.06
   7  -7  -5   22.62    1.24
  -7  -7   5   21.92    1.15
   7  -7  -5   21.64    1.15
  -7   7   5   23.68    1.14
  -7   7   5   21.44    1.37
   7   7  -5   20.39    1.15
   7   7  -5   22.26    1.05
   5  -7  -5   45.60    1.67
  -5  -7   5   46.77    1.70
  -5  -7   5   47.41    1.60
   5  -7  -5   41.46    1.73
   5   7  -5   44.86    1.71
  -5   7   5   46.74    2.00
   5   7  -5   47.07    1.67
  -5   7   5   47.53    1.69
   3  -7  -5    8.25    0.61
  -3  -7   5    8.56    0.57
  -3  -7   5    8.84    0.66
   3  -7  -5    8.57    0.57
  -3   7   5    8.69    0.68
   3   7  -5    8.04    0.73
   3   7  -5    8.13    0.78
  -3   7   5    7.43    0.91
  -1  -7   5   47.03    1.58
   1  -7  -5   47.41    1.49
   1  -7  -5   46.08    1.42
  -1  -7   5   48.10    1.68
   1   7  -5   46.05    1.77
  -1   7   5   46.28    1.61
   1   7  -5   44.87    1.72
  -1   7   5   45.45    1.91
  -1  -7  -5   15.71    0.62
   1  -7   5   15.03    0.79
   1  -7   5   16.23    0.86
  -1   7  -5   14.77    1.00
   1   7   5   14.99    0.83
   1   7   5   17.73    1.15
  -3  -7  -5   36.34    1.18
   3  -7   5   36.39    1.42
   3  -7   5   35.91    1.38
   3   7   5   35.95    1.54
   3   7   5   32.09    1.31
  -3   7  -5   36.24    1.66
   5  -7   5    3.97    0.54
   5  -7   5    4.34    0.62
   5  -7   5    4.27    0.54
  -5   7  -5    3.58    0.86
   5   7   5    4.30    0.63
   5   7   5    4.62    0.40
   5   7   5    4.61    0.63
   7  -7   5   28.26    1.51
   7  -7   5   28.63    1.37
   7  -7   5   29.01    1.28
   7  -7   5   29.87    1.30
   7   7   5   29.74    1.15
   7   7   5   28.83    1.16
   7   7   5   28.62    0.97
  -7   7  -5   29.89    1.67
   9  -7   5    1.28    0.64
   9  -7   5    1.64    0.39
   9  -7   5    1.48    0.47
   9  -7   5    1.76    0.44
  -9   7  -5    2.72    0.78
   9   7   5    2.18    0.38
   9   7   5    2.54    0.39
  11  -7   5   10.82    1.00
  11  -7   5    9.46    0.85
  11  -7   5   10.14    1.25
  11  -7   5   11.01    0.89
  11   7   5   11.13    0.64
  11   7   5   10.65    0.66
  11   7   5   10.21    0.67
 -11   7  -5    9.70    1.39
  14  -8  -5    1.02    0.64
 -14  -8   5    1.27    0.59
 -14  -8   5    1.31    0.49
  14  -8  -5    1.41    0.70
  14   8  -5    2.48    0.58
  14   8  -5    0.79    0.54
 -12  -8   5   17.46    1.06
  12  -8  -5   16.50    1.30
 -12  -8   5   17.47    1.16
  12  -8  -5   18.42    1.34
 -12   8   5   17.77    1.12
  12   8  -5   17.42    1.04
  12   8  -5   18.63    1.13
 -10  -8   5    0.06    0.51
  10  -8  -5    0.57    0.48
  10  -8  -5    1.36    0.49
 -10  -8   5    1.19    0.45
  10   8  -5    0.89    0.42
  10   8  -5    1.01    0.43
 -10   8   5    1.04    0.42
   8  -8  -5   17.35    1.07
  -8  -8   5   17.30    1.00
  -8  -8   5   17.67    1.10
   8  -8  -5   18.01    1.09
   8   8  -5   17.12    0.99
  -8   8   5   17.77    1.00
   8   8  -5   17.74    0.97
  -6  -8   5    3.02    0.43
   6  -8  -5    3.56    0.55
  -6  -8   5    3.17    0.49
   6  -8  -5    3.63    0.56
   6   8  -5    3.09    0.50
  -6   8   5    3.14    0.47
   6   8  -5    3.20    0.55
  -6   8   5    3.44    0.69
  -4  -8   5   19.14    0.88
   4  -8  -5   19.42    0.90
   4  -8  -5   16.75    0.87
  -4  -8   5   17.78    0.95
   4   8  -5   16.33    0.97
   4   8  -5   17.10    0.99
  -4   8   5   20.55    1.28
  -4   8   5   18.11    0.88
   2  -8  -5    2.37    0.34
   2  -8  -5    3.37    0.41
  -2  -8   5    3.01    0.44
  -2  -8   5    3.66    0.53
   2   8  -5    2.23    0.55
  -2   8   5    3.48    0.46
  -2   8   5    3.24    0.67
   0  -8   5   23.42    1.02
   0  -8   5   23.60    1.09
   0  -8  -5   23.12    0.80
   0  -8  -5   23.87    0.87
   0   8   5   23.31    0.90
   0   8  -5   23.73    1.29
   0   8   5   22.67    1.32
   2  -8   5    3.36    0.49
  -2  -8  -5    2.46    0.38
   2  -8   5    3.53    0.48
   2   8   5    2.64    0.62
  -2   8  -5    3.27    0.70
   4  -8   5    8.40    0.69
   4  -8   5    6.78    0.82
   4  -8   5    7.85    0.71
   4   8   5    7.27    0.95
  -4   8  -5    8.39    1.15
   6  -8   5    7.60    0.72
   6  -8   5    8.98    0.99
   6  -8   5    7.43    0.75
   6  -8   5    9.01    0.72
  -6   8  -5    7.52    1.14
   6   8   5    9.34    0.93
   8  -8   5    4.66    0.67
   8  -8   5    5.41    0.88
   8  -8   5    5.53    0.76
   8  -8   5    3.84    0.56
   8   8   5    5.05    0.72
  -8   8  -5    5.90    0.94
  10  -8   5    2.25    0.55
  10  -8   5    2.83    0.81
  10  -8   5    2.90    0.58
 -10   8  -5    2.26    0.86
  10   8   5    2.86    0.46
  13  -9  -5    7.75    0.99
  13  -9  -5    9.36    1.19
 -13  -9   5    7.58    0.97
  13   9  -5    8.94    0.93
  13   9  -5    7.64    0.90
 -13   9   5    8.64    1.08
  11  -9  -5    9.38    1.01
 -11  -9   5    8.25    1.02
  11  -9  -5    8.28    1.04
 -11  -9   5    8.55    0.80
 -11   9   5    6.00    0.98
 -11   9   5    8.25    0.85
  11   9  -5    8.40    0.84
  11   9  -5    6.92    0.81
  -9  -9   5    6.93    0.78
  -9  -9   5    8.07    1.00
   9  -9  -5   10.61    0.95
   9  -9  -5    8.72    0.95
  -9   9   5   10.55    0.83
   9   9  -5    9.41    0.79
  -9   9   5   11.39    1.09
   9   9  -5    8.45    0.80
   7  -9  -5   11.93    0.91
   7  -9  -5    8.86    0.83
  -7  -9   5   10.84    0.79
  -7  -9   5    9.99    0.84
  -7   9   5    8.21    0.94
   7   9  -5    9.42    0.82
   7   9  -5   10.09    0.84
   5  -9  -5   13.07    0.83
  -5  -9   5   15.58    0.82
  -5  -9   5   15.48    0.96
   5  -9  -5   15.68    0.87
  -5   9   5   14.34    0.83
   5   9  -5   17.39    1.04
  -5   9   5   16.27    1.71
   5   9  -5   16.88    1.00
   3  -9  -5    5.96    0.45
   3  -9  -5    4.58    0.49
  -3  -9   5    6.40    0.56
  -3  -9   5    5.44    0.65
  -3   9   5    5.47    0.50
  -3   9   5    6.31    0.87
   3   9  -5    5.44    0.71
  -1  -9   5   19.56    0.92
   1  -9  -5   20.04    0.78
   1  -9  -5   20.11    0.71
  -1  -9   5   20.54    1.01
  -1   9   5   19.77    1.20
   1   9  -5   20.27    1.21
  -1   9   5   18.87    0.76
   1  -9   5    6.50    0.67
   1  -9   5    8.55    0.63
   1   9   5    6.03    0.90
  -1   9  -5    6.39    0.96
   3  -9   5   14.71    0.88
   3  -9   5   14.03    0.86
   3  -9   5   15.10    0.94
   3  -9   5   15.04    1.06
   3   9   5   13.46    1.04
  -3   9  -5   16.33    1.31
   5  -9   5    3.54    0.48
   5  -9   5    2.57    0.48
   5  -9   5    3.22    0.50
   5  -9   5    3.33    0.67
   5   9   5    2.73    0.65
  -5   9  -5    4.32    0.87
   7  -9   5   13.36    0.89
   7  -9   5   11.07    0.92
   7  -9   5   11.48    0.87
   7  -9   5   11.36    1.31
  -7   9  -5   10.48    1.42
   7   9   5    9.66    1.06
  -8 -10   5   16.93    1.16
  -8 -10   5   17.23    1.03
   8 -10  -5   16.42    1.05
  -8  10   5   16.71    1.31
   8  10  -5   15.56    1.07
  -8  10   5   16.48    1.00
   8  10  -5   16.51    1.03
   6 -10  -5   12.39    0.83
   6 -10  -5   13.76    0.97
  -6 -10   5   14.26    0.85
  -6 -10   5   11.02    0.95
   6  10  -5   12.42    1.01
  -6  10   5   14.53    1.11
  -6  10   5   14.28    0.83
   4 -10  -5   19.24    1.06
   4 -10  -5   16.99    0.79
  -4 -10   5   18.68    0.91
  -4 -10   5   19.47    1.04
  -4  10   5   18.25    0.85
   4  10  -5   19.98    1.19
  -2 -10   5    5.14    0.55
   2 -10  -5    6.95    0.48
  -2 -10   5    5.05    0.68
   2  10  -5    6.30    0.84
  -2  10   5    7.18    0.86
   0 -10   5   20.95    1.15
   0 -10   5   20.82    1.05
   0 -10   5   22.11    1.23
   0 -10   5   22.24    1.00
   0  10   5   19.53    1.14
   0  10  -5   21.20    1.40
   2 -10   5    7.64    0.67
   2 -10   5    8.36    0.76
   2 -10   5    8.99    0.79
   2 -10   5    6.81    0.85
  -2  10  -5    8.97    1.23
   2  10   5    7.15    0.83
   4 -10   5   10.60    0.81
   4 -10   5   10.09    0.85
   4 -10   5   10.49    1.02
   4 -10   5    9.36    1.05
  -4  10  -5    9.48    1.42
   4  10   5   10.84    0.91
  20   0  -6   13.48    1.42
 -20   0   6   12.87    1.46
 -20   0   6   13.20    1.21
  20   0  -6   14.23    1.58
  18   0  -6   16.09    1.36
 -18   0   6   15.89    1.38
  18   0  -6   14.85    1.36
 -16   0   6   25.34    1.53
  16   0  -6   25.79    1.49
  16   0  -6   24.51    1.51
 -14   0   6   27.47    1.51
  14   0  -6   25.26    1.39
 -12   0   6   66.77    2.55
  12   0  -6   71.11    2.51
 -12   0   6   66.38    2.82
  12   0  -6   60.96    2.67
 -10   0   6    2.56    0.62
  10   0  -6    3.67    0.65
  10   0  -6    3.91    0.63
 -10   0   6    2.89    0.62
   8   0  -6  113.43    3.84
  -8   0   6  114.00    3.68
   6   0  -6    8.80    0.74
  -6   0   6    8.55    0.85
  -6   0   6    8.36    0.80
   6   0  -6    8.29    0.73
   4   0  -6  106.29    3.08
  -4   0   6  100.95    3.46
   4   0  -6  103.44    3.05
  -4   0   6   99.16    3.16
   2   0  -6    3.12    0.48
   2   0  -6    2.28    0.38
   0   0  -6  138.90    3.90
   0   0  -6  136.37    3.88
   0   0   6  144.05    3.88
  -2   0  -6    0.41    0.50
   2   0   6    0.84    0.29
   2   0   6    0.52    0.27
  -2   0  -6    0.30    0.24
   4   0   6   87.58    2.65
   4   0   6   85.89    2.61
  -4   0  -6   90.06    2.76
   6   0   6    2.19    0.37
   6   0   6    2.53    0.45
  -6   0  -6    2.99    0.51
   8   0   6   35.49    1.40
   8   0   6   36.66    1.53
  -8   0  -6   36.16    1.58
 -10   0  -6    2.58    0.64
  10   0   6    3.55    0.62
  12   0   6   20.34    1.20
 -12   0  -6   21.38    1.42
  14   0   6    0.70    0.63
 -14   0  -6    2.08    0.72
  14   0   6    0.86    0.38
  14   0   6    1.58    0.52
 -21  -1   6   -0.40    0.79
  21  -1  -6   -0.74    0.94
  21  -1  -6    0.68    0.88
 -21   1   6    3.19    0.88
  21   1  -6    2.13    0.80
  21   1  -6    1.45    0.78
  19  -1  -6   34.34    2.11
  19  -1  -6   33.67    1.94
 -19  -1   6   34.69    1.72
 -19  -1   6   30.83    1.88
  19   1  -6   32.84    1.92
 -19   1   6   35.65    1.95
  19   1  -6   37.20    1.87
 -17  -1   6   -0.59    0.57
  17  -1  -6    0.26    0.59
  17  -1  -6    0.88    0.60
 -17  -1   6    0.32    0.43
  17   1  -6    0.01    0.49
  17   1  -6    0.31    0.51
 -17   1   6    0.25    0.66
 -15  -1   6   53.98    2.29
  15  -1  -6   53.80    2.29
 -15  -1   6   54.57    2.23
  15  -1  -6   53.58    2.21
  15   1  -6   56.13    2.26
 -15   1   6   52.48    2.33
  15   1  -6   55.11    2.18
  13  -1  -6    0.58    0.45
 -13  -1   6    0.86    0.46
 -13  -1   6    0.91    0.54
  13  -1  -6    1.71    0.56
  13   1  -6    1.30    0.51
 -13   1   6   -0.39    0.45
  13   1  -6    1.19    0.58
  11  -1  -6   66.60    2.34
  11  -1  -6   67.26    2.43
 -11  -1   6   61.20    2.40
 -11  -1   6   54.91    2.80
  11   1  -6   65.36    2.32
 -11   1   6   63.40    2.42
  11   1  -6   66.41    2.41
 -11   1   6   61.56    2.46
  -9  -1   6    1.39    0.46
   9  -1  -6    1.41    0.50
  -9  -1   6    1.05    0.47
   9   1  -6    1.39    0.49
   9   1  -6    0.92    0.39
  -9   1   6    1.98    0.60
  -9   1   6    1.72    0.54
  -7  -1   6   80.23    2.64
   7  -1  -6   70.87    2.53
  -7  -1   6   80.25    2.70
   7  -1  -6   73.62    2.50
  -7   1   6   75.27    2.70
  -7   1   6   75.39    2.70
   7   1  -6   79.45    2.52
   5  -1  -6    2.12    0.47
  -5  -1   6    1.75    0.38
  -5  -1   6    1.59    0.44
   5  -1  -6    1.74    0.40
  -5   1   6    1.41    0.41
   5   1  -6    2.59    0.49
   5   1  -6    2.33    0.45
  -5   1   6    2.07    0.83
  -3  -1   6   40.87    1.59
  -3  -1   6   40.99    1.53
   3  -1  -6   44.36    1.56
   3  -1  -6   40.66    1.52
   3   1  -6   43.24    1.55
   3   1  -6   40.34    1.54
  -3   1   6   41.44    1.57
  -3   1   6   40.83    1.62
   1  -1  -6   20.13    0.96
   1  -1  -6   20.15    0.95
  -1  -1   6   20.97    1.00
  -1   1   6   20.04    0.96
   1   1  -6   20.68    0.99
  -1   1   6   21.14    1.03
   1   1  -6   20.02    0.98
  -1  -1  -6   19.56    0.91
   1  -1   6   17.55    0.87
   1  -1   6   19.53    0.93
   1   1   6   19.44    0.90
  -1   1  -6   19.31    0.98
   1   1   6   18.80    0.96
  -1   1  -6   18.17    0.96
   3  -1   6   11.85    0.74
  -3  -1  -6   12.58    0.74
   3  -1   6   12.69    0.73
  -3  -1  -6   13.14    0.80
  -3   1  -6   10.85    0.77
  -3   1  -6   11.95    0.82
   3   1   6   11.62    0.69
   3   1   6   10.56    0.82
   5  -1   6   20.15    0.99
  -5  -1  -6   20.97    1.07
   5  -1   6   21.97    1.00
  -5   1  -6   20.25    1.11
   5   1   6   20.73    0.95
   5   1   6   20.88    0.98
  -7  -1  -6   22.75    1.16
   7  -1   6   22.71    1.06
   7  -1   6   22.32    1.06
  -7   1  -6   22.20    1.20
   7   1   6   22.76    1.03
  -9  -1  -6    0.32    0.42
   9  -1   6    0.15    0.38
   9  -1   6    0.69    0.32
   9   1   6    0.87    0.32
  -9   1  -6    0.44    0.45
   9   1   6    0.44    0.37
  11  -1   6   16.44    1.10
 -11  -1  -6   16.58    1.16
 -11   1  -6   16.61    1.25
  11   1   6   17.26    1.07
  11   1   6   15.55    0.91
  13  -1   6    1.39    0.52
  13  -1   6    1.36    0.42
 -13  -1  -6    1.20    0.61
  13   1   6    1.37    0.48
  13   1   6    0.64    0.48
 -13   1  -6    1.46    0.77
 -15  -1  -6    3.80    0.76
  15  -1   6    4.07    0.65
  15  -1   6    2.93    0.79
  15  -1   6    3.06    0.70
 -15   1  -6    3.19    0.90
  15   1   6    4.61    0.78
  15   1   6    3.12    0.86
  15   1   6    4.23    0.63
 -20  -2   6    7.90    1.04
 -20  -2   6    9.39    1.32
  20  -2  -6    8.84    1.28
  20  -2  -6    8.56    1.27
  20   2  -6    8.07    1.26
 -20   2   6    8.95    1.38
  20   2  -6    9.76    1.20
 -18  -2   6    7.85    1.17
  18  -2  -6    8.27    1.19
  18  -2  -6    5.93    1.03
 -18  -2   6    8.14    0.89
  18   2  -6    4.42    0.73
  18   2  -6    6.73    0.91
 -18   2   6    4.53    0.86
  16  -2  -6   14.06    1.29
 -16  -2   6   12.61    1.14
 -16  -2   6   12.50    1.03
  16  -2  -6   13.46    1.20
  16   2  -6   11.82    1.15
  16   2  -6   12.53    1.12
 -16   2   6   13.89    1.24
 -14  -2   6   12.98    1.41
  14  -2  -6   12.36    1.09
 -14  -2   6   13.72    1.06
  14  -2  -6   12.44    1.06
  14   2  -6   12.29    1.03
  14   2  -6   11.83    1.03
 -14   2   6   14.20    1.21
  12  -2  -6   37.54    1.68
 -12  -2   6   35.70    1.73
 -12  -2   6   33.35    1.68
 -12   2   6   37.61    1.80
  12   2  -6   36.19    1.70
  12   2  -6   36.73    1.63
 -12   2   6   37.92    1.72
 -10  -2   6    0.10    0.43
  10  -2  -6    1.87    0.51
 -10  -2   6    0.28    0.40
  10  -2  -6    0.38    0.45
  10   2  -6    0.54    0.42
  10   2  -6    0.01    0.38
 -10   2   6    1.79    0.51
 -10   2   6    0.32    0.45
   8  -2  -6   67.17    2.36
  -8  -2   6   66.45    2.49
  -8  -2   6   69.07    2.45
   8   2  -6   66.63    2.31
  -8   2   6   69.83    2.57
  -8   2   6   70.25    2.53
   8   2  -6   68.27    2.40
  -6  -2   6    0.23    0.35
  -6  -2   6    0.56    0.32
   6  -2  -6    0.72    0.35
  -6   2   6    0.95    0.43
  -6   2   6    0.17    0.44
   6   2  -6    0.62    0.33
   4  -2  -6   54.46    1.90
  -4  -2   6   57.33    1.98
  -4  -2   6   55.60    1.89
   4  -2  -6   57.63    1.98
  -4   2   6   53.90    2.06
   4   2  -6   51.98    2.01
   4   2  -6   55.52    1.89
  -4   2   6   55.73    2.03
  -2  -2   6    0.85    0.34
   2  -2  -6    1.02    0.41
   2  -2  -6    1.09    0.32
  -2  -2   6    1.41    0.34
   2   2  -6    0.71    0.41
  -2   2   6    0.85    0.37
   2   2  -6    0.70    0.31
  -2   2   6    0.67    0.28
   0  -2   6   83.25    2.58
   0  -2  -6   82.01    2.49
   0   2   6   85.25    2.57
   0   2  -6   83.68    2.62
   0   2   6   86.87    2.61
  -2  -2  -6    3.07    0.43
   2  -2   6    3.21    0.49
  -2  -2  -6    3.17    0.48
   2  -2   6    4.10    0.48
   2   2   6    3.56    0.49
  -2   2  -6    3.88    0.52
   2   2   6    3.54    0.48
   4  -2   6   58.84    1.95
  -4  -2  -6   56.54    1.93
   4  -2   6   60.89    1.93
  -4  -2  -6   57.35    1.88
   4   2   6   56.89    1.86
  -4   2  -6   58.83    2.07
   4   2   6   51.42    2.06
   6  -2   6    0.97    0.29
  -6  -2  -6    0.86    0.36
   6  -2   6   -0.03    0.30
   6   2   6    0.46    0.32
   6   2   6    0.76    0.29
  -6   2  -6    0.90    0.44
   8  -2   6   22.81    1.09
   8  -2   6   22.91    1.09
   8  -2   6   22.70    1.20
  -8  -2  -6   21.30    1.13
   8   2   6   22.40    1.14
  -8   2  -6   23.08    1.32
   8   2   6   21.21    1.01
   8   2   6   21.82    1.00
 -10  -2  -6    1.45    0.46
  10  -2   6    1.08    0.36
  10  -2   6    0.74    0.49
  10   2   6    1.48    0.39
 -10   2  -6    1.20    0.52
  10   2   6    1.01    0.44
  12  -2   6   14.72    1.08
  12  -2   6   15.82    0.97
 -12  -2  -6   16.61    1.17
  12  -2   6   14.80    0.91
  12   2   6   15.25    1.03
 -12   2  -6   12.82    1.36
  12   2   6   15.94    0.91
  12   2   6   13.94    0.88
 -14  -2  -6    0.17    0.60
  14  -2   6   -0.39    0.62
  14  -2   6    0.52    0.58
  14  -2   6    0.92    0.46
  14   2   6    0.75    0.52
 -14   2  -6   -0.68    0.62
  14   2   6    0.12    0.70
  19  -3  -6   36.99    2.13
  19  -3  -6   40.60    2.24
 -19  -3   6   34.32    1.76
 -19  -3   6   36.72    1.97
  19   3  -6   38.79    1.94
  19   3  -6   37.76    1.86
 -19   3   6   35.74    1.90
 -19   3   6   38.21    2.12
 -17  -3   6    1.10    1.39
  17  -3  -6    1.78    0.70
  17  -3  -6    0.82    0.72
 -17  -3   6    2.02    0.54
 -17   3   6    1.17    0.51
  17   3  -6    2.98    0.69
 -17   3   6    1.44    0.70
 -15  -3   6   51.55    2.17
  15  -3  -6   50.92    2.24
  15  -3  -6   56.04    2.39
 -15  -3   6   56.79    2.26
  15   3  -6   58.70    2.28
  15   3  -6   55.05    2.16
 -15   3   6   56.09    2.45
 -15   3   6   51.55    2.51
 -13  -3   6    5.94    0.83
  13  -3  -6    6.83    0.86
 -13  -3   6    6.32    0.82
  13  -3  -6    5.77    0.85
 -13   3   6    5.96    0.91
  13   3  -6    4.29    0.69
 -13   3   6    6.35    0.80
  13   3  -6    5.23    0.82
  11  -3  -6   68.16    2.46
 -11  -3   6   66.90    2.47
  11  -3  -6   66.97    2.39
 -11  -3   6   61.15    2.48
  11   3  -6   63.09    2.42
 -11   3   6   67.50    2.61
 -11   3   6   67.51    2.48
  11   3  -6   61.86    2.29
   9  -3  -6    5.91    0.72
   9  -3  -6    5.59    0.73
  -9  -3   6    4.79    0.78
  -9  -3   6    4.96    0.71
  -9   3   6    6.26    0.84
   9   3  -6    4.27    0.66
  -9   3   6    4.72    0.75
   9   3  -6    4.77    0.86
   7  -3  -6  101.39    3.25
  -7  -3   6  108.08    3.39
   7  -3  -6   99.51    3.27
  -7  -3   6  105.55    3.27
   7   3  -6  108.86    3.30
   7   3  -6  111.31    3.24
  -7   3   6  107.49    3.45
  -7   3   6  110.66    3.54
   5  -3  -6   14.90    0.89
   5  -3  -6   12.81    0.84
  -5  -3   6   15.42    0.86
  -5  -3   6   13.19    0.88
   5   3  -6   14.44    0.87
   5   3  -6   14.50    0.90
  -5   3   6   13.06    1.01
  -5   3   6   14.45    1.12
   3  -3  -6   37.82    1.44
  -3  -3   6   37.91    1.48
  -3  -3   6   36.70    1.39
   3  -3  -6   37.35    1.41
  -3   3   6   34.19    1.50
   3   3  -6   35.15    1.46
   3   3  -6   38.07    1.44
  -3   3   6   36.22    1.59
   1  -3  -6   21.66    0.99
   1  -3  -6   22.30    0.97
  -1  -3   6   21.50    1.04
  -1  -3   6   22.71    1.00
  -1   3   6   21.89    1.10
  -1   3   6   22.44    1.07
   1   3  -6   21.64    1.07
   1   3  -6   21.61    1.05
  -1  -3  -6   40.03    1.40
   1  -3   6   39.32    1.49
   1  -3   6   38.79    1.47
  -1  -3  -6   40.66    1.45
  -1   3  -6   40.07    1.55
  -1   3  -6   40.54    1.58
   1   3   6   40.88    1.49
   1   3   6   39.59    1.49
  -3  -3  -6   25.12    1.07
   3  -3   6   24.94    1.10
  -3  -3  -6   24.60    1.01
   3  -3   6   22.72    1.05
   3   3   6   24.39    1.03
   3   3   6   23.59    1.06
  -3   3  -6   23.76    1.21
   5  -3   6   21.18    1.03
  -5  -3  -6   21.09    1.02
   5   3   6   21.02    0.97
   5   3   6   21.84    0.96
  -5   3  -6   21.47    1.20
   7  -3   6   24.18    1.13
  -7  -3  -6   25.03    1.22
  -7   3  -6   23.07    1.32
   7   3   6   25.39    1.06
   7   3   6   22.69    1.03
   9  -3   6    2.19    0.47
  -9  -3  -6    2.24    0.51
   9  -3   6    1.62    0.48
   9   3   6    2.22    0.53
   9   3   6    2.36    0.43
   9   3   6    2.32    0.39
  -9   3  -6    2.14    0.63
  11  -3   6   16.50    0.99
  11  -3   6   17.00    0.98
  11  -3   6   15.96    1.13
 -11  -3  -6   16.19    1.09
  11   3   6   16.82    0.93
 -11   3  -6   18.26    1.39
  11   3   6   15.99    1.02
  11   3   6   18.86    1.25
  13  -3   6    2.54    0.53
  13  -3   6    2.52    0.65
 -13  -3  -6    2.68    0.60
  13  -3   6    1.76    0.70
  13  -3   6    1.58    0.52
 -13   3  -6    2.67    0.82
  13   3   6    2.75    0.49
  13   3   6    2.29    0.47
  13   3   6    2.21    0.54
  18  -4  -6    6.60    1.10
  18  -4  -6    5.46    1.01
 -18  -4   6    5.57    0.76
 -18  -4   6    5.11    0.88
  18   4  -6    6.38    1.04
 -18   4   6    6.94    0.98
 -18   4   6    7.05    1.05
  18   4  -6    7.97    1.07
 -16  -4   6   15.56    1.17
  16  -4  -6   11.30    1.27
  16  -4  -6   11.96    1.32
 -16  -4   6   16.46    1.12
  16   4  -6   14.01    1.17
 -16   4   6   15.20    1.37
  16   4  -6   16.00    1.17
 -14  -4   6   14.63    1.15
  14  -4  -6   17.81    1.28
  14  -4  -6   16.01    1.27
 -14  -4   6   16.11    1.16
 -14   4   6   15.20    1.30
 -14   4   6   15.24    1.15
  14   4  -6   16.81    1.15
  14   4  -6   16.76    1.19
  12  -4  -6   38.03    1.75
 -12  -4   6   35.49    1.68
 -12  -4   6   36.07    1.72
  12  -4  -6   37.36    1.70
  12   4  -6   33.42    1.57
  12   4  -6   34.63    1.68
 -12   4   6   35.32    1.83
 -12   4   6   38.23    1.74
  10  -4  -6    4.57    0.72
 -10  -4   6    3.92    0.65
  10  -4  -6    4.76    0.73
 -10  -4   6    3.27    0.58
 -10   4   6    2.68    0.74
  10   4  -6    4.15    0.66
 -10   4   6    4.40    0.74
  10   4  -6    3.37    0.60
   8  -4  -6   64.62    2.28
  -8  -4   6   64.71    2.29
  -8  -4   6   62.43    2.37
   8   4  -6   66.83    2.23
  -8   4   6   64.85    2.60
   8   4  -6   63.30    2.26
  -8   4   6   65.01    2.43
   6  -4  -6    0.97    0.39
  -6  -4   6    1.11    0.34
  -6  -4   6    0.86    0.34
   6  -4  -6    0.94    0.39
   6   4  -6    0.83    0.38
   6   4  -6    0.92    0.36
  -6   4   6    0.45    0.42
   4  -4  -6   57.41    1.94
  -4  -4   6   56.23    1.99
  -4  -4   6   56.34    1.91
   4  -4  -6   57.80    1.94
   4   4  -6   56.34    1.95
  -4   4   6   55.35    2.17
  -4   4   6   54.58    2.17
   4   4  -6   56.70    1.97
  -2  -4   6    8.74    0.68
   2  -4  -6    9.59    0.62
   2  -4  -6    9.74    0.67
  -2  -4   6   10.17    0.66
  -2   4   6   10.17    1.05
   2   4  -6    8.75    0.72
  -2   4   6    9.31    0.78
   2   4  -6    8.96    0.72
   0  -4   6   73.58    2.30
   0  -4  -6   70.84    2.18
   0  -4   6   71.31    2.25
   0  -4  -6   70.28    2.14
   0   4   6   70.11    2.29
   0   4  -6   69.17    2.34
   0   4  -6   71.59    2.34
   0   4   6   69.89    2.33
  -2  -4  -6    0.47    0.28
   2  -4   6    1.42    0.34
  -2  -4  -6    1.10    0.29
   2  -4   6    0.91    0.28
   2   4   6    0.57    0.32
   2   4   6    1.01    0.34
  -2   4  -6    0.49    0.28
  -4  -4  -6   51.50    1.71
  -4  -4  -6   52.97    1.77
   4  -4   6   53.67    1.84
   4   4   6   53.27    1.78
  -4   4  -6   51.55    2.02
   4   4   6   51.69    1.75
   6  -4   6    3.64    0.52
  -6  -4  -6    4.06    0.55
  -6   4  -6    3.16    0.66
   6   4   6    3.47    0.46
   6   4   6    2.83    0.44
   8  -4   6   21.06    1.19
  -8  -4  -6   21.21    1.06
   8  -4   6   19.25    1.04
  -8   4  -6   18.12    1.27
   8   4   6   19.30    1.01
   8   4   6   18.15    1.40
   8   4   6   19.75    0.93
  10  -4   6    2.39    0.57
 -10  -4  -6    2.10    0.50
  10  -4   6    3.17    0.52
 -10   4  -6    2.39    0.68
  10   4   6    2.39    0.46
  12  -4   6   10.11    0.90
  12  -4   6   11.72    1.07
 -12  -4  -6   10.93    0.94
  12  -4   6   12.19    1.21
  12   4   6   11.55    0.82
 -12   4  -6   13.77    1.41
  12   4   6   11.00    0.89
  12   4   6   10.61    0.77
  17  -5  -6    0.06    0.71
 -17  -5   6   -0.08    0.48
 -17  -5   6    1.99    0.63
  17  -5  -6    0.14    0.69
 -17   5   6    0.65    0.55
 -17   5   6    0.19    0.78
  17   5  -6    1.41    0.56
  17   5  -6    0.32    0.54
 -15  -5   6   28.11    1.45
  15  -5  -6   20.79    1.49
 -15  -5   6   24.63    1.42
  15  -5  -6   25.89    1.61
  15   5  -6   24.48    1.39
 -15   5   6   25.39    1.62
  15   5  -6   23.62    1.50
 -13  -5   6    0.72    0.52
 -13  -5   6    1.25    0.50
  13  -5  -6    1.01    0.54
  13  -5  -6    1.12    0.59
  13   5  -6    1.03    0.57
  13   5  -6    1.00    0.52
 -13   5   6    0.70    0.47
  11  -5  -6   25.78    1.36
 -11  -5   6   24.66    1.43
 -11  -5   6   25.41    1.35
  11  -5  -6   25.74    1.41
  11   5  -6   22.15    1.25
  11   5  -6   22.35    1.30
 -11   5   6   25.87    1.42
  -9  -5   6    1.24    0.46
   9  -5  -6    2.33    0.54
  -9  -5   6    1.16    0.51
   9  -5  -6    1.24    0.44
  -9   5   6    1.25    0.56
   9   5  -6    1.81    0.48
   9   5  -6    0.82    0.40
   7  -5  -6   39.51    1.67
  -7  -5   6   40.79    1.61
  -7  -5   6   39.61    1.70
   7  -5  -6   38.61    1.62
  -7   5   6   40.71    1.78
   7   5  -6   42.68    1.65
   7   5  -6   41.63    1.60
   5  -5  -6    1.61    0.42
  -5  -5   6    1.77    0.39
   5  -5  -6    2.70    0.49
  -5  -5   6    1.86    0.38
   5   5  -6    2.85    0.51
  -5   5   6    2.59    0.61
  -5   5   6    2.82    0.59
   5   5  -6    1.72    0.41
  -3  -5   6   12.80    0.76
   3  -5  -6   13.12    0.74
  -3  -5   6   12.45    0.80
   3  -5  -6   13.16    0.78
  -3   5   6   12.86    1.02
  -3   5   6   13.92    1.06
   3   5  -6   12.70    0.86
   3   5  -6   12.87    0.85
   1  -5  -6    8.35    0.60
  -1  -5   6    8.11    0.62
  -1  -5   6    7.57    0.64
   1  -5  -6    7.61    0.54
  -1   5   6    7.47    0.80
   1   5  -6    5.68    0.70
  -1   5   6    6.09    0.83
   1   5  -6    6.29    0.70
  -1  -5  -6   14.38    0.75
   1  -5   6   13.12    1.04
   1  -5   6   14.83    0.85
  -1  -5  -6   12.52    0.69
  -1   5  -6   13.87    0.97
   1   5   6   12.83    0.84
   1   5   6   12.75    0.91
  -1   5  -6   12.95    0.87
   3  -5   6    8.37    0.68
  -3  -5  -6    8.00    0.58
   3  -5   6    8.12    0.64
  -3  -5  -6    7.52    0.50
   3   5   6    8.21    0.65
   3   5   6    7.06    0.67
  -3   5  -6    6.97    0.86
  -5  -5  -6    9.60    0.67
   5  -5   6    8.91    0.72
  -5   5  -6    9.32    0.96
   5   5   6    8.63    0.68
   5   5   6   10.02    0.66
   7  -5   6   11.00    0.91
   7  -5   6    9.66    0.76
  -7  -5  -6    9.84    0.72
   7   5   6   10.86    0.72
   7   5   6    9.99    0.70
  -7   5  -6    9.98    1.06
   7   5   6   10.38    0.67
   9  -5   6    0.77    0.35
   9  -5   6    1.00    0.44
  -9  -5  -6    0.66    0.38
  -9   5  -6    0.63    0.87
   9   5   6    0.66    0.38
   9   5   6    0.71    0.37
  11  -5   6    7.10    1.06
  11  -5   6    8.98    0.79
  11  -5   6    8.50    0.99
 -11  -5  -6    9.29    0.85
  11   5   6    7.92    0.67
  11   5   6    8.21    0.71
 -11   5  -6   11.92    1.40
  11   5   6    7.56    0.78
 -16  -6   6   10.87    1.02
  16  -6  -6   10.62    1.28
  16  -6  -6   12.21    1.33
 -16  -6   6   11.81    1.13
 -16   6   6   13.04    1.59
  16   6  -6   14.12    1.17
  16   6  -6    9.51    1.10
 -16   6   6   12.88    1.16
 -14  -6   6   13.63    1.10
  14  -6  -6   13.75    1.28
 -14  -6   6   15.03    1.13
  14  -6  -6   15.18    1.27
  14   6  -6   10.90    1.08
  14   6  -6   14.35    1.17
  12  -6  -6   24.80    1.44
 -12  -6   6   25.23    1.37
  12  -6  -6   26.85    1.47
 -12  -6   6   23.57    1.42
  12   6  -6   24.72    1.38
 -12   6   6   24.81    1.39
  12   6  -6   24.62    1.31
  10  -6  -6    3.88    0.65
 -10  -6   6    3.97    0.67
  10  -6  -6    6.07    0.78
 -10  -6   6    3.84    0.68
  10   6  -6    3.63    0.61
 -10   6   6    4.55    0.75
  10   6  -6    4.39    0.63
  -8  -6   6   42.41    1.72
  -8  -6   6   44.19    1.95
   8  -6  -6   43.41    1.77
  -8   6   6   43.29    1.84
   8   6  -6   42.40    1.71
   8   6  -6   43.15    1.77
   6  -6  -6    6.06    0.68
  -6  -6   6    7.23    0.65
  -6  -6   6    6.59    0.71
   6  -6  -6    7.83    0.71
   6   6  -6    5.77    0.70
  -6   6   6    5.62    0.88
  -6   6   6    7.60    1.04
   6   6  -6    7.25    0.72
   4  -6  -6   35.00    1.37
  -4  -6   6   36.22    1.50
   4  -6  -6   36.52    1.42
  -4  -6   6   35.42    1.38
   4   6  -6   35.73    1.48
  -4   6   6   37.67    1.66
   4   6  -6   35.97    1.48
  -4   6   6   36.94    1.74
  -2  -6   6    6.11    0.55
   2  -6  -6    7.13    0.58
  -2  -6   6    6.08    0.61
   2  -6  -6    6.68    0.51
   2   6  -6    5.54    0.68
  -2   6   6    6.62    0.83
  -2   6   6    7.39    0.92
   2   6  -6    6.82    0.75
   0  -6   6   44.54    1.62
   0  -6   6   47.97    1.71
   0  -6  -6   47.58    1.70
   0  -6  -6   44.58    1.53
   0   6  -6   48.15    1.86
   0   6  -6   43.85    1.74
   0   6   6   45.18    1.88
   0   6   6   45.51    1.85
  -2  -6  -6    1.92    0.34
   2  -6   6    1.50    0.38
   2  -6   6    1.62    0.39
  -2  -6  -6    1.54    0.28
   2   6   6    2.54    0.56
   2   6   6    1.51    0.44
  -2   6  -6    1.46    0.53
  -4  -6  -6   32.46    1.21
   4  -6   6   32.14    1.36
   4  -6   6   33.13    1.36
  -4   6  -6   30.29    1.61
   4   6   6   33.04    1.31
   4   6   6   32.88    1.37
  -6  -6  -6    3.76    0.50
   6  -6   6    3.37    0.60
   6  -6   6    3.52    0.55
   6  -6   6    3.79    0.55
   6   6   6    4.30    0.57
  -6   6  -6    3.19    0.78
   6   6   6    4.11    0.59
   6   6   6    2.76    0.43
   8  -6   6   14.56    1.06
  -8  -6  -6   14.58    0.83
   8  -6   6   15.39    0.94
   8  -6   6   12.56    0.89
   8   6   6   13.08    0.79
  -8   6  -6   16.43    1.34
   8   6   6   12.81    0.81
  10  -6   6    1.93    0.47
  10  -6   6    2.73    0.63
  10  -6   6    2.37    0.69
  10  -6   6    1.58    0.74
 -10  -6  -6    2.96    0.52
  10   6   6    2.73    0.67
 -10   6  -6    3.15    0.82
 -15  -7   6   22.00    1.31
  15  -7  -6   20.70    1.48
  15  -7  -6   21.34    1.57
 -15  -7   6   21.37    1.34
 -15   7   6   23.28    1.45
  15   7  -6   17.26    1.33
 -13  -7   6    6.64    0.93
  13  -7  -6    5.10    0.81
  13  -7  -6    5.62    0.83
 -13  -7   6    4.97    0.69
  13   7  -6    6.52    0.91
 -13   7   6    7.24    0.94
  13   7  -6    4.63    0.72
 -11  -7   6   27.80    1.56
  11  -7  -6   27.70    1.46
  11  -7  -6   27.16    1.44
 -11  -7   6   25.02    1.37
  11   7  -6   28.36    1.39
  11   7  -6   26.54    1.41
 -11   7   6   25.63    1.43
  -9  -7   6    7.76    0.87
   9  -7  -6    8.62    0.87
   9  -7  -6    9.48    0.86
  -9  -7   6    9.32    0.94
   9   7  -6    8.03    0.82
   9   7  -6    7.86    0.84
  -9   7   6    7.19    0.90
   7  -7  -6   30.20    1.39
   7  -7  -6   27.90    1.66
  -7  -7   6   29.77    1.47
  -7  -7   6   30.61    1.35
   7   7  -6   31.88    1.40
   7   7  -6   33.03    1.42
  -7   7   6   31.99    1.51
   5  -7  -6    6.51    0.63
  -5  -7   6    5.39    0.61
  -5  -7   6    5.82    0.67
   5  -7  -6    5.85    0.64
   5   7  -6    5.27    0.72
  -5   7   6    7.74    0.95
  -5   7   6    6.01    0.87
   5   7  -6    5.11    0.65
  -3  -7   6   24.39    1.17
   3  -7  -6   25.29    1.04
  -3  -7   6   25.17    1.11
   3  -7  -6   25.05    1.07
   3   7  -6   23.87    1.26
  -3   7   6   23.58    1.25
  -3   7   6   26.36    1.47
   3   7  -6   25.32    1.24
   1  -7  -6   16.75    0.81
  -1  -7   6   17.91    0.96
   1  -7  -6   17.46    0.91
  -1  -7   6   17.68    0.92
  -1   7   6   15.92    1.05
   1   7  -6   17.47    1.13
   1   7  -6   16.87    1.03
  -1   7   6   20.56    1.31
  -1  -7  -6   12.32    0.62
   1  -7   6   14.92    0.88
  -1  -7  -6   13.09    0.70
   1   7   6   14.24    1.11
  -1   7  -6   13.59    1.84
   1   7   6   11.49    0.93
   3  -7   6    7.15    0.71
   3  -7   6    7.66    0.68
  -3  -7  -6    9.01    0.59
   3   7   6    9.98    0.90
  -3   7  -6   10.31    1.09
   3   7   6    8.11    0.89
   5  -7   6   14.88    0.90
   5  -7   6   13.93    0.98
   5  -7   6   14.81    0.93
  -5  -7  -6   14.58    0.78
  -5   7  -6   14.55    1.24
   5   7   6   14.13    0.93
   5   7   6   14.43    1.02
  -7  -7  -6   10.02    0.68
   7  -7   6   10.69    0.94
   7  -7   6    9.76    0.81
   7  -7   6    9.74    0.81
   7   7   6    9.62    0.65
   7   7   6   10.66    0.80
   7   7   6   11.99    0.89
  -7   7  -6   10.21    1.21
   9  -7   6    0.38    0.51
   9  -7   6    1.62    0.51
  -9  -7  -6    2.33    0.46
   9  -7   6    3.06    0.83
   9   7   6    3.20    0.45
   9   7   6    1.66    0.45
  -9   7  -6    2.61    0.85
 -12  -8   6    7.70    1.03
 -12  -8   6    6.68    0.90
  12  -8  -6    8.03    1.01
  12  -8  -6    8.76    1.02
 -12   8   6    8.55    0.97
  12   8  -6    8.94    0.99
  12   8  -6    9.42    0.96
 -10  -8   6    1.35    0.52
  10  -8  -6    0.94    0.52
 -10  -8   6    0.57    0.59
  10  -8  -6    2.32    0.57
 -10   8   6    1.46    0.56
  10   8  -6    1.45    0.53
  10   8  -6    1.11    0.49
 -10   8   6    1.01    0.73
   8  -8  -6   14.12    1.00
  -8  -8   6   14.37    1.09
   8  -8  -6   16.36    1.04
  -8  -8   6   16.01    1.03
   8   8  -6   15.62    1.05
  -8   8   6   15.76    1.30
   8   8  -6   15.01    1.04
  -8   8   6   15.15    1.05
   6  -8  -6    2.20    0.49
  -6  -8   6    2.85    0.54
   6  -8  -6    2.58    0.49
  -6  -8   6    3.04    0.46
   6   8  -6    4.53    0.70
   6   8  -6    3.68    0.60
  -6   8   6    3.19    0.63
   4  -8  -6   11.90    0.71
   4  -8  -6   11.57    0.73
  -4  -8   6    9.71    0.80
  -4  -8   6   10.81    0.74
   4   8  -6   10.34    0.92
  -4   8   6    9.80    0.84
   4   8  -6   10.52    0.86
  -2  -8   6    1.55    0.42
  -2  -8   6    1.91    0.39
   2  -8  -6    2.47    0.38
   2  -8  -6    2.66    0.39
  -2   8   6    2.64    0.70
   2   8  -6    2.23    0.54
  -2   8   6    1.46    0.46
   2   8  -6    1.86    0.56
   0  -8  -6   15.72    0.67
   0  -8   6   14.33    0.87
   0  -8   6   16.99    0.94
   0  -8  -6   15.39    0.74
   0   8  -6   18.83    1.26
   0   8   6   16.05    0.91
   0   8   6   17.11    1.26
   2  -8   6    1.16    0.40
  -2  -8  -6    0.88    0.27
   2  -8   6    1.14    0.39
   2   8   6    2.28    0.71
  -2   8  -6    0.28    0.60
   2   8   6    1.40    0.42
   4  -8   6   12.06    0.85
   4  -8   6   12.89    0.96
  -4  -8  -6   11.92    0.66
   4  -8   6   11.99    0.86
  -4   8  -6   10.73    1.19
   4   8   6    9.70    0.78
   4   8   6    9.94    1.09
   6  -8   6    1.74    0.46
   6  -8   6    1.09    0.45
   6  -8   6    0.85    0.60
   6  -8   6    2.32    0.51
  -6   8  -6    1.97    0.79
   6   8   6    2.38    0.81
   9  -9  -6    4.48    0.68
  -9  -9   6    3.41    0.67
   9  -9  -6    4.07    0.68
  -9  -9   6    3.82    0.67
  -9   9   6    5.11    0.73
   9   9  -6    5.95    0.85
   9   9  -6    3.82    0.64
  -9   9   6    3.76    1.10
  -7  -9   6   16.35    1.07
  -7  -9   6   12.56    0.93
   7  -9  -6   15.93    0.97
   7  -9  -6   13.35    1.38
  -7   9   6   15.48    1.00
   7   9  -6   14.76    1.02
   7   9  -6   15.41    1.11
  -7   9   6   14.21    1.34
  -5  -9   6    4.41    0.55
  -5  -9   6    3.96    0.59
   5  -9  -6    4.19    0.57
   5  -9  -6    4.40    0.60
   5   9  -6    5.01    0.77
  -5   9   6    4.19    0.80
  -5   9   6    5.92    0.74
   5   9  -6    4.46    0.70
   3  -9  -6    9.93    0.82
   3  -9  -6   10.68    0.67
  -3  -9   6   11.76    0.84
  -3  -9   6    9.41    0.72
   3   9  -6    8.11    0.99
  -3   9   6    9.77    0.76
   1  -9  -6    6.67    0.44
  -1  -9   6    6.28    0.66
   1  -9  -6    6.32    0.54
   1   9  -6    8.83    1.08
  -1   9   6    7.12    0.58
  -1  -9  -6    7.69    0.52
   1  -9   6    7.94    0.72
   1  -9   6    6.68    0.91
  -1   9  -6    7.65    1.05
   3  -9   6    6.92    0.75
   3  -9   6    3.88    0.59
   3  -9   6    5.25    0.70
  -3   9  -6    5.75    0.95
  18   0  -7   22.17    1.50
  18   0  -7   23.42    1.58
 -18   0   7   23.84    1.62
  16   0  -7    5.90    0.89
  16   0  -7    6.17    0.84
 -16   0   7    6.83    1.03
 -14   0   7   57.26    2.41
  14   0  -7   57.63    2.25
  14   0  -7   56.95    2.32
  12   0  -7    7.27    0.87
  12   0  -7    7.41    0.87
 -12   0   7    7.30    0.97
  10   0  -7   57.71    2.25
  10   0  -7   60.62    2.23
 -10   0   7   56.81    2.36
  -8   0   7   26.41    1.47
  -8   0   7   29.77    1.59
   8   0  -7   26.06    1.34
   8   0  -7   26.08    1.38
  -6   0   7   27.30    1.45
   6   0  -7   25.12    1.28
   6   0  -7   26.50    1.33
  -6   0   7   26.64    1.33
  -4   0   7   29.25    1.42
   4   0  -7   32.89    1.40
  -4   0   7   31.21    1.39
   4   0  -7   30.44    1.37
   2   0  -7   30.28    1.32
   2   0  -7   30.17    1.34
  -2   0   7   31.56    1.40
  -2   0   7   32.82    1.36
   0   0   7   28.29    1.26
   0   0   7   28.41    1.22
   0   0  -7   28.09    1.24
   0   0  -7   28.12    1.27
   2   0   7    4.86    0.58
  -2   0  -7    4.75    0.57
   2   0   7    5.61    0.56
  -2   0  -7    5.37    0.65
  -4   0  -7   39.43    1.64
   4   0   7   41.69    1.58
  -4   0  -7   41.38    1.62
   6   0   7    3.72    0.58
  -6   0  -7    2.87    0.55
  -8   0  -7   15.08    1.12
   8   0   7   15.10    0.89
  10   0   7    1.80    0.55
 -10   0  -7    1.75    0.64
  12   0   7   11.45    1.09
  12   0   7   11.23    0.86
 -12   0  -7   11.14    1.32
 -19  -1   7   16.95    1.45
  19  -1  -7   14.03    1.50
  19  -1  -7   15.74    1.36
  19   1  -7   14.90    1.33
  19   1  -7   14.42    1.37
 -19   1   7   13.55    1.48
 -17  -1   7    1.99    0.57
  17  -1  -7    1.75    0.66
  17  -1  -7    1.97    0.68
 -17  -1   7    1.96    0.64
  17   1  -7    3.17    0.70
 -17   1   7    2.15    0.68
  17   1  -7    2.99    0.74
  15  -1  -7   36.35    1.78
  15  -1  -7   39.06    1.90
 -15  -1   7   36.87    1.88
  15   1  -7   39.15    1.79
 -15   1   7   37.71    1.89
  15   1  -7   42.84    1.97
  13  -1  -7    2.43    0.60
 -13  -1   7    1.71    0.55
  13  -1  -7    2.30    0.61
  13   1  -7    2.17    0.57
  13   1  -7    2.84    0.62
 -13   1   7    2.82    0.68
 -11  -1   7   44.36    2.00
  11  -1  -7   48.08    1.98
  11  -1  -7   45.51    1.89
  11   1  -7   43.84    1.94
 -11   1   7   43.96    2.01
  11   1  -7   45.98    1.91
 -11   1   7   43.92    2.02
   9  -1  -7    1.37    0.51
  -9  -1   7    1.03    0.46
   9  -1  -7    1.50    0.50
  -9   1   7    1.89    0.55
   9   1  -7    1.25    0.48
   9   1  -7    1.42    0.50
  -9   1   7    0.49    0.47
   7  -1  -7   71.12    2.60
  -7  -1   7   76.25    2.69
   7  -1  -7   75.40    2.60
  -7   1   7   78.48    2.81
  -7   1   7   75.55    2.82
   7   1  -7   82.04    2.69
   7   1  -7   80.82    2.69
  -5  -1   7    0.45    0.38
   5  -1  -7    0.24    0.34
  -5  -1   7    0.56    0.31
   5  -1  -7    0.55    0.39
  -5   1   7    0.21    0.40
   5   1  -7    0.74    0.38
  -5   1   7    0.04    0.35
   5   1  -7    0.56    0.38
   3  -1  -7   72.48    2.43
  -3  -1   7   76.03    2.52
   3  -1  -7   74.14    2.44
  -3  -1   7   76.89    2.46
   3   1  -7   76.19    2.48
  -3   1   7   72.49    2.47
   3   1  -7   73.70    2.46
  -3   1   7   76.67    2.58
  -1  -1   7    0.85    0.34
   1  -1  -7    0.37    0.27
  -1  -1   7    0.70    0.29
   1  -1  -7    0.29    0.31
   1   1  -7    0.33    0.31
   1   1  -7    0.02    0.37
  -1   1   7    0.50    0.35
  -1   1   7    0.05    0.29
   1  -1   7   33.73    1.39
   1  -1   7   36.29    1.38
  -1  -1  -7   33.01    1.36
  -1  -1  -7   31.56    1.37
  -1   1  -7   33.56    1.40
   1   1   7   33.46    1.40
  -1   1  -7   33.67    1.46
  -3  -1  -7    1.28    0.34
   3  -1   7    1.03    0.38
  -3  -1  -7    0.90    0.37
   3  -1   7    1.30    0.35
   3   1   7    0.29    0.31
  -3   1  -7    0.96    0.36
  -3   1  -7    0.94    0.43
   5  -1   7   27.04    1.21
   5  -1   7   29.34    1.26
  -5  -1  -7   26.41    1.30
  -5   1  -7   27.35    1.38
   5   1   7   27.58    1.22
   7  -1   7   -0.11    0.32
   7  -1   7    0.59    0.34
  -7  -1  -7    0.78    0.45
   7   1   7    0.70    0.35
  -7   1  -7    0.21    0.45
  -9  -1  -7   13.24    1.08
   9  -1   7   12.43    1.04
   9   1   7   13.45    0.85
  -9   1  -7   11.98    1.15
   9   1   7   11.57    0.97
  11  -1   7    2.85    0.47
  11  -1   7    3.40    0.69
  11  -1   7    2.02    0.52
 -11  -1  -7    3.84    0.75
 -11   1  -7    2.38    0.72
  11   1   7    3.18    0.66
  18  -2  -7   14.85    1.32
 -18  -2   7   13.94    1.19
 -18  -2   7   14.79    1.42
  18  -2  -7   16.83    1.49
  18   2  -7   17.79    1.42
 -18   2   7   15.09    1.44
  18   2  -7   16.94    1.36
 -18   2   7   15.58    1.87
  16  -2  -7    1.50    0.54
  16  -2  -7    2.35    0.66
 -16  -2   7    1.14    0.52
 -16  -2   7    2.93    0.65
 -16   2   7    2.92    0.69
  16   2  -7    1.60    0.59
  16   2  -7    2.69    0.66
  14  -2  -7   28.59    1.53
 -14  -2   7   31.85    1.63
  14  -2  -7   27.92    1.59
 -14  -2   7   29.26    1.62
  14   2  -7   31.78    1.64
  14   2  -7   32.21    1.58
 -14   2   7   28.35    1.67
  12  -2  -7    2.04    0.57
 -12  -2   7    2.00    0.60
  12  -2  -7    2.37    0.61
  12   2  -7    3.35    0.67
  12   2  -7    2.59    0.63
 -12   2   7    1.96    0.55
 -12   2   7    0.99    0.52
  10  -2  -7   36.77    1.62
  10  -2  -7   35.91    1.65
 -10  -2   7   34.18    1.72
 -10   2   7   33.67    1.74
  10   2  -7   33.52    1.60
 -10   2   7   35.57    1.70
  10   2  -7   31.18    1.62
   8  -2  -7   11.70    0.93
  -8  -2   7   14.09    1.04
   8  -2  -7   11.07    0.92
   8   2  -7   11.23    0.99
   8   2  -7   11.55    0.95
  -8   2   7   12.95    1.06
  -8   2   7   12.30    1.05
   6  -2  -7   12.34    0.89
   6  -2  -7   12.53    0.92
  -6  -2   7   14.62    0.95
  -6   2   7   12.08    1.04
   6   2  -7   13.80    0.95
  -6   2   7   13.32    1.04
   6   2  -7   14.16    0.98
   4  -2  -7   12.66    0.88
  -4  -2   7   12.94    0.85
   4  -2  -7   13.21    0.87
   4   2  -7   12.76    0.93
   4   2  -7   13.50    0.89
  -4   2   7   14.87    0.98
  -4   2   7   12.79    1.03
   2  -2  -7   10.19    0.73
  -2  -2   7   11.04    1.15
  -2  -2   7   10.14    0.72
   2  -2  -7   10.02    0.76
   2   2  -7   10.94    0.82
   2   2  -7   10.09    0.77
  -2   2   7    8.48    0.81
   0  -2  -7   16.53    0.89
   0  -2  -7   15.45    0.91
   0  -2   7   16.55    1.05
   0  -2   7   16.23    0.88
   0   2  -7   15.74    0.97
   0   2   7   15.48    0.94
   0   2  -7   15.40    0.93
  -2  -2  -7    3.30    0.49
   2  -2   7    2.81    0.45
  -2  -2  -7    2.65    0.49
   2  -2   7    2.31    0.41
  -2   2  -7    3.83    0.59
   2   2   7    3.69    0.55
  -2   2  -7    3.06    0.51
  -4  -2  -7   22.05    1.08
  -4  -2  -7   23.77    1.15
   4  -2   7   24.10    1.10
   4  -2   7   26.00    1.17
   4   2   7   23.16    1.09
  -4   2  -7   22.53    1.25
   6  -2   7   -0.87    0.51
   6  -2   7    0.36    0.34
  -6  -2  -7    0.52    0.41
  -6   2  -7   -0.07    0.45
   6   2   7    0.71    0.36
   8  -2   7   10.21    0.96
  -8  -2  -7   11.39    0.93
   8  -2   7   10.57    0.81
   8   2   7   10.82    0.79
  -8   2  -7   11.42    1.13
  10  -2   7    0.37    0.48
  10  -2   7    1.24    0.42
 -10  -2  -7    0.70    0.53
  10  -2   7    1.21    0.42
  10   2   7    0.58    0.44
  10   2   7    0.26    0.39
 -10   2  -7    0.73    0.60
 -12  -2  -7    9.36    1.16
  12  -2   7    6.68    1.06
 -12   2  -7   12.09    1.47
  12   2   7    9.38    0.95
  17  -3  -7    4.11    0.78
 -17  -3   7    3.09    0.69
  17  -3  -7    4.08    0.83
 -17  -3   7    2.99    0.75
 -17   3   7    3.81    0.85
 -17   3   7    3.49    0.70
  17   3  -7    4.03    0.77
  17   3  -7    2.55    0.65
 -15  -3   7   43.61    2.07
  15  -3  -7   43.74    1.99
 -15  -3   7   43.41    1.99
  15  -3  -7   47.13    2.09
  15   3  -7   45.50    1.98
 -15   3   7   50.52    2.39
  15   3  -7   48.88    2.08
 -15   3   7   44.91    2.02
 -13  -3   7    7.46    0.93
  13  -3  -7    6.51    0.89
  13  -3  -7    7.73    0.90
 -13  -3   7    6.95    1.01
 -13   3   7    8.34    1.03
  13   3  -7    6.43    0.99
  13   3  -7    6.64    0.93
  11  -3  -7   48.23    1.97
 -11  -3   7   44.44    2.07
 -11  -3   7   45.77    2.04
  11  -3  -7   47.50    1.93
 -11   3   7   47.47    2.01
  11   3  -7   43.27    1.93
 -11   3   7   49.39    2.16
  11   3  -7   42.70    1.94
  -9  -3   7    5.58    0.84
   9  -3  -7    5.99    0.80
   9  -3  -7    7.28    0.83
  -9  -3   7    6.54    0.87
   9   3  -7    5.43    0.81
  -9   3   7    5.39    0.81
  -9   3   7    6.79    0.87
   7  -3  -7   68.60    2.51
  -7  -3   7   75.41    2.57
  -7  -3   7   77.15    2.67
   7  -3  -7   70.80    2.50
  -7   3   7   74.47    2.72
   7   3  -7   77.29    2.59
   5  -3  -7    0.67    0.34
  -5  -3   7    0.77    0.35
   5  -3  -7    0.43    0.34
   5   3  -7    0.43    0.41
  -5   3   7    0.85    0.47
   5   3  -7    0.60    0.36
  -3  -3   7   91.50    2.81
   3  -3  -7   89.95    2.78
   3  -3  -7   89.94    2.80
   3   3  -7   90.19    2.87
  -3   3   7   87.07    2.99
   3   3  -7   90.91    2.87
   1  -3  -7    4.55    0.78
  -1  -3   7    4.46    0.56
   1  -3  -7    4.55    0.58
   1   3  -7    3.90    0.59
   1   3  -7    4.23    0.58
  -1   3   7    4.42    0.66
  -1  -3  -7   26.08    1.17
  -1  -3  -7   23.80    1.31
   1  -3   7   26.26    1.16
   1   3   7   26.62    1.25
  -1   3  -7   26.77    1.25
  -1   3  -7   25.61    1.30
  -3  -3  -7    2.25    0.40
   3  -3   7    1.62    0.39
  -3  -3  -7    2.29    0.39
  -3   3  -7    2.06    0.49
   3   3   7    1.50    0.42
  -3   3  -7    1.34    0.48
  -5  -3  -7   34.60    1.47
   5  -3   7   38.53    1.50
  -5   3  -7   38.48    1.72
   5   3   7   35.77    1.45
  -7  -3  -7    1.22    0.42
   7  -3   7    1.88    0.41
  -7   3  -7    1.10    0.59
   7   3   7    1.11    0.37
   9  -3   7   10.72    0.85
  -9  -3  -7   12.83    1.01
   9  -3   7   12.75    1.07
   9  -3   7   11.06    0.87
   9   3   7   10.58    0.82
   9   3   7   11.06    0.93
   9   3   7   10.02    0.79
  -9   3  -7   14.42    1.79
 -11  -3  -7    5.18    0.75
  11  -3   7    3.12    0.67
 -11   3  -7    3.55    0.85
  11   3   7    4.25    0.68
  11   3   7    3.22    0.62
 -18  -4   7   16.19    1.41
  18  -4  -7   18.78    1.55
  18   4  -7   17.57    1.42
 -16  -4   7    3.98    0.71
  16  -4  -7    2.70    0.74
  16  -4  -7    2.38    0.70
 -16  -4   7    4.05    0.78
 -16   4   7    2.77    0.88
 -16   4   7    4.50    0.78
  16   4  -7    4.06    0.80
  16   4  -7    3.05    0.76
 -14  -4   7   25.96    1.55
  14  -4  -7   26.10    1.49
  14  -4  -7   28.61    1.57
 -14  -4   7   24.41    1.51
  14   4  -7   27.61    1.56
 -14   4   7   28.20    1.69
  14   4  -7   25.46    1.53
  12  -4  -7    4.44    0.68
 -12  -4   7    3.65    1.13
  12  -4  -7    4.61    0.73
 -12  -4   7    5.96    0.88
 -12   4   7    4.19    0.74
 -12   4   7    5.02    0.80
  12   4  -7    4.42    0.73
 -10  -4   7   30.87    1.71
  10  -4  -7   36.79    1.64
  10  -4  -7   35.03    1.60
  10   4  -7   32.03    1.83
 -10   4   7   38.40    1.73
  10   4  -7   31.97    1.58
  -8  -4   7   14.84    1.12
   8  -4  -7   17.84    1.10
  -8  -4   7   15.69    1.66
   8  -4  -7   16.03    1.06
  -8   4   7   16.48    1.20
   8   4  -7   17.72    1.11
   8   4  -7   17.58    1.27
   6  -4  -7   17.91    1.05
  -6  -4   7   20.23    1.15
  -6  -4   7   19.67    1.08
   6  -4  -7   19.59    1.12
   6   4  -7   19.70    1.77
  -6   4   7   20.77    1.30
   6   4  -7   19.10    1.12
  -4  -4   7   13.26    0.90
   4  -4  -7   13.72    0.87
  -4  -4   7   13.48    0.87
   4  -4  -7   15.49    0.93
   4   4  -7   15.33    1.06
  -4   4   7   14.16    1.13
   4   4  -7   15.14    0.98
  -2  -4   7   10.89    0.76
   2  -4  -7   11.11    0.76
  -2   4   7   10.03    0.98
   2   4  -7    9.94    0.87
   2   4  -7   10.92    0.83
   0  -4  -7   19.69    0.98
   0  -4  -7   19.72    0.98
   0  -4   7   18.88    0.98
   0   4   7   20.59    1.19
   0   4   7   19.20    1.05
   0   4  -7   20.33    1.16
   0   4  -7   18.34    1.09
  -2  -4  -7    7.84    0.91
  -2  -4  -7    7.61    0.61
   2  -4   7    9.63    0.70
   2   4   7    8.30    0.77
  -2   4  -7    6.14    0.83
   2   4   7    8.17    0.70
  -2   4  -7    7.32    0.75
  -4  -4  -7   18.24    0.97
   4  -4   7   18.48    0.98
  -4  -4  -7   17.34    1.30
  -4   4  -7   18.45    1.23
   4   4   7   19.15    1.03
   6  -4   7    0.95    0.39
  -6  -4  -7    0.64    0.37
  -6   4  -7    1.17    0.54
   6   4   7    0.60    0.41
   8  -4   7   11.45    0.92
   8  -4   7    9.90    1.02
  -8  -4  -7   11.63    0.90
  -8   4  -7   11.18    1.23
   8   4   7   10.74    0.81
   8   4   7   10.85    0.91
   8   4   7    9.49    0.74
  10  -4   7    1.82    0.53
 -10  -4  -7    0.38    0.50
  10  -4   7    1.84    0.75
  10   4   7    1.38    0.48
 -10   4  -7    0.26    0.73
  10   4   7    1.92    0.57
  10   4   7    1.22    0.42
 -15  -5   7   16.47    1.25
  15  -5  -7   20.65    1.39
 -15  -5   7   15.85    1.37
  15  -5  -7   20.22    1.41
 -15   5   7   22.15    1.38
 -15   5   7   18.57    1.64
  15   5  -7   20.05    1.45
  15   5  -7   19.17    1.70
  13  -5  -7    2.80    0.63
 -13  -5   7    1.71    0.69
  13  -5  -7    0.88    0.59
  13   5  -7    2.96    0.76
  13   5  -7    1.01    0.59
  11  -5  -7   19.29    1.19
  11  -5  -7   18.69    1.18
 -11  -5   7   18.44    1.33
 -11  -5   7   17.36    1.29
  11   5  -7   16.01    1.16
  11   5  -7   17.61    1.27
 -11   5   7   18.64    1.26
   9  -5  -7    2.04    0.50
  -9  -5   7    1.68    0.61
   9  -5  -7    1.86    0.53
  -9   5   7    1.79    0.58
   9   5  -7    2.23    0.58
   9   5  -7    2.03    0.56
   7  -5  -7   30.11    1.43
  -7  -5   7   29.25    1.53
  -7  -5   7   32.48    1.54
   7  -5  -7   31.06    1.44
   7   5  -7   32.54    1.50
   7   5  -7   34.59    1.54
  -7   5   7   31.85    1.62
  -5  -5   7    0.08    0.35
   5  -5  -7   -0.21    0.32
  -5  -5   7    0.02    0.35
   5  -5  -7    0.76    0.39
   5   5  -7    0.21    0.35
  -5   5   7    0.14    0.49
   3  -5  -7   38.92    1.51
  -3  -5   7   39.98    1.60
  -3  -5   7   35.14    1.47
   3   5  -7   38.58    1.64
   3   5  -7   36.52    1.58
  -3   5   7   37.60    1.76
  -3   5   7   39.48    1.80
  -1  -5   7    1.34    0.35
   1  -5  -7    1.00    0.48
  -1  -5   7    0.65    0.37
   1  -5  -7    1.36    0.33
   1   5  -7    1.12    0.43
  -1   5   7   -0.07    0.46
   1   5  -7    1.05    0.48
  -1   5   7   -0.30    0.50
   1  -5   7   10.56    0.74
  -1  -5  -7   10.79    0.75
   1  -5   7   10.28    1.05
  -1  -5  -7   11.67    0.68
   1   5   7    9.59    0.81
   1   5   7   10.83    1.00
  -1   5  -7   11.15    0.87
  -1   5  -7   11.67    0.97
  -3  -5  -7    0.70    0.28
  -3  -5  -7    1.06    0.38
   3  -5   7    0.49    0.33
   3   5   7    1.58    0.51
  -3   5  -7    0.45    0.51
   5  -5   7   16.46    0.96
  -5  -5  -7   15.12    0.90
  -5   5  -7   15.35    1.21
   5   5   7   16.40    1.02
   7  -5   7    0.84    0.41
  -7  -5  -7    1.09    0.42
   7  -5   7    0.96    0.48
   7   5   7    0.96    0.44
  -7   5  -7    0.54    0.62
   7   5   7    0.88    0.36
   7   5   7   -0.01    0.55
  -9  -5  -7    7.87    0.79
   9  -5   7    6.26    0.81
   9  -5   7    4.50    0.75
   9   5   7    5.80    0.75
   9   5   7    5.96    0.72
   9   5   7    6.83    0.85
  -9   5  -7    6.13    1.01
 -14  -6   7   18.25    1.31
  14  -6  -7   21.69    1.42
 -14  -6   7   21.78    1.39
  14  -6  -7   23.53    1.42
 -14   6   7   18.89    1.39
  14   6  -7   17.08    1.35
  14   6  -7   15.20    1.37
 -12  -6   7    4.45    0.78
 -12  -6   7    4.67    0.81
  12  -6  -7    6.27    0.94
  12  -6  -7    5.98    0.83
  12   6  -7    4.05    0.82
  12   6  -7    4.84    0.86
 -10  -6   7   26.31    1.49
  10  -6  -7   29.52    1.45
 -10  -6   7   24.10    1.49
  10  -6  -7   26.37    1.40
  10   6  -7   27.73    1.48
 -10   6   7   28.42    1.56
  10   6  -7   25.72    1.42
  -8  -6   7   12.92    1.05
   8  -6  -7   14.26    1.01
   8  -6  -7   14.36    1.00
  -8  -6   7   12.30    1.01
   8   6  -7   14.12    1.12
  -8   6   7   14.79    1.17
   8   6  -7   13.90    1.05
  -6  -6   7   12.77    0.97
   6  -6  -7   12.68    0.91
  -6  -6   7   12.36    0.92
   6  -6  -7   11.26    0.82
   6   6  -7   12.13    1.05
  -6   6   7   13.64    1.13
   6   6  -7   12.62    0.94
  -4  -6   7   12.61    0.88
   4  -6  -7   14.81    1.30
  -4  -6   7   14.10    0.93
   4  -6  -7   14.22    0.89
  -4   6   7   14.45    1.18
   4   6  -7   13.51    0.96
   4   6  -7   14.09    1.66
  -2  -6   7   16.11    0.92
   2  -6  -7   15.75    0.88
  -2  -6   7   15.66    0.95
   2  -6  -7   14.87    0.82
   2   6  -7   14.09    1.00
   2   6  -7   15.04    1.09
  -2   6   7   17.72    1.22
   0  -6  -7   12.51    0.72
   0  -6  -7   11.89    0.76
   0  -6   7   13.72    0.87
   0  -6   7   12.15    0.83
   0   6  -7   12.69    1.07
   0   6  -7   11.62    0.91
  -2  -6  -7    5.10    0.50
  -2  -6  -7    5.31    0.55
   2  -6   7    5.37    0.64
   2  -6   7    4.91    0.68
   2   6   7    4.58    0.82
  -2   6  -7    4.32    0.78
   4  -6   7   17.54    1.01
  -4  -6  -7   15.15    0.85
   4  -6   7   13.83    0.91
  -4   6  -7   15.97    1.27
   4   6   7   14.39    1.13
   6  -6   7    1.52    0.52
  -6  -6  -7    2.07    0.44
   6  -6   7    1.56    0.51
   6  -6   7    2.43    0.48
   6   6   7    1.88    0.46
  -6   6  -7    1.01    0.65
   8  -6   7    6.18    0.82
   8  -6   7    5.73    0.90
  -8  -6  -7    8.34    0.77
   8   6   7    7.24    0.85
  -8   6  -7    5.97    1.00
   8   6   7    6.18    0.72
   8   6   7    6.72    0.82
  13  -7  -7    4.26    0.68
 -13  -7   7    4.42    0.81
 -13  -7   7    6.68    1.06
  13  -7  -7    5.66    0.87
  13   7  -7    4.41    0.86
 -13   7   7    7.09    1.03
  13   7  -7    3.10    0.80
 -11  -7   7   19.33    1.40
  11  -7  -7   21.53    1.23
 -11  -7   7   18.96    1.32
  11  -7  -7   19.38    1.28
  11   7  -7   19.84    1.37
  11   7  -7   17.98    1.26
 -11   7   7   18.55    1.38
  -9  -7   7    7.20    0.96
   9  -7  -7    6.94    0.80
  -9  -7   7    6.90    0.95
   9  -7  -7    5.96    0.85
   9   7  -7    6.22    0.86
  -9   7   7    8.86    1.19
  -9   7   7    6.29    0.85
   9   7  -7    7.01    0.99
   7  -7  -7   28.55    1.41
   7  -7  -7   28.83    1.37
  -7  -7   7   30.44    1.45
  -7  -7   7   30.97    1.55
  -7   7   7   31.82    1.74
  -7   7   7   28.27    1.59
   7   7  -7   32.07    1.51
   7   7  -7   31.44    1.54
   5  -7  -7    3.61    0.56
  -5  -7   7    4.87    0.71
  -5  -7   7    3.51    0.54
   5  -7  -7    3.95    0.61
  -5   7   7    3.85    0.76
   5   7  -7    3.19    0.63
  -5   7   7    2.89    0.69
   5   7  -7    4.84    0.85
  -3  -7   7   26.59    1.29
   3  -7  -7   27.16    1.13
   3  -7  -7   25.78    1.15
  -3  -7   7   27.49    1.24
   3   7  -7   24.88    1.32
  -3   7   7   26.22    1.49
   3   7  -7   23.98    1.43
  -3   7   7   29.50    1.97
   1  -7  -7    3.86    0.50
  -1  -7   7    4.18    0.64
  -1  -7   7    3.40    0.53
   1  -7  -7    5.01    0.58
   1   7  -7    2.76    0.57
   1   7  -7    3.67    0.76
  -1   7   7    3.81    0.82
  -1  -7  -7   15.25    0.73
  -1  -7  -7   16.01    0.84
   1  -7   7   15.73    0.98
   1  -7   7   15.87    0.94
  -1   7  -7   16.58    1.27
   1   7   7   15.41    1.23
   3  -7   7    2.87    0.53
   3  -7   7    3.86    0.57
  -3   7  -7    3.75    0.77
   3   7   7    3.85    0.74
   3   7   7    3.41    0.69
   5  -7   7   11.54    0.85
  -5  -7  -7   11.93    0.76
   5  -7   7   10.83    0.98
   5   7   7    9.66    0.92
  -5   7  -7   11.79    1.26
   5   7   7    8.80    1.16
  10  -8  -7   10.26    0.98
 -10  -8   7    8.48    1.11
  10  -8  -7   10.35    1.04
 -10  -8   7    7.45    1.09
  10   8  -7   10.21    1.05
 -10   8   7    7.87    1.10
  10   8  -7    9.28    1.11
  -8  -8   7    5.70    0.86
  -8  -8   7    6.07    0.93
   8  -8  -7    5.15    0.68
   8  -8  -7    4.64    0.68
  -8   8   7    6.31    1.84
   8   8  -7    4.27    0.78
   8   8  -7    5.50    0.78
  -8   8   7    5.28    0.83
   6  -8  -7    3.63    0.75
  -6  -8   7    4.27    0.61
   6  -8  -7    4.41    0.69
  -6   8   7    4.06    0.85
  -6   8   7    4.12    0.80
   6   8  -7    4.22    0.67
   6   8  -7    3.83    0.74
   4  -8  -7    4.66    0.60
  -4  -8   7    5.14    0.73
   4  -8  -7    5.40    0.64
  -4  -8   7    4.43    0.71
  -4   8   7    4.69    0.73
   4   8  -7    6.18    0.79
  -4   8   7    4.55    0.87
   4   8  -7    4.66    1.01
  -2  -8   7    6.13    0.73
  -2  -8   7    6.30    0.73
   2  -8  -7    7.47    0.57
   2  -8  -7    6.58    0.61
   2   8  -7    6.91    0.90
  -2   8   7    5.38    0.82
   2   8  -7    7.42    1.08
  -2   8   7    8.90    1.17
   0  -8  -7    4.11    0.45
   0  -8  -7    4.40    0.52
   0  -8   7    3.45    0.51
   0  -8   7    3.37    0.55
   0   8   7    4.61    0.80
   0   8  -7    4.43    0.86
   0   8   7    2.56    0.65
   2  -8   7    1.92    0.46
   2  -8   7    1.59    0.50
  -2  -8  -7    2.28    0.39
   2   8   7    1.31    0.62
  -2   8  -7    2.44    0.75
   2   8   7    2.76    0.75
 -16   0   8    1.45    0.71
  16   0  -8    2.10    0.65
  16   0  -8    3.14    0.79
 -14   0   8   28.19    1.69
  14   0  -8   32.12    1.67
  14   0  -8   30.54    1.59
  12   0  -8    1.32    0.59
  12   0  -8    2.22    0.66
 -12   0   8    0.21    0.58
  10   0  -8   62.45    2.46
 -10   0   8   64.94    2.62
  10   0  -8   65.15    2.44
   8   0  -8    2.95    0.64
  -8   0   8    2.99    0.72
   8   0  -8    2.97    0.61
  -6   0   8   56.27    2.33
   6   0  -8   58.92    2.21
   6   0  -8   56.93    2.19
  -6   0   8   59.01    2.28
  -4   0   8    5.43    0.78
  -4   0   8    4.36    0.67
   4   0  -8    3.62    0.55
   4   0  -8    5.02    0.72
   2   0  -8   41.88    1.75
  -2   0   8   42.90    1.72
   2   0  -8   42.81    1.75
  -2   0   8   44.73    1.81
   0   0  -8    2.42    0.51
   0   0   8    3.15    0.57
   0   0  -8    2.54    0.56
   0   0   8    3.17    0.52
  -2   0  -8   26.51    1.35
   2   0   8   28.09    1.24
   2   0   8   25.75    1.26
  -2   0  -8   27.93    1.29
  -4   0  -8    5.53    0.80
  -4   0  -8    3.69    0.60
   6   0   8    8.00    1.15
  -6   0  -8    7.38    0.94
  -8   0  -8    3.38    0.74
   8   0   8    5.82    0.72
 -17  -1   8   10.97    1.24
  17  -1  -8    8.41    1.25
  17  -1  -8   11.88    1.24
  17   1  -8   14.94    1.33
  17   1  -8   11.34    1.15
  15  -1  -8    8.96    1.12
  15  -1  -8    8.33    1.01
 -15  -1   8    7.14    1.00
 -15   1   8    8.42    1.10
  15   1  -8    8.66    1.07
  15   1  -8    6.44    0.98
  13  -1  -8   12.27    1.08
  13  -1  -8   10.80    1.02
 -13  -1   8   10.83    1.17
 -13   1   8    7.17    1.10
  13   1  -8   12.33    1.21
  13   1  -8    8.56    1.02
 -11  -1   8   14.37    1.20
  11  -1  -8   11.99    1.11
  11  -1  -8   13.05    1.09
  11   1  -8   12.69    1.11
  11   1  -8   13.96    1.13
 -11   1   8   10.29    1.14
   9  -1  -8   12.64    1.07
   9  -1  -8   12.96    1.07
  -9  -1   8   14.39    1.19
  -9   1   8   14.34    1.19
   9   1  -8   13.93    1.11
   9   1  -8   13.27    1.07
   7  -1  -8   13.26    1.01
  -7  -1   8   14.45    1.08
   7  -1  -8   14.08    1.04
  -7   1   8   13.67    1.17
   7   1  -8   12.58    1.03
   7   1  -8   14.86    1.11
  -7   1   8   13.80    1.19
   5  -1  -8    5.25    0.82
  -5  -1   8    5.38    0.72
   5  -1  -8    5.86    0.78
   5   1  -8    4.52    0.66
   5   1  -8    5.86    0.71
  -5   1   8    5.88    0.88
  -5   1   8    6.82    0.81
  -3  -1   8   40.27    1.72
   3  -1  -8   37.37    1.63
  -3  -1   8   37.20    1.58
   3  -1  -8   39.73    1.63
  -3   1   8   39.09    1.65
  -3   1   8   37.35    1.72
   3   1  -8   37.40    1.65
   3   1  -8   39.80    1.65
  -1  -1   8    1.58    0.42
   1  -1  -8    1.57    0.42
   1  -1  -8    1.23    0.41
  -1  -1   8    1.58    0.38
  -1   1   8    1.34    0.48
   1   1  -8    0.40    0.33
   1   1  -8    0.82    0.45
  -1  -1  -8   22.79    1.20
  -1  -1  -8   20.93    1.10
   1  -1   8   21.17    1.07
  -1   1  -8   21.93    1.23
   1   1   8   21.06    1.16
  -1   1  -8   23.10    1.19
  -3  -1  -8    2.15    0.52
  -3  -1  -8    1.29    0.42
   3  -1   8    1.34    0.36
  -3   1  -8    2.19    0.54
  -3   1  -8    1.12    0.38
  -5  -1  -8   14.39    1.08
   5  -1   8   15.28    0.99
   5  -1   8   13.16    0.88
  -5   1  -8   13.24    1.14
  -7  -1  -8    1.40    0.60
   7  -1   8    0.67    0.48
   7  -1   8    0.27    0.39
  -7   1  -8   -0.71    0.57
  -9  -1  -8   13.64    1.25
   9  -1   8    8.17    1.10
   9  -1   8   12.07    1.15
   9   1   8   11.46    0.89
  -9   1  -8    9.47    1.31
   9   1   8   10.08    1.07
  16  -2  -8   -0.02    0.62
 -16  -2   8    2.23    0.81
  16  -2  -8    0.97    0.64
 -16   2   8    2.20    0.75
  16   2  -8    0.40    0.64
  16   2  -8    0.93    0.59
 -14  -2   8   24.93    1.56
 -14  -2   8   21.17    1.46
  14  -2  -8   24.79    1.50
  14  -2  -8   24.65    1.46
  14   2  -8   24.31    1.57
 -14   2   8   21.44    1.45
  14   2  -8   24.59    1.45
 -14   2   8   20.76    1.51
 -12  -2   8   -0.21    0.55
  12  -2  -8   -0.50    0.45
  12  -2  -8    0.52    0.46
 -12   2   8   -1.65    0.84
  12   2  -8   -0.19    0.52
  12   2  -8   -0.92    0.48
 -12   2   8   -0.27    0.52
 -10  -2   8   37.21    1.87
  10  -2  -8   37.76    1.74
  10  -2  -8   39.10    1.73
  10   2  -8   36.51    1.76
  10   2  -8   36.12    1.78
 -10   2   8   36.79    1.88
   8  -2  -8    0.93    0.51
  -8  -2   8    0.81    0.51
   8  -2  -8    0.95    0.45
   8   2  -8    0.17    0.48
  -8   2   8    0.55    0.53
  -8   2   8    2.38    0.62
   8   2  -8    0.18    0.44
   6  -2  -8   33.80    1.55
   6  -2  -8   33.43    1.58
  -6  -2   8   36.24    1.62
  -6   2   8   37.30    1.77
  -6   2   8   33.02    1.76
   6   2  -8   35.53    1.65
   4  -2  -8    1.22    0.45
  -4  -2   8    1.01    0.39
   4  -2  -8    1.92    0.46
   4   2  -8    0.77    0.44
   4   2  -8    1.95    0.54
  -2  -2   8   30.57    1.36
   2  -2  -8   28.67    1.38
   2  -2  -8   31.06    1.36
  -2   2   8   29.68    1.46
   2   2  -8   28.85    1.41
   2   2  -8   30.70    1.47
   0  -2   8    0.44    0.34
   0  -2  -8    0.79    0.35
   0  -2  -8    0.49    0.38
   0   2  -8    0.37    0.37
   0   2   8    0.29    0.40
   0   2  -8    0.10    0.40
  -2  -2  -8   15.68    1.01
   2  -2   8   14.93    0.91
  -2  -2  -8   14.18    0.90
  -2   2  -8   15.61    1.06
   2   2   8   14.31    0.96
  -2   2  -8   15.47    1.02
  -4  -2  -8    3.45    0.63
   4  -2   8    4.92    0.66
  -4  -2  -8    3.04    0.58
   4  -2   8    4.43    0.61
   4   2   8    4.41    0.69
  -4   2  -8    3.86    0.70
   6  -2   8    5.92    0.74
  -6  -2  -8    4.61    0.71
   6  -2   8    3.85    0.60
  -6   2  -8    4.79    0.77
  -8  -2  -8    1.67    0.58
   8  -2   8    2.15    0.96
   8  -2   8    2.57    0.67
  -8   2  -8    1.71    0.71
 -15  -3   8    6.57    0.92
  15  -3  -8    8.59    1.04
 -15  -3   8    5.85    1.25
  15  -3  -8    5.77    0.90
 -15   3   8    7.92    1.08
  15   3  -8    8.69    1.12
 -15   3   8    5.42    1.02
  15   3  -8    6.32    0.94
 -13  -3   8   13.56    1.23
  13  -3  -8   12.13    1.12
  13  -3  -8   13.80    1.14
 -13  -3   8   11.40    1.30
 -13   3   8   16.04    1.33
  13   3  -8   15.16    1.26
 -13   3   8   12.95    1.13
  13   3  -8   13.02    1.22
 -11  -3   8   18.74    1.40
 -11  -3   8   19.05    1.39
  11  -3  -8   20.46    1.24
  11  -3  -8   20.71    1.31
 -11   3   8   18.65    1.37
  11   3  -8   18.47    1.32
  11   3  -8   16.47    1.31
  -9  -3   8   18.52    1.33
   9  -3  -8   18.77    1.19
   9  -3  -8   19.82    1.26
  -9   3   8   20.70    1.38
   9   3  -8   17.93    1.29
  -9   3   8   22.34    1.76
   9   3  -8   17.46    1.28
  -7  -3   8   18.53    1.16
   7  -3  -8   15.94    1.06
   7  -3  -8   15.43    1.12
  -7   3   8   16.61    1.26
   7   3  -8   17.76    1.21
   7   3  -8   18.35    1.19
   5  -3  -8    9.23    0.82
   5  -3  -8   10.92    0.91
  -5  -3   8   12.08    0.90
   5   3  -8   10.03    0.93
  -5   3   8    7.98    1.05
   5   3  -8    9.95    0.98
  -3  -3   8   35.29    1.51
   3  -3  -8   35.60    1.49
   3  -3  -8   35.38    1.52
   3   3  -8   34.67    1.59
   3   3  -8   35.42    1.65
  -3   3   8   33.39    1.70
   1  -3  -8    3.77    0.54
  -1  -3   8    3.73    0.53
   1  -3  -8    3.02    0.54
   1   3  -8    1.91    0.54
  -1   3   8    2.68    0.60
   1   3  -8    4.62    0.69
  -1  -3  -8   28.83    1.28
  -1  -3  -8   27.97    1.33
   1  -3   8   28.41    1.31
  -1   3  -8   28.24    1.46
  -1   3  -8   30.89    1.45
   1   3   8   29.52    1.43
  -3  -3  -8    3.58    0.58
   3  -3   8    3.47    0.56
  -3  -3  -8    3.77    0.57
  -3   3  -8    3.30    0.66
   3   3   8    3.69    0.60
  -5  -3  -8    9.41    0.91
   5  -3   8   11.14    0.85
   5  -3   8   13.97    0.96
   5   3   8   12.34    0.84
  -5   3  -8   10.15    1.12
   5   3   8   10.04    0.88
  -7  -3  -8   -0.12    0.50
   7  -3   8   -0.24    0.45
   7   3   8    1.09    0.47
  -7   3  -8    1.73    0.66
 -14  -4   8   21.38    1.56
 -14  -4   8   22.45    1.54
  14  -4  -8   24.96    1.50
  14  -4  -8   24.37    1.49
  14   4  -8   23.14    1.53
 -14   4   8   23.44    1.49
  14   4  -8   25.02    1.55
 -12  -4   8   -1.12    0.62
 -12  -4   8    0.72    0.63
  12  -4  -8    0.49    0.53
  12  -4  -8    0.97    0.49
  12   4  -8    0.65    0.64
 -12   4   8    0.58    0.50
  12   4  -8    1.19    0.59
 -12   4   8    0.99    0.69
 -10  -4   8   28.76    1.71
 -10  -4   8   30.11    1.71
  10  -4  -8   32.43    1.56
  10  -4  -8   31.23    1.58
  10   4  -8   31.59    1.65
   8  -4  -8    2.37    0.59
  -8  -4   8    3.52    0.65
  -8  -4   8    2.54    0.59
   8  -4  -8    3.12    0.58
  -8   4   8    1.92    0.60
   8   4  -8    2.59    0.52
   8   4  -8    2.32    0.65
   6  -4  -8   34.33    1.58
  -6  -4   8   34.23    1.64
  -6  -4   8   32.72    1.54
   6  -4  -8   31.50    1.50
   6   4  -8   32.86    1.62
  -6   4   8   35.46    1.77
   6   4  -8   36.24    1.68
   4  -4  -8    4.40    0.64
  -4  -4   8    3.56    0.58
   4  -4  -8    4.25    0.60
   4   4  -8    3.40    0.67
   4   4  -8    3.99    0.68
  -4   4   8    3.76    0.77
   2  -4  -8   27.90    1.26
  -2  -4   8   26.95    1.27
   2  -4  -8   26.99    1.30
   2   4  -8   28.28    1.47
  -2   4   8   27.02    1.57
   2   4  -8   29.47    1.48
   0  -4  -8    0.78    0.37
   0  -4  -8    1.05    0.41
   0  -4   8    1.38    0.39
   0   4  -8    1.40    0.55
   0   4   8    1.39    0.56
   0   4  -8    0.67    0.48
  -2  -4  -8   12.07    0.77
   2  -4   8   13.69    0.88
  -2  -4  -8   11.64    0.85
  -2   4  -8   11.45    1.01
   2   4   8   12.70    1.05
  -2   4  -8   13.27    1.11
   2   4   8   13.91    0.92
   4  -4   8    4.46    0.59
  -4   4  -8    4.51    0.79
   4   4   8    6.83    0.79
   4   4   8    5.16    0.81
   6  -4   8    5.50    0.74
  -6  -4  -8    5.42    0.82
   6   4   8    6.98    0.84
  -6   4  -8    5.26    0.86
  13  -5  -8    3.90    0.80
 -13  -5   8    4.87    0.90
 -13  -5   8    4.65    0.90
  13   5  -8    5.02    0.87
 -13   5   8    6.79    0.99
  13   5  -8    3.52    0.79
 -11  -5   8    6.61    0.94
 -11  -5   8    6.52    0.93
  11  -5  -8    9.28    1.02
 -11   5   8    4.11    0.93
  11   5  -8    7.55    1.14
  11   5  -8    6.69    0.96
   9  -5  -8    8.20    0.86
   9  -5  -8    7.80    0.95
  -9  -5   8    7.59    1.08
  -9  -5   8    8.97    1.08
   9   5  -8    8.37    1.12
   9   5  -8    8.81    1.00
  -9   5   8    8.91    1.41
  -7  -5   8    6.22    0.87
   7  -5  -8    6.10    0.88
   7  -5  -8    5.36    0.76
  -7  -5   8    6.80    0.89
   7   5  -8    7.05    0.91
  -7   5   8    7.10    1.01
   7   5  -8    6.13    0.88
   5  -5  -8    4.60    0.67
  -5  -5   8    3.52    0.67
   5  -5  -8    3.42    0.56
  -5  -5   8    3.62    0.64
   5   5  -8    4.26    0.73
  -5   5   8    3.52    0.76
   5   5  -8    3.63    0.68
   3  -5  -8   18.42    1.07
  -3  -5   8   18.38    1.06
  -3  -5   8   16.48    1.06
   3  -5  -8   17.35    0.96
  -3   5   8   16.11    1.32
   3   5  -8   18.89    1.16
  -3   5   8   16.16    1.29
   3   5  -8   17.23    1.23
  -1  -5   8    1.74    0.45
   1  -5  -8    1.54    0.45
  -1  -5   8    1.31    0.41
   1  -5  -8    2.02    0.45
   1   5  -8    0.97    0.50
   1   5  -8    1.59    0.56
  -1   5   8    1.67    0.73
  -1   5   8    0.70    0.55
  -1  -5  -8   12.19    0.80
  -1  -5  -8   13.69    0.88
   1  -5   8   12.96    0.88
   1  -5   8   12.31    1.17
   1   5   8   13.79    1.02
  -1   5  -8   12.44    1.11
   1   5   8   10.04    1.13
  -1   5  -8   11.73    1.01
  -3  -5  -8    1.82    0.43
   3  -5   8    1.21    0.45
  -3  -5  -8    1.78    0.39
   3   5   8    2.10    0.57
   3   5   8    2.14    0.53
  -3   5  -8    1.57    0.67
  -5  -5  -8    5.54    0.74
   5  -5   8    5.69    0.76
   5   5   8    4.72    0.70
  -5   5  -8    5.81    0.90
 -10  -6   8   22.81    1.56
 -10  -6   8   20.98    1.52
  10  -6  -8   22.13    1.49
  10  -6  -8   25.50    1.33
  10   6  -8   22.52    1.50
  10   6  -8   24.56    1.58
   8  -6  -8    3.89    0.71
  -8  -6   8    3.54    0.75
   8  -6  -8    2.55    0.54
  -8  -6   8    6.15    0.94
  -8   6   8    3.15    0.76
  -8   6   8    2.15    1.05
   8   6  -8    3.49    0.74
   6  -6  -8   23.67    1.31
  -6  -6   8   25.31    1.41
   6  -6  -8   22.71    1.22
  -6  -6   8   24.26    1.30
   6   6  -8   22.28    1.38
  -6   6   8   26.40    1.64
   6   6  -8   25.46    1.44
  -6   6   8   22.67    1.46
  -4  -6   8    4.84    0.63
   4  -6  -8    4.15    0.63
  -4  -6   8    4.88    0.77
   4  -6  -8    4.37    0.65
   4   6  -8    5.45    0.84
   4   6  -8    7.77    0.98
  -4   6   8    4.33    0.87
  -4   6   8    4.44    0.81
  -2  -6   8   14.79    0.99
   2  -6  -8   17.79    1.01
  -2  -6   8   15.47    1.07
   2  -6  -8   16.41    0.99
   2   6  -8   17.42    1.15
  -2   6   8   17.95    1.43
   2   6  -8   15.91    1.23
  -2   6   8   16.84    1.36
   0  -6   8    1.64    0.50
   0  -6  -8    2.00    0.38
   0  -6  -8    2.78    0.51
   0   6   8    1.03    0.69
   0   6   8    1.48    0.76
   0   6  -8    3.18    0.71
   0   6  -8    2.29    0.63
  -2  -6  -8   11.48    0.75
   2  -6   8   12.69    0.88
  -2  -6  -8   11.87    0.82
   2   6   8   12.51    1.14
   2   6   8   13.37    1.34
  -2   6  -8   11.95    1.20
  -7  -7   8    9.07    1.01
   7  -7  -8    8.65    0.98
  -7  -7   8    6.97    0.96
   7  -7  -8    7.85    0.84
  -7   7   8    8.27    1.15
   7   7  -8    6.93    1.07
   7   7  -8    7.59    1.05
  -5  -7   8    4.95    0.80
   5  -7  -8    6.59    0.75
   5  -7  -8    8.71    0.88
  -5  -7   8    7.23    0.90
  -5   7   8    7.67    1.17
   5   7  -8    7.53    0.99
   5   7  -8    7.83    1.09
  -3  -7   8   17.78    1.08
   3  -7  -8   16.25    1.01
  -3  -7   8   15.19    1.47
   3  -7  -8   15.62    0.96
  -3   7   8   17.70    1.41
   3   7  -8   15.19    1.19
   3   7  -8   16.68    1.31
   1  -7  -8    4.99    0.68
   1  -7  -8    5.15    0.59
   1   7  -8    3.34    0.75
  -1   7   8    3.83    0.82
   1   7  -8    3.52    0.71
 -14   0   9   14.58    1.43
  14   0  -9   14.77    1.38
  12   0  -9    2.46    1.07
 -12   0   9    4.93    0.92
  12   0  -9    4.36    0.78
  10   0  -9   19.51    1.41
 -10   0   9   18.59    1.49
 -10   0   9   16.70    1.41
  10   0  -9   18.31    1.37
   8   0  -9    1.96    0.65
  -8   0   9    1.63    0.70
   8   0  -9    2.55    0.67
  -8   0   9    2.81    0.75
   6   0  -9   26.72    1.51
  -6   0   9   28.02    1.66
   6   0  -9   26.70    1.45
  -6   0   9   24.91    1.50
   4   0  -9    5.26    0.81
   4   0  -9    4.52    0.67
  -4   0   9    6.00    0.83
  -2   0   9   28.34    1.38
   2   0  -9   27.10    1.48
  -2   0   9   26.14    1.43
   2   0  -9   26.49    1.39
   0   0   9    0.76    0.42
   0   0  -9    0.67    0.44
   0   0   9    1.35    0.46
   0   0  -9    2.24    0.58
   2   0   9   22.59    1.25
  -2   0  -9   21.16    1.36
  -2   0  -9   22.54    1.24
   2   0   9   21.48    1.26
  -4   0  -9    0.67    0.60
   4   0   9    1.05    0.52
  13  -1  -9   17.44    1.35
 -13  -1   9   15.14    1.44
  13  -1  -9   15.05    1.33
  13   1  -9   17.45    1.38
 -13   1   9   13.14    1.43
  13   1  -9   17.08    1.41
  11  -1  -9    2.03    0.67
  11  -1  -9    1.17    0.59
 -11  -1   9    1.74    0.72
 -11   1   9    1.85    0.72
  11   1  -9    2.56    0.70
  11   1  -9    1.95    0.72
 -11   1   9    0.94    0.70
  -9  -1   9   17.53    1.39
   9  -1  -9   17.15    1.25
   9  -1  -9   17.98    1.33
   9   1  -9   14.91    1.28
  -9   1   9   19.96    1.52
   9   1  -9   17.39    1.34
  -9   1   9   19.52    1.46
  -7  -1   9    1.62    0.58
   7  -1  -9    0.67    0.52
   7  -1  -9    0.54    0.56
   7   1  -9    0.59    0.57
  -7   1   9    1.57    0.63
   7   1  -9    1.69    0.69
  -7   1   9    1.12    0.66
  -5  -1   9   16.68    1.30
   5  -1  -9   21.36    1.24
  -5  -1   9   19.98    1.35
   5  -1  -9   20.46    1.36
   5   1  -9   22.09    1.32
  -5   1   9   19.43    1.40
  -5   1   9   21.34    1.33
   5   1  -9   21.67    1.41
  -3  -1   9    1.68    0.57
   3  -1  -9    1.62    0.49
   3  -1  -9    2.97    0.64
  -3  -1   9    2.50    0.55
  -3   1   9    1.42    0.56
   3   1  -9    1.60    0.54
   3   1  -9    1.87    0.61
  -3   1   9    3.09    0.60
  -1  -1   9    8.50    0.90
   1  -1  -9    7.58    0.82
  -1  -1   9    7.08    0.81
   1  -1  -9    8.99    0.99
   1   1  -9    8.62    0.89
   1   1  -9    9.31    1.03
  -1   1   9    9.00    0.90
  -1   1   9    8.49    0.91
   1  -1   9    8.54    0.88
   1  -1   9    5.39    0.77
  -1  -1  -9    7.37    0.79
  -1  -1  -9    7.32    1.14
  -1   1  -9    7.69    0.84
   1   1   9    8.42    0.88
  -1   1  -9    7.63    0.99
  -3  -1  -9    5.46    0.69
   3  -1   9    6.48    0.84
  -3  -1  -9    5.08    0.77
   3   1   9    5.06    0.80
  -3   1  -9    6.20    0.83
  -3   1  -9    6.87    0.99
  12  -2  -9    3.28    0.75
  12  -2  -9    2.17    0.65
 -12  -2   9    3.64    0.79
  12   2  -9    0.99    0.69
 -12   2   9    2.33    0.92
  12   2  -9    2.27    0.75
  10  -2  -9   13.36    1.22
  10  -2  -9   14.91    1.16
 -10  -2   9   13.15    1.31
 -10   2   9   14.12    1.27
  10   2  -9   11.64    1.24
  10   2  -9   11.61    1.24
 -10   2   9   14.36    1.41
  -8  -2   9    0.62    0.57
   8  -2  -9   -0.23    0.46
   8  -2  -9    0.80    0.65
  -8   2   9    0.50    0.65
   8   2  -9    0.37    0.57
   8   2  -9    0.75    0.62
  -8   2   9   -0.18    0.60
   6  -2  -9   16.06    1.12
  -6  -2   9   16.95    1.18
   6  -2  -9   16.38    1.25
   6   2  -9   16.44    1.28
  -6   2   9   17.81    1.36
  -6   2   9   15.33    1.37
   6   2  -9   15.92    1.23
  -4  -2   9    2.15    0.53
   4  -2  -9    0.97    0.51
   4  -2  -9    2.41    0.64
   4   2  -9    2.14    0.62
  -4   2   9    1.23    0.54
   4   2  -9    1.98    0.61
   2  -2  -9   17.70    1.19
   2  -2  -9   15.23    1.01
  -2  -2   9   14.94    1.03
  -2  -2   9   15.82    1.13
   2   2  -9   17.05    1.17
   2   2  -9   17.54    1.23
   0  -2  -9    0.95    0.52
   0  -2   9    0.38    0.41
   0  -2  -9    0.25    0.37
   0  -2   9    1.04    0.48
   0   2  -9   -0.62    0.49
   0   2  -9   -0.43    0.47
  -2  -2  -9   14.88    1.15
  -2  -2  -9   16.77    1.00
   2  -2   9   16.06    1.06
  -2   2  -9   16.15    1.26
   2   2   9   17.00    1.12
  -2   2  -9   15.03    1.10
  -4  -2  -9   -0.19    0.54
  -4   2  -9    0.59    0.67
  11  -3  -9    1.86    0.70
 -11  -3   9    3.03    0.80
  11  -3  -9    1.39    0.55
  11   3  -9    2.09    0.79
 -11   3   9    0.66    0.70
  11   3  -9    1.55    0.71
  -9  -3   9   20.05    1.47
   9  -3  -9   21.34    1.39
   9  -3  -9   19.07    1.31
   9   3  -9   19.21    1.46
  -9   3   9   21.34    2.25
  -9   3   9   22.00    1.51
   9   3  -9   21.69    1.47
   7  -3  -9    2.74    0.57
  -7  -3   9    4.20    0.72
   7  -3  -9    2.56    0.65
   7   3  -9    4.62    0.81
  -7   3   9    2.72    0.84
   7   3  -9    4.02    0.78
  -7   3   9    4.76    0.81
   5  -3  -9   22.08    1.38
  -5  -3   9   23.93    1.30
   5  -3  -9   21.20    1.23
   5   3  -9   22.74    1.45
   5   3  -9   21.87    1.38
   3  -3  -9    3.70    0.61
   3  -3  -9    5.85    0.89
  -3  -3   9    4.97    0.74
   3   3  -9    3.11    0.71
   3   3  -9    4.40    0.72
  -1  -3   9   11.36    0.88
   1  -3  -9   10.93    1.00
   1  -3  -9   10.85    0.86
   1   3  -9   10.10    1.14
   1   3  -9   11.09    1.07
   1  -3   9    7.55    0.78
  -1  -3  -9    6.63    0.85
  -1  -3  -9    7.31    0.72
  -1   3  -9    7.73    1.05
  -1   3  -9    7.25    0.91
  -3  -3  -9    5.07    0.74
   3  -3   9    4.99    0.83
  -3   3  -9    7.98    1.17
  10  -4  -9   17.05    1.19
  10  -4  -9   15.59    1.74
 -10  -4   9   12.81    1.39
 -10   4   9   14.71    1.34
  10   4  -9   14.64    1.33
  10   4  -9   15.13    1.37
  -8  -4   9   -0.20    0.62
   8  -4  -9    1.08    0.56
   8  -4  -9    1.40    0.60
   8   4  -9    1.81    0.70
  -8   4   9    0.51    0.69
   8   4  -9    1.51    0.70
   6  -4  -9   13.39    1.02
  -6  -4   9   14.04    1.11
   6  -4  -9   11.59    1.13
   6   4  -9   12.04    1.21
   6   4  -9   14.87    1.24
  -6   4   9   10.72    1.40
   4  -4  -9    4.05    0.65
   4  -4  -9    1.82    0.83
  -4  -4   9    5.79    0.81
   4   4  -9    2.91    0.76
   4   4  -9    3.15    0.74
  -2  -4   9   16.21    1.04
   2  -4  -9   14.08    1.11
   2  -4  -9   14.19    0.96
   2   4  -9   15.55    1.27
   2   4  -9   14.09    1.21
   0  -4  -9    1.24    0.42
   0  -4  -9    0.84    0.48
   0  -4   9    2.02    0.51
   0   4  -9    0.62    0.57
   0   4  -9    2.14    0.67
   5  -5  -9   10.95    1.09
  -5  -5   9    9.18    0.99
   5  -5  -9   11.07    0.94
   5   5  -9    9.85    1.17
   5   5  -9   10.80    1.14
   3  -5  -9    1.30    0.46
  -3  -5   9    2.16    0.53
   3  -5  -9    2.23    0.56
   3   5  -9    0.96    0.62
   3   5  -9    0.44    0.60
   0   0   0    0.00    0.00
;
_shelx_hkl_checksum              75181
loop_
_space_group_symop_operation_xyz
'x, y, z'
'-x, y, -z'
'x+1/2, y+1/2, z'
'-x+1/2, y+1/2, -z'
'-x, -y, -z'
'x, -y, z'
'-x+1/2, -y+1/2, -z'
'x+1/2, -y+1/2, z'
loop_
_atom_site_label
_atom_site_type_symbol
_atom_site_fract_x
_atom_site_fract_y
_atom_site_fract_z
_atom_site_U_iso_or_equiv
_atom_site_adp_type
_atom_site_occupancy
_atom_site_site_symmetry_order
_atom_site_calc_flag
_atom_site_refinement_flags_posn
_atom_site_refinement_flags_adp
_atom_site_refinement_flags_occupancy
I1 I 0.23850(3) 0.5000 0.17173(6) 0.04886(12) Uani 1 2 d S T P
N1 N 0.0871(3) 0.5000 0.6936(7) 0.0451(11) Uani 1 2 d S T P
HN1 H 0.0580 0.5000 0.7850 0.054 Uiso 1 2 d R U P
C1 C 0.1064(3) 0.3664(6) 0.6218(7) 0.0478(10) Uani 1 1 d . . .
H1 H 0.0915 0.2750 0.6752 0.057 Uiso 1 1 calc R U .
C2 C 0.1481(3) 0.3625(5) 0.4690(7) 0.0442(9) Uani 1 1 d . . .
H2 H 0.1613 0.2693 0.4172 0.053 Uiso 1 1 calc R U .
C3 C 0.1703(3) 0.5000 0.3936(8) 0.0368(11) Uani 1 2 d S T P
Pu1 Pu 0.0000 0.0000 0.0000 0.02066(9) Uani 1 4 d S T P
Cl1 Cl 0.0000 0.30537(14) 0.0000 0.0418(3) Uani 1 2 d S T P
Cl2 Cl 0.15790(9) 0.0000 0.1924(2) 0.0447(3) Uani 1 2 d S T P
O1 O -0.0319(3) 0.0000 0.2259(6) 0.0407(8) Uani 1 2 d S T P
loop_
_atom_site_aniso_label
_atom_site_aniso_U_11
_atom_site_aniso_U_22
_atom_site_aniso_U_33
_atom_site_aniso_U_23
_atom_site_aniso_U_13
_atom_site_aniso_U_12
I1 0.0418(2) 0.0690(3) 0.0389(2) 0.000 0.01532(16) 0.000
N1 0.047(3) 0.058(3) 0.033(2) 0.000 0.013(2) 0.000
C1 0.052(2) 0.048(2) 0.046(2) 0.0060(18) 0.0152(18) -0.0052(19)
C2 0.047(2) 0.041(2) 0.046(2) -0.0038(17) 0.0126(17) -0.0013(17)
C3 0.034(2) 0.047(3) 0.029(2) 0.000 0.0056(19) 0.000
Pu1 0.02648(13) 0.01564(11) 0.02260(12) 0.000 0.01136(8) 0.000
Cl1 0.0587(8) 0.0225(5) 0.0498(7) 0.000 0.0237(6) 0.000
Cl2 0.0368(6) 0.0484(7) 0.0476(7) 0.000 0.0059(6) 0.000
O1 0.050(2) 0.038(2) 0.0382(19) 0.000 0.0204(17) 0.000
loop_
_atom_type_symbol
_atom_type_description
_atom_type_scat_dispersion_real
_atom_type_scat_dispersion_imag
_atom_type_scat_source
C C 0.0015 0.0009 'International Tables Vol C Tables 4.2.6.8 and 6.1.1.4'
H H 0.0000 0.0000 'International Tables Vol C Tables 4.2.6.8 and 6.1.1.4'
Cl Cl 0.0998 0.0984 'International Tables Vol C Tables 4.2.6.8 and 6.1.1.4'
I I -0.8919 1.1868 'International Tables Vol C Tables 4.2.6.8 and 6.1.1.4'
N N 0.0030 0.0019 'International Tables Vol C Tables 4.2.6.8 and 6.1.1.4'
O O 0.0056 0.0036 'International Tables Vol C Tables 4.2.6.8 and 6.1.1.4'
Pu Pu -13.5905 6.9468 'International Tables Vol C Tables 4.2.6.8 and 6.1.1.4'
loop_
_geom_angle_atom_site_label_1
_geom_angle_atom_site_label_2
_geom_angle_atom_site_label_3
_geom_angle
_geom_angle_site_symmetry_1
_geom_angle_site_symmetry_3
C1 N1 C1 122.2(5) . 6_565
C1 N1 HN1 118.8 . .
C1 N1 HN1 118.8 6_565 .
N1 C1 C2 120.3(4) . .
N1 C1 H1 119.9 . .
C2 C1 H1 119.9 . .
C1 C2 C3 118.7(4) . .
C1 C2 H2 120.6 . .
C3 C2 H2 120.6 . .
C2 C3 C2 119.7(5) 6_565 .
C2 C3 I1 120.1(3) 6_565 .
C2 C3 I1 120.1(3) . .
O1 Pu1 O1 180.0(3) 5 .
O1 Pu1 Cl2 90.24(15) 5 5
O1 Pu1 Cl2 89.76(15) . 5
O1 Pu1 Cl2 89.76(15) 5 .
O1 Pu1 Cl2 90.24(15) . .
Cl2 Pu1 Cl2 180.00(3) 5 .
O1 Pu1 Cl1 90.0 5 .
O1 Pu1 Cl1 90.0 . .
Cl2 Pu1 Cl1 90.0 5 .
Cl2 Pu1 Cl1 90.0 . .
O1 Pu1 Cl1 90.0 5 5
O1 Pu1 Cl1 90.0 . 5
Cl2 Pu1 Cl1 90.0 5 5
Cl2 Pu1 Cl1 90.0 . 5
Cl1 Pu1 Cl1 180.0 . 5
loop_
_geom_bond_atom_site_label_1
_geom_bond_atom_site_label_2
_geom_bond_distance
_geom_bond_site_symmetry_2
I1 C3 2.078(5) .
N1 C1 1.328(5) .
N1 C1 1.328(5) 6_565
N1 HN1 0.8677 .
C1 C2 1.373(6) .
C1 H1 0.9300 .
C2 C3 1.383(5) .
C2 H2 0.9300 .
C3 C2 1.383(5) 6_565
Pu1 O1 1.743(4) 5
Pu1 O1 1.743(4) .
Pu1 Cl2 2.6549(14) 5
Pu1 Cl2 2.6549(14) .
Pu1 Cl1 2.6573(12) .
Pu1 Cl1 2.6573(12) 5
loop_
_geom_torsion_atom_site_label_1
_geom_torsion_atom_site_label_2
_geom_torsion_atom_site_label_3
_geom_torsion_atom_site_label_4
_geom_torsion
_geom_torsion_site_symmetry_1
_geom_torsion_site_symmetry_4
C1 N1 C1 C2 0.4(9) 6_565 .
N1 C1 C2 C3 0.7(7) . .
C1 C2 C3 C2 -1.8(9) . 6_565
C1 C2 C3 I1 177.1(3) . .
