#------------------------------------------------------------------------------
#$Date: 2017-09-09 01:56:32 +0300 (Sat, 09 Sep 2017) $
#$Revision: 200371 $
#$URL: file:///home/coder/svn-repositories/cod/cif/4/12/63/4126374.cif $
#------------------------------------------------------------------------------
#
# This file is available in the Crystallography Open Database (COD),
# http://www.crystallography.net/
#
# All data on this site have been placed in the public domain by the
# contributors.
#
data_4126374
loop_
_publ_author_name
'Khaled, Mohammad B.'
'El Mokadem, Roukaya K.'
'Weaver, Jimmie D.'
_publ_section_title
;
 Hydrogen Bond Directed Photocatalytic Hydrodefluorination; Overcoming
 Electronic Control.
;
_journal_name_full               'Journal of the American Chemical Society'
_journal_paper_doi               10.1021/jacs.7b06847
_journal_year                    2017
_chemical_formula_moiety         'C7 H5 F3 N2 O'
_chemical_formula_sum            'C7 H5 F3 N2 O'
_chemical_formula_weight         190.13
_space_group_crystal_system      monoclinic
_space_group_IT_number           14
_space_group_name_Hall           '-P 2yn'
_space_group_name_H-M_alt        'P 1 21/n 1'
_symmetry_space_group_name_Hall  '-P 2yn'
_symmetry_space_group_name_H-M   'P 1 21/n 1'
_atom_sites_solution_hydrogens   geom
_atom_sites_solution_primary     direct
_audit_creation_date             2017-07-01
_audit_creation_method
;
Olex2 1.2
(compiled 2017.01.04 svn.r3372 for OlexSys, GUI svn.r5292)
;
_cell_angle_alpha                90
_cell_angle_beta                 105.8470(10)
_cell_angle_gamma                90
_cell_formula_units_Z            4
_cell_length_a                   7.3367(7)
_cell_length_b                   12.3480(12)
_cell_length_c                   8.6496(9)
_cell_measurement_reflns_used    3474
_cell_measurement_temperature    100
_cell_measurement_theta_max      29.36
_cell_measurement_theta_min      2.95
_cell_volume                     753.82(13)
_computing_cell_refinement       'Bruker SAINT'
_computing_data_collection       'Bruker APEX2'
_computing_data_reduction        'Bruker SAINT'
_computing_molecular_graphics    'Bruker SHELXTL'
_computing_publication_material  'Bruker SHELXTL'
_computing_structure_refinement  'SHELXL-2014 (Sheldrick 2014)'
_computing_structure_solution    'SHELXS-97 (Sheldrick 2008)'
_diffrn_ambient_temperature      100
_diffrn_measured_fraction_theta_full 1.000
_diffrn_measured_fraction_theta_max 1.000
_diffrn_measurement_device_type  'Bruker APEX-II CCD'
_diffrn_measurement_method       '\f and \w scans'
_diffrn_radiation_type           MoK\a
_diffrn_radiation_wavelength     0.71073
_diffrn_reflns_av_R_equivalents  0.0328
_diffrn_reflns_av_unetI/netI     0.0228
_diffrn_reflns_Laue_measured_fraction_full 1.000
_diffrn_reflns_Laue_measured_fraction_max 1.000
_diffrn_reflns_limit_h_max       10
_diffrn_reflns_limit_h_min       -10
_diffrn_reflns_limit_k_max       17
_diffrn_reflns_limit_k_min       -17
_diffrn_reflns_limit_l_max       11
_diffrn_reflns_limit_l_min       -11
_diffrn_reflns_number            12599
_diffrn_reflns_point_group_measured_fraction_full 1.000
_diffrn_reflns_point_group_measured_fraction_max 1.000
_diffrn_reflns_theta_full        25.242
_diffrn_reflns_theta_max         29.347
_diffrn_reflns_theta_min         2.952
_diffrn_standards_number         0
_exptl_absorpt_coefficient_mu    0.164
_exptl_absorpt_correction_T_max  0.7459
_exptl_absorpt_correction_T_min  0.6935
_exptl_absorpt_correction_type   multi-scan
_exptl_absorpt_process_details
;
SADABS-2016/2 (Bruker,2016/2) was used for absorption correction.
wR2(int) was 0.0585 before and 0.0446 after correction.
The Ratio of minimum to maximum transmission is 0.9297.
The \l/2 correction factor is Not present.
;
_exptl_crystal_colour            'clear orangish yellow'
_exptl_crystal_colour_lustre     clear
_exptl_crystal_colour_modifier   orangish
_exptl_crystal_colour_primary    yellow
_exptl_crystal_density_diffrn    1.675
_exptl_crystal_description       block
_exptl_crystal_F_000             384
_exptl_crystal_size_max          0.171
_exptl_crystal_size_mid          0.164
_exptl_crystal_size_min          0.13
_refine_diff_density_max         0.323
_refine_diff_density_min         -0.277
_refine_diff_density_rms         0.056
_refine_ls_extinction_method     none
_refine_ls_goodness_of_fit_ref   1.056
_refine_ls_hydrogen_treatment    constr
_refine_ls_matrix_type           full
_refine_ls_number_parameters     119
_refine_ls_number_reflns         2070
_refine_ls_number_restraints     0
_refine_ls_restrained_S_all      1.056
_refine_ls_R_factor_all          0.0514
_refine_ls_R_factor_gt           0.0400
_refine_ls_shift/su_max          0.000
_refine_ls_shift/su_mean         0.000
_refine_ls_structure_factor_coef Fsqd
_refine_ls_weighting_details
'w=1/[\s^2^(Fo^2^)+(0.0560P)^2^+0.2986P] where P=(Fo^2^+2Fc^2^)/3'
_refine_ls_weighting_scheme      calc
_refine_ls_wR_factor_gt          0.1040
_refine_ls_wR_factor_ref         0.1124
_reflns_Friedel_coverage         0.000
_reflns_number_gt                1658
_reflns_number_total             2070
_reflns_threshold_expression     'I > 2\s(I)'
_cod_data_source_file            ja7b06847_si_001.cif
_cod_data_source_block           hdf_r73_fi_abs
_cod_database_code               4126374
_shelx_shelxl_version_number     2014/7
_shelx_space_group_comment
;
The symmetry employed for this shelxl refinement is uniquely defined
by the following loop, which should always be used as a source of
symmetry information in preference to the above space-group names.
They are only intended as comments.
;
_olex2_refinement_description
;
1. Fixed Uiso
 At 1.2 times of:
  All C(H) groups, All N(H) groups
 At 1.5 times of:
  All C(H,H,H) groups
2.a Aromatic/amide H refined with riding coordinates:
 N2(H2), C4(H4)
2.b Idealised Me refined as rotating group:
 C7(H7A,H7B,H7C)
;
_shelx_res_file
;
    hdf_r73_fi_abs.res created by SHELXL-2014/7

TITL HDF_R73_FI_Abs_a.res in P2(1)/n
CELL 0.71073 7.3367 12.348 8.6496 90 105.847 90
ZERR 4 0.0007 0.0012 0.0009 0 0.001 0
LATT 1
SYMM 0.5-X,0.5+Y,0.5-Z
SFAC C H F N O
UNIT 28 20 12 8 4

L.S. 20
PLAN  -2 0 0
TEMP -173.15
HTAB
BOND $H
CONF
fmap 2
acta
REM <olex2.extras>
REM <HklSrc "%.\\HDF_R73_FI_Abs.hkl">
REM </olex2.extras>

WGHT    0.056000    0.298600
FVAR       0.81313
F2    3    0.126662    0.474306    0.320787    11.00000    0.02538    0.02320 =
         0.02278    0.00003   -0.00106    0.00173
F1    3    0.059468    0.669417    0.433642    11.00000    0.02846    0.02084 =
         0.04215    0.00467    0.00842    0.00594
F3    3    0.474324    0.607606    0.914301    11.00000    0.06767    0.02387 =
         0.02202   -0.00736    0.00659   -0.00566
O1    5    0.612659    0.268038    0.714776    11.00000    0.02439    0.02230 =
         0.02092    0.00116   -0.00233   -0.00076
N2    4    0.367942    0.330283    0.510531    11.00000    0.01971    0.01740 =
         0.01630   -0.00077    0.00071    0.00049
AFIX  43
H2    2    0.292836    0.313698    0.415453    11.00000   -1.20000
AFIX   0
N1    4    0.268380    0.639309    0.674890    11.00000    0.03262    0.01880 =
         0.03056   -0.00283    0.01522   -0.00337
C1    1    0.185227    0.603283    0.530010    11.00000    0.02124    0.01904 =
         0.02984    0.00315    0.00975    0.00046
C2    1    0.216819    0.503523    0.472629    11.00000    0.01929    0.02005 =
         0.01988    0.00032    0.00480   -0.00154
C3    1    0.342221    0.431284    0.572168    11.00000    0.01914    0.01627 =
         0.02017   -0.00038    0.00595   -0.00214
C6    1    0.499722    0.253519    0.583878    11.00000    0.01963    0.01834 =
         0.01950    0.00145    0.00413   -0.00091
C7    1    0.494268    0.151749    0.488050    11.00000    0.03019    0.01951 =
         0.02393   -0.00109   -0.00051    0.00410
AFIX 137
H7A   2    0.619031    0.116952    0.519223    11.00000   -1.50000
H7B   2    0.460880    0.169544    0.373315    11.00000   -1.50000
H7C   2    0.399330    0.102257    0.509000    11.00000   -1.50000
AFIX   0
C5    1    0.388190    0.570732    0.766248    11.00000    0.03740    0.02132 =
         0.02032   -0.00385    0.00990   -0.00583
C4    1    0.432274    0.467336    0.727433    11.00000    0.02883    0.01972 =
         0.01941   -0.00016    0.00568   -0.00179
AFIX  43
H4    2    0.519348    0.422976    0.802415    11.00000   -1.20000
AFIX   0
HKLF 4

REM  HDF_R73_FI_Abs_a.res in P2(1)/n
REM R1 =  0.0400 for    1658 Fo > 4sig(Fo)  and  0.0514 for all    2070 data
REM    119 parameters refined using      0 restraints

END

WGHT      0.0560      0.2986

REM Instructions for potential hydrogen bonds
EQIV $1 x-1/2, -y+1/2, z-1/2
HTAB N2 O1_$1
EQIV $2 -x+1/2, y-1/2, -z+1/2
HTAB C7 F1_$2
EQIV $3 -x+1, -y+1, -z+2
HTAB C4 F3_$3
HTAB C4 O1

REM Highest difference peak  0.323,  deepest hole -0.277,  1-sigma level  0.056
Q1    1   0.4134  0.5198  0.7372  11.00000  0.05    0.32
Q2    1   0.2713  0.4682  0.5221  11.00000  0.05    0.31
;
_shelx_res_checksum              76497
_shelx_hkl_file
;
   1   0   0    0.70    0.30
   1   0   0    1.00    0.50
   1   0   0    0.10    0.20
   1   0   0    0.50    0.40
  -1   0   0    0.10    0.30
   2   0   0 1355.66   37.50
  -2   0   0 1309.47   37.10
   2   0   0 1370.76   36.90
   2   0   0 1367.46   37.50
  -3   0   0    0.10    0.50
   3   0   0   -1.40    0.60
   3   0   0   -0.50    0.70
   3   0   0    0.70    0.60
  -4   0   0  117.09    4.70
   4   0   0  113.79    4.40
   4   0   0  116.89    5.50
   4   0   0  115.29    5.30
   5   0   0    0.20    1.20
   5   0   0   -0.90    1.10
   5   0   0    0.70    0.80
  -5   0   0   -0.30    1.00
  -6   0   0    8.30    1.90
   6   0   0    7.40    1.80
   6   0   0    9.70    2.70
   6   0   0    3.70    1.90
   7   0   0   -0.50    1.60
  -7   0   0    1.60    1.50
   7   0   0    4.10    2.10
   8   0   0   95.39    6.80
   8   0   0   98.49    7.10
   9   0   0    0.30    3.40
   9   0   0   -3.70    2.60
  -9   0   0    3.80    3.30
   0  -1   0    0.60    0.20
   0  -1   0    0.00    0.20
   0  -1   0    0.00    0.20
   0   1   0   -0.20    0.10
   0   1   0   -0.30    0.20
   0   1   0    0.50    0.30
   1  -1   0  225.38    6.70
   1  -1   0  225.58    6.70
  -1  -1   0  221.08    6.70
   1  -1   0  224.68    6.80
  -1   1   0  221.48    6.70
   1   1   0  223.28    6.70
   1   1   0  228.28    6.80
   2  -1   0   49.00    2.10
   2  -1   0   49.70    2.50
   2  -1   0   44.30    2.10
   2  -1   0   46.20    2.40
  -2  -1   0   43.30    2.20
   2   1   0   48.50    2.40
  -2   1   0   45.30    2.10
   2   1   0   48.30    2.70
   2   1   0   45.80    1.70
   3  -1   0  110.89    4.70
   3  -1   0  110.19    4.10
  -3  -1   0  103.69    4.20
   3  -1   0  102.19    4.60
   3  -1   0  104.59    4.10
   3   1   0  104.99    4.70
   3   1   0  102.69    3.50
  -3   1   0  110.49    4.10
   3   1   0   99.59    4.50
   4  -1   0    0.20    0.80
   4  -1   0   -0.70    0.80
   4  -1   0   -0.10    0.90
  -4  -1   0    0.20    0.70
   4   1   0   -0.10    0.60
   4   1   0   -0.80    0.80
   4   1   0   -1.50    1.20
  -4   1   0   -0.70    0.70
  -5  -1   0   21.70    2.50
   5  -1   0   17.70    2.90
   5  -1   0   21.40    2.90
   5  -1   0   21.20    2.20
   5   1   0   17.80    2.70
   5   1   0   21.30    3.00
  -5   1   0   18.30    2.10
   5   1   0   16.30    1.60
   6  -1   0   43.20    4.60
  -6  -1   0   44.80    3.50
   6  -1   0   46.20    3.20
   6  -1   0   48.00    4.80
   6   1   0   39.60    4.40
   6   1   0   48.80    5.00
  -6   1   0   54.29    3.40
  -7  -1   0    4.30    1.90
   7  -1   0    6.90    2.90
   7  -1   0    3.70    2.10
  -7   1   0    5.50    1.80
   7   1   0    3.40    2.60
   7   1   0    4.80    2.90
   8  -1   0   48.50    5.80
   8  -1   0   51.09    5.70
  -8   1   0   43.80    5.20
   8   1   0   45.40    5.60
   8   1   0   42.30    5.60
   9  -1   0   12.90    3.70
   9  -1   0    6.80    3.60
  -9   1   0   11.80    3.20
   9   1   0    9.60    3.30
   9   1   0    6.20    3.50
   0  -2   0  232.58    6.80
   0  -2   0  223.58    6.70
   0   2   0  224.18    6.80
   0   2   0  230.18    6.70
   1  -2   0  664.03   19.20
   1  -2   0  682.03   19.20
  -1  -2   0  694.33   18.40
  -1  -2   0  667.93   19.20
   1   2   0  689.53   19.20
  -1   2   0  665.53   19.00
   1   2   0  677.33   18.40
  -1   2   0  689.63   19.10
   1   2   0  673.63   19.10
  -2  -2   0  747.93   21.70
   2  -2   0  786.32   21.80
   2  -2   0  767.22   21.30
   2  -2   0  750.92   21.80
   2  -2   0  739.03   21.60
   2   2   0  750.92   21.90
   2   2   0  762.32   21.80
  -2   2   0  753.72   21.60
   3  -2   0    3.60    1.20
  -3  -2   0    4.60    1.30
   3  -2   0    4.80    1.30
   3  -2   0    5.40    1.10
   3  -2   0    5.20    1.10
  -3   2   0    2.90    1.00
   3   2   0    3.60    1.10
   3   2   0    4.80    1.30
  -4  -2   0  106.59    4.80
   4  -2   0   92.79    4.40
   4  -2   0  105.59    5.10
   4  -2   0  106.99    4.50
   4  -2   0  112.99    5.20
   4   2   0  115.49    5.60
  -4   2   0  106.89    5.00
   4   2   0  109.29    5.20
  -4   2   0  104.29    4.30
   5  -2   0  660.13   21.10
   5  -2   0  646.54   20.10
  -5  -2   0  648.64   20.30
   5  -2   0  657.53   21.10
  -5   2   0  656.33   19.70
  -5   2   0  667.93   20.90
   5   2   0  657.43   21.10
   5   2   0  664.73   21.40
  -6  -2   0    1.60    1.20
   6  -2   0   -0.80    2.00
   6  -2   0    0.90    1.30
   6  -2   0    4.30    2.40
   6   2   0    1.10    2.20
   6   2   0    0.20    1.40
  -6   2   0   -1.40    1.70
  -6   2   0    1.20    1.20
  -7  -2   0   14.60    2.80
   7  -2   0   18.10    3.80
   7  -2   0   16.80    3.30
   7   2   0   16.60    3.80
   7   2   0   19.50    3.50
  -7   2   0   22.80    3.80
  -8  -2   0   33.60    4.00
   8  -2   0   21.60    4.00
   8  -2   0   27.20    4.80
   8   2   0   24.60    4.60
   8   2   0   28.60    5.10
  -8   2   0   21.70    4.20
   9  -2   0   14.00    4.20
   9  -2   0   12.70    3.60
   9   2   0    9.20    4.10
   9   2   0   17.50    4.40
  -9   2   0    8.80    3.20
   0  -3   0    0.10    0.60
   0  -3   0   -0.20    0.60
   0   3   0    0.60    0.70
   0   3   0    2.40    0.80
   1  -3   0   79.99    3.50
  -1  -3   0   78.59    2.70
  -1  -3   0   79.89    3.40
  -1   3   0   77.49    3.20
   1   3   0   73.99    3.40
  -1   3   0   78.89    3.00
   1   3   0   76.49    3.20
   2  -3   0  109.89    4.50
  -2  -3   0  111.09    4.60
   2  -3   0  116.69    4.60
   2  -3   0  119.19    4.50
   2  -3   0  107.19    4.10
   2   3   0  112.09    4.60
   2   3   0  110.09    4.60
  -2   3   0  108.49    4.40
  -2   3   0  114.89    4.30
   3  -3   0 1461.65   41.20
   3  -3   0 1476.85   41.10
   3  -3   0 1399.66   40.90
   3  -3   0 1456.45   40.40
  -3  -3   0 1452.85   41.00
   3   3   0 1432.66   41.20
  -3   3   0 1485.35   41.00
   3   3   0 1449.85   41.30
   4  -3   0  100.39    5.20
   4  -3   0  115.89    4.70
   4  -3   0  122.09    5.50
   4  -3   0  115.09    5.10
  -4  -3   0  110.59    5.20
  -4   3   0  100.39    5.00
   4   3   0  108.69    5.50
  -4   3   0  115.19    4.50
   4   3   0  101.79    5.30
   5  -3   0    1.40    1.40
   5  -3   0    5.70    1.80
   5  -3   0    4.30    1.40
   5  -3   0    3.20    1.30
  -5  -3   0    3.20    1.60
  -5   3   0    4.20    1.20
   5   3   0    5.80    1.80
  -5   3   0    3.50    1.40
   5   3   0    0.90    1.40
   6  -3   0   -0.20    1.50
  -6  -3   0    0.70    1.50
   6  -3   0   -0.80    1.30
   6  -3   0    0.10    0.70
   6   3   0    0.20    1.60
  -6   3   0   -0.20    1.00
   6   3   0    1.30    1.60
  -6   3   0   -0.10    1.30
   7  -3   0   37.40    4.90
   7  -3   0   36.20    4.60
   7  -3   0   42.30    4.20
  -7  -3   0   42.10    4.30
   7   3   0   35.60    4.70
  -7   3   0   40.40    4.50
   7   3   0   41.70    4.80
  -8  -3   0    6.60    2.40
   8  -3   0    2.60    3.10
   8  -3   0    7.20    3.30
  -8   3   0    5.00    3.00
   8   3   0    4.10    3.10
   8   3   0    1.70    2.30
   9  -3   0  125.69    8.80
   9  -3   0  127.89    9.10
  -9   3   0  130.79    8.70
   9   3   0  110.09    8.00
   9   3   0  104.39    8.20
   0  -4   0  172.18    6.00
   0  -4   0  173.78    5.90
   0   4   0  168.48    6.00
   0   4   0  174.48    5.80
  -1  -4   0  182.18    5.80
   1  -4   0  182.28    6.20
  -1  -4   0  190.48    6.50
   1  -4   0  187.08    6.50
  -1   4   0  177.18    6.30
   1   4   0  174.28    6.20
  -1   4   0  180.58    6.10
   1   4   0  184.58    6.40
   2  -4   0   22.60    2.20
  -2  -4   0   25.90    2.30
  -2  -4   0   27.70    1.20
   2  -4   0   23.70    1.70
   2  -4   0   30.50    2.20
  -2   4   0   27.10    2.00
   2   4   0   27.20    1.20
  -2   4   0   31.40    2.20
   2   4   0   25.80    2.50
   2   4   0   26.10    2.40
  -3  -4   0  267.57    9.20
   3  -4   0  266.77    8.50
   3  -4   0  248.68    9.00
   3  -4   0  265.77    9.20
   3  -4   0  259.97    9.30
  -3   4   0  245.38    8.80
   3   4   0  250.77    9.20
  -3   4   0  249.38    9.00
   3   4   0  248.18    9.20
   4  -4   0  422.06   14.10
   4  -4   0  422.26   13.10
  -4  -4   0  421.06   13.90
   4  -4   0  407.26   14.10
   4  -4   0  415.26   13.90
   4   4   0  409.06   14.20
   4   4   0  428.06   14.30
  -4   4   0  417.46   13.80
  -4   4   0  400.26   13.80
  -5  -4   0   59.79    3.90
   5  -4   0   56.79    3.50
   5  -4   0   56.89    4.10
   5  -4   0   61.19    4.00
   5  -4   0   68.09    4.80
  -5   4   0   63.89    3.40
   5   4   0   59.49    4.50
  -5   4   0   58.59    4.00
   5   4   0   64.89    4.50
   6  -4   0   24.10    3.10
  -6  -4   0   17.60    2.90
   6  -4   0   24.40    3.40
   6  -4   0   25.80    3.60
   6  -4   0   24.00    3.50
  -6   4   0   20.90    2.50
  -6   4   0   22.40    3.20
   6   4   0   24.20    3.50
   6   4   0   14.60    2.90
   7  -4   0    0.50    0.90
   7  -4   0    3.40    2.10
   7  -4   0   -0.20    1.70
  -7  -4   0    2.70    1.70
   7   4   0    1.70    1.80
   7   4   0    2.20    2.60
  -7   4   0    4.70    2.00
  -8  -4   0   22.90    3.80
   8  -4   0   31.40    5.10
   8  -4   0   30.40    5.00
  -8   4   0   32.20    4.40
   8   4   0   24.70    4.20
  -8   4   0   30.30    4.60
   8   4   0   29.40    4.70
   9  -4   0    3.00    3.50
   9  -4   0    1.60    3.30
   9   4   0   -2.40    2.20
  -9   4   0    2.60    2.90
  -9   4   0    3.30    2.70
   9   4   0   -1.30    2.70
   0  -5   0   -0.10    0.70
   0  -5   0    0.30    0.70
   0   5   0    1.60    1.00
   0   5   0    0.00    1.10
   1  -5   0  667.63   20.00
   1  -5   0  660.23   19.70
  -1  -5   0  677.63   20.00
  -1  -5   0  689.43   19.20
  -1   5   0  696.43   19.60
   1   5   0  677.63   20.00
  -1   5   0  645.04   19.80
   1   5   0  658.63   19.70
  -2  -5   0 1215.78   32.80
  -2  -5   0 1233.48   34.50
   2  -5   0 1187.38   34.40
   2  -5   0 1171.08   33.70
   2   5   0 1177.38   34.20
   2   5   0 1206.68   34.40
  -2   5   0 1184.88   33.80
  -2   5   0 1194.78   34.20
   3  -5   0   86.19    4.50
   3  -5   0   79.09    3.90
   3  -5   0   92.79    4.60
  -3  -5   0   91.69    4.60
  -3   5   0   95.99    4.30
   3   5   0   86.39    4.50
  -3   5   0   87.79    4.40
   3   5   0   84.19    4.50
   4  -5   0  172.98    6.50
   4  -5   0  163.88    7.30
   4  -5   0  160.48    7.30
  -4  -5   0  163.68    7.30
  -4   5   0  172.98    7.00
   4   5   0  176.28    7.50
  -4   5   0  160.08    7.10
   4   5   0  172.38    7.50
   5  -5   0   21.60    3.00
   5  -5   0   21.90    2.50
  -5  -5   0   24.00    3.10
   5  -5   0   17.20    2.70
   5  -5   0   18.10    3.30
   5   5   0   16.40    3.20
   5   5   0   18.00    2.90
  -5   5   0   20.30    2.90
  -5   5   0   21.50    3.00
   6  -5   0  189.78    9.10
   6  -5   0  202.88    8.70
   6  -5   0  184.48    9.00
  -6  -5   0  187.68    8.60
  -6   5   0  182.78    8.70
   6   5   0  190.28    9.50
  -6   5   0  192.48    8.80
   6   5   0  194.28    9.20
   7  -5   0    0.10    1.40
   7  -5   0    0.10    2.50
  -7  -5   0   -0.10    1.50
   7  -5   0    1.40    2.60
  -7   5   0    0.30    1.60
  -7   5   0   -0.70    2.10
   7   5   0    0.70    1.70
   7   5   0   -0.40    1.70
  -8  -5   0   -1.70    2.00
   8  -5   0   -0.90    1.90
   8  -5   0   -1.60    1.80
   8   5   0   -0.50    2.10
  -8   5   0   -2.60    1.40
  -8   5   0    1.50    1.80
   8   5   0   -1.20    1.80
   9  -5   0    3.90    3.50
   9  -5   0   -1.30    2.90
   9   5   0    5.80    2.90
  -9   5   0    4.90    3.50
   9   5   0    2.20    2.60
  -9   5   0    8.00    3.30
   0  -6   0  138.19    5.40
   0  -6   0  127.49    5.50
   0   6   0  135.79    5.30
   0   6   0  137.29    5.60
   1  -6   0  739.53   21.60
  -1  -6   0  725.63   21.80
   1  -6   0  735.83   21.80
  -1  -6   0  713.43   21.00
   1   6   0  732.23   21.80
  -1   6   0  713.63   21.70
  -1   6   0  724.43   21.20
   1   6   0  725.63   21.50
  -2  -6   0   39.90    3.00
   2  -6   0   38.30    3.50
  -2  -6   0   43.00    2.10
  -2   6   0   41.20    2.90
   2   6   0   44.60    3.10
  -2   6   0   49.40    2.90
   2   6   0   43.80    3.20
   3  -6   0    1.40    1.20
  -3  -6   0    3.50    1.40
   3  -6   0   -0.50    0.90
   3  -6   0    2.50    1.10
  -3   6   0    1.50    1.10
   3   6   0   -0.20    1.00
   3   6   0    1.20    0.40
   3   6   0    1.50    1.20
  -3   6   0    2.90    1.10
  -4  -6   0   10.10    2.30
   4  -6   0   11.20    2.60
   4  -6   0    6.50    1.90
   4  -6   0    7.20    1.60
   4   6   0    6.30    1.90
   4   6   0    6.10    2.10
  -4   6   0    4.70    1.90
  -4   6   0    8.20    2.00
   5  -6   0    9.40    2.00
  -5  -6   0    9.40    2.30
   5  -6   0    7.60    2.50
   5  -6   0    5.20    2.40
   5   6   0    9.30    2.30
   5   6   0    8.70    2.30
  -5   6   0    8.00    2.40
  -5   6   0    9.70    2.40
   6  -6   0  114.79    6.50
   6  -6   0  104.99    7.00
  -6  -6   0  101.39    6.20
   6   6   0  103.79    7.00
   6   6   0  116.99    6.90
  -6   6   0  113.99    6.30
  -6   6   0  114.69    6.70
   7  -6   0   22.30    3.50
  -7  -6   0   22.30    4.00
   7  -6   0   21.40    3.90
   7   6   0   19.60    3.80
  -7   6   0   23.80    3.70
  -7   6   0   25.00    3.80
   7   6   0   16.10    3.80
  -8  -6   0    0.30    1.90
   8  -6   0    2.00    2.40
   8  -6   0    2.80    2.00
  -8   6   0    2.60    2.10
   8   6   0   -0.80    2.10
   8   6   0    4.20    3.20
  -8   6   0    4.90    2.30
   9  -6   0    4.00    3.80
   9   6   0    6.60    3.90
  -9   6   0    8.40    3.40
  -9   6   0    8.50    3.50
   9   6   0    7.80    3.40
   0  -7   0   -0.80    0.60
   0  -7   0   -1.00    1.10
   0   7   0    0.40    1.00
   0   7   0    1.60    1.10
  -1  -7   0 1018.40   28.80
  -1  -7   0  949.80   29.60
   1  -7   0 1014.10   29.40
   1  -7   0 1026.30   29.70
   1   7   0 1028.60   29.70
   1   7   0  985.50   29.20
  -1   7   0 1006.30   29.60
  -1   7   0 1004.30   29.00
   2  -7   0  275.17   10.70
  -2  -7   0  314.77   11.60
   2  -7   0  326.97   11.70
  -2  -7   0  345.37   10.20
  -2   7   0  335.07   11.50
   2   7   0  346.27   11.50
  -2   7   0  339.47   11.00
   2   7   0  326.77   11.70
  -3  -7   0   22.10    2.80
   3  -7   0   23.00    2.50
   3  -7   0   20.20    2.80
  -3   7   0   18.00    2.40
  -3   7   0   21.20    2.80
   3   7   0   18.90    2.70
   3   7   0   21.10    1.40
   3   7   0   25.20    2.90
   4  -7   0  408.46   14.80
  -4  -7   0  440.76   15.00
   4  -7   0  413.86   14.80
   4  -7   0  421.26   13.60
   4   7   0  395.96   14.70
  -4   7   0  420.46   14.20
  -4   7   0  400.06   14.40
   4   7   0  400.36   14.80
   5  -7   0    2.70    1.90
  -5  -7   0    2.80    1.70
   5  -7   0    2.70    1.40
   5  -7   0    3.90    1.90
   5   7   0    4.10    2.00
  -5   7   0    2.30    1.70
   5   7   0    2.40    1.90
  -5   7   0    1.30    1.70
   6  -7   0   32.20    4.30
  -6  -7   0   26.70    4.10
   6  -7   0   30.20    4.30
  -6   7   0   27.40    3.60
   6   7   0   20.60    4.00
   6   7   0   27.20    4.00
  -6   7   0   31.80    4.00
  -7  -7   0   24.00    3.80
   7  -7   0   21.20    4.40
   7  -7   0   18.40    3.40
   7   7   0   20.20    3.90
  -7   7   0   21.30    3.80
   7   7   0   25.90    4.30
  -7   7   0   25.30    4.20
   8  -7   0    0.70    2.30
  -8  -7   0    3.80    2.70
   8  -7   0   -2.10    1.60
   8   7   0   -2.10    2.00
  -8   7   0   -1.60    1.40
  -8   7   0   -3.60    1.30
   8   7   0    0.80    2.20
   0  -8   0  218.48    8.50
   0  -8   0  211.88    8.00
   0   8   0  203.18    7.90
   0   8   0  216.58    8.50
  -1  -8   0  329.07   10.70
   1  -8   0  306.17   11.10
  -1  -8   0  320.77   11.50
   1  -8   0  316.07   11.40
   1   8   0  325.87   11.10
   1   8   0  319.27   11.50
  -1   8   0  321.27   10.90
  -1   8   0  310.57   11.30
  -2  -8   0    2.80    1.10
  -2  -8   0    3.70    1.50
   2  -8   0    4.50    1.60
   2  -8   0    1.20    1.30
  -2   8   0    2.40    1.10
  -2   8   0    3.30    1.80
   2   8   0    3.00    1.50
   2   8   0    4.20    1.40
  -3  -8   0  337.77   12.70
   3  -8   0  346.57   11.80
   3  -8   0  343.17   12.80
   3   8   0  325.57   12.50
  -3   8   0  343.27   12.50
   3   8   0  330.27   12.30
  -3   8   0  345.47   11.90
  -4  -8   0  306.17   12.00
   4  -8   0  282.17   11.80
   4  -8   0  306.57   10.90
  -4   8   0  320.97   11.90
   4   8   0  295.97   12.00
   4   8   0  311.77   12.10
  -4   8   0  297.87   11.20
  -5  -8   0  174.88    8.80
   5  -8   0  168.18    8.80
  -5   8   0  176.08    8.10
   5   8   0  201.98    9.10
  -5   8   0  181.88    8.70
   5   8   0  170.88    8.90
   6  -8   0    3.50    2.30
   6  -8   0    3.40    2.00
  -6  -8   0    0.40    1.80
   6   8   0    1.80    2.00
   6   8   0    2.00    2.70
  -6   8   0    3.20    2.40
  -6   8   0   -0.10    2.00
   7  -8   0   24.10    4.50
   7  -8   0   20.50    4.40
  -7  -8   0   25.50    4.50
   7   8   0   22.20    4.10
  -7   8   0   22.60    4.00
   7   8   0   20.40    4.40
  -7   8   0   22.90    4.30
   8  -8   0   20.70    4.90
   8  -8   0   14.00    4.00
  -8  -8   0   13.90    3.40
  -8   8   0   18.10    4.10
   8   8   0   18.60    4.10
  -8   8   0   10.80    3.50
   8   8   0   20.50    4.40
   0  -9   0    0.60    1.50
   0  -9   0    0.20    0.90
   0   9   0   -0.40    0.80
   0   9   0    0.60    1.10
   1  -9   0  200.18    8.50
  -1  -9   0  205.38    7.80
   1  -9   0  205.28    8.40
  -1  -9   0  203.98    8.70
   1   9   0  200.08    8.10
  -1   9   0  200.78    8.00
   1   9   0  199.38    8.50
  -1   9   0  198.98    8.40
  -2  -9   0  188.48    7.00
   2  -9   0  193.38    8.40
   2  -9   0  186.68    7.90
  -2  -9   0  195.88    8.50
  -2   9   0  188.68    7.70
   2   9   0  181.58    8.40
  -2   9   0  197.68    8.50
   2   9   0  191.18    8.00
  -3  -9   0  732.53   24.00
   3  -9   0  741.23   24.20
   3  -9   0  745.83   23.10
  -3   9   0  742.83   23.00
  -3   9   0  731.53   23.70
   3   9   0  751.92   23.70
   3   9   0  748.73   24.10
   4  -9   0   90.49    5.70
   4  -9   0   79.99    4.80
  -4  -9   0   77.09    5.40
  -4   9   0   70.59    4.80
   4   9   0   84.99    5.40
   4   9   0   75.09    5.30
  -4   9   0   77.29    5.20
   5  -9   0    2.20    1.90
  -5  -9   0    1.70    1.80
  -5   9   0    2.80    1.90
   5   9   0    6.30    2.80
  -5   9   0    3.30    1.70
   5   9   0    2.40    2.10
  -6  -9   0   33.60    4.50
   6  -9   0   35.90    4.70
  -6   9   0   27.30    4.30
   6   9   0   29.30    4.40
  -6   9   0   27.90    3.80
   6   9   0   30.40    4.50
  -7  -9   0   -1.20    1.60
   7  -9   0    0.40    1.90
  -7   9   0    1.60    2.10
  -7   9   0    0.50    1.60
   7   9   0    2.40    3.10
   7   9   0    0.70    2.10
   8  -9   0   -1.00    2.80
  -8  -9   0    3.10    3.00
  -8   9   0    0.80    2.70
  -8   9   0    1.20    2.90
   8   9   0    2.00    3.30
   8   9   0   -0.70    2.00
   0 -10   0  118.99    5.80
   0 -10   0   92.99    5.60
   0  10   0  117.59    5.60
   0  10   0  110.79    6.00
  -1 -10   0   21.50    2.50
   1 -10   0   20.00    3.10
  -1 -10   0   21.00    3.30
   1 -10   0   18.00    2.70
   1  10   0   10.70    2.70
  -1  10   0   15.80    2.40
   1  10   0   14.50    2.50
  -1  10   0   20.50    3.00
  -2 -10   0   85.59    5.50
  -2 -10   0   87.89    4.50
   2 -10   0   81.59    5.40
   2 -10   0  100.59    5.40
   2  10   0   93.39    5.70
   2  10   0   95.49    5.30
  -2  10   0  102.69    5.70
  -2  10   0   83.89    5.00
   3 -10   0  127.89    6.40
   3 -10   0  147.09    7.60
  -3 -10   0  142.29    7.50
  -3  10   0  141.29    7.20
  -3  10   0  144.49    6.70
   3  10   0  140.89    7.40
   3  10   0  133.09    7.20
   4 -10   0    0.60    1.60
   4 -10   0   -0.20    1.40
  -4 -10   0   -1.60    1.30
   4  10   0    0.60    2.10
  -4  10   0   -0.20    1.50
   4  10   0    0.60    2.10
  -4  10   0   -0.60    1.70
  -5 -10   0   43.40    5.30
   5 -10   0   36.50    4.90
  -5  10   0   46.20    4.60
  -5  10   0   47.50    5.00
   5  10   0   35.40    4.70
   5  10   0   45.10    5.60
  -6 -10   0   -2.30    1.30
   6 -10   0    0.10    2.00
   6  10   0   -0.30    1.80
   6  10   0    3.70    2.30
  -6  10   0   -1.20    2.40
  -6  10   0    0.10    2.20
  -7 -10   0    0.90    2.00
   7 -10   0   -0.20    2.10
  -7  10   0    0.40    2.20
   7  10   0   -3.00    2.70
  -7  10   0    1.50    2.60
   7  10   0    0.90    2.30
   0 -11   0    0.70    1.20
   0 -11   0    0.40    1.30
   0  11   0   -0.20    2.00
   0  11   0   -0.40    1.10
  -1 -11   0   37.80    3.50
   1 -11   0   35.70    4.10
  -1 -11   0   37.80    4.20
   1 -11   0   33.50    3.90
  -1  11   0   27.20    3.40
   1  11   0   34.30    4.10
   1  11   0   38.10    4.00
  -1  11   0   31.00    4.10
   2 -11   0   72.49    4.90
  -2 -11   0   73.79    5.40
   2 -11   0   84.99    5.60
  -2 -11   0   78.49    4.40
  -2  11   0   86.99    5.10
   2  11   0   87.59    5.20
  -2  11   0   82.89    5.50
   2  11   0   76.89    5.40
  -3 -11   0   19.10    3.40
   3 -11   0   26.00    3.80
  -3  11   0   19.40    3.60
   3  11   0   15.90    3.10
   3  11   0   19.40    3.40
  -3  11   0   19.20    3.10
   4 -11   0    3.70    2.80
  -4 -11   0    8.10    2.60
  -4  11   0    6.10    2.10
   4  11   0    4.00    2.10
   4  11   0    5.10    2.10
  -4  11   0    9.00    2.70
  -5 -11   0    2.00    2.20
   5 -11   0    3.20    3.10
  -5  11   0    0.90    2.00
   5  11   0    1.70    2.00
  -5  11   0    4.00    2.30
   5  11   0    1.60    2.20
  -6 -11   0    6.40    3.40
   6 -11   0    4.30    3.30
   6  11   0   11.40    3.90
  -6  11   0    4.00    3.00
   6  11   0   11.30    3.20
  -6  11   0    7.30    2.70
  -7 -11   0  108.69    8.20
   7 -11   0  100.59    7.70
   7  11   0   99.69    7.80
   7  11   0  113.79    8.10
  -7  11   0  109.69    7.60
  -7  11   0   94.39    6.70
   0 -12   0  280.17   11.90
   0 -12   0  297.77   11.60
   0  12   0  285.77   12.20
   0  12   0  293.87   11.30
  -1 -12   0   32.00    3.50
  -1 -12   0   40.50    4.60
   1 -12   0   33.00    4.10
   1 -12   0   37.00    4.20
   1  12   0   39.20    4.00
  -1  12   0   38.30    4.50
   1  12   0   39.90    4.80
  -1  12   0   47.50    4.50
   2 -12   0   22.80    3.60
  -2 -12   0   17.00    3.60
   2 -12   0   18.00    3.30
  -2  12   0   24.00    3.40
   2  12   0   19.10    3.20
  -2  12   0   21.50    3.60
   2  12   0   20.10    3.90
  -3 -12   0   41.20    5.30
   3 -12   0   46.10    5.10
   3  12   0   41.80    4.70
  -3  12   0   41.00    4.80
  -3  12   0   51.29    4.80
   3  12   0   45.30    5.40
  -4 -12   0    1.80    2.10
   4 -12   0    3.40    3.00
   4  12   0   -1.80    1.30
  -4  12   0    1.20    2.10
  -4  12   0   -1.20    1.70
   4  12   0    2.50    2.90
  -5 -12   0   -2.80    2.40
   5 -12   0    0.40    2.10
  -5  12   0   -2.80    1.80
   5  12   0   -0.50    2.00
   5  12   0    2.20    2.70
  -5  12   0    2.20    2.30
   6 -12   0   25.10    4.60
  -6 -12   0   17.80    4.00
   6  12   0   28.30    5.10
   6  12   0   20.10    4.20
  -6  12   0   19.50    4.50
   0 -13   0    1.90    1.90
   0 -13   0    1.60    1.60
   0  13   0   -0.90    1.60
   0  13   0    2.10    1.90
   1 -13   0   -1.20    1.60
   1 -13   0    1.00    2.30
  -1 -13   0   -0.40    1.50
  -1 -13   0    3.70    2.00
  -1  13   0   -0.20    1.70
  -1  13   0    0.00    1.30
   1  13   0   -0.80    1.90
   1  13   0    1.30    2.00
   2 -13   0   25.30    3.90
   2 -13   0   23.50    3.60
  -2 -13   0   26.20    4.20
   2  13   0   19.00    3.70
   2  13   0   30.60    3.90
  -2  13   0   28.20    4.10
  -2  13   0   30.10    3.90
  -3 -13   0  252.97   11.70
   3 -13   0  230.58   11.20
  -3  13   0  245.48   10.20
   3  13   0  238.88   11.60
   3  13   0  214.48   10.50
  -3  13   0  214.08   10.80
   4 -13   0    1.20    2.40
  -4 -13   0    4.30    3.00
   4  13   0    3.90    3.10
  -4  13   0    1.30    2.30
  -4  13   0    3.10    2.90
   4  13   0    1.50    1.90
   5 -13   0   77.99    7.60
  -5 -13   0   77.59    7.50
  -5  13   0   87.29    7.60
   5  13   0   70.49    7.10
   5  13   0   53.39    6.40
   6 -13   0   24.70    4.80
  -6 -13   0   25.30    4.70
   6  13   0   25.00    5.00
   6  13   0   21.00    4.90
  -6  13   0   11.40    4.10
   0 -14   0   56.59    5.30
   0 -14   0   49.20    5.50
   0  14   0   55.69    6.00
   0  14   0   51.79    5.10
   1 -14   0    0.10    1.70
  -1 -14   0    0.70    1.90
   1 -14   0   -0.20    2.30
  -1  14   0   -1.80    1.80
  -1  14   0   -3.40    1.70
   1  14   0   -2.20    2.60
   1  14   0   -1.90    1.90
   2 -14   0  165.48    9.00
  -2 -14   0  177.08    9.60
   2 -14   0  168.08    9.20
   2  14   0  183.58    9.70
  -2  14   0  165.08    9.20
   2  14   0  163.18    8.70
  -2  14   0  162.48    8.50
  -3 -14   0    0.80    2.00
   3 -14   0    1.30    2.30
   3  14   0   -1.60    1.90
  -3  14   0   -1.10    2.90
   3  14   0    0.30    1.70
  -4 -14   0    0.40    2.10
   4 -14   0    2.80    2.70
  -4  14   0    6.60    2.90
   4  14   0    5.20    3.30
   4  14   0    5.60    3.10
  -5 -14   0    7.30    3.10
   5 -14   0    6.20    3.20
   5  14   0    7.60    3.20
  -5  14   0    3.90    3.50
   5  14   0    6.40    3.30
   0 -15   0   -1.20    2.10
   0 -15   0    3.20    2.20
   0  15   0    2.00    2.20
  -1 -15   0   -0.40    2.50
   1 -15   0    1.40    2.00
   1 -15   0    2.00    2.50
  -1  15   0   -2.10    1.70
   1  15   0    3.50    2.50
   1  15   0   -1.30    2.10
   2 -15   0   11.90    3.90
  -2 -15   0   15.90    3.60
   2 -15   0   23.30    3.90
  -2  15   0   20.90    4.00
   2  15   0   17.20    3.20
   2  15   0   17.70    4.50
   3 -15   0   23.30    4.50
  -3 -15   0   21.30    4.80
  -3  15   0   20.90    4.20
   3  15   0   20.30    4.10
   3  15   0   25.20    4.60
   4 -15   0    4.30    2.90
  -4 -15   0    2.10    2.40
   4  15   0   -0.20    3.30
  -4  15   0    3.30    2.70
   4  15   0    3.20    2.80
   0 -16   0    3.70    2.50
   0 -16   0    0.70    2.70
   0  16   0    4.90    2.70
  -1 -16   0   -1.10    2.80
   1 -16   0   -1.20    1.70
   1 -16   0   -1.90    1.70
   1  16   0    2.70    2.60
  -1  16   0    1.20    2.40
  -2 -16   0   23.80    5.00
   2 -16   0   29.10    5.10
  -2  16   0   24.50    5.10
   2  16   0   21.80    4.50
   3 -16   0   35.70    5.30
  -3 -16   0   31.10    5.40
   3  16   0   38.50    6.10
  -3  16   0   26.50    4.80
   0 -17   0    1.60    2.40
   0  17   0    1.30    2.70
  -9   0   1   41.60    5.80
   9   0  -1   32.70    5.60
   9   0  -1   33.10    5.30
  -8   0   1    1.60    2.00
   8   0  -1    0.90    2.10
   8   0  -1    0.10    1.90
   7   0  -1  166.68    8.60
   7   0  -1  156.88    8.60
  -7   0   1  162.48    7.10
  -6   0   1   -0.20    1.20
   6   0  -1   -0.60    1.30
   6   0  -1   -0.90    1.00
   6   0  -1   -0.40    1.30
   5   0  -1  196.18    8.30
   5   0  -1  211.88    7.20
  -5   0   1  192.78    7.10
   5   0  -1  190.18    8.30
   4   0  -1    0.40    1.00
  -4   0   1    0.60    0.80
   4   0  -1    1.70    1.10
   4   0  -1   -0.70    0.70
   3   0  -1  253.77    8.60
  -3   0   1  250.97    7.60
   3   0  -1  241.68    8.50
   3   0  -1  241.88    7.80
  -2   0   1    0.20    0.40
   2   0  -1   -0.20    0.70
   2   0  -1   -0.10    0.80
   2   0  -1    0.00    0.30
   1   0  -1   26.00    1.40
   1   0  -1   31.00    1.60
   1   0  -1   29.60    1.10
  -1   0   1   28.00    1.10
  -1   0   1   26.70    1.40
   1   0  -1   26.30    1.40
   0   0  -1   -0.30    0.40
   0   0   1    0.00    0.20
   0   0  -1    0.40    0.30
   0   0   1    1.70    0.50
  -1   0  -1   30.70    1.80
   1   0   1   32.80    1.50
  -1   0  -1   30.50    1.50
   1   0   1   32.90    1.80
   1   0   1   34.70    1.90
  -2   0  -1   -0.20    0.50
   2   0   1   -0.30    0.60
   2   0   1   -0.10    0.70
  -2   0  -1   -0.10    0.60
   2   0   1    0.20    0.80
   2   0   1   -0.60    0.60
   3   0   1  518.65   14.90
   3   0   1  508.45   15.70
   3   0   1  508.05   15.90
  -3   0  -1  509.25   15.50
   3   0   1  510.65   15.60
  -3   0  -1  514.95   14.90
   4   0   1    0.20    1.00
   4   0   1   -1.00    0.80
   4   0   1    0.80    0.80
  -4   0  -1    0.60    0.80
   5   0   1  110.09    4.50
   5   0   1  103.49    5.50
  -5   0  -1  111.59    4.50
   5   0   1   98.79    5.70
  -5   0  -1  111.29    5.30
   6   0   1    0.30    2.00
   6   0   1    0.40    1.50
  -6   0  -1    0.70    1.00
   7   0   1  501.05   18.60
   7   0   1  490.05   18.10
  -7   0  -1  511.85   17.30
   8   0   1    3.20    2.80
   8   0   1    1.10    2.20
   9   0   1    4.60    3.50
   9   0   1    5.20    3.50
   9  -1  -1   74.69    7.50
   9  -1  -1   62.99    7.00
  -9  -1   1   60.39    6.70
   9   1  -1   67.69    7.00
   9   1  -1   62.59    7.10
  -9   1   1   69.99    6.90
   8  -1  -1    4.00    2.40
   8  -1  -1    4.60    2.40
  -8   1   1    2.70    2.10
   8   1  -1    3.70    3.00
   8   1  -1    2.20    2.20
   7  -1  -1   22.30    3.60
   7  -1  -1   24.50    3.80
  -7  -1   1   21.10    2.70
   7   1  -1   23.10    3.70
  -7   1   1   23.80    3.60
   7   1  -1   18.50    3.40
   6  -1  -1    5.70    2.10
  -6  -1   1    2.10    1.30
   6  -1  -1    4.80    1.50
   6  -1  -1    2.30    1.70
   6   1  -1    3.60    1.80
  -6   1   1    2.40    1.50
   6   1  -1    4.10    1.90
  -6   1   1    5.00    1.40
   5  -1  -1  392.46   12.40
  -5  -1   1  377.76   12.30
   5  -1  -1  375.76   13.50
   5  -1  -1  367.16   13.40
  -5   1   1  384.66   11.90
  -5   1   1  372.66   13.30
   5   1  -1  396.16   13.70
   5   1  -1  391.66   13.60
   4  -1  -1  634.44   20.70
  -4  -1   1  683.53   19.80
   4  -1  -1  685.23   19.90
   4  -1  -1  670.03   20.80
  -4   1   1  684.03   19.40
  -4   1   1  660.13   20.60
   4   1  -1  673.03   20.80
   4   1  -1  682.43   20.90
   4   1  -1  697.93   19.30
   3  -1  -1   40.00    2.60
  -3  -1   1   38.90    2.10
   3  -1  -1   26.70    2.00
   3  -1  -1   37.40    2.50
  -3   1   1   36.10    1.70
   3   1  -1   40.90    2.60
   3   1  -1   39.80    1.90
  -3   1   1   31.20    2.30
   3   1  -1   38.40    2.50
   2  -1  -1 9934.81  261.87
   2  -1  -1 9855.01  264.27
   2  -1  -1 9091.09  263.07
  -2  -1   1 9558.74  262.07
   2   1  -1 8970.60  262.47
  -2   1   1 9724.83  259.97
  -2   1   1 9774.62  264.67
   2   1  -1 9999.00  264.17
   2   1  -1 9830.92  262.27
  -1  -1   1   46.00    1.90
   1  -1  -1   53.89    2.20
   1  -1  -1   51.39    2.10
   1   1  -1   48.50    2.00
   1   1  -1   47.50    2.00
  -1   1   1   47.80    2.10
   0  -1   1 2869.41   77.59
   0  -1  -1 2729.33   76.79
   0  -1  -1 2827.12   75.79
   0  -1   1 2860.41   77.99
   0   1  -1 2797.92   77.19
   0   1  -1 2890.11   77.09
   0   1   1 2730.83   77.19
   0   1   1 2793.72   98.69
  -1  -1  -1  126.59    4.30
  -1  -1  -1  126.29    3.80
   1  -1   1  123.19    4.30
   1  -1   1  125.49    4.20
   1   1   1  124.09    4.30
  -1   1  -1  123.99    4.20
   1   1   1  126.19    4.40
  -2  -1  -1   60.89    3.00
  -2  -1  -1   64.79    2.30
   2  -1   1   61.09    3.00
   2  -1   1   64.29    2.90
   2  -1   1   62.09    2.80
   2  -1   1   63.39    2.80
   2   1   1   57.49    3.00
   2   1   1   59.59    2.90
  -3  -1  -1  173.78    5.40
   3  -1   1  171.88    6.50
   3  -1   1  174.88    6.10
  -3  -1  -1  170.98    6.40
   3  -1   1  170.88    6.50
   3  -1   1  168.58    6.30
   3   1   1  167.48    6.70
   3   1   1  174.78    6.40
   3   1   1  172.78    5.50
  -3   1  -1  171.28    6.20
  -4  -1  -1   50.39    2.30
   4  -1   1   45.90    3.50
  -4  -1  -1   40.50    3.00
   4  -1   1   48.30    3.20
   4  -1   1   42.90    2.70
   4  -1   1   48.10    3.40
  -4   1  -1   49.40    2.90
   4   1   1   45.00    3.10
   4   1   1   48.30    3.40
   4   1   1   52.89    2.40
   5  -1   1   19.10    2.90
  -5  -1  -1   14.20    2.40
   5  -1   1   12.90    2.40
  -5  -1  -1   14.60    1.50
   5  -1   1   14.60    2.00
   5   1   1   12.70    1.50
   5   1   1   17.70    3.00
   5   1   1   10.90    2.40
  -5   1  -1   14.00    2.20
   6  -1   1   19.50    3.30
   6  -1   1   16.30    2.30
  -6  -1  -1   22.30    3.10
   6  -1   1   19.10    3.50
   6   1   1   11.60    2.90
  -6   1  -1   14.90    2.10
   6   1   1   26.10    3.70
  -6   1  -1   17.30    2.60
  -7  -1  -1   53.59    4.90
   7  -1   1   55.89    5.60
   7  -1   1   52.59    5.50
   7   1   1   56.69    5.90
  -7   1  -1   58.29    4.30
   7   1   1   48.10    5.40
  -8  -1  -1   11.20    2.80
   8  -1   1    7.70    2.80
   8  -1   1   18.70    4.30
   8   1   1    9.00    3.10
   8   1   1    8.30    3.30
   9  -1   1   10.30    3.40
   9  -1   1   12.20    4.00
   9   1   1    3.70    3.30
   9   1   1    3.00    2.80
  -9   1  -1    9.10    3.00
   9  -2  -1   61.99    6.90
   9  -2  -1   58.49    6.90
  -9   2   1   48.70    5.90
   9   2  -1   50.49    6.10
   9   2  -1   44.00    6.00
   8  -2  -1   -1.00    2.60
   8  -2  -1   -0.70    1.90
  -8   2   1   -2.20    1.50
   8   2  -1   -1.00    1.80
   8   2  -1    1.80    2.30
   7  -2  -1   24.10    3.70
   7  -2  -1   22.20    4.00
   7  -2  -1   27.20    3.20
  -7  -2   1   28.60    3.30
  -7   2   1   19.50    3.30
   7   2  -1   23.00    3.80
   7   2  -1   26.60    4.10
  -6  -2   1   30.10    3.10
   6  -2  -1   26.60    3.60
   6  -2  -1   26.00    3.50
   6  -2  -1   30.20    3.20
   6   2  -1   28.40    3.90
  -6   2   1   30.90    3.80
  -6   2   1   30.10    2.30
   6   2  -1   26.60    3.80
  -5  -2   1  243.88    8.90
   5  -2  -1  253.67   10.00
   5  -2  -1  244.28   10.00
   5   2  -1  251.07    9.90
  -5   2   1  258.57    8.30
  -5   2   1  254.07    9.80
   5   2  -1  245.38    9.90
   5   2  -1  250.37    7.80
   4  -2  -1    2.50    1.00
   4  -2  -1    0.70    1.40
   4  -2  -1    1.10    1.10
  -4  -2   1   -0.10    0.90
   4   2  -1   -0.90    0.90
   4   2  -1    2.20    1.30
  -4   2   1    1.20    1.00
   4   2  -1    1.80    0.70
  -4   2   1    1.20    0.70
   3  -2  -1  300.37   10.30
  -3  -2   1  299.77    9.80
   3  -2  -1  307.67   10.40
   3  -2  -1  321.77   10.10
   3  -2  -1  318.17    9.20
   3   2  -1  334.27   10.50
   3   2  -1  309.97   10.40
  -3   2   1  309.07   10.20
  -3   2   1  316.17    9.10
   3   2  -1  304.17    9.10
   2  -2  -1 3785.62   99.49
   2  -2  -1 3702.53   99.69
  -2  -2   1 3603.14   99.09
   2  -2  -1 3563.44   99.39
   2  -2  -1 3700.23   99.29
  -2   2   1 3600.44   99.29
   2   2  -1 3722.63  100.09
   2   2  -1 3637.04   99.29
   2   2  -1 3606.44   99.39
   1  -2  -1 1631.74   45.30
  -1  -2   1 1650.53   45.20
   1  -2  -1 1667.03   45.30
   1  -2  -1 1753.72   45.70
   1   2  -1 1697.53   45.00
  -1   2   1 1725.23   45.30
  -1   2   1 1668.93   45.20
   1   2  -1 1415.86   44.80
   1   2  -1 1671.93   45.30
   0  -2  -1  509.05   14.40
   0  -2   1  488.35   14.50
   0  -2   1  500.85   14.50
   0  -2  -1  510.25   14.30
   0  -2   1  527.75   13.80
   0   2  -1  508.25   13.80
   0   2   1  487.05   14.50
   0   2  -1  518.75   14.50
   0   2   1  514.45   14.30
   0   2  -1  504.55   14.30
   1  -2   1  267.37    7.90
   1  -2   1  272.17    8.10
  -1  -2  -1  265.87    8.30
  -1  -2  -1  275.37    7.60
   1  -2   1  265.37    8.30
   1  -2   1  261.17    8.30
   1   2   1  261.57    8.10
  -1   2  -1  260.47    8.00
  -1   2  -1  267.77    7.80
   1   2   1  266.97    8.40
   2  -2   1  689.63   19.90
   2  -2   1  677.43   20.00
   2  -2   1  700.13   20.00
  -2  -2  -1  696.13   20.10
   2  -2   1  669.63   19.90
  -2  -2  -1  690.23   18.80
   2   2   1  708.93   20.00
   2   2   1  680.03   20.30
   3  -2   1  663.13   19.30
  -3  -2  -1  645.84   17.90
   3  -2   1  666.53   19.40
   3  -2   1  638.24   19.50
  -3  -2  -1  641.34   19.50
   3  -2   1  654.83   19.50
   3   2   1  650.33   19.50
   3   2   1  647.54   19.80
   4  -2   1   87.09    4.50
   4  -2   1   80.69    4.40
  -4  -2  -1   89.59    4.40
  -4  -2  -1   87.79    3.00
   4  -2   1   83.39    4.30
  -4   2  -1   87.19    4.20
   4   2   1   86.29    4.50
   4   2   1   81.79    4.70
   5  -2   1    7.50    2.00
   5  -2   1    6.10    1.40
  -5  -2  -1    6.60    2.00
   5  -2   1    6.30    1.80
  -5   2  -1    6.70    1.70
   5   2   1    6.20    1.90
   5   2   1    7.20    1.90
   6  -2   1    7.70    1.90
   6  -2   1    6.50    2.50
   6  -2   1    5.40    2.10
  -6  -2  -1    6.40    1.80
  -6   2  -1    6.50    1.70
   6   2   1    7.80    2.20
   6   2   1   10.40    2.70
  -7  -2  -1   32.70    4.10
   7  -2   1   29.30    4.10
   7  -2   1   26.90    4.10
   7   2   1   29.80    4.50
  -7   2  -1   23.60    3.60
  -7   2  -1   38.30    3.90
   7   2   1   37.90    4.60
   8  -2   1   89.39    8.10
   8  -2   1   87.09    6.50
  -8  -2  -1   82.99    6.00
  -8   2  -1   89.89    6.90
   8   2   1   89.39    8.40
   8   2   1   97.99    7.20
   9  -2   1  174.08   10.20
   9  -2   1  181.88   10.50
  -9   2  -1  165.98    9.60
   9   2   1  158.58   10.60
   9   2   1  148.99    9.80
   9  -3  -1    7.20    3.80
   9  -3  -1    9.80    3.70
  -9   3   1    8.00    3.60
   9   3  -1   13.10    4.30
   9   3  -1   10.40    3.40
   8  -3  -1   14.70    3.50
   8  -3  -1   13.10    3.40
   8   3  -1   21.80    4.60
  -8   3   1   23.00    4.00
   8   3  -1   15.40    3.50
   7  -3  -1    6.00    2.40
   7  -3  -1    9.00    2.70
   7  -3  -1    5.70    2.00
  -7  -3   1    8.90    2.00
   7   3  -1    6.20    2.40
   7   3  -1    2.50    2.60
  -7   3   1    3.90    2.00
   6  -3  -1  334.27   13.10
   6  -3  -1  331.37   12.20
  -6  -3   1  341.77   12.20
   6  -3  -1  345.77   13.30
   6   3  -1  346.77   13.20
   6   3  -1  345.67   13.30
  -6   3   1  327.27   12.70
  -5  -3   1   -0.40    1.20
   5  -3  -1   -1.40    1.50
   5  -3  -1   -0.60    1.20
   5  -3  -1    0.40    0.90
  -5   3   1   -0.70    1.40
   5   3  -1    0.10    1.80
  -5   3   1    1.10    0.80
   5   3  -1   -0.10    1.20
   4  -3  -1  157.58    6.70
  -4  -3   1  148.89    6.10
   4  -3  -1  153.98    5.30
   4  -3  -1  152.18    6.80
   4  -3  -1  157.48    6.30
   4   3  -1  137.39    6.50
  -4   3   1  151.48    6.40
   4   3  -1  163.68    6.70
  -4   3   1  155.68    5.20
   3  -3  -1  210.38    7.80
  -3  -3   1  217.28    7.70
   3  -3  -1  221.18    8.00
   3  -3  -1  213.38    6.80
   3  -3  -1  223.88    8.20
   3   3  -1  217.58    8.00
  -3   3   1  217.58    7.80
   3   3  -1  229.68    6.50
   3   3  -1  233.98    8.00
   2  -3  -1  406.26   12.50
   2  -3  -1  413.86   11.50
  -2  -3   1  408.46   12.40
   2  -3  -1  404.06   12.60
   2   3  -1  398.86   12.50
  -2   3   1  398.06   12.40
   2   3  -1  390.86   12.30
  -2   3   1  400.56   12.40
   2   3  -1  411.06   11.50
  -1  -3   1  325.67    9.60
   1  -3  -1  323.17   10.00
  -1  -3   1  315.37   10.00
   1  -3  -1  332.77    9.50
  -1   3   1  333.27   10.00
   1   3  -1  322.97    9.70
   1   3  -1  334.87   10.10
  -1   3   1  327.87   10.00
   1   3  -1  320.67    9.60
   0  -3   1    2.50    0.90
   0  -3   1    1.20    0.70
   0  -3  -1    2.40    0.90
   0  -3  -1    3.90    1.00
   0   3  -1    2.60    0.60
   0   3   1    1.00    1.00
   0   3   1    5.00    1.00
   0   3  -1    2.80    1.00
  -1  -3  -1  628.64   17.30
   1  -3   1  615.34   18.20
  -1  -3  -1  620.94   18.10
   1  -3   1  602.44   18.00
  -1   3  -1  634.34   17.50
   1   3   1  631.24   18.20
   1   3   1  631.34   18.00
  -1   3  -1  613.14   17.90
   2  -3   1  704.43   20.30
   2  -3   1  690.33   20.10
  -2  -3  -1  691.53   20.30
  -2  -3  -1  680.93   18.70
   2  -3   1  712.63   20.20
   2   3   1  690.73   20.10
  -2   3  -1  678.23   20.00
   2   3   1  646.04   20.30
  -2   3  -1  689.23   19.70
   3  -3   1  607.34   17.80
  -3  -3  -1  570.04   17.90
   3  -3   1  576.54   17.60
   3  -3   1  573.94   17.80
   3  -3   1  575.04   17.80
   3   3   1  591.64   17.90
  -3   3  -1  604.54   17.60
  -3   3  -1  571.24   17.60
   3   3   1  573.54   18.20
   4  -3   1  137.59    6.10
   4  -3   1  126.19    6.00
   4  -3   1  140.49    6.00
  -4  -3  -1  144.89    6.20
  -4   3  -1  135.49    5.90
   4   3   1  131.09    6.30
   4   3   1  137.89    6.10
  -5  -3  -1    6.70    1.80
   5  -3   1    5.30    1.50
   5  -3   1    4.80    1.80
   5  -3   1    7.50    1.90
   5  -3   1    7.90    2.30
  -5   3  -1    7.30    1.70
  -5   3  -1    8.70    1.90
   5   3   1    4.80    1.80
   5   3   1    7.00    1.90
   6  -3   1   17.50    2.70
   6  -3   1   12.80    2.50
   6  -3   1   10.30    2.50
  -6  -3  -1   12.80    2.50
   6  -3   1   13.00    3.10
  -6   3  -1   11.40    2.70
   6   3   1    9.80    2.40
   6   3   1   13.80    2.90
  -6   3  -1   12.70    2.30
   7  -3   1    5.20    2.70
  -7  -3  -1   -1.90    1.80
   7  -3   1    2.80    2.60
  -7   3  -1    0.80    1.40
   7   3   1   -0.50    1.70
  -7   3  -1    1.00    2.20
   7   3   1    2.30    2.20
   8  -3   1    4.20    3.00
   8  -3   1    6.20    3.50
  -8  -3  -1    7.20    2.20
   8   3   1   10.70    3.40
   8   3   1    9.30    3.30
  -8   3  -1    7.40    3.20
   9  -3   1  115.19    8.60
   9  -3   1  125.69    8.60
   9   3   1  101.59    7.80
  -9   3  -1  126.99    8.20
   9   3   1  119.99    9.30
   9  -4  -1    3.00    3.20
   9  -4  -1    3.40    2.60
   9   4  -1    1.20    3.00
   9   4  -1    1.80    2.60
  -9   4   1    0.40    2.90
  -9   4   1    2.40    2.20
   8  -4  -1   16.90    3.70
  -8  -4   1   11.20    2.90
   8  -4  -1   11.00    3.10
   8   4  -1    8.20    2.90
   8   4  -1   13.10    3.30
  -8   4   1    9.30    2.90
   7  -4  -1   58.49    6.00
  -7  -4   1   57.39    5.10
   7  -4  -1   62.59    5.40
   7  -4  -1   55.29    5.90
   7   4  -1   54.59    5.80
  -7   4   1   54.79    5.50
   7   4  -1   56.39    5.80
   6  -4  -1   28.80    3.80
   6  -4  -1   29.30    3.50
   6  -4  -1   24.70    3.90
  -6  -4   1   31.80    3.40
   6   4  -1   29.60    3.90
  -6   4   1   27.80    3.50
   6   4  -1   21.40    3.70
   5  -4  -1    5.00    1.90
  -5  -4   1    5.10    1.80
   5  -4  -1    4.10    1.20
   5  -4  -1    1.50    1.80
   5  -4  -1    7.50    2.00
   5   4  -1    8.20    2.40
   5   4  -1    6.50    1.90
  -5   4   1    4.70    1.90
  -5   4   1    4.80    1.10
   4  -4  -1    2.20    1.30
   4  -4  -1    1.10    0.80
   4  -4  -1    1.50    1.30
   4  -4  -1    1.30    1.10
  -4  -4   1    1.20    1.30
   4   4  -1    2.60    0.40
  -4   4   1    1.10    1.10
  -4   4   1   -0.30    0.90
   4   4  -1   -0.90    0.80
   4   4  -1    0.60    1.10
   3  -4  -1  670.73   19.00
   3  -4  -1  678.03   20.50
   3  -4  -1  671.03   20.30
  -3  -4   1  689.23   20.30
   3   4  -1  674.53   20.50
  -3   4   1  662.03   20.20
   3   4  -1  665.23   18.50
   3   4  -1  660.33   20.20
  -3   4   1  656.03   20.10
   2  -4  -1  516.35   14.70
  -2  -4   1  511.05   15.60
   2  -4  -1  509.35   15.70
   2  -4  -1  500.55   15.60
  -2   4   1  527.15   15.50
  -2   4   1  500.45   15.60
   2   4  -1  501.65   15.30
   2   4  -1  522.95   14.60
   2   4  -1  505.55   15.70
  -1  -4   1 2952.90   78.89
   1  -4  -1 2923.51   78.89
   1  -4  -1 2829.82   79.29
  -1  -4   1 2919.31   79.49
  -1   4   1 2822.72   79.29
   1   4  -1 2913.81   78.79
   1   4  -1 2946.31   79.39
  -1   4   1 2909.91   79.29
   0  -4   1  720.83   21.00
   0  -4   1  715.93   20.90
   0  -4  -1  714.43   20.60
   0  -4  -1  727.13   20.80
   0   4   1  729.33   21.00
   0   4   1  727.13   20.90
   0   4  -1  732.33   20.90
   0   4  -1  725.53   20.30
   1  -4   1  387.46   12.50
   1  -4   1  400.86   12.40
  -1  -4  -1  404.76   12.50
  -1  -4  -1  401.46   11.60
  -1   4  -1  402.06   11.70
   1   4   1  403.26   12.50
   1   4   1  410.26   12.40
  -1   4  -1  396.06   12.20
   2  -4   1    6.40    1.30
  -2  -4  -1    8.40    1.50
  -2  -4  -1    6.70    0.70
   2  -4   1    9.00    1.50
   2  -4   1    6.90    1.60
   2   4   1    7.40    1.40
  -2   4  -1    7.30    1.20
  -2   4  -1    7.70    1.30
   2   4   1   10.10    1.70
   3  -4   1  258.77    9.20
   3  -4   1  254.37    8.90
   3  -4   1  251.97    9.20
  -3  -4  -1  253.07    9.20
   3  -4   1  252.07    8.90
  -3   4  -1  265.17    8.80
  -3   4  -1  262.97    9.10
   3   4   1  242.98    9.10
   3   4   1  249.88    9.40
   4  -4   1  679.53   21.40
  -4  -4  -1  704.33   21.60
   4  -4   1  729.53   21.70
   4  -4   1  698.23   21.40
  -4   4  -1  675.03   21.20
   4   4   1  674.93   21.50
   4   4   1  688.53   22.00
  -4   4  -1  682.53   21.10
  -5  -4  -1  113.99    6.10
   5  -4   1  116.69    6.20
   5  -4   1  114.49    6.00
   5  -4   1  121.39    6.40
   5  -4   1  104.79    5.50
   5   4   1  103.09    6.40
  -5   4  -1  119.19    5.50
  -5   4  -1  120.19    6.00
   5   4   1  136.89    6.60
  -5   4  -1  116.99    6.00
   6  -4   1    2.90    1.80
   6  -4   1    2.30    1.50
   6  -4   1    1.60    2.30
   6  -4   1    1.30    1.30
  -6  -4  -1    0.90    1.50
  -6   4  -1    2.70    1.60
   6   4   1    0.00    1.50
  -6   4  -1    4.20    2.20
  -6   4  -1    3.80    1.40
   6   4   1    2.30    2.40
  -7  -4  -1   62.69    5.70
   7  -4   1   59.59    5.80
   7  -4   1   61.59    5.90
   7   4   1   55.09    5.90
  -7   4  -1   53.29    5.20
  -7   4  -1   64.09    5.70
   7   4   1   51.49    5.50
   8  -4   1   22.10    4.50
  -8  -4  -1   35.80    4.60
   8  -4   1   27.30    4.80
   8   4   1   39.20    5.40
  -8   4  -1   32.80    4.60
  -8   4  -1   38.90    5.20
   8   4   1   27.20    4.90
   9  -4   1   57.29    6.90
   9  -4   1   59.59    7.10
   9   4   1   64.39    6.90
   9   4   1   45.20    6.50
  -9   4  -1   45.70    5.80
  -9   4  -1   72.19    7.30
   9  -5  -1    2.10    2.50
   9   5  -1    2.40    2.60
  -9   5   1    1.70    3.00
  -9   5   1   -0.80    1.60
   9   5  -1   -0.60    2.00
  -8  -5   1    9.00    2.70
   8  -5  -1   12.60    3.00
   8  -5  -1    9.50    3.20
   8  -5  -1   11.40    3.30
  -8   5   1    8.30    2.70
   8   5  -1   11.40    3.30
  -8   5   1   10.70    3.00
   8   5  -1    7.90    3.50
  -7  -5   1    3.80    1.90
   7  -5  -1    3.70    2.30
   7  -5  -1   11.90    3.00
   7  -5  -1    4.20    2.40
   7   5  -1   11.80    3.10
  -7   5   1    7.10    2.40
  -7   5   1   13.20    3.00
   7   5  -1    8.70    2.80
   6  -5  -1   54.29    5.40
  -6  -5   1   56.49    4.20
   6  -5  -1   59.89    5.40
   6  -5  -1   60.39    5.30
   6   5  -1   54.19    5.40
  -6   5   1   54.79    5.00
   6   5  -1   63.29    5.80
  -6   5   1   53.19    4.90
   5  -5  -1   12.50    2.50
   5  -5  -1   10.10    1.50
   5  -5  -1    8.50    2.00
  -5  -5   1    4.50    1.60
  -5   5   1    6.90    1.90
  -5   5   1   10.20    1.50
   5   5  -1    8.90    2.20
  -5   5   1    6.50    1.80
   5   5  -1    5.10    1.80
  -4  -5   1   -0.60    0.90
   4  -5  -1    1.50    1.30
   4  -5  -1    1.00    1.10
   4  -5  -1    2.40    0.90
  -4   5   1    1.50    1.50
   4   5  -1    0.80    1.20
  -4   5   1    0.60    1.00
   4   5  -1    0.40    1.10
  -3  -5   1    0.20    0.90
   3  -5  -1    0.50    0.90
   3  -5  -1    0.50    0.60
   3  -5  -1    0.70    1.10
   3   5  -1    0.20    0.80
   3   5  -1    0.90    1.00
  -3   5   1    1.10    0.90
   3   5  -1    0.70    0.50
  -3   5   1    1.50    1.00
  -2  -5   1  348.67   12.00
   2  -5  -1  369.36   11.30
  -2  -5   1  375.26   11.00
   2  -5  -1  364.66   12.10
  -2   5   1  376.76   12.00
   2   5  -1  380.56   11.00
   2   5  -1  368.96   12.20
  -2   5   1  370.56   12.00
   2   5  -1  370.86   11.80
  -1  -5   1 2539.65   70.89
   1  -5  -1 2550.34   70.79
  -1  -5   1 2600.04   70.29
   1   5  -1 2565.54   70.79
   1   5  -1 2590.54   70.19
  -1   5   1 2586.14   70.79
  -1   5   1 2550.94   70.59
   0  -5   1 1682.03   46.30
   0  -5  -1 1676.83   46.00
   0  -5  -1 1648.24   46.20
   0  -5   1 1651.73   46.40
   0   5   1 1633.84   46.30
   0   5  -1 1627.24   46.30
   0   5  -1 1672.03   45.60
   0   5   1 1674.73   46.30
  -1  -5  -1  802.42   22.70
   1  -5   1  803.82   23.70
   1  -5   1  819.82   23.60
  -1  -5  -1  797.32   23.60
   1   5   1  795.22   23.60
   1   5   1  803.82   23.50
  -1   5  -1  809.72   22.70
  -1   5  -1  789.92   23.40
  -2  -5  -1  416.06   11.70
  -2  -5  -1  391.96   13.30
   2  -5   1  415.36   13.10
   2  -5   1  395.36   13.30
   2   5   1  413.66   13.20
   2   5   1  402.76   13.30
  -2   5  -1  407.56   13.00
  -2   5  -1  408.86   12.50
   3  -5   1   35.30    2.50
  -3  -5  -1   38.50    2.90
   3  -5   1   36.80    3.30
   3  -5   1   35.70    3.30
  -3   5  -1   33.00    2.50
   3   5   1   37.30    2.90
   3   5   1   35.20    3.40
  -3   5  -1   34.40    3.10
   4  -5   1    5.10    1.50
   4  -5   1    3.40    1.40
   4  -5   1    6.70    1.80
   4  -5   1    4.00    1.90
  -4  -5  -1    5.60    1.90
   4   5   1    6.90    2.10
   4   5   1    6.10    1.80
  -4   5  -1    5.60    1.80
  -4   5  -1    4.40    1.40
   5  -5   1   52.49    3.80
   5  -5   1   50.99    3.90
   5  -5   1   47.40    4.50
   5  -5   1   57.49    5.00
  -5  -5  -1   51.69    4.70
   5   5   1   53.09    4.10
   5   5   1   47.50    4.80
  -5   5  -1   54.79    4.20
  -5   5  -1   46.60    4.30
   6  -5   1   21.20    3.40
   6  -5   1   20.00    3.30
   6  -5   1   19.40    3.30
  -6  -5  -1   21.80    3.30
   6  -5   1   21.60    3.10
   6   5   1   17.50    3.50
  -6   5  -1   18.70    2.70
   6   5   1   18.20    3.50
  -6   5  -1   17.10    2.90
  -6   5  -1   24.20    3.30
   7  -5   1    0.10    2.50
   7  -5   1    1.80    2.50
   7  -5   1    2.00    2.10
  -7  -5  -1    3.10    1.90
  -7   5  -1    1.50    2.20
   7   5   1    1.40    2.10
   7   5   1    0.00    1.80
  -7   5  -1    4.40    2.50
   8  -5   1   17.40    3.80
  -8  -5  -1   14.10    3.40
   8  -5   1   13.20    3.30
  -8   5  -1   19.80    3.60
   8   5   1   14.30    4.20
  -8   5  -1   15.80    3.30
   8   5   1   13.30    3.40
   9  -5   1   15.10    4.40
   9  -5   1    8.10    3.80
  -9  -5  -1   10.50    3.40
   9   5   1   11.70    4.00
  -9   5  -1   13.30    4.00
  -9   5  -1   12.20    3.70
   9   5   1    9.30    3.70
   9  -6  -1    3.20    2.80
  -9   6   1    4.40    2.40
   9   6  -1    4.30    2.90
   9   6  -1    2.80    2.70
  -9   6   1    1.00    2.30
   8  -6  -1   13.50    3.30
  -8  -6   1   14.10    3.00
   8  -6  -1   11.00    4.00
   8   6  -1    9.60    3.10
   8   6  -1   10.10    3.30
  -8   6   1    7.90    3.30
  -8   6   1    9.50    2.90
   7  -6  -1   76.79    5.60
  -7  -6   1   80.89    5.80
   7  -6  -1   82.49    7.30
  -7   6   1   80.29    5.80
   7   6  -1   74.69    6.90
  -7   6   1   88.99    6.30
   7   6  -1   73.79    6.90
   6  -6  -1    8.40    2.30
  -6  -6   1    6.40    2.50
   6  -6  -1    5.40    2.20
  -6   6   1    8.20    2.30
   6   6  -1    5.80    2.30
   6   6  -1    4.90    2.20
  -6   6   1   12.10    2.70
   5  -6  -1   -0.40    1.20
  -5  -6   1    1.80    1.40
   5  -6  -1    0.30    1.50
  -5   6   1    2.00    1.50
   5   6  -1    0.40    1.50
   5   6  -1    1.20    1.50
  -5   6   1    2.40    1.40
   4  -6  -1   61.39    4.40
  -4  -6   1   75.09    4.40
   4  -6  -1   65.69    3.30
   4  -6  -1   63.99    4.30
   4   6  -1   69.99    4.50
   4   6  -1   74.69    4.50
  -4   6   1   65.49    4.30
  -4   6   1   81.19    4.60
  -3  -6   1   70.49    4.10
   3  -6  -1   71.89    4.30
   3  -6  -1   74.39    3.40
   3  -6  -1   70.09    4.20
  -3   6   1   72.59    4.10
   3   6  -1   68.49    3.90
   3   6  -1   70.59    2.80
  -3   6   1   70.59    3.90
   3   6  -1   67.79    4.10
   2  -6  -1    1.80    0.90
   2  -6  -1    2.00    1.50
  -2  -6   1    2.20    0.80
  -2  -6   1    3.30    1.20
   2   6  -1    4.40    1.00
  -2   6   1    3.10    1.20
   2   6  -1    2.60    1.20
   2   6  -1    2.40    1.20
  -2   6   1    2.20    1.00
   1  -6  -1    4.90    1.30
   1  -6  -1    5.80    1.20
  -1  -6   1    3.50    1.30
  -1  -6   1    5.40    1.30
  -1   6   1    6.90    1.70
   1   6  -1    5.60    1.40
  -1   6   1    5.50    1.30
   1   6  -1    4.30    1.20
   0  -6  -1  414.36   13.20
   0  -6   1  433.66   13.50
   0  -6   1  410.26   13.60
   0  -6  -1  432.16   13.50
   0   6   1  431.56   13.60
   0   6   1  418.26   13.60
   0   6  -1  428.56   13.60
   0   6  -1  422.66   12.80
   1  -6   1   92.79    4.50
  -1  -6  -1   87.49    4.40
  -1  -6  -1   92.69    3.90
   1  -6   1   94.29    4.60
   1   6   1  102.99    4.60
  -1   6  -1   93.29    3.80
  -1   6  -1   90.19    4.30
   1   6   1   94.59    4.50
   2  -6   1   42.40    2.90
  -2  -6  -1   48.10    2.20
   2  -6   1   41.50    3.10
  -2  -6  -1   51.79    3.40
  -2   6  -1   47.30    2.70
   2   6   1   49.80    3.20
  -2   6  -1   51.29    3.10
   2   6   1   48.70    3.30
  -3  -6  -1   54.49    1.70
  -3  -6  -1   49.30    3.60
   3  -6   1   53.89    3.50
   3  -6   1   55.09    3.80
  -3   6  -1   53.79    3.70
   3   6   1   53.79    3.60
  -3   6  -1   54.99    3.20
   3   6   1   56.69    1.80
   3   6   1   57.69    3.90
  -4  -6  -1  116.49    6.00
   4  -6   1  120.79    5.60
   4  -6   1  117.19    6.20
   4  -6   1  114.09    6.00
   4   6   1  110.19    6.10
  -4   6  -1  118.99    5.90
  -4   6  -1  114.69    5.50
   4   6   1  119.89    6.30
   5  -6   1   15.00    3.10
   5  -6   1   16.20    2.50
   5  -6   1   19.40    3.10
  -5  -6  -1    9.80    2.40
   5   6   1   17.50    3.00
   5   6   1   21.80    3.40
  -5   6  -1   22.80    2.90
  -5   6  -1   18.90    3.10
   6  -6   1   14.00    3.50
  -6  -6  -1   18.90    3.30
   6  -6   1   13.40    3.00
   6  -6   1   18.10    3.10
  -6   6  -1   21.30    2.80
   6   6   1   15.40    3.20
  -6   6  -1   15.70    3.20
  -6   6  -1   15.70    2.80
   6   6   1   17.80    3.30
   7  -6   1    3.60    1.90
  -7  -6  -1    4.70    2.30
   7  -6   1    5.50    2.40
   7  -6   1    6.80    2.70
  -7   6  -1    4.80    2.10
   7   6   1    7.80    2.90
  -7   6  -1    7.00    2.40
   7   6   1    4.60    2.30
  -8  -6  -1    8.30    2.80
   8  -6   1    6.60    2.80
   8  -6   1    3.50    2.60
   8   6   1    4.20    3.40
  -8   6  -1    8.30    2.70
  -8   6  -1    9.30    3.00
   8   6   1    7.70    3.50
  -8   6  -1    4.80    2.40
   9  -7  -1    2.10    2.60
  -9   7   1   -2.50    1.80
  -9   7   1    0.30    2.00
   9   7  -1    3.70    3.70
   9   7  -1    2.60    3.20
  -8  -7   1    6.30    2.70
   8  -7  -1    6.50    2.90
   8  -7  -1    3.70    3.30
   8   7  -1    2.30    3.20
  -8   7   1    1.50    2.10
   8   7  -1    5.70    2.80
  -8   7   1    5.30    3.10
   7  -7  -1   11.30    3.40
   7  -7  -1    3.40    2.40
  -7  -7   1    6.90    2.30
   7   7  -1    1.10    2.80
  -7   7   1    2.80    2.20
   7   7  -1    8.00    2.80
  -7   7   1    6.20    2.80
   6  -7  -1  124.99    7.40
   6  -7  -1  128.19    7.50
  -6  -7   1  125.49    7.00
  -6   7   1  129.19    7.00
   6   7  -1  111.99    7.10
  -6   7   1  128.29    7.20
   6   7  -1  135.69    7.70
   5  -7  -1  386.96   14.70
   5  -7  -1  384.36   14.40
  -5  -7   1  382.46   14.20
   5   7  -1  379.06   14.30
  -5   7   1  382.36   14.30
  -5   7   1  379.36   13.90
   5   7  -1  395.86   14.80
   4  -7  -1   -0.40    1.80
   4  -7  -1    0.20    0.90
  -4  -7   1    2.10    1.90
   4  -7  -1    1.70    1.40
  -4   7   1    2.20    1.70
  -4   7   1    1.00    1.70
   4   7  -1   -1.20    1.50
   4   7  -1    2.10    1.60
   3  -7  -1   61.29    3.40
  -3  -7   1   67.99    4.30
   3  -7  -1   68.39    4.30
   3   7  -1   67.49    2.90
  -3   7   1   70.09    4.20
  -3   7   1   65.69    3.90
   3   7  -1   60.49    4.10
   3   7  -1   63.69    4.10
   2  -7  -1  314.77   10.30
   2  -7  -1  310.17   11.10
  -2  -7   1  297.57   11.00
  -2  -7   1  303.87    9.80
   2   7  -1  300.07    9.80
   2   7  -1  319.27   10.60
  -2   7   1  303.97   10.90
  -2   7   1  313.97   10.80
   2   7  -1  301.97   11.00
  -1  -7   1  383.06   13.00
   1  -7  -1  379.86   12.40
  -1  -7   1  392.16   12.30
   1  -7  -1  361.56   12.60
  -1   7   1  381.76   12.60
  -1   7   1  376.06   12.80
   1   7  -1  378.06   12.10
   1   7  -1  398.96   13.00
   0  -7  -1   33.70    3.00
   0  -7   1   37.20    2.80
   0  -7  -1   31.10    2.80
   0  -7   1   32.70    2.90
   0   7  -1   33.50    2.30
   0   7   1   29.20    2.90
   0   7  -1   31.30    2.90
   0   7   1   33.30    3.10
  -1  -7  -1   55.79    2.90
   1  -7   1   59.79    3.60
   1  -7   1   58.09    3.60
  -1  -7  -1   56.99    3.70
  -1   7  -1   54.99    3.60
   1   7   1   53.79    3.40
  -1   7  -1   52.59    2.90
   1   7   1   52.69    3.40
   2  -7   1    1.50    1.30
   2  -7   1    0.60    1.50
  -2  -7  -1    0.40    0.70
  -2  -7  -1   -0.40    1.00
   2   7   1    0.40    1.10
  -2   7  -1    0.20    0.90
   2   7   1   -0.60    1.30
  -2   7  -1    1.00    1.00
   3  -7   1    3.90    2.00
  -3  -7  -1    4.50    1.60
   3  -7   1    4.80    1.70
  -3   7  -1    3.20    1.30
   3   7   1    3.80    1.90
   3   7   1    5.60    1.90
  -3   7  -1    2.20    1.00
  -4  -7  -1    7.90    2.20
   4  -7   1    5.80    2.00
   4  -7   1    3.60    1.60
  -4   7  -1    7.20    1.80
   4   7   1    7.40    2.10
   4   7   1    5.20    2.00
  -4   7  -1    7.90    1.90
   5  -7   1  174.68    7.80
   5  -7   1  172.88    8.50
  -5  -7  -1  183.58    8.60
   5  -7   1  172.38    8.40
   5   7   1  158.68    8.20
  -5   7  -1  182.88    7.80
   5   7   1  192.28    9.00
  -5   7  -1  160.98    7.90
   6  -7   1   36.80    4.60
   6  -7   1   54.69    5.40
  -6  -7  -1   47.50    5.20
  -6   7  -1   56.89    4.30
   6   7   1   44.80    5.20
   6   7   1   46.30    5.10
  -6   7  -1   48.90    4.90
   7  -7   1    8.40    2.70
   7  -7   1    8.00    3.30
  -7  -7  -1    5.90    2.90
   7   7   1    7.00    2.90
  -7   7  -1    7.60    2.90
  -7   7  -1   13.50    3.10
   7   7   1    5.60    2.60
  -8  -7  -1   11.90    3.50
   8  -7   1   12.80    3.70
   8  -7   1   14.30    3.70
   8   7   1   11.30    3.50
  -8   7  -1    6.10    3.10
   8   7   1    9.60    3.10
  -8   7  -1    4.20    2.70
   8  -8  -1   72.59    7.10
   8  -8  -1   72.29    7.80
  -8  -8   1   91.09    6.90
   8   8  -1   82.99    8.30
   8   8  -1   86.79    8.50
  -8   8   1   81.19    7.30
  -8   8   1   96.29    8.30
   7  -8  -1   18.50    3.90
   7  -8  -1   14.80    3.30
  -7  -8   1   17.20    3.30
   7   8  -1   19.30    3.80
  -7   8   1   17.50    3.40
   7   8  -1   14.30    3.60
  -7   8   1   20.10    3.70
   6  -8  -1    4.10    2.20
  -6  -8   1    4.10    2.00
   6  -8  -1    5.80    3.00
   6   8  -1    3.10    2.10
   6   8  -1    1.00    1.90
  -6   8   1    3.00    1.90
  -6   8   1    1.00    1.60
   5  -8  -1  165.88    8.50
   5  -8  -1  189.78    9.00
  -5  -8   1  169.78    8.30
  -5   8   1  161.08    8.20
   5   8  -1  178.88    8.50
  -5   8   1  162.78    8.10
   5   8  -1  176.38    8.70
   4  -8  -1  294.97   11.60
  -4  -8   1  287.47   11.40
   4  -8  -1  283.37   10.00
   4   8  -1  291.07   11.30
  -4   8   1  272.97   10.80
  -4   8   1  281.27   11.20
   4   8  -1  285.07   11.50
   3  -8  -1  708.53   20.80
   3  -8  -1  702.23   22.10
  -3  -8   1  644.94   21.90
   3   8  -1  678.53   22.00
  -3   8   1  689.83   21.40
   3   8  -1  668.23   21.40
  -3   8   1  666.93   21.70
   3   8  -1  701.03   19.80
  -2  -8   1  194.38    8.10
   2  -8  -1  185.38    8.00
   2  -8  -1  179.88    7.20
  -2  -8   1  197.48    6.90
  -2   8   1  188.18    7.60
   2   8  -1  187.78    7.50
   2   8  -1  188.38    6.80
  -2   8   1  179.08    7.80
   2   8  -1  184.78    7.90
  -1  -8   1   18.80    2.60
  -1  -8   1   14.20    1.90
   1  -8  -1   24.10    2.60
   1  -8  -1   14.30    2.40
  -1   8   1   19.80    2.60
  -1   8   1   21.70    2.50
   1   8  -1   16.80    2.20
   1   8  -1   15.10    2.50
   0  -8   1   14.80    2.30
   0  -8   1   24.60    2.70
   0  -8  -1   17.50    2.60
   0  -8  -1   20.10    2.30
   0   8  -1   15.60    2.60
   0   8   1   17.80    2.60
   0   8   1   23.50    2.80
   0   8  -1   19.00    2.10
   1  -8   1   31.80    3.30
   1  -8   1   37.80    3.60
  -1  -8  -1   34.20    3.50
  -1  -8  -1   28.50    2.20
   1   8   1   34.10    3.30
  -1   8  -1   35.20    3.30
   1   8   1   28.50    3.20
  -1   8  -1   35.70    2.50
  -2  -8  -1  126.19    4.90
   2  -8   1  125.99    6.10
  -2  -8  -1  134.69    6.30
   2  -8   1  132.99    6.40
  -2   8  -1  116.59    5.20
   2   8   1  113.99    5.90
   2   8   1  120.19    6.00
  -2   8  -1  117.69    5.90
   3  -8   1   32.70    3.50
   3  -8   1   31.60    3.60
  -3  -8  -1   28.00    3.50
   3   8   1   26.80    3.60
   3   8   1   29.40    3.50
  -3   8  -1   30.90    3.60
  -3   8  -1   31.20    3.10
  -4  -8  -1    2.40    1.70
   4  -8   1    1.70    1.20
   4  -8   1   -0.70    1.90
   4   8   1   -0.90    2.00
  -4   8  -1    0.20    1.40
   4   8   1    2.20    1.70
  -4   8  -1    2.80    2.00
   5  -8   1   29.20    3.50
   5  -8   1   22.40    3.60
  -5  -8  -1   28.90    4.40
  -5   8  -1   29.70    4.00
  -5   8  -1   41.50    4.10
   5   8   1   42.80    4.80
   5   8   1   33.20    4.20
   6  -8   1    3.00    2.30
   6  -8   1    1.30    2.50
  -6  -8  -1    0.10    2.60
  -6   8  -1    1.10    1.80
  -6   8  -1    1.70    2.00
   6   8   1    2.20    2.00
   6   8   1    0.40    1.90
   7  -8   1    7.80    3.50
   7  -8   1    7.70    2.60
  -7  -8  -1    3.40    2.40
   7   8   1    3.20    2.50
  -7   8  -1    5.30    2.10
   7   8   1    9.80    3.50
  -7   8  -1   12.00    3.40
   8  -8   1   27.70    4.90
  -8  -8  -1   25.80    4.40
   8  -8   1   38.00    6.00
  -8   8  -1   32.30    4.80
   8   8   1   35.50    5.70
  -8   8  -1   36.20    5.20
   8   8   1   43.20    6.00
   8  -9  -1    1.80    3.50
  -8  -9   1    3.50    3.00
   8  -9  -1    2.40    3.20
  -8   9   1    1.90    3.00
   8   9  -1    5.70    3.50
  -8   9   1    0.30    2.80
   8   9  -1    4.90    3.50
  -7  -9   1   22.00    4.30
   7  -9  -1   16.30    4.00
   7  -9  -1   19.30    3.90
   7   9  -1   16.50    3.70
   7   9  -1   12.30    3.40
  -7   9   1   19.40    3.80
  -7   9   1   18.60    3.60
  -6  -9   1    0.20    2.30
   6  -9  -1    1.90    2.10
  -6   9   1    1.80    1.80
   6   9  -1    3.50    2.40
  -6   9   1    1.80    2.00
   6   9  -1    9.00    3.10
   5  -9  -1  101.19    6.80
  -5  -9   1  102.59    6.40
   5   9  -1   89.79    6.20
  -5   9   1   96.89    5.80
  -5   9   1   89.99    6.30
   5   9  -1  100.19    6.50
   4  -9  -1  101.89    6.20
  -4  -9   1  108.49    6.40
   4  -9  -1  110.49    6.60
   4   9  -1  113.59    6.60
  -4   9   1  125.49    6.80
   4   9  -1  115.29    6.30
  -4   9   1  126.99    6.30
   3  -9  -1    5.40    2.40
   3  -9  -1    5.80    1.70
  -3  -9   1   10.80    2.50
   3   9  -1    4.50    2.30
  -3   9   1    5.30    2.10
   3   9  -1    9.30    2.00
  -3   9   1    6.00    2.00
  -2  -9   1    4.10    1.70
   2  -9  -1    0.80    1.30
  -2  -9   1    3.40    1.30
   2  -9  -1    1.30    0.80
  -2   9   1    4.90    1.70
   2   9  -1    0.40    1.40
   2   9  -1    2.00    1.20
  -2   9   1    2.60    1.30
   2   9  -1    3.50    1.30
  -1  -9   1  241.68    9.30
   1  -9  -1  260.97    9.90
  -1  -9   1  242.48   10.10
   1  -9  -1  264.47    9.70
   1   9  -1  246.38    9.10
   1   9  -1  247.08   10.00
  -1   9   1  265.17   10.20
  -1   9   1  261.77    9.80
   0  -9   1  170.78    7.20
   0  -9  -1  155.88    7.00
   0  -9  -1  148.29    6.60
   0  -9   1  147.19    7.10
   0   9   1  166.68    7.30
   0   9  -1  170.78    7.50
   0   9   1  160.38    7.20
   0   9  -1  157.18    6.40
  -1  -9  -1  439.36   14.20
   1  -9   1  434.56   15.10
   1  -9   1  436.06   15.20
  -1  -9  -1  426.36   15.10
  -1   9  -1  435.26   15.10
   1   9   1  445.06   15.20
   1   9   1  448.46   15.10
  -1   9  -1  437.56   14.10
  -2  -9  -1  657.83   21.70
   2  -9   1  648.34   21.80
  -2  -9  -1  645.54   19.80
   2  -9   1  695.03   21.50
  -2   9  -1  668.13   21.40
   2   9   1  673.63   21.60
   2   9   1  677.23   21.80
  -2   9  -1  675.03   20.40
  -3  -9  -1   38.60    4.20
   3  -9   1   37.70    4.50
   3  -9   1   49.20    4.40
   3   9   1   36.80    4.10
   3   9   1   42.00    4.50
  -3   9  -1   33.30    4.00
  -3   9  -1   45.90    3.90
   4  -9   1    8.20    2.10
   4  -9   1    4.70    2.00
  -4  -9  -1    6.70    2.30
   4   9   1    7.30    2.80
   4   9   1    5.90    2.70
  -4   9  -1    6.90    2.00
  -4   9  -1    7.40    2.20
   5  -9   1   80.19    7.20
   5  -9   1  108.19    7.10
  -5  -9  -1   96.89    6.40
   5   9   1   95.29    6.50
  -5   9  -1   98.09    5.60
  -5   9  -1   98.09    6.10
   5   9   1  104.19    6.60
   6  -9   1   23.10    4.40
  -6  -9  -1   20.80    3.80
   6   9   1   21.00    4.40
   6   9   1   18.60    4.10
  -6   9  -1   26.20    4.10
  -6   9  -1   25.70    3.80
   7  -9   1    4.30    2.50
  -7  -9  -1    4.20    3.20
   7   9   1    1.70    3.20
  -7   9  -1    1.10    2.30
   7   9   1    6.20    2.80
  -7   9  -1    7.10    3.20
   8 -10  -1    9.40    3.40
  -8 -10   1    7.30    2.90
   8  10  -1   10.30    4.20
  -8  10   1   17.00    4.20
  -8  10   1    3.90    3.20
   8  10  -1    7.10    3.10
   7 -10  -1   30.70    4.70
  -7 -10   1   10.60    3.50
   7  10  -1   16.80    3.90
  -7  10   1   12.70    3.50
   7  10  -1   24.60    4.80
  -7  10   1   20.20    3.90
   6 -10  -1    3.70    2.90
  -6 -10   1    1.40    1.90
   6  10  -1    1.70    2.30
   6  10  -1    1.50    2.00
  -6  10   1    0.90    2.30
  -6  10   1    2.60    2.00
   5 -10  -1  125.39    7.70
  -5 -10   1  128.79    7.90
   5  10  -1  133.89    7.50
  -5  10   1  136.19    7.90
  -5  10   1  141.19    7.50
   5  10  -1  132.69    7.90
   4 -10  -1   18.60    3.30
  -4 -10   1   18.10    3.60
  -4  10   1   22.50    3.80
   4  10  -1   20.30    3.40
  -4  10   1   27.40    3.50
   4  10  -1   24.50    3.70
   3 -10  -1   35.30    4.50
  -3 -10   1   41.80    4.50
   3 -10  -1   28.80    3.30
  -3  10   1   31.50    3.70
  -3  10   1   36.50    4.10
   3  10  -1   27.90    3.80
   3  10  -1   39.00    4.10
  -2 -10   1  133.59    6.30
   2 -10  -1  159.08    7.70
  -2 -10   1  161.58    8.10
   2  10  -1  163.88    7.20
  -2  10   1  167.88    7.80
   2  10  -1  153.38    7.90
  -2  10   1  162.08    7.30
   2  10  -1  171.28    6.70
  -1 -10   1  211.58    8.50
   1 -10  -1  214.98    9.10
  -1 -10   1  203.18    9.30
   1 -10  -1  203.58    8.70
  -1  10   1  205.88    9.10
   1  10  -1  215.08    8.40
   1  10  -1  218.58    9.20
  -1  10   1  227.08    8.90
   0 -10  -1   17.30    2.90
   0 -10   1   14.60    2.40
   0 -10  -1   14.00    2.50
   0 -10   1   12.00    2.40
   0  10  -1   13.30    2.50
   0  10   1   15.00    3.00
   0  10   1   16.90    3.00
   0  10  -1   18.70    2.50
  -1 -10  -1  435.56   15.80
   1 -10   1  464.35   16.00
  -1 -10  -1  468.65   14.90
   1 -10   1  419.46   15.60
   1  10   1  455.55   15.70
   1  10   1  465.15   16.10
  -1  10  -1  440.86   14.70
  -1  10  -1  448.26   15.80
  -2 -10  -1  399.36   15.10
   2 -10   1  385.66   14.90
   2 -10   1  404.46   14.80
  -2 -10  -1  410.96   13.30
  -2  10  -1  440.76   15.00
   2  10   1  403.86   15.10
  -2  10  -1  409.06   13.80
   2  10   1  427.16   15.00
   3 -10   1   13.40    3.00
  -3 -10  -1   16.40    3.10
   3 -10   1   17.90    2.90
  -3  10  -1   12.80    2.40
   3  10   1   16.30    3.10
   3  10   1   15.40    2.90
  -3  10  -1   13.10    3.00
  -4 -10  -1    3.80    2.60
   4 -10   1   -0.70    1.60
   4 -10   1    1.80    1.40
   4  10   1    3.80    2.20
   4  10   1    3.10    2.00
  -4  10  -1    2.50    1.80
  -4  10  -1    0.20    1.60
   5 -10   1  237.58   11.30
  -5 -10  -1  244.48   11.30
  -5  10  -1  236.38   10.00
  -5  10  -1  234.78   10.70
   5  10   1  254.17   11.40
   5  10   1  228.78   11.20
  -6 -10  -1   93.69    6.70
   6 -10   1   93.19    6.80
  -6  10  -1   70.69    6.80
  -6  10  -1   79.59    7.10
   6  10   1   94.49    6.80
   6  10   1   75.79    7.20
  -7 -10  -1    8.10    2.90
   7 -10   1    5.50    3.40
   7  10   1    5.60    3.30
  -7  10  -1    3.50    3.00
   7  10   1    5.30    3.10
   7 -11  -1   12.10    3.50
  -7 -11   1   10.20    3.20
   7  11  -1   11.10    4.20
  -7  11   1   20.70    4.10
  -7  11   1   19.70    4.00
   7  11  -1    8.40    3.00
  -6 -11   1   20.20    4.00
   6 -11  -1   20.70    4.60
  -6  11   1   32.30    4.60
   6  11  -1   25.90    4.60
   6  11  -1   20.10    4.10
  -6  11   1   25.40    3.90
   5 -11  -1    2.50    2.20
  -5 -11   1    3.90    2.30
  -5  11   1    5.00    2.10
   5  11  -1    2.70    2.90
   5  11  -1    2.80    2.60
  -5  11   1    4.90    2.90
   4 -11  -1    7.90    3.20
  -4 -11   1   15.20    3.20
  -4  11   1   14.80    3.20
   4  11  -1    4.90    2.30
   4  11  -1   12.60    2.70
  -4  11   1   13.20    3.40
   3 -11  -1   -0.60    1.50
  -3 -11   1    0.50    1.60
   3 -11  -1    0.10    1.50
   3  11  -1   -0.20    1.50
  -3  11   1    0.30    1.60
   3  11  -1   -0.10    1.20
  -3  11   1    1.50    1.50
   2 -11  -1   29.20    3.40
  -2 -11   1   32.90    4.40
  -2 -11   1   34.60    3.30
   2 -11  -1   33.30    4.20
   2  11  -1   37.90    3.40
  -2  11   1   29.80    4.10
  -2  11   1   32.80    3.70
   2  11  -1   35.50    4.40
   2  11  -1   41.00    4.00
   1 -11  -1    0.00    1.30
   1 -11  -1   -0.10    1.30
  -1 -11   1    0.00    1.10
  -1 -11   1   -0.40    1.40
  -1  11   1    2.00    2.00
   1  11  -1    1.40    1.60
   1  11  -1    0.70    1.00
  -1  11   1    0.90    1.60
   1  11  -1    1.00    1.50
   0 -11  -1   74.19    5.00
   0 -11   1   79.99    5.00
   0 -11  -1   76.29    4.70
   0 -11   1   82.69    5.40
   0  11  -1   82.49    5.30
   0  11   1   72.59    5.40
   0  11  -1   78.19    4.60
   0  11   1   73.89    5.20
   1 -11   1   87.49    5.50
  -1 -11  -1   80.79    5.70
  -1 -11  -1   82.59    4.80
   1 -11   1   78.19    5.60
   1  11   1   75.19    5.30
  -1  11  -1   98.19    5.80
  -1  11  -1   81.39    4.70
   1  11   1   83.59    5.50
   2 -11   1    1.70    2.10
   2 -11   1    1.80    1.90
  -2 -11  -1   -1.20    1.40
   2  11   1    0.90    2.40
  -2  11  -1   -1.70    1.30
   2  11   1   -0.90    1.30
  -2  11  -1    0.50    2.30
   3 -11   1  111.49    7.40
  -3 -11  -1  122.99    7.30
   3 -11   1  127.39    7.10
   3  11   1  132.09    7.20
  -3  11  -1  121.19    6.20
   3  11   1  136.39    7.50
  -3  11  -1  128.99    7.10
   4 -11   1    2.70    2.20
  -4 -11  -1   -1.50    1.60
   4 -11   1    0.50    1.00
  -4  11  -1    0.50    1.80
   4  11   1    0.90    1.90
   4  11   1   -2.90    1.30
  -4  11  -1   -0.80    1.50
  -5 -11  -1  274.17   13.00
   5 -11   1  276.27   13.10
  -5  11  -1  292.37   12.50
   5  11   1  296.57   13.30
   5  11   1  264.17   12.60
  -6 -11  -1    7.10    3.40
   6 -11   1    3.00    3.20
  -6  11  -1    7.10    3.20
   6  11   1   11.90    3.40
   6  11   1    7.70    3.10
   7 -11   1    0.90    3.30
  -7 -11  -1   -1.30    2.90
   7  11   1    2.90    2.80
  -7  11  -1    2.00    2.90
   7  11   1    1.10    3.10
   7 -12  -1  182.68   11.20
  -7 -12   1  175.08   10.30
   7  12  -1  165.68   10.00
  -7  12   1  186.98   10.40
   7  12  -1  185.68   10.90
  -7  12   1  165.18    9.70
  -6 -12   1    0.50    2.80
   6 -12  -1   -0.80    2.00
   6  12  -1   -0.60    1.80
   6  12  -1   -1.00    2.90
  -6  12   1    2.30    2.10
  -6  12   1    3.20    2.30
   5 -12  -1   56.89    6.30
  -5 -12   1   50.79    6.00
   5  12  -1   55.89    5.60
  -5  12   1   53.89    5.40
   5  12  -1   43.90    5.60
  -5  12   1   44.50    5.70
  -4 -12   1   52.29    5.80
   4 -12  -1   50.29    5.90
  -4  12   1   52.29    5.80
  -4  12   1   44.20    4.90
   4  12  -1   51.79    5.10
   4  12  -1   46.90    5.90
   3 -12  -1    1.70    1.70
   3 -12  -1    2.60    2.10
  -3 -12   1    0.40    2.30
  -3  12   1    1.00    1.80
   3  12  -1   -1.30    1.50
   3  12  -1    0.90    1.50
  -3  12   1    0.50    1.50
  -2 -12   1   -2.00    2.20
  -2 -12   1   -2.30    1.10
   2 -12  -1   -4.10    1.30
   2 -12  -1   -0.80    1.50
  -2  12   1    0.90    1.60
  -2  12   1   -2.70    1.20
   2  12  -1   -0.90    1.10
   2  12  -1    1.40    1.80
   1 -12  -1   30.10    3.80
   1 -12  -1   31.00    4.10
  -1 -12   1   31.80    4.30
  -1 -12   1   32.70    3.80
   1  12  -1   21.70    3.10
  -1  12   1   36.40    4.00
   1  12  -1   33.80    3.70
   1  12  -1   28.40    4.00
  -1  12   1   31.80    4.50
   0 -12  -1   61.59    5.20
   0 -12   1   45.30    5.10
   0 -12  -1   55.39    5.10
   0 -12   1   46.10    4.80
   0  12   1   60.29    5.50
   0  12   1   49.10    4.90
   0  12  -1   50.59    5.10
   0  12  -1   60.29    4.20
   1 -12   1    5.30    2.20
   1 -12   1    1.00    1.70
  -1 -12  -1    2.60    1.90
  -1 -12  -1    6.70    2.10
   1  12   1    3.70    2.70
  -1  12  -1    1.00    1.70
   1  12   1    3.50    1.80
  -1  12  -1    4.00    2.10
   2 -12   1   45.10    5.30
  -2 -12  -1   54.59    5.70
   2 -12   1   37.60    4.70
  -2  12  -1   43.50    4.80
   2  12   1   39.00    5.00
   2  12   1   40.30    4.50
  -2  12  -1   50.79    4.40
   3 -12   1    0.90    1.60
   3 -12   1    1.20    2.00
  -3 -12  -1    0.30    1.80
   3  12   1    1.80    1.80
   3  12   1    1.40    2.00
  -3  12  -1    1.90    1.80
  -4 -12  -1   17.30    3.70
   4 -12   1   22.90    4.60
   4  12   1   22.20    3.80
   4  12   1   21.00    3.80
  -4  12  -1   24.10    4.40
   5 -12   1   44.50    5.60
  -5 -12  -1   42.70    5.50
   5  12   1   40.40    5.60
  -5  12  -1   37.00    4.90
   5  12   1   37.30    5.20
  -6 -12  -1  125.59    8.60
   6 -12   1  138.59    9.10
  -6  12  -1  143.49    8.90
   6  12   1  118.19    8.80
   6  12   1  129.49    9.10
  -6 -13   1    5.50    3.40
   6 -13  -1   11.00    3.50
  -6  13   1    5.60    3.00
   6  13  -1    3.30    2.30
   6  13  -1    2.90    2.50
  -6  13   1    2.80    2.90
  -5 -13   1   12.00    3.40
   5 -13  -1   19.90    4.30
   5  13  -1   16.00    3.80
  -5  13   1   13.00    3.60
  -5  13   1    9.90    3.20
   5  13  -1   12.70    3.00
  -4 -13   1   24.20    4.30
   4 -13  -1   31.50    5.10
  -4  13   1   29.40    4.10
  -4  13   1   36.60    5.00
   4  13  -1   29.60    5.00
   4  13  -1   28.20    4.00
   3 -13  -1   18.40    3.60
  -3 -13   1   12.90    3.40
   3  13  -1   15.60    3.50
  -3  13   1   21.40    4.30
  -3  13   1   19.90    3.40
   3  13  -1   11.60    3.00
   2 -13  -1    2.90    2.20
  -2 -13   1    6.30    2.90
   2 -13  -1    3.60    1.90
  -2  13   1    4.20    3.00
  -2  13   1    3.10    2.40
   2  13  -1    3.50    2.40
   2  13  -1    4.80    2.20
   1 -13  -1   13.10    3.10
  -1 -13   1   14.30    3.10
  -1 -13   1   13.60    2.80
   1 -13  -1   13.60    2.80
  -1  13   1   18.70    3.90
   1  13  -1   12.80    2.70
   1  13  -1   11.20    3.00
   1  13  -1    5.20    2.00
  -1  13   1    7.90    2.80
   0 -13   1   49.00    5.00
   0 -13   1   37.40    4.70
   0 -13  -1   45.20    4.70
   0 -13  -1   64.89    5.90
   0  13   1   46.00    5.20
   0  13  -1   41.50    5.00
   0  13  -1   49.90    4.40
   0  13   1   40.60    4.70
  -1 -13  -1   24.50    3.30
   1 -13   1   23.90    4.10
  -1 -13  -1   20.60    3.90
   1 -13   1   23.00    3.60
  -1  13  -1   24.60    3.90
   1  13   1   15.40    3.30
   1  13   1   21.70    3.50
   2 -13   1   33.10    4.70
  -2 -13  -1   31.90    4.50
   2 -13   1   27.10    4.20
   2  13   1   33.90    4.70
  -2  13  -1   31.70    4.40
   2  13   1   30.30    4.10
   3 -13   1    7.00    2.40
  -3 -13  -1    7.80    3.40
   3 -13   1   11.40    3.20
   3  13   1    7.60    3.00
   3  13   1    7.60    2.70
  -3  13  -1    6.70    3.20
   4 -13   1   15.30    3.80
  -4 -13  -1   25.70    4.50
  -4  13  -1   20.90    4.30
   4  13   1   17.90    3.70
   4  13   1   21.20    3.90
  -5 -13  -1    1.80    3.20
   5 -13   1    4.00    2.80
   5  13   1    2.90    3.20
  -5  13  -1   -3.50    2.40
   5  13   1    4.40    3.30
   6 -13   1   -3.00    2.90
  -6 -13  -1    1.00    2.50
   6  13   1    1.40    2.40
  -6  13  -1    1.10    2.30
   6  13   1    2.20    3.20
  -5 -14   1   18.30    4.70
   5 -14  -1   16.00    4.00
  -5  14   1   23.80    4.40
   5  14  -1   19.10    3.70
  -5  14   1   23.50    4.40
   5  14  -1   19.10    4.30
   4 -14  -1   -1.20    3.10
  -4 -14   1    5.30    3.50
  -4  14   1    1.50    2.00
   4  14  -1    2.20    2.00
   4  14  -1    1.00    2.20
  -4  14   1   -1.10    2.10
  -3 -14   1    0.60    2.00
   3 -14  -1    1.30    2.10
   3  14  -1    1.20    2.20
   3  14  -1    1.30    2.20
  -3  14   1   -0.20    2.00
  -3  14   1    0.50    1.70
  -2 -14   1   13.80    3.80
   2 -14  -1   18.60    3.60
   2 -14  -1   14.20    3.80
   2  14  -1   22.50    3.40
   2  14  -1   31.10    5.00
  -2  14   1   21.60    3.80
  -2  14   1   16.00    3.60
  -1 -14   1    3.30    2.20
   1 -14  -1    3.70    1.90
  -1 -14   1    1.60    2.00
   1 -14  -1    1.70    1.90
   1  14  -1    1.10    2.10
   1  14  -1    0.40    1.20
  -1  14   1    2.60    2.30
  -1  14   1    2.20    1.90
   0 -14   1   22.20    3.90
   0 -14   1   16.20    3.20
   0 -14  -1   23.70    3.50
   0 -14  -1   26.60    4.50
   0  14   1   21.00    3.80
   0  14  -1   17.90    4.10
   0  14   1   20.90    4.00
   0  14  -1   20.80    3.30
  -1 -14  -1  143.29    8.70
   1 -14   1  156.78    8.50
   1 -14   1  163.88    8.80
   1  14   1  156.68    8.60
   1  14   1  146.39    9.00
  -1  14  -1  135.59    8.60
   2 -14   1   -0.50    1.60
   2 -14   1   -1.70    1.80
  -2 -14  -1    0.30    2.70
   2  14   1    0.50    2.30
   2  14   1    0.50    2.10
  -2  14  -1   -2.20    2.60
   3 -14   1   -1.30    1.50
   3 -14   1   -0.50    2.10
  -3 -14  -1   -1.60    1.80
   3  14   1    1.70    2.30
  -3  14  -1    1.10    2.20
   3  14   1   -0.10    1.90
   4 -14   1    0.60    2.40
  -4 -14  -1   -1.10    2.00
   4  14   1    3.10    2.80
  -4  14  -1    0.00    2.10
   4  14   1   -1.80    2.60
   5 -14   1    4.10    3.60
  -5 -14  -1    5.60    2.90
   5  14   1   -4.70    2.60
   5  14   1    5.30    2.80
  -5  14  -1    2.80    2.50
   4 -15  -1  121.39    8.60
  -4 -15   1  120.29    9.00
  -4  15   1  126.69    9.10
   4  15  -1  120.79    8.90
   3 -15  -1   -3.40    2.50
  -3 -15   1   -1.50    2.00
  -3  15   1    1.70    3.20
  -3  15   1   -0.50    2.70
   3  15  -1    2.90    2.40
   2 -15  -1   35.70    5.30
  -2 -15   1   31.00    4.90
  -2  15   1   30.70    4.90
   2  15  -1   24.00    4.30
  -2  15   1   27.70    4.10
   1 -15  -1    0.90    2.40
   1 -15  -1    1.00    1.80
  -1 -15   1    0.30    1.90
  -1  15   1   -1.40    2.10
   1  15  -1   -2.00    2.90
  -1  15   1   -1.20    2.10
   0 -15  -1   10.90    3.20
   0 -15  -1    8.20    3.30
   0 -15   1   12.60    3.00
   0 -15   1   11.70    3.70
   0  15   1    8.70    2.70
   0  15  -1   12.70    2.80
   0  15  -1    8.10    3.60
   0  15   1   18.40    3.90
   1 -15   1    3.30    2.30
  -1 -15  -1    2.50    2.30
   1 -15   1    0.00    2.00
   1  15   1    0.50    2.40
  -1  15  -1   -1.00    2.80
  -1  15  -1    0.70    1.80
   1  15   1   -2.10    1.90
  -2 -15  -1    8.30    2.90
   2 -15   1    2.50    2.40
   2 -15   1    4.30    3.00
  -2  15  -1    1.00    2.30
   2  15   1    4.60    2.30
   2  15   1    2.70    2.50
   3 -15   1    5.60    2.80
  -3 -15  -1    9.20    3.90
  -3  15  -1   12.00    4.20
   3  15   1    7.50    3.40
   3  15   1    7.00    3.00
   4 -15   1   -0.10    2.40
  -4 -15  -1    0.90    2.30
  -4  15  -1   -1.50    3.00
   4  15   1    0.50    2.30
   4  15   1    3.70    3.00
  -3 -16   1    4.40    2.90
   3 -16  -1   14.20    4.30
  -3  16   1    5.50    3.10
   3  16  -1    7.50    3.90
   2 -16  -1   23.90    4.40
  -2 -16   1   32.10    5.20
   2  16  -1   28.50    4.90
  -2  16   1   28.20    5.30
   1 -16  -1    0.50    1.80
   1 -16  -1    2.90    2.80
  -1 -16   1   -1.50    2.00
   1  16  -1    0.30    2.40
  -1  16   1   -4.30    2.10
  -1  16   1   -2.80    2.00
   0 -16  -1   75.49    7.20
   0 -16   1   95.69    8.60
   0 -16   1   67.59    6.30
   0  16  -1   68.49    6.40
   0  16  -1   72.59    7.60
   0  16   1   83.29    6.10
   0  16   1   61.39    6.90
   1 -16   1   16.20    4.30
   1 -16   1   31.50    5.30
  -1 -16  -1   20.30    4.70
   1  16   1   23.40    4.50
  -1  16  -1   27.70    5.10
   1  16   1   26.80    4.60
  -1  16  -1   18.80    4.10
  -2 -16  -1   38.20    5.50
   2 -16   1   39.20    5.30
   2 -16   1   43.50    5.60
   2  16   1   41.40    5.90
   2  16   1   36.30    5.10
  -2  16  -1   43.00    5.40
  -2  16  -1   39.40    5.50
   3 -16   1   -0.70    3.40
  -3 -16  -1    0.10    2.20
   3  16   1    1.30    3.30
  -3  16  -1   -1.50    2.20
   3  16   1   -2.20    1.70
 -10   0   2   -2.10    2.30
  10   0  -2   -0.80    2.10
  10   0  -2    3.80    3.90
   9   0  -2   -2.10    1.70
   9   0  -2    1.00    2.30
  -9   0   2    1.10    2.20
   8   0  -2   17.90    3.70
   8   0  -2   26.50    4.30
  -8   0   2   22.50    3.80
   7   0  -2   -0.10    1.70
  -7   0   2   -0.30    1.50
   7   0  -2   -2.00    1.40
   6   0  -2  424.66   15.40
  -6   0   2  443.76   13.40
  -6   0   2  412.06   15.10
   6   0  -2  416.86   15.40
   6   0  -2  420.36   13.70
   5   0  -2    0.00    1.10
  -5   0   2   -0.20    0.70
  -5   0   2    0.30    1.00
   5   0  -2    0.10    1.10
   5   0  -2   -0.40    0.60
  -4   0   2  981.00   27.30
   4   0  -2  955.20   28.80
  -4   0   2 1001.30   28.80
   4   0  -2  988.80   28.00
   4   0  -2  954.40   28.80
  -3   0   2    0.20    1.00
   3   0  -2   -1.00    0.80
   3   0  -2    0.20    0.60
  -3   0   2    0.40    0.50
   3   0  -2   -0.40    1.10
   2   0  -2  218.58    7.20
   2   0  -2  214.78    7.20
  -2   0   2  220.88    6.40
  -2   0   2  218.88    7.10
   2   0  -2  219.58    7.10
   1   0  -2   -0.50    0.60
  -1   0   2    0.30    0.20
   1   0  -2    0.40    0.70
  -1   0   2   -1.00    0.50
   0   0  -2 1137.39   31.80
   0   0   2 1162.48   31.50
   0   0   2 1153.88   31.90
  -1   0  -2    0.50    0.60
   1   0   2    0.10    0.20
   1   0   2   -0.10    1.00
   1   0   2    0.10    0.50
  -2   0  -2 1034.50   29.10
  -2   0  -2 1040.40   29.70
   2   0   2 1029.40   29.50
   2   0   2 1052.29   29.10
   2   0   2 1041.70   29.90
  -3   0  -2   -1.10    0.70
   3   0   2   -0.60    0.80
   3   0   2   -0.70    1.10
  -3   0  -2    0.90    0.70
   3   0   2   -0.20    0.70
   3   0   2   -1.50    0.70
  -4   0  -2  483.25   14.20
  -4   0  -2  458.15   15.20
   4   0   2  462.15   15.40
   4   0   2  459.85   15.40
   4   0   2  459.25   14.20
   4   0   2  458.45   14.90
   5   0   2   -0.50    0.90
   5   0   2    1.30    1.60
  -5   0  -2   -1.60    1.40
  -5   0  -2    0.30    0.80
   5   0   2    1.10    1.90
  -6   0  -2  278.97   10.70
   6   0   2  262.57   11.30
   6   0   2  251.57   10.60
  -7   0  -2    0.40    1.80
   7   0   2   -0.20    1.80
   7   0   2    1.80    2.30
   8   0   2    5.00    2.50
  -8   0  -2    5.80    2.40
   8   0   2    5.00    2.70
   9   0   2    1.00    2.80
   9   0   2   -0.80    2.20
  10  -1  -2   10.70    3.70
  10  -1  -2   10.10    3.70
 -10  -1   2   16.20    4.10
  10   1  -2   11.90    3.60
 -10   1   2   10.40    3.40
  10   1  -2   11.80    3.70
   9  -1  -2    0.90    2.30
   9  -1  -2    1.50    3.00
  -9  -1   2    0.30    2.80
   9   1  -2    0.00    2.90
  -9   1   2    0.10    2.90
   9   1  -2   -3.30    2.60
  -8  -1   2   -3.20    1.40
   8  -1  -2   -2.20    1.60
   8  -1  -2   -2.10    1.60
  -8   1   2   -0.40    1.70
   8   1  -2   -0.50    1.80
   8   1  -2    3.20    2.90
   7  -1  -2  145.69    8.10
   7  -1  -2  178.48    8.70
   7  -1  -2  152.68    6.90
  -7   1   2  157.48    8.10
   7   1  -2  149.69    8.20
   7   1  -2  155.48    8.30
   6  -1  -2    5.20    1.70
   6  -1  -2    3.50    2.30
   6  -1  -2    5.10    2.40
  -6  -1   2    5.10    1.40
  -6   1   2    9.70    2.70
   6   1  -2    8.40    1.50
   6   1  -2    6.40    2.00
   6   1  -2    7.80    2.20
  -6   1   2    5.60    1.30
   5  -1  -2   22.70    3.00
   5  -1  -2   21.90    2.50
  -5  -1   2   20.10    2.10
   5  -1  -2   22.20    2.90
  -5   1   2   24.70    1.70
  -5   1   2   20.20    2.70
   5   1  -2   15.80    2.60
   5   1  -2   24.40    2.20
   5   1  -2   15.50    2.50
   4  -1  -2    0.50    0.90
   4  -1  -2    0.80    1.10
  -4  -1   2    2.50    0.90
   4  -1  -2   -0.10    1.30
  -4   1   2   -0.20    1.20
   4   1  -2    1.20    1.10
   4   1  -2    0.50    1.00
   4   1  -2    1.10    0.80
  -4   1   2   -0.20    0.50
   3  -1  -2  271.27    9.50
   3  -1  -2  280.27    9.60
   3  -1  -2  278.17    9.20
  -3  -1   2  287.97    8.60
   3   1  -2  272.97    9.50
   3   1  -2  268.37    8.70
   3   1  -2  290.17    9.40
  -3   1   2  284.57    7.90
  -3   1   2  286.27    9.40
   2  -1  -2 9494.25  254.37
   2  -1  -2 8474.85  254.37
  -2  -1   2 9137.79  253.47
   2  -1  -2 9081.99  255.07
   2   1  -2 9468.05  253.47
   2   1  -2 9551.74  254.27
  -2   1   2 9530.35  254.77
   2   1  -2 9415.86  254.87
   1  -1  -2  400.66   12.00
  -1  -1   2  398.56   11.80
  -1  -1   2  411.46   11.50
   1  -1  -2  404.16   11.70
   1   1  -2  409.76   11.70
  -1   1   2  406.66   11.40
   1   1  -2  392.36   11.90
  -1   1   2  409.66   11.90
   1   1  -2  410.46   11.50
   0  -1  -2 1370.96   37.80
   0  -1  -2 1323.87   37.80
   0  -1   2 1363.46   38.00
   0  -1   2 1368.26   37.50
   0   1  -2 1414.66   37.60
   0   1   2 1369.06   37.20
   0   1  -2 1384.96   37.90
   0   1   2 1382.76   37.90
   0   1   2 1392.56   37.80
  -1  -1  -2  423.26   12.40
  -1  -1  -2  425.76   12.90
   1  -1   2  420.76   12.90
   1  -1   2  420.66   12.30
   1  -1   2  438.56   12.10
  -1   1  -2  422.76   12.60
   1   1   2  413.36   12.70
   1   1   2  429.76   12.10
   1   1   2  432.96   13.00
  -1   1  -2  426.36   12.00
   2  -1   2  118.09    5.10
   2  -1   2  120.69    4.40
  -2  -1  -2  111.09    4.80
   2  -1   2  130.29    4.70
  -2  -1  -2  121.89    4.20
   2   1   2  117.59    5.00
  -2   1  -2  124.89    4.60
   2   1   2  117.39    4.90
   2   1   2  122.09    4.50
  -3  -1  -2  545.65   15.50
   3  -1   2  529.45   16.40
  -3  -1  -2  536.45   16.60
   3  -1   2  536.85   16.20
   3  -1   2  513.65   16.60
   3   1   2  545.85   16.80
  -3   1  -2  514.05   16.40
  -3   1  -2  531.45   15.90
   3   1   2  530.45   16.70
  -4  -1  -2    1.60    0.80
   4  -1   2   -0.50    0.90
   4  -1   2    1.80    1.50
   4  -1   2    2.00    1.40
   4  -1   2    1.30    1.00
  -4  -1  -2    0.70    0.90
   4   1   2    1.10    1.30
   4   1   2    0.90    1.20
  -4   1  -2    0.70    1.30
  -4   1  -2    0.20    0.80
   5  -1   2   65.49    3.80
  -5  -1  -2   73.29    3.30
   5  -1   2   66.39    4.30
   5  -1   2   71.49    4.70
   5  -1   2   72.49    4.60
  -5  -1  -2   74.89    4.50
   5   1   2   69.99    4.60
  -5   1  -2   67.79    4.20
   5   1   2   71.19    4.80
  -5   1  -2   69.89    3.70
   6  -1   2   84.89    5.30
  -6  -1  -2   77.79    5.30
   6  -1   2   79.99    5.50
   6   1   2   76.39    5.90
   6   1   2   86.09    5.30
  -6   1  -2   73.39    4.70
  -6   1  -2   67.69    4.60
  -7  -1  -2  232.58   10.40
   7  -1   2  258.37   11.40
   7  -1   2  249.88   10.90
  -7   1  -2  222.68   10.10
   7   1   2  232.28   11.30
   7   1   2  239.38   10.70
  -8  -1  -2    4.70    2.10
   8  -1   2    3.20    2.40
   8  -1   2    3.40    2.80
   8   1   2    4.60    2.40
  -8   1  -2    4.10    2.60
   8   1   2    0.90    2.40
   9  -1   2    6.20    3.80
   9  -1   2   11.70    3.80
   9   1   2    6.00    2.60
  -9   1  -2    3.10    3.30
   9   1   2   13.90    4.60
   9  -2  -2   25.20    4.70
  -9  -2   2   24.70    4.50
   9  -2  -2   30.70    5.00
   9   2  -2   25.40    5.00
  -9   2   2   25.20    4.50
   9   2  -2   23.00    4.50
   8  -2  -2   -0.30    2.00
   8  -2  -2    2.30    2.90
   8   2  -2    2.00    2.10
  -8   2   2    2.20    2.80
   8   2  -2    6.20    3.10
   7  -2  -2    0.50    1.70
   7  -2  -2    0.70    1.80
   7  -2  -2    2.20    1.60
  -7  -2   2    2.50    1.50
   7   2  -2    5.20    2.80
   7   2  -2    1.20    1.80
  -7   2   2    1.40    1.70
   6  -2  -2   74.99    5.60
   6  -2  -2   78.59    5.30
  -6  -2   2   81.39    4.40
   6   2  -2   83.19    5.40
   6   2  -2   89.69    5.50
  -6   2   2   85.29    5.20
   5  -2  -2  122.49    6.30
  -5  -2   2  132.19    5.50
   5  -2  -2  128.09    6.50
   5  -2  -2  132.79    5.90
   5   2  -2  130.49    6.30
   5   2  -2  128.19    4.90
   5   2  -2  121.39    6.20
  -5   2   2  129.49    4.40
  -5   2   2  124.99    6.10
   4  -2  -2  183.58    7.80
   4  -2  -2  194.48    7.30
  -4  -2   2  187.38    6.90
   4  -2  -2  198.48    7.80
   4   2  -2  196.18    6.60
  -4   2   2  188.48    7.50
   4   2  -2  202.18    7.90
   4   2  -2  207.78    7.80
  -4   2   2  199.78    5.80
   3  -2  -2   93.89    4.30
   3  -2  -2   90.69    4.20
   3  -2  -2   88.29    4.30
  -3  -2   2   93.29    3.80
   3   2  -2   93.79    3.60
   3   2  -2   89.09    4.40
  -3   2   2   82.49    4.10
   3   2  -2   85.59    4.00
   2  -2  -2 3364.96   90.89
  -2  -2   2 3321.77   90.49
   2  -2  -2 3351.56   90.89
   2   2  -2 3337.17   90.49
   2   2  -2 3280.57   90.79
  -2   2   2 3346.57   90.89
   1  -2  -2 1255.07   34.90
   1  -2  -2 1286.17   34.60
  -1  -2   2 1256.47   34.80
   1  -2  -2 1271.87   34.10
  -1   2   2 1254.17   34.80
  -1   2   2 1107.79   34.40
   1   2  -2 1271.37   34.50
   1   2  -2 1272.47   34.70
   1   2  -2 1286.27   34.10
   0  -2  -2  390.56   11.70
   0  -2  -2  391.76   11.60
   0  -2   2  388.46   11.90
   0   2   2  390.46   11.80
   0   2  -2  391.46   11.20
   0   2  -2  397.46   11.80
   0   2   2  399.06   11.30
   1  -2   2   95.59    3.40
  -1  -2  -2   98.09    3.50
   1  -2   2   96.49    4.10
  -1  -2  -2   97.99    4.00
   1  -2   2  100.89    4.10
   1   2   2   99.19    4.10
   1   2   2  102.89    3.60
  -1   2  -2   95.99    3.40
  -1   2  -2   91.69    4.00
   2  -2   2   63.39    3.00
  -2  -2  -2   65.19    2.60
   2  -2   2   62.69    3.00
   2  -2   2   61.19    3.20
  -2  -2  -2   67.09    3.60
   2  -2   2   63.89    3.40
  -2   2  -2   68.09    3.20
  -2   2  -2   64.19    2.90
   2   2   2   63.89    3.40
   2   2   2   69.29    3.10
  -3  -2  -2    9.20    1.70
   3  -2   2    5.60    1.50
   3  -2   2    7.60    1.60
  -3  -2  -2    8.80    1.00
   3  -2   2    7.00    1.50
  -3   2  -2   10.80    1.70
   3   2   2   10.10    1.80
   4  -2   2    0.70    1.00
  -4  -2  -2   -0.20    0.90
   4  -2   2    1.10    1.30
  -4  -2  -2   -0.80    0.50
   4  -2   2   -0.10    0.40
   4  -2   2    1.10    1.10
  -4   2  -2    0.90    1.10
  -4   2  -2    1.40    1.00
   4   2   2    0.10    1.10
   4   2   2    1.20    1.30
   5  -2   2  167.38    7.60
  -5  -2  -2  165.98    7.40
   5  -2   2  166.98    6.90
   5  -2   2  171.58    7.50
   5  -2   2  167.08    7.50
  -5   2  -2  158.38    7.10
   5   2   2  162.58    7.90
  -5   2  -2  158.78    6.70
   5   2   2  165.38    7.50
   6  -2   2   60.59    5.30
   6  -2   2   63.29    5.80
   6  -2   2   60.69    5.40
  -6  -2  -2   65.09    5.00
   6  -2   2   65.89    4.20
  -6   2  -2   69.99    4.70
  -6   2  -2   68.79    4.10
   6   2   2   66.99    5.20
   6   2   2   52.69    4.90
   7  -2   2  296.67   12.70
  -7  -2  -2  301.17   12.50
   7  -2   2  292.47   12.80
  -7   2  -2  298.27   12.00
   7   2   2  301.67   12.70
   7   2   2  314.47   13.50
   8  -2   2    5.60    3.30
  -8  -2  -2    7.40    2.90
   8  -2   2    9.90    3.40
   8   2   2    1.70    3.30
  -8   2  -2    5.20    3.00
   8   2   2    5.00    3.00
   9  -2   2   11.00    4.00
   9  -2   2   13.50    4.40
   9   2   2   14.20    3.60
  -9   2  -2   13.50    3.80
   9   2   2   13.10    3.80
   9  -3  -2    2.00    2.30
   9  -3  -2    4.00    2.60
   9   3  -2    3.30    2.70
   9   3  -2    3.80    2.70
  -9   3   2    0.90    2.20
   8  -3  -2    3.50    2.40
   8  -3  -2    6.40    3.30
   8   3  -2   13.60    3.40
  -8   3   2   11.00    3.40
   8   3  -2    5.50    2.70
  -7  -3   2   13.90    2.50
   7  -3  -2   20.20    3.50
   7  -3  -2   11.60    2.90
   7   3  -2   17.70    3.30
  -7   3   2   19.20    3.30
   7   3  -2   19.10    3.50
  -6  -3   2    0.10    1.30
   6  -3  -2    1.40    1.60
   6  -3  -2    1.20    2.20
   6  -3  -2    1.90    1.70
   6   3  -2    2.80    1.70
   6   3  -2    2.10    1.70
  -6   3   2    1.20    1.40
   5  -3  -2   82.69    5.20
  -5  -3   2   81.89    4.30
   5  -3  -2   78.29    4.40
   5  -3  -2   83.99    5.00
   5   3  -2   74.69    4.90
  -5   3   2   79.59    3.00
  -5   3   2   80.29    4.70
   5   3  -2   77.09    4.80
   5   3  -2   79.59    3.30
   4  -3  -2  310.27   10.80
   4  -3  -2  287.67   10.20
   4  -3  -2  281.77   10.50
  -4  -3   2  296.17    9.90
   4   3  -2  263.77   10.30
   4   3  -2  286.27    8.90
  -4   3   2  285.67   10.30
  -4   3   2  285.17    8.20
   4   3  -2  308.57   10.50
   3  -3  -2  107.59    4.80
  -3  -3   2  108.19    4.50
   3  -3  -2  106.39    4.90
   3   3  -2  106.29    5.00
   3   3  -2  109.69    4.00
   3   3  -2  108.29    4.60
  -3   3   2  108.89    3.00
  -3   3   2  108.69    3.00
  -3   3   2  106.09    4.80
   2  -3  -2  237.18    8.20
  -2  -3   2  238.48    8.10
   2  -3  -2  243.28    8.20
   2  -3  -2  241.88    6.90
  -2   3   2  250.57    8.20
   2   3  -2  239.18    8.20
   2   3  -2  237.88    7.70
   2   3  -2  233.18    7.60
  -2   3   2  249.78    8.10
   1  -3  -2  907.11   26.10
  -1  -3   2  925.51   26.20
   1  -3  -2  898.11   25.40
  -1   3   2  903.01   25.80
   1   3  -2  948.01   25.90
   1   3  -2  929.91   25.90
   1   3  -2  908.31   25.20
   0  -3   2   40.20    2.60
   0  -3   2   41.30    1.30
   0  -3  -2   42.00    2.30
   0  -3   2   38.90    2.50
   0   3  -2   43.30    2.20
   0   3  -2   44.70    2.60
   0   3  -2   42.60    1.30
   0   3  -2   40.80    1.30
   0   3   2   40.60    2.60
   1  -3   2    1.60    0.60
  -1  -3  -2    1.50    1.10
   1  -3   2    3.60    1.30
   1  -3   2    1.00    1.10
  -1  -3  -2    5.10    0.90
   1   3   2    0.40    0.60
  -1   3  -2    1.30    1.10
  -1   3  -2    0.90    0.70
   1   3   2    2.30    1.00
  -1   3  -2    3.10    0.60
   2  -3   2    0.50    0.60
  -2  -3  -2    2.60    0.70
   2  -3   2    0.30    0.80
   2  -3   2    1.00    1.10
   2  -3   2    0.70    1.20
  -2  -3  -2    0.60    0.80
  -2   3  -2    2.00    0.80
  -2   3  -2    1.70    1.20
   2   3   2    0.10    0.30
   2   3   2    0.50    1.30
  -2   3  -2    0.60    0.60
   3  -3   2  430.46   14.00
  -3  -3  -2  442.26   14.20
   3  -3   2  435.86   13.90
  -3  -3  -2  437.36   12.30
   3  -3   2  360.86   13.30
  -3   3  -2  436.56   13.80
  -3   3  -2  430.86   13.40
   3   3   2  448.26   13.80
   3   3   2  442.46   14.40
   4  -3   2  266.87    9.80
   4  -3   2  244.98    9.70
  -4  -3  -2  266.97    7.70
  -4  -3  -2  268.67   10.00
   4  -3   2  258.37    9.60
   4  -3   2  260.77    9.60
  -4   3  -2  265.67    9.40
   4   3   2  268.27   10.30
   4   3   2  257.67    9.70
  -4   3  -2  258.07    9.40
   5  -3   2   86.59    5.00
   5  -3   2   81.19    4.80
   5  -3   2   83.09    5.30
   5  -3   2   83.79    5.20
  -5  -3  -2   81.79    5.30
   5   3   2   90.49    5.30
  -5   3  -2   89.09    5.00
   5   3   2   88.59    5.50
  -5   3  -2   75.99    4.60
   6  -3   2    0.80    1.90
  -6  -3  -2    0.30    1.40
   6  -3   2    0.30    1.40
   6  -3   2   -1.60    2.00
   6  -3   2    1.30    2.10
   6   3   2    1.90    1.90
   6   3   2    1.70    2.10
  -6   3  -2   -0.10    1.10
  -6   3  -2    3.30    2.00
  -6   3  -2    2.30    1.70
   7  -3   2   83.79    7.10
   7  -3   2   79.09    5.80
  -7  -3  -2   84.49    6.10
   7   3   2   89.59    6.00
  -7   3  -2   70.69    6.30
   7   3   2   68.29    6.80
  -7   3  -2   73.69    5.20
   8  -3   2   42.20    5.70
  -8  -3  -2   38.80    4.80
   8  -3   2   34.00    4.80
  -8   3  -2   46.30    5.10
   8   3   2   39.20    5.20
   8   3   2   40.30    5.80
  -8   3  -2   41.40    5.20
   9  -4  -2   17.30    4.00
   9  -4  -2   19.40    4.30
   9   4  -2   14.00    3.70
   9   4  -2   25.10    4.70
  -9   4   2   18.20    4.10
   8  -4  -2    3.40    2.40
   8  -4  -2    0.40    0.90
   8  -4  -2   -1.70    2.60
  -8   4   2    3.30    2.50
   8   4  -2    3.80    2.50
   8   4  -2    4.40    2.60
  -7  -4   2    4.70    2.00
   7  -4  -2    3.10    2.10
   7  -4  -2    3.70    1.80
   7  -4  -2    4.70    2.30
  -7   4   2    5.10    2.20
   7   4  -2    7.20    2.60
   7   4  -2    2.50    2.00
   6  -4  -2   10.50    2.60
   6  -4  -2    5.00    2.00
  -6  -4   2    5.40    1.70
   6  -4  -2    5.40    1.90
   6   4  -2    7.80    2.80
   6   4  -2    6.60    2.70
  -6   4   2    7.90    2.30
   5  -4  -2   24.00    3.30
  -5  -4   2   28.30    3.00
   5  -4  -2   21.90    2.90
  -5   4   2   23.90    3.00
   5   4  -2   24.40    3.30
   5   4  -2   22.30    3.30
  -4  -4   2  462.65   14.90
   4  -4  -2  464.75   13.00
   4  -4  -2  444.46   15.40
   4  -4  -2  461.45   15.30
   4   4  -2  465.75   15.50
  -4   4   2  463.55   15.30
  -4   4   2  458.65   13.00
   4   4  -2  470.15   15.30
   4   4  -2  469.95   13.60
  -4   4   2  477.45   15.30
  -3  -4   2   38.70    2.80
   3  -4  -2   38.10    1.60
   3  -4  -2   37.30    2.80
   3  -4  -2   37.30    2.80
  -3   4   2   33.70    2.60
   3   4  -2   36.80    2.00
  -3   4   2   37.10    2.70
   3   4  -2   45.10    2.70
   3   4  -2   40.60    2.90
   2  -4  -2 1388.26   38.70
  -2  -4   2 1363.26   38.70
   2  -4  -2 1375.36   37.50
   2  -4  -2 1341.37   38.80
   2   4  -2 1344.77   38.10
  -2   4   2 1385.76   38.60
   2   4  -2 1379.16   38.00
   2   4  -2 1384.76   38.70
  -2   4   2 1346.37   38.70
  -1  -4   2  139.89    5.60
   1  -4  -2  140.49    5.40
   1  -4  -2  149.99    5.00
  -1  -4   2  140.49    5.30
   1   4  -2  147.19    5.20
  -1   4   2  138.99    5.30
  -1   4   2  141.99    5.50
   1   4  -2  144.69    5.40
   1   4  -2  140.59    4.60
   0  -4  -2 2216.48   60.59
   0  -4   2 2202.08   61.09
   0  -4   2 2188.88   60.79
   0  -4  -2 2180.18   60.49
   0   4   2 2242.68   60.59
   0   4   2 2208.08   60.99
   0   4  -2 2250.97   60.79
   0   4  -2 2176.68   60.49
   0   4  -2 2171.88   60.39
   1  -4   2 1607.94   46.20
   1  -4   2 1630.24   46.20
  -1  -4  -2 1622.94   46.10
  -1  -4  -2 1658.73   45.20
  -1   4  -2 1649.83   45.60
   1   4   2 1635.14   46.20
  -1   4  -2 1675.33   46.10
  -1   4  -2 1657.63   44.80
   1   4   2 1663.83   45.70
  -2  -4  -2  285.47    8.70
   2  -4   2  289.77   10.10
  -2  -4  -2  283.17   10.10
   2  -4   2  302.77   10.10
   2  -4   2  298.17    9.20
  -2   4  -2  285.47    9.50
   2   4   2  271.57   10.10
  -2   4  -2  297.67    9.10
  -2   4  -2  297.07   10.00
   2   4   2  294.17    9.70
   3  -4   2   15.90    2.20
  -3  -4  -2   18.10    1.10
   3  -4   2   13.80    1.80
   3  -4   2   19.40    2.40
  -3  -4  -2   10.90    2.20
   3  -4   2   16.10    2.40
   3   4   2   14.50    2.30
   3   4   2   17.00    2.10
  -3   4  -2   17.40    2.00
  -3   4  -2   21.40    2.40
  -4  -4  -2  325.67   12.20
   4  -4   2  337.47   12.00
   4  -4   2  335.27   12.00
   4  -4   2  346.17   12.10
   4  -4   2  329.17   11.70
   4   4   2  354.26   12.10
  -4   4  -2  332.07   11.80
  -4   4  -2  340.27   11.70
   4   4   2  330.97   12.50
  -4   4  -2  351.56   11.60
   5  -4   2   32.00    3.60
   5  -4   2   30.60    3.70
   5  -4   2   33.20    3.50
   5  -4   2   30.00    3.50
  -5  -4  -2   36.70    4.00
   5   4   2   36.30    4.10
   5   4   2   34.40    3.90
  -5   4  -2   34.00    3.40
  -5   4  -2   28.50    3.40
  -5   4  -2   31.60    3.30
  -5   4  -2   33.90    3.60
   6  -4   2    9.80    2.80
   6  -4   2    2.50    1.50
   6  -4   2    8.20    2.30
  -6  -4  -2    7.20    2.30
   6  -4   2   10.60    2.50
  -6   4  -2    6.30    1.90
  -6   4  -2    3.00    1.90
   6   4   2   10.70    3.30
  -6   4  -2    5.30    2.10
   6   4   2    9.30    2.50
  -6   4  -2    2.90    1.50
   7  -4   2   11.90    3.00
   7  -4   2   13.10    3.20
   7  -4   2    7.40    3.00
  -7  -4  -2   13.30    3.00
   7   4   2    8.60    2.50
   7   4   2    8.60    3.00
  -7   4  -2   13.90    3.00
  -7   4  -2   13.10    2.60
  -7   4  -2   14.40    3.00
  -7   4  -2   11.30    2.70
   8  -4   2    1.50    2.20
   8  -4   2    0.70    2.00
  -8  -4  -2    1.00    1.80
   8   4   2    4.90    2.40
   8   4   2   -3.00    1.90
  -8   4  -2    2.20    1.70
  -8   4  -2   -1.50    1.50
   9  -5  -2    1.80    2.50
   9   5  -2    3.20    2.60
  -9   5   2   -0.30    1.90
  -9   5   2   -3.20    2.90
   9   5  -2    2.00    3.30
   8  -5  -2    7.60    3.00
  -8  -5   2    5.80    2.80
   8  -5  -2   10.30    3.00
   8   5  -2    5.20    2.70
  -8   5   2   11.40    3.10
   8   5  -2    9.70    3.20
  -8   5   2   10.60    3.00
  -7  -5   2   26.10    3.50
   7  -5  -2   29.50    4.10
   7  -5  -2   19.40    3.80
  -7   5   2   28.80    4.40
   7   5  -2   17.00    4.00
  -7   5   2   36.20    4.40
   7   5  -2   28.10    4.20
   6  -5  -2   70.59    5.20
   6  -5  -2   67.99    4.70
  -6  -5   2   65.49    4.40
   6   5  -2   54.69    5.60
  -6   5   2   66.49    4.80
   6   5  -2   67.69    5.00
  -6   5   2   62.59    4.70
   5  -5  -2   66.19    4.60
   5  -5  -2   61.39    4.50
  -5  -5   2   59.29    3.90
  -5   5   2   51.89    4.70
   5   5  -2   57.39    5.00
  -5   5   2   70.99    4.50
   5   5  -2   57.59    4.40
  -4  -5   2    3.10    1.50
   4  -5  -2    4.20    0.80
   4  -5  -2    4.20    1.60
   4  -5  -2    5.40    1.80
  -4   5   2    3.60    1.70
  -4   5   2    4.20    1.50
   4   5  -2    5.90    1.70
   4   5  -2    4.20    0.90
   4   5  -2    3.60    1.40
   3  -5  -2  272.27   10.10
   3  -5  -2  276.87   10.10
   3  -5  -2  279.57    8.50
  -3  -5   2  278.57   10.00
   3   5  -2  293.27    8.90
  -3   5   2  281.87   10.00
  -3   5   2  266.97    9.90
   3   5  -2  284.37    9.70
   3   5  -2  288.27   10.30
   2  -5  -2   13.00    1.90
   2  -5  -2   13.80    1.40
  -2  -5   2   14.50    2.20
   2   5  -2   11.80    1.50
   2   5  -2   14.70    2.10
   2   5  -2   14.20    1.70
  -2   5   2   11.40    1.80
  -2   5   2   15.40    2.10
  -1  -5   2  191.58    6.80
   1  -5  -2  196.98    7.10
  -1  -5   2  176.58    7.10
   1  -5  -2  190.78    6.50
  -1   5   2  185.58    7.00
   1   5  -2  193.88    6.80
   1   5  -2  194.28    7.00
  -1   5   2  194.88    7.10
   1   5  -2  190.48    6.20
   0  -5  -2  119.29    4.70
   0  -5   2  116.79    5.00
   0  -5   2  121.29    5.20
   0  -5  -2  119.29    4.90
   0   5  -2  119.59    5.00
   0   5   2  115.09    4.80
   0   5  -2  118.19    4.00
   0   5   2  121.09    5.20
   0   5  -2  114.79    4.70
   1  -5   2  753.52   22.70
  -1  -5  -2  779.22   21.70
   1  -5   2  747.73   22.70
  -1  -5  -2  759.02   22.60
   1   5   2  747.43   22.70
  -1   5  -2  748.43   22.60
   1   5   2  752.02   22.30
  -1   5  -2  780.42   21.30
  -1   5  -2  744.93   22.10
   2  -5   2  229.68    8.70
  -2  -5  -2  234.08    8.70
   2  -5   2  234.08    8.60
  -2  -5  -2  232.68    7.20
  -2   5  -2  235.58    7.60
   2   5   2  231.88    8.90
  -2   5  -2  216.08    8.10
   2   5   2  236.58    8.40
   3  -5   2  250.77    8.60
   3  -5   2  243.38    8.90
  -3  -5  -2  235.38    6.90
  -3  -5  -2  211.88    9.10
   3  -5   2  239.48    9.10
   3  -5   2  226.28    9.10
   3   5   2  241.68    9.40
  -3   5  -2  245.38    8.30
   3   5   2  230.48    8.80
  -3   5  -2  242.98    8.70
  -4  -5  -2  181.48    8.10
   4  -5   2  176.68    7.70
   4  -5   2  180.98    7.60
   4  -5   2  184.68    7.90
  -4   5  -2  176.58    7.40
  -4   5  -2  181.28    7.10
   4   5   2  167.88    8.00
   4   5   2  171.38    7.70
   5  -5   2    9.90    2.30
   5  -5   2    9.10    2.10
   5  -5   2    8.10    2.30
   5  -5   2    5.70    1.90
  -5  -5  -2   10.90    2.50
  -5   5  -2    6.60    1.80
  -5   5  -2    4.60    1.50
   5   5   2    7.80    2.20
  -5   5  -2    9.30    2.00
   5   5   2    2.90    1.90
  -6  -5  -2  195.78    9.20
   6  -5   2  172.28    8.50
   6  -5   2  169.78    8.60
   6  -5   2  195.08    9.30
  -6   5  -2  186.58    8.50
   6   5   2  205.08    9.30
  -6   5  -2  192.68    8.60
   6   5   2  182.18    9.50
  -6   5  -2  191.08    8.80
  -6   5  -2  194.78    8.40
   7  -5   2   61.99    6.10
   7  -5   2   58.09    5.50
   7  -5   2   78.29    6.80
  -7  -5  -2   69.99    6.30
   7   5   2   73.89    7.20
  -7   5  -2   64.99    5.70
  -7   5  -2   57.39    5.40
   7   5   2   60.99    6.00
  -7   5  -2   66.99    6.00
   8  -5   2   19.40    4.40
   8  -5   2   19.50    3.90
  -8  -5  -2   23.80    4.40
   8   5   2   28.50    5.10
   8   5   2   18.90    3.80
  -8   5  -2   25.80    4.10
  -8   5  -2   26.60    4.20
   9  -6  -2    6.90    3.20
   9   6  -2    0.60    2.40
  -9   6   2    5.60    3.40
   9   6  -2    2.50    3.50
  -9   6   2    6.80    3.00
   8  -6  -2   67.59    6.40
  -8  -6   2   50.49    5.40
   8  -6  -2   63.59    6.70
  -8   6   2   58.89    6.10
  -8   6   2   49.50    5.70
   8   6  -2   55.49    6.40
   8   6  -2   46.50    5.80
   7  -6  -2   20.20    3.40
  -7  -6   2   22.60    3.40
   7  -6  -2   13.50    3.20
  -7   6   2   19.00    3.50
  -7   6   2   17.30    3.70
   7   6  -2   34.40    5.00
   7   6  -2   22.80    4.00
   6  -6  -2  100.89    7.00
  -6  -6   2  139.39    6.90
   6  -6  -2  128.39    6.90
  -6   6   2  115.39    6.90
   6   6  -2  118.19    7.10
  -6   6   2  120.29    7.00
   6   6  -2  117.39    7.00
   5  -6  -2  151.28    7.80
   5  -6  -2  166.78    8.00
  -5  -6   2  174.68    7.60
  -5   6   2  161.98    7.60
  -5   6   2  173.08    7.90
   5   6  -2  157.28    7.60
   5   6  -2  167.38    8.10
   4  -6  -2  320.17   11.80
   4  -6  -2  319.77    9.60
   4  -6  -2  315.67   11.80
  -4  -6   2  301.67   11.40
   4   6  -2  312.67    9.60
  -4   6   2  294.27   11.40
   4   6  -2  319.37   11.90
   4   6  -2  320.27   11.40
  -4   6   2  309.57   11.50
   3  -6  -2  170.98    5.90
  -3  -6   2  172.08    7.30
   3  -6  -2  160.58    7.20
   3  -6  -2  175.58    7.40
  -3   6   2  190.88    7.40
   3   6  -2  170.88    6.90
   3   6  -2  182.98    6.10
  -3   6   2  163.38    7.10
   3   6  -2  168.68    7.40
   2  -6  -2  175.58    7.00
  -2  -6   2  158.38    6.90
   2  -6  -2  174.88    6.10
  -2   6   2  157.88    6.70
  -2   6   2  178.38    7.00
   2   6  -2  175.88    6.30
   2   6  -2  177.08    6.20
   2   6  -2  157.98    6.80
   1  -6  -2   12.20    1.60
  -1  -6   2    8.20    1.70
   1  -6  -2   17.80    2.10
  -1  -6   2   11.40    1.60
   1   6  -2   12.40    1.40
  -1   6   2   14.60    2.00
   1   6  -2   14.30    1.70
  -1   6   2   10.00    2.00
   1   6  -2   11.30    1.80
   0  -6  -2  496.15   15.10
   0  -6   2  475.25   15.40
   0  -6  -2  493.85   15.30
   0  -6   2  477.85   15.70
   0   6   2  486.35   15.60
   0   6   2  495.95   15.40
   0   6  -2  472.25   15.20
   0   6  -2  506.35   15.40
   0   6  -2  488.95   14.20
   1  -6   2    3.70    1.30
  -1  -6  -2    4.70    1.30
   1  -6   2    4.60    1.40
  -1  -6  -2    5.70    1.10
  -1   6  -2    6.50    1.50
   1   6   2    1.80    1.20
  -1   6  -2    6.50    1.60
  -1   6  -2    7.40    1.10
   1   6   2    3.90    1.20
  -2  -6  -2  586.44   17.00
   2  -6   2  604.74   18.70
  -2  -6  -2  574.04   18.70
   2  -6   2  591.94   18.90
  -2   6  -2  586.54   17.30
   2   6   2  604.64   18.90
  -2   6  -2  601.44   18.20
   2   6   2  558.14   18.30
  -3  -6  -2  235.58    9.50
  -3  -6  -2  203.98    7.30
   3  -6   2  255.27    9.40
   3  -6   2  252.57    9.70
   3   6   2  243.48    9.70
   3   6   2  250.07    9.30
  -3   6  -2  245.48    8.40
  -3   6  -2  248.28    9.00
   4  -6   2    1.40    1.80
  -4  -6  -2    1.10    1.40
   4  -6   2    1.30    1.70
   4  -6   2    1.50    1.40
   4   6   2   -0.50    1.30
  -4   6  -2    2.70    1.30
   4   6   2    0.10    1.60
  -4   6  -2    3.40    1.30
   5  -6   2    0.30    1.00
   5  -6   2    0.40    2.10
   5  -6   2    1.90    1.70
   5  -6   2    2.80    1.90
  -5  -6  -2    0.80    1.60
   5   6   2   -0.10    1.30
  -5   6  -2    2.30    1.40
  -5   6  -2    1.40    1.60
   5   6   2    1.50    1.70
   6  -6   2   13.80    2.70
   6  -6   2    7.20    2.00
  -6  -6  -2   10.10    2.80
   6  -6   2   10.00    2.60
   6  -6   2   11.20    3.00
  -6   6  -2    9.50    2.10
  -6   6  -2   12.90    2.60
  -6   6  -2   14.20    3.10
  -6   6  -2    8.00    2.10
   6   6   2   17.10    3.20
   6   6   2    8.60    2.70
   7  -6   2   -3.10    1.10
  -7  -6  -2   -0.50    1.60
   7  -6   2    0.70    1.70
   7  -6   2   -3.30    2.20
  -7   6  -2    1.10    1.60
  -7   6  -2   -1.00    1.40
  -7   6  -2    1.20    2.20
   7   6   2    5.60    2.90
   7   6   2    2.20    2.40
   8  -6   2    5.30    3.10
   8  -6   2   -0.10    2.90
  -8  -6  -2    4.80    2.50
   8   6   2    5.60    3.00
  -8   6  -2    1.60    2.40
  -8   6  -2    6.30    2.90
   8   6   2    0.40    2.70
   9  -7  -2    1.80    2.70
  -9   7   2    1.60    2.40
   9   7  -2    0.90    2.40
   9   7  -2    4.00    3.00
  -9   7   2    3.10    2.50
   8  -7  -2   46.60    6.00
   8  -7  -2   37.20    5.00
  -8  -7   2   51.89    5.60
  -8   7   2   45.20    5.50
  -8   7   2   47.10    5.70
   8   7  -2   50.49    6.60
   8   7  -2   49.70    6.00
   7  -7  -2   97.69    6.50
  -7  -7   2   92.29    6.00
   7  -7  -2  101.99    7.50
   7   7  -2   93.59    7.30
  -7   7   2   90.19    6.40
   7   7  -2   97.09    7.20
  -7   7   2   92.19    6.40
   6  -7  -2  120.39    6.90
   6  -7  -2  108.59    7.00
  -6  -7   2  120.19    6.80
  -6   7   2  112.69    6.60
   6   7  -2  129.59    7.10
   6   7  -2  105.99    6.90
  -6   7   2  101.69    6.50
  -5  -7   2  478.75   16.60
   5  -7  -2  470.55   17.00
   5  -7  -2  474.85   16.80
   5   7  -2  456.65   16.50
  -5   7   2  459.95   16.60
   5   7  -2  478.45   17.10
  -5   7   2  482.65   16.70
  -4  -7   2    8.60    2.10
   4  -7  -2    8.50    2.20
   4  -7  -2    8.60    2.60
  -4   7   2    8.80    2.10
   4   7  -2    5.50    2.30
  -4   7   2    2.70    1.90
   4   7  -2    9.80    2.20
   3  -7  -2    5.70    1.90
   3  -7  -2    6.10    1.20
  -3  -7   2    6.50    1.80
   3   7  -2    6.30    1.80
   3   7  -2    6.60    1.30
   3   7  -2    5.30    1.40
   2  -7  -2   14.80    2.30
  -2  -7   2   24.00    2.90
   2  -7  -2   22.40    2.20
  -2  -7   2   19.50    2.20
   2   7  -2   18.20    2.00
  -2   7   2   16.80    2.40
  -2   7   2   21.70    2.60
   2   7  -2   18.40    2.10
   2   7  -2   17.80    2.70
   1  -7  -2    2.70    1.20
  -1  -7   2    3.20    1.30
  -1  -7   2    4.40    1.50
  -1   7   2    2.70    1.30
  -1   7   2    4.60    1.70
   1   7  -2    3.40    1.10
   1   7  -2    3.50    1.40
   1   7  -2    4.60    1.60
   0  -7  -2  227.28    8.40
   0  -7   2  244.68    9.20
   0  -7   2  236.78    8.90
   0  -7  -2  237.58    8.80
   0   7  -2  242.88    8.80
   0   7   2  238.18    9.00
   0   7  -2  239.48    8.90
   0   7   2  231.18    8.80
   0   7  -2  242.18    7.70
   1  -7   2    0.20    1.30
  -1  -7  -2    0.30    0.90
   1  -7   2   -0.90    1.30
  -1  -7  -2    0.80    1.00
   1   7   2    0.80    1.30
  -1   7  -2   -0.20    0.80
  -1   7  -2   -0.30    0.60
   1   7   2    0.60    1.10
  -2  -7  -2  340.27   10.50
   2  -7   2  334.47   12.30
   2  -7   2  347.57   12.20
  -2  -7  -2  342.37   12.20
  -2   7  -2  330.97   10.70
  -2   7  -2  331.67   11.70
   2   7   2  324.77   12.10
   2   7   2  336.07   11.90
   3  -7   2  189.38    8.10
   3  -7   2  183.08    8.30
  -3  -7  -2  185.88    8.30
   3   7   2  192.28    8.60
   3   7   2  198.48    8.30
  -3   7  -2  190.48    7.90
  -3   7  -2  186.78    7.10
   4  -7   2   16.30    2.90
   4  -7   2   20.50    3.40
  -4  -7  -2   24.90    3.40
  -4   7  -2   25.50    2.80
   4   7   2   33.50    4.00
   4   7   2   25.80    3.50
  -4   7  -2   17.10    2.90
   5  -7   2  124.99    6.90
  -5  -7  -2  135.89    7.40
   5  -7   2  140.49    7.40
   5   7   2  132.39    7.10
  -5   7  -2  134.69    7.00
   5   7   2  117.09    7.30
  -5   7  -2  130.69    6.30
   6  -7   2    1.70    2.10
  -6  -7  -2    2.30    2.50
   6  -7   2    1.40    2.00
   6  -7   2    6.70    2.40
  -6   7  -2    4.90    2.10
  -6   7  -2    6.30    2.40
   6   7   2    5.20    2.50
  -6   7  -2    4.90    1.80
   6   7   2    5.50    2.40
  -7  -7  -2    1.10    2.60
   7  -7   2    0.10    2.40
   7  -7   2   -0.10    2.80
   7   7   2    4.70    2.70
  -7   7  -2    0.60    2.00
  -7   7  -2    0.90    2.50
   7   7   2   -1.80    1.60
  -7   7  -2    1.80    2.30
   8  -7   2  113.49    8.40
  -8  -7  -2  121.89    8.50
   8   7   2  117.79    8.70
  -8   7  -2  128.79    8.00
   8   7   2  116.89    8.00
  -8  -8   2   10.60    3.30
   8  -8  -2   11.00    3.50
   8  -8  -2    7.20    3.10
  -8   8   2   10.60    3.30
   8   8  -2    7.60    3.10
   8   8  -2   11.90    3.60
  -8   8   2   12.00    3.60
   7  -8  -2   32.40    4.90
  -7  -8   2   38.90    4.90
   7  -8  -2   35.00    5.40
   7   8  -2   40.50    5.30
  -7   8   2   41.60    5.00
   7   8  -2   43.00    5.40
  -7   8   2   36.60    5.00
  -6  -8   2    8.30    2.80
   6  -8  -2    1.20    2.80
   6  -8  -2    7.60    2.60
   6   8  -2    2.60    2.10
  -6   8   2    4.40    2.10
   6   8  -2    7.60    2.50
  -6   8   2    8.20    2.90
   5  -8  -2   89.59    5.90
  -5  -8   2   92.09    6.00
   5  -8  -2   79.79    5.80
  -5   8   2   94.79    5.80
   5   8  -2   89.29    5.90
   5   8  -2   77.49    5.70
  -5   8   2  102.59    5.90
   4  -8  -2  291.87   11.90
  -4  -8   2  295.37   11.80
   4   8  -2  316.97   11.50
   4   8  -2  298.27   12.00
  -4   8   2  290.87   11.40
  -4   8   2  309.77   11.80
  -3  -8   2  664.73   21.70
   3  -8  -2  668.43   21.70
   3  -8  -2  678.83   20.00
  -3   8   2  684.03   21.50
   3   8  -2  632.34   21.40
  -3   8   2  647.54   21.20
   3   8  -2  684.63   20.80
   3   8  -2  664.43   19.70
  -2  -8   2  128.99    6.30
   2  -8  -2  122.69    6.10
  -2  -8   2  123.59    5.40
   2  -8  -2  128.89    5.40
  -2   8   2  116.39    5.90
   2   8  -2  124.39    5.30
   2   8  -2  125.69    6.10
  -2   8   2  127.89    6.00
   2   8  -2  124.29    5.40
   1  -8  -2  190.28    7.50
  -1  -8   2  195.38    7.60
   1  -8  -2  209.08    8.10
  -1  -8   2  205.28    8.50
  -1   8   2  196.68    8.10
   1   8  -2  184.98    7.90
   1   8  -2  199.08    7.00
  -1   8   2  181.08    7.80
   1   8  -2  199.78    7.60
   0  -8   2    3.30    1.40
   0  -8  -2    5.20    1.60
   0  -8   2    3.70    1.50
   0  -8  -2    4.00    1.40
   0   8  -2    4.60    1.40
   0   8  -2    6.30    1.20
   0   8   2    5.00    1.60
   0   8  -2    4.70    1.40
   0   8   2    5.30    2.00
  -1  -8  -2   20.90    2.90
   1  -8   2   18.40    2.70
   1  -8   2   16.60    2.50
  -1  -8  -2   17.90    2.20
   1   8   2   17.20    2.80
  -1   8  -2   16.70    2.40
  -1   8  -2   21.30    2.00
   1   8   2   14.70    2.50
   2  -8   2   19.20    2.80
  -2  -8  -2   18.10    2.80
  -2  -8  -2   18.50    1.90
   2  -8   2   16.30    2.90
   2   8   2   19.60    2.80
  -2   8  -2   28.50    2.50
   2   8   2   19.30    2.90
  -2   8  -2   27.00    3.10
  -3  -8  -2   95.19    5.80
   3  -8   2   97.39    5.80
   3  -8   2  110.19    6.20
  -3   8  -2  115.09    5.70
   3   8   2  110.59    5.90
   3   8   2  108.49    6.10
  -3   8  -2  102.49    4.90
   4  -8   2   32.60    4.40
   4  -8   2   31.90    3.90
  -4  -8  -2   34.60    4.20
   4   8   2   19.60    3.40
   4   8   2   24.40    3.50
  -4   8  -2   31.60    3.60
  -4   8  -2   28.20    3.10
   5  -8   2    4.40    2.10
   5  -8   2    4.90    1.80
  -5  -8  -2    2.60    1.90
  -5   8  -2    5.30    1.90
  -5   8  -2    2.00    1.80
   5   8   2    4.90    2.40
   5   8   2    4.90    2.10
   6  -8   2    1.50    2.10
  -6  -8  -2   -0.40    2.40
  -6   8  -2    3.20    2.30
  -6   8  -2    1.30    1.40
   6   8   2    4.20    2.30
  -6   8  -2    0.10    1.60
   6   8   2    3.20    2.30
  -7  -8  -2   -1.10    1.70
   7  -8   2    0.60    2.60
  -7   8  -2   -2.00    1.10
   7   8   2    3.20    2.80
  -7   8  -2    2.40    2.80
   7   8   2   -3.90    2.50
   8  -9  -2    6.50    3.10
   8  -9  -2    5.00    3.60
  -8  -9   2    9.20    3.40
   8   9  -2    4.80    2.70
  -8   9   2    9.80    3.20
   8   9  -2    5.90    2.90
  -8   9   2   11.70    3.80
   7  -9  -2    6.20    3.50
   7  -9  -2    5.20    3.20
  -7  -9   2    5.60    3.00
   7   9  -2    4.00    2.60
  -7   9   2    5.30    2.50
  -7   9   2    2.70    2.40
   7   9  -2    6.60    2.70
   6  -9  -2    0.60    2.60
  -6  -9   2   -2.00    2.10
   6   9  -2    2.10    2.10
   6   9  -2   -0.20    2.30
  -6   9   2    0.90    2.60
  -6   9   2   -1.60    2.10
  -5  -9   2   15.30    3.40
   5  -9  -2   15.10    3.10
  -5   9   2   20.80    3.50
   5   9  -2   17.70    3.30
   5   9  -2   14.10    3.10
  -5   9   2   18.10    3.20
  -4  -9   2   11.90    2.70
   4  -9  -2   11.70    2.60
   4   9  -2    5.00    2.10
  -4   9   2   10.30    2.40
   4   9  -2    8.50    2.40
  -4   9   2   10.80    2.50
   3  -9  -2  526.95   16.70
  -3  -9   2  530.55   18.40
   3  -9  -2  559.14   18.60
  -3   9   2  511.45   17.90
   3   9  -2  516.25   16.30
  -3   9   2  527.35   17.90
   3   9  -2  544.75   17.40
   3   9  -2  547.05   18.40
  -2  -9   2   33.20    4.00
   2  -9  -2   40.70    3.10
   2  -9  -2   35.00    3.70
  -2  -9   2   39.50    3.00
   2   9  -2   36.40    3.20
  -2   9   2   51.59    4.50
   2   9  -2   32.00    3.70
   2   9  -2   34.70    2.70
  -2   9   2   44.40    4.00
   1  -9  -2   83.09    5.00
  -1  -9   2   84.79    5.10
  -1  -9   2   75.09    4.50
   1  -9  -2   79.09    4.60
   1   9  -2   74.99    4.90
   1   9  -2   86.79    4.70
  -1   9   2   79.29    4.80
  -1   9   2   86.19    4.90
   1   9  -2   81.59    4.10
   0  -9   2  104.69    5.80
   0  -9   2  112.99    5.60
   0  -9  -2   98.59    5.10
   0  -9  -2  107.79    5.50
   0   9   2   97.19    5.70
   0   9  -2  103.29    5.70
   0   9   2   93.79    5.40
   0   9  -2  101.49    5.40
   0   9  -2  109.29    4.60
   1  -9   2   -1.30    1.70
  -1  -9  -2    0.40    1.10
   1  -9   2    0.30    1.20
  -1  -9  -2    1.80    1.70
  -1   9  -2   -0.40    1.00
   1   9   2    0.00    1.30
   1   9   2   -0.20    1.70
  -1   9  -2   -0.90    1.50
   2  -9   2   80.39    5.50
  -2  -9  -2   79.59    3.90
  -2  -9  -2   86.09    5.50
   2  -9   2   71.09    4.80
  -2   9  -2   79.89    4.00
   2   9   2   76.29    4.90
   2   9   2   82.39    5.20
  -2   9  -2   70.99    4.90
  -3  -9  -2  442.66   16.50
   3  -9   2  474.85   16.40
   3  -9   2  432.26   16.50
   3   9   2  472.95   16.80
  -3   9  -2  459.75   14.80
   3   9   2  455.45   16.40
  -3   9  -2  473.15   16.10
   4  -9   2   61.09    6.00
   4  -9   2   57.99    5.30
  -4  -9  -2   52.99    5.30
   4   9   2   62.49    4.80
  -4   9  -2   57.39    4.00
   4   9   2   53.49    5.40
  -4   9  -2   67.49    4.70
   5  -9   2    4.60    1.80
   5  -9   2    4.20    2.30
  -5  -9  -2    5.10    2.40
   5   9   2    6.40    3.00
  -5   9  -2    9.90    2.60
   5   9   2    7.50    3.30
   6  -9   2   13.40    3.40
  -6  -9  -2   11.80    3.30
  -6   9  -2    8.60    2.70
  -6   9  -2   10.30    3.10
   6   9   2    8.30    3.00
   6   9   2   12.30    3.40
   7  -9   2   -1.10    2.70
  -7  -9  -2   -1.80    2.50
  -7   9  -2    2.50    2.00
   7   9   2   -0.90    2.10
  -7   9  -2    1.30    2.60
   7   9   2   -1.40    1.80
   8 -10  -2    4.40    2.80
  -8 -10   2    5.50    3.20
  -8  10   2    7.90    3.70
   8  10  -2    0.60    3.20
   8  10  -2    8.50    4.00
  -8  10   2    3.30    2.50
   7 -10  -2    1.30    2.20
  -7 -10   2    2.20    2.60
  -7  10   2   -1.00    1.70
  -7  10   2    0.40    2.20
   7  10  -2    0.20    2.20
   7  10  -2    2.00    2.90
  -6 -10   2    6.10    2.50
   6 -10  -2    1.20    2.90
   6  10  -2    2.80    2.10
  -6  10   2    3.30    2.70
   6  10  -2    1.50    2.20
  -6  10   2    4.30    2.40
   5 -10  -2   10.40    2.80
  -5 -10   2   11.30    3.30
  -5  10   2    7.50    2.90
   5  10  -2   10.40    3.30
   5  10  -2   10.20    2.60
  -5  10   2    8.60    2.60
  -4 -10   2   -0.20    1.60
   4 -10  -2    2.60    2.00
   4  10  -2   -0.80    2.10
  -4  10   2    1.30    1.60
  -4  10   2    2.10    2.30
   4  10  -2    1.00    1.80
  -3 -10   2    3.50    1.90
   3 -10  -2    1.40    1.60
   3 -10  -2    1.40    1.30
  -3  10   2    0.70    2.00
   3  10  -2    0.80    1.10
   3  10  -2    0.60    2.10
  -3  10   2    0.60    1.60
  -2 -10   2   36.20    3.50
  -2 -10   2   34.20    4.00
   2 -10  -2   29.50    3.30
   2 -10  -2   25.70    3.60
  -2  10   2   31.40    3.60
  -2  10   2   29.60    3.60
   2  10  -2   35.60    4.00
   2  10  -2   36.40    3.40
   2  10  -2   28.60    3.00
   1 -10  -2   21.30    3.20
  -1 -10   2   23.60    3.10
  -1 -10   2   21.70    3.30
   1 -10  -2   29.30    3.30
   1  10  -2   20.90    2.40
   1  10  -2   23.90    3.50
  -1  10   2   24.60    3.60
  -1  10   2   25.10    3.30
   1  10  -2   22.80    3.00
   0 -10  -2   89.79    5.40
   0 -10   2   84.59    5.10
   0 -10   2  103.19    5.80
   0 -10  -2   83.09    4.80
   0  10  -2   94.79    4.40
   0  10   2   94.09    5.50
   0  10  -2   86.89    5.30
   0  10  -2   73.49    4.80
   0  10   2   83.79    5.60
  -1 -10  -2  485.25   16.00
   1 -10   2  494.25   17.40
  -1 -10  -2  514.55   17.40
   1 -10   2  487.45   17.20
   1  10   2  490.45   17.20
   1  10   2  535.05   17.40
  -1  10  -2  495.15   17.10
  -1  10  -2  483.35   15.50
  -1  10  -2  472.95   16.90
  -2 -10  -2  207.68    9.60
   2 -10   2  228.58    9.70
   2 -10   2  204.28    9.50
  -2  10  -2  202.58    9.00
   2  10   2  200.78    9.20
   2  10   2  204.68    9.40
  -2  10  -2  204.78    7.80
  -3 -10  -2   86.89    5.90
   3 -10   2   95.09    6.10
   3 -10   2   92.49    6.20
  -3  10  -2   93.89    5.90
   3  10   2   88.89    5.80
   3  10   2   89.99    6.30
   4 -10   2    4.90    2.40
  -4 -10  -2    3.10    2.10
   4 -10   2    6.60    2.60
  -4  10  -2    2.90    1.90
   4  10   2    2.00    2.40
   4  10   2    4.50    2.80
   5 -10   2  143.39    8.90
  -5 -10  -2  132.89    8.30
  -5  10  -2  156.88    8.10
   5  10   2  150.18    8.80
   5  10   2  154.08    8.80
  -6 -10  -2   73.99    7.20
   6 -10   2   92.79    6.90
   6  10   2   77.39    7.30
  -6  10  -2   67.29    6.30
  -6  10  -2   83.79    6.40
   6  10   2   70.79    7.20
   7 -10   2   -2.10    2.80
  -7 -10  -2    1.40    2.30
   7  10   2    0.20    3.50
   7  10   2    6.00    2.70
  -7  10  -2   -0.90    2.90
  -7  10  -2    0.50    1.80
   7 -11  -2   27.50    4.80
  -7 -11   2   23.40    4.50
   7  11  -2   22.90    4.20
   7  11  -2   20.40    4.80
  -7  11   2   24.60    4.60
  -7  11   2   23.70    4.30
  -6 -11   2    7.90    2.80
   6 -11  -2    5.90    3.30
  -6  11   2    6.50    3.10
   6  11  -2    5.20    2.90
  -6  11   2    9.00    3.00
   6  11  -2    5.90    2.80
  -5 -11   2    5.40    2.90
   5 -11  -2    3.20    2.40
  -5  11   2    5.90    2.30
   5  11  -2    2.60    2.30
  -5  11   2    5.10    2.40
   5  11  -2    7.50    2.80
   4 -11  -2   -0.80    1.70
  -4 -11   2    1.30    1.70
   4  11  -2    2.80    2.10
  -4  11   2   -0.60    2.30
  -4  11   2   -2.10    1.90
   4  11  -2    0.50    1.90
  -3 -11   2    1.30    1.80
   3 -11  -2   -0.60    2.30
  -3  11   2    0.70    2.10
   3  11  -2    0.10    1.60
   3  11  -2    0.90    1.70
  -3  11   2   -1.20    1.40
   2 -11  -2   72.69    5.10
   2 -11  -2   77.69    4.80
  -2 -11   2   74.49    4.60
  -2 -11   2   76.99    5.50
   2  11  -2   71.09    5.20
  -2  11   2   69.09    5.40
  -2  11   2   69.99    5.30
   2  11  -2   74.09    4.50
   2  11  -2   68.99    4.40
  -1 -11   2   96.89    5.40
   1 -11  -2   96.09    5.70
   1 -11  -2   98.49    5.90
  -1 -11   2  105.99    6.30
  -1  11   2   98.49    5.90
   1  11  -2   92.39    5.30
  -1  11   2  105.09    6.20
   1  11  -2  103.39    6.10
   1  11  -2   88.89    4.80
   0 -11  -2  125.69    6.90
   0 -11   2  133.79    7.20
   0 -11  -2  118.79    6.20
   0 -11   2  130.59    7.00
   0  11  -2  129.49    6.90
   0  11   2  134.99    7.10
   0  11  -2  127.49    5.70
   0  11   2  137.99    7.30
   0  11  -2  125.39    6.80
  -1 -11  -2    3.10    2.30
  -1 -11  -2    0.90    1.50
   1 -11   2    6.50    2.30
   1 -11   2    2.70    1.80
   1  11   2    4.00    2.00
  -1  11  -2    5.30    2.10
   1  11   2    2.50    1.80
  -1  11  -2    3.60    1.90
   2 -11   2   96.59    6.30
  -2 -11  -2   97.29    6.20
   2 -11   2   98.99    6.40
  -2  11  -2   97.09    6.30
   2  11   2   88.39    6.00
   2  11   2  103.99    6.30
  -3 -11  -2   15.30    3.20
   3 -11   2   14.20    3.00
   3 -11   2   15.20    3.30
   3  11   2   15.40    3.60
  -3  11  -2   30.10    4.10
   3  11   2   23.60    4.10
   4 -11   2  237.88   10.80
  -4 -11  -2  231.38   11.10
   4 -11   2  231.78   11.30
   4  11   2  228.88   10.80
   4  11   2  225.88   11.00
  -4  11  -2  235.78   10.60
   5 -11   2  125.09    8.20
  -5 -11  -2  138.69    8.80
   5  11   2  140.29    8.20
  -5  11  -2  123.59    7.50
  -5  11  -2  137.99    8.20
   5  11   2  118.59    8.10
   6 -11   2   20.70    4.80
  -6 -11  -2   18.90    4.60
   6  11   2   21.30    4.10
  -6  11  -2   21.30    4.10
   6  11   2   37.30    5.40
  -6  11  -2   27.50    4.90
  -7 -12   2   -3.30    2.60
   7 -12  -2    1.50    2.40
   7  12  -2   -2.40    2.60
   7  12  -2    1.00    2.50
  -7  12   2    4.50    3.20
  -7  12   2   -0.90    3.00
   6 -12  -2    5.60    3.50
  -6 -12   2    5.20    2.60
  -6  12   2    7.20    2.90
   6  12  -2    6.70    2.60
  -6  12   2    7.50    2.60
   6  12  -2    4.90    2.80
   5 -12  -2   12.00    3.90
  -5 -12   2   14.00    3.50
   5  12  -2   12.80    3.40
   5  12  -2   11.80    3.20
  -5  12   2   11.70    3.20
  -5  12   2    9.60    2.80
  -4 -12   2   -3.00    1.40
   4 -12  -2   -1.60    2.50
  -4  12   2    1.50    2.10
   4  12  -2    1.40    2.00
  -4  12   2   -0.50    2.30
   4  12  -2   -0.30    1.40
  -3 -12   2   23.40    4.20
   3 -12  -2   25.40    4.00
  -3  12   2   27.50    4.10
  -3  12   2   30.90    4.30
   3  12  -2   30.00    4.20
   3  12  -2   34.30    3.90
   2 -12  -2   -0.90    1.30
  -2 -12   2    1.40    1.70
  -2 -12   2    1.50    1.90
   2 -12  -2   -0.40    1.60
  -2  12   2    0.10    1.60
  -2  12   2   -1.60    1.60
   2  12  -2   -2.30    1.30
   2  12  -2   -0.20    1.50
   2  12  -2   -0.10    1.70
  -1 -12   2  147.39    8.50
  -1 -12   2  160.38    7.50
   1 -12  -2  153.58    7.70
   1 -12  -2  171.48    8.00
  -1  12   2  164.58    8.60
   1  12  -2  142.39    7.20
   1  12  -2  149.69    8.20
  -1  12   2  144.09    7.80
   0 -12   2  313.27   13.50
   0 -12  -2  324.27   13.00
   0 -12  -2  334.07   12.60
   0 -12   2  332.97   13.00
   0  12  -2  345.77   13.50
   0  12   2  324.67   13.00
   0  12  -2  314.87   12.60
   0  12   2  339.77   13.50
   1 -12   2  359.16   14.40
   1 -12   2  362.26   14.50
  -1 -12  -2  348.87   14.10
  -1 -12  -2  365.36   13.00
  -1  12  -2  355.86   14.10
   1  12   2  345.17   14.10
   1  12   2  382.66   14.60
  -1  12  -2  366.36   14.10
  -2 -12  -2   19.40    3.50
   2 -12   2   22.60    3.80
   2 -12   2   15.80    3.20
   2  12   2   13.90    3.40
   2  12   2   20.50    3.50
  -2  12  -2   20.00    3.40
  -2  12  -2   12.00    2.80
   3 -12   2   56.69    5.90
  -3 -12  -2   51.39    6.00
   3 -12   2   55.49    6.20
   3  12   2   60.39    6.10
  -3  12  -2   72.09    6.20
   3  12   2   65.89    6.40
  -4 -12  -2   16.80    4.20
   4 -12   2   16.40    3.20
   4 -12   2   20.70    4.50
   4  12   2   13.40    3.40
   4  12   2   13.90    3.60
  -4  12  -2   13.90    3.60
  -5 -12  -2   -0.30    2.10
   5 -12   2   -2.50    1.90
   5  12   2    0.10    2.80
  -5  12  -2    0.80    2.20
   5  12   2   -0.20    2.80
  -5  12  -2    2.30    2.10
  -6 -12  -2   12.50    3.50
   6 -12   2    8.60    3.40
   6  12   2    9.50    3.40
  -6  12  -2    9.60    3.60
   6  12   2   14.50    3.70
  -6  12  -2   12.00    3.40
  -6 -13   2   16.90    3.80
   6 -13  -2   14.90    4.40
  -6  13   2   15.10    4.40
   6  13  -2   15.50    3.80
   6  13  -2   16.10    4.00
  -6  13   2   15.90    3.60
  -5 -13   2   -1.00    2.00
   5 -13  -2    2.60    3.50
   5  13  -2    5.70    2.80
   5  13  -2    3.70    2.10
  -5  13   2    2.90    2.50
  -5  13   2    0.90    2.00
   4 -13  -2   62.19    6.50
  -4 -13   2   71.99    7.00
  -4  13   2   55.19    5.90
   4  13  -2   66.09    7.20
   4  13  -2   66.39    6.90
  -4  13   2   65.49    6.50
  -3 -13   2    0.30    2.80
   3 -13  -2    1.70    2.20
   3  13  -2    0.60    1.90
  -3  13   2   -0.40    1.80
  -3  13   2   -2.40    2.50
  -2 -13   2  169.68    9.60
   2 -13  -2  165.18    8.80
  -2  13   2  158.78    8.70
  -2  13   2  166.08    9.30
   2  13  -2  182.68    9.60
   1 -13  -2   71.59    5.10
   1 -13  -2   59.39    5.70
  -1 -13   2   55.19    5.20
  -1 -13   2   64.69    6.50
  -1  13   2   77.69    6.00
  -1  13   2   75.99    6.70
   1  13  -2   66.29    5.00
   1  13  -2   61.39    5.90
   0 -13   2   56.29    5.50
   0 -13  -2   43.80    5.10
   0 -13   2   41.50    5.10
   0 -13  -2   44.60    4.70
   0  13   2   41.60    5.00
   0  13  -2   46.20    5.40
   0  13  -2   39.70    4.80
   0  13   2   47.70    5.60
   1 -13   2   37.00    5.10
   1 -13   2   40.20    4.70
  -1 -13  -2   40.10    4.80
  -1  13  -2   29.40    4.30
  -1  13  -2   44.50    4.90
   1  13   2   37.90    4.70
   1  13   2   31.10    4.50
  -2 -13  -2    0.70    2.40
   2 -13   2    0.70    1.70
   2 -13   2   -3.70    2.30
  -2  13  -2   -2.80    1.50
   2  13   2    0.30    1.80
  -2  13  -2    0.30    2.50
   2  13   2    0.40    1.90
   3 -13   2    2.80    2.50
   3 -13   2    2.10    2.50
  -3 -13  -2    2.80    2.30
   3  13   2    5.80    2.40
   3  13   2   -1.80    2.50
  -3  13  -2   -0.40    1.90
  -3  13  -2    4.70    2.80
  -4 -13  -2  112.29    7.90
   4 -13   2  114.09    8.10
   4 -13   2  105.99    7.60
   4  13   2  123.39    8.40
   4  13   2  111.19    7.70
  -4  13  -2  124.39    8.00
  -4  13  -2  123.09    8.00
   5 -13   2    4.50    3.60
  -5 -13  -2    3.10    2.70
   5  13   2    3.40    3.40
   5  13   2   -0.40    2.10
  -5  13  -2    2.00    2.90
  -5  13  -2    3.80    3.50
  -5 -14   2   15.50    3.80
   5 -14  -2   11.40    3.50
  -5  14   2   12.20    3.40
   5  14  -2   11.50    3.40
  -5  14   2   13.90    3.60
   4 -14  -2   49.60    5.90
  -4 -14   2   47.20    6.00
   4  14  -2   45.60    6.20
  -4  14   2   55.49    6.20
  -4  14   2   56.89    5.90
  -3 -14   2   -3.80    2.60
   3 -14  -2   -0.60    2.80
  -3  14   2    0.40    2.10
   3  14  -2    0.20    2.00
  -3  14   2   -1.00    2.10
  -2 -14   2    1.20    2.90
   2 -14  -2    1.20    2.70
  -2  14   2    0.60    1.80
  -2  14   2    3.30    2.60
   2  14  -2    1.20    2.20
  -1 -14   2    0.90    1.60
   1 -14  -2    0.30    1.50
  -1 -14   2    2.50    2.20
   1 -14  -2   -1.50    1.50
  -1  14   2    0.70    2.60
  -1  14   2    1.60    2.20
   1  14  -2    1.00    2.90
   1  14  -2    2.70    1.60
   0 -14   2   15.30    3.10
   0 -14   2   13.90    3.90
   0 -14  -2   19.30    3.60
   0 -14  -2   23.60    3.70
   0  14  -2   23.10    4.00
   0  14  -2   21.40    3.50
   0  14   2   19.30    4.00
   0  14   2   17.80    3.60
   1 -14   2    6.10    2.60
   1 -14   2    6.50    2.60
  -1 -14  -2    5.90    2.60
   1  14   2    6.80    2.80
   1  14   2    6.40    2.60
  -1  14  -2    5.90    2.50
  -1  14  -2    6.80    2.60
   2 -14   2    1.20    2.20
  -2 -14  -2    0.50    1.90
   2 -14   2    0.00    2.50
  -2  14  -2   -4.00    2.30
   2  14   2   -4.70    2.30
  -2  14  -2   -0.50    1.90
   2  14   2   -1.90    2.50
   3 -14   2   13.00    3.70
   3 -14   2   12.80    3.60
  -3 -14  -2   22.50    4.30
  -3  14  -2   19.40    3.90
   3  14   2   16.60    4.20
  -3  14  -2   15.60    3.80
   3  14   2   18.30    3.70
   4 -14   2   11.30    3.60
  -4 -14  -2    8.10    3.20
  -4  14  -2   17.00    3.90
   4  14   2   10.50    3.90
   4  14   2    6.80    2.90
  -4  14  -2   13.30    3.40
  -4 -15   2    4.90    2.80
   4 -15  -2    7.30    3.10
   4  15  -2    8.80    4.00
  -4  15   2    4.50    3.00
  -4  15   2    5.70    2.70
  -3 -15   2    3.40    3.40
   3 -15  -2    4.00    2.50
   3  15  -2    3.00    3.40
  -3  15   2    4.60    3.20
  -3  15   2   -0.30    3.30
   2 -15  -2    5.10    2.50
  -2 -15   2    3.70    2.60
  -2  15   2    4.60    2.70
   2  15  -2   -0.60    2.00
  -2  15   2    5.50    3.20
  -1 -15   2   11.10    3.90
   1 -15  -2    5.50    2.90
  -1 -15   2   12.30    3.10
   1 -15  -2   11.20    3.40
  -1  15   2   11.50    3.30
  -1  15   2    9.80    2.90
   1  15  -2   10.60    3.30
   0 -15   2   54.19    5.70
   0 -15   2   56.59    6.40
   0 -15  -2   56.59    6.30
   0  15  -2   58.29    5.70
   0  15   2   61.99    6.50
   0  15  -2   64.99    6.60
   0  15   2   56.49    6.20
   1 -15   2   43.70    5.50
  -1 -15  -2   45.90    5.60
   1 -15   2   28.90    4.90
  -1  15  -2   48.60    5.90
  -1  15  -2   31.20    4.80
   1  15   2   42.60    5.20
   1  15   2   34.90    5.50
   2 -15   2   41.30    5.70
  -2 -15  -2   21.30    4.00
   2 -15   2   34.60    5.10
  -2  15  -2   30.80    4.70
  -2  15  -2   35.80    5.40
   2  15   2   38.40    5.30
   2  15   2   22.60    4.40
   3 -15   2   24.40    4.70
   3 -15   2   34.10    5.80
  -3 -15  -2   35.00    5.80
   3  15   2   25.80    4.90
  -3  15  -2   17.30    4.30
  -3  15  -2   27.20    5.20
   3  15   2   22.30    4.80
  -3 -16   2    5.50    3.80
   3 -16  -2   12.30    4.10
  -3  16   2    7.00    3.30
   3  16  -2    7.80    3.10
  -3  16   2    0.00    3.10
  -2 -16   2    7.70    3.20
   2 -16  -2    1.20    3.10
   2  16  -2    2.80    2.70
  -2  16   2    4.00    3.70
  -2  16   2   -5.00    2.30
   1 -16  -2    0.70    2.00
  -1 -16   2    1.10    2.20
   1 -16  -2    1.10    2.70
   1  16  -2   -2.10    1.90
  -1  16   2   -1.60    2.50
  -1  16   2    1.90    2.50
   0 -16  -2    8.40    3.50
   0 -16   2   10.20    3.20
   0 -16   2    4.40    3.20
   0  16   2    5.10    3.00
   0  16  -2    9.00    3.10
   0  16  -2    8.40    3.20
   0  16   2    5.40    3.20
   1 -16   2    6.00    2.90
  -1 -16  -2    1.40    2.20
   1 -16   2    2.70    3.20
   1  16   2    3.00    2.70
  -1  16  -2   11.20    3.70
   1  16   2    3.30    2.40
  -1  16  -2    3.60    2.60
   2 -16   2    4.80    2.60
   2 -16   2   12.80    4.20
  -2 -16  -2    7.40    3.80
  -2  16  -2    9.30    3.20
   2  16   2   11.40    4.00
   2  16   2   10.90    3.20
  -2  16  -2    6.80    3.80
 -10   0   3   -0.20    2.40
  10   0  -3   -0.20    2.40
  10   0  -3    0.90    2.50
  -9   0   3    6.20    2.80
   9   0  -3    3.90    2.60
   9   0  -3    4.30    2.60
   8   0  -3    0.30    1.90
   8   0  -3    1.70    2.10
  -8   0   3   -1.60    1.60
  -7   0   3  361.16   14.30
   7   0  -3  377.06   14.80
   7   0  -3  393.86   14.90
   6   0  -3   -1.90    1.30
   6   0  -3    1.10    1.30
   6   0  -3   -0.50    1.20
  -6   0   3    0.50    1.30
  -5   0   3   73.59    4.40
   5   0  -3   72.79    4.50
  -5   0   3   76.59    3.20
   5   0  -3   79.99    4.10
   5   0  -3   70.79    4.50
   4   0  -3    0.80    1.00
  -4   0   3    0.10    1.10
   4   0  -3   -1.20    1.20
   4   0  -3    0.60    1.00
   3   0  -3   21.00    2.30
  -3   0   3   21.90    2.10
   3   0  -3   26.50    2.40
  -3   0   3   22.00    1.30
   3   0  -3   24.00    2.30
   2   0  -3   -1.30    0.70
  -2   0   3    1.00    0.60
  -2   0   3    0.20    0.80
   2   0  -3    0.40    0.70
  -1   0   3  140.89    4.70
  -1   0   3  140.29    5.00
   1   0  -3  139.29    4.50
   1   0  -3  137.69    5.20
   0   0  -3    1.20    0.80
   0   0   3   -0.40    0.60
   0   0   3    1.40    0.80
  -1   0  -3  440.26   13.40
   1   0   3  439.16   13.90
   1   0   3  443.16   12.30
   1   0   3  451.15   13.30
  -2   0  -3    0.00    0.80
   2   0   3   -0.80    0.60
   2   0   3   -0.30    0.90
   2   0   3    0.00    0.90
  -2   0  -3    1.80    0.90
  -3   0  -3   -0.80    0.80
   3   0   3    0.10    1.20
   3   0   3    0.70    1.10
  -3   0  -3    0.40    0.90
   3   0   3    0.50    0.90
   4   0   3    1.10    1.70
   4   0   3    0.50    1.50
   4   0   3   -0.80    1.10
  -4   0  -3   -0.10    0.90
  -4   0  -3   -0.20    1.50
  -5   0  -3  596.74   18.10
   5   0   3  589.44   19.00
   5   0   3  585.94   19.90
   5   0   3  595.64   19.80
  -5   0  -3  572.84   19.50
  -6   0  -3   -0.40    1.30
   6   0   3   -0.10    0.80
   6   0   3    0.00    1.70
   7   0   3  311.37   12.90
   7   0   3  325.87   13.80
  -7   0  -3  307.87   13.00
   8   0   3    0.30    3.00
  -8   0  -3    0.20    1.70
  10  -1  -3   -0.70    2.40
 -10  -1   3    1.90    3.40
  10  -1  -3   -0.10    3.40
 -10   1   3    0.30    2.30
  10   1  -3    1.30    3.40
  10   1  -3    1.40    2.60
   9  -1  -3   54.99    6.40
   9  -1  -3   48.20    6.10
  -9  -1   3   60.19    6.40
   9   1  -3   59.49    6.80
  -9   1   3   56.69    6.30
   9   1  -3   61.59    6.80
   8  -1  -3  147.99    8.90
  -8  -1   3  139.89    8.10
   8  -1  -3  140.29    8.50
  -8   1   3  134.89    8.40
   8   1  -3  152.28    9.10
   8   1  -3  141.59    8.40
   7  -1  -3    0.30    1.50
   7  -1  -3   -2.10    1.40
  -7  -1   3    0.80    2.10
   7  -1  -3   -0.20    1.60
   7   1  -3   -0.90    2.10
  -7   1   3    0.80    1.60
   7   1  -3    0.90    1.70
  -6  -1   3    5.50    1.90
   6  -1  -3    6.30    2.10
   6  -1  -3    9.70    1.90
   6  -1  -3    5.40    2.00
  -6  -1   3    5.80    1.40
   6   1  -3    7.20    2.30
   6   1  -3    6.50    2.10
  -6   1   3   10.40    2.30
   6   1  -3   10.30    1.80
   5  -1  -3   58.49    4.10
   5  -1  -3   66.59    4.30
  -5  -1   3   55.99    3.80
  -5  -1   3   58.29    3.00
   5  -1  -3   51.99    3.60
   5   1  -3   48.80    3.70
   5   1  -3   56.09    4.30
  -5   1   3   56.19    3.80
   5   1  -3   58.89    3.30
   4  -1  -3   12.10    1.90
   4  -1  -3   11.00    2.20
  -4  -1   3   13.00    1.40
   4  -1  -3    9.70    1.80
  -4  -1   3   13.50    2.10
   4   1  -3   10.40    1.60
   4   1  -3   12.70    2.10
  -4   1   3   12.10    2.10
   4   1  -3   11.50    2.10
  -4   1   3   15.90    0.80
  -3  -1   3  134.49    5.30
   3  -1  -3  139.19    5.70
  -3  -1   3  138.19    4.80
   3  -1  -3  141.49    5.50
   3   1  -3  140.49    5.60
   3   1  -3  135.49    5.50
  -3   1   3  125.09    5.40
   3   1  -3  136.59    5.30
   2  -1  -3  136.99    5.00
  -2  -1   3  137.79    4.90
  -2  -1   3  134.79    4.90
   2  -1  -3  138.79    5.40
   2   1  -3  138.19    5.20
   2   1  -3  128.79    5.00
   2   1  -3  142.39    5.00
  -2   1   3  143.59    4.40
  -2   1   3  135.89    5.10
   1  -1  -3   49.99    2.10
  -1  -1   3   48.80    2.60
   1  -1  -3   43.60    2.60
  -1  -1   3   53.79    2.20
   1   1  -3   50.79    2.10
  -1   1   3   48.90    2.60
  -1   1   3   53.19    2.40
   1   1  -3   48.40    2.60
   0  -1  -3   73.39    3.30
   0  -1   3   73.09    2.20
   0  -1  -3   76.69    3.30
   0  -1   3   73.09    2.70
   0  -1   3   75.59    3.50
   0   1  -3   73.59    2.30
   0   1   3   70.39    2.30
   0   1   3   74.09    3.10
   0   1  -3   77.89    3.40
   0   1   3   67.19    3.30
  -1  -1  -3 1509.05   41.90
  -1  -1  -3 1503.35   42.40
   1  -1   3 1490.15   42.50
   1  -1   3 1506.45   41.50
  -1   1  -3 1533.25   40.90
   1   1   3 1473.65   41.00
   1   1   3 1500.55   42.00
   1   1   3 1533.35   42.50
  -1   1  -3 1526.45   42.20
  -2  -1  -3   74.49    3.90
   2  -1   3   77.39    3.60
   2  -1   3   75.39    3.20
  -2  -1  -3   78.99    3.40
   2  -1   3   70.39    4.00
   2   1   3   77.39    3.20
   2   1   3   75.29    4.00
   2   1   3   80.49    3.80
  -2   1  -3   76.09    3.60
   3  -1   3   69.49    4.30
  -3  -1  -3   62.89    3.10
   3  -1   3   61.49    3.60
  -3  -1  -3   67.49    4.00
   3  -1   3   59.19    3.20
  -3   1  -3   68.29    3.50
  -3   1  -3   68.29    4.10
   3   1   3   60.99    3.30
   3   1   3   64.09    4.00
   3   1   3   63.79    3.90
   4  -1   3   13.50    2.10
   4  -1   3   13.90    2.50
   4  -1   3    8.80    2.00
  -4  -1  -3   19.40    2.90
  -4  -1  -3   14.50    1.70
  -4   1  -3   13.30    2.00
   4   1   3   12.80    2.60
   4   1   3   10.60    1.90
  -4   1  -3   10.50    2.10
   5  -1   3  129.69    6.80
   5  -1   3  132.79    6.90
   5  -1   3  132.29    6.30
  -5  -1  -3  135.99    6.80
   5   1   3  126.59    6.90
  -5   1  -3  135.69    5.90
   5   1   3  129.29    6.40
  -5   1  -3  139.59    6.80
  -6  -1  -3   43.30    4.50
   6  -1   3   40.70    4.60
   6   1   3   34.80    4.40
  -6   1  -3   36.50    4.30
   7  -1   3  137.79    7.60
  -7  -1  -3  131.79    7.50
   7  -1   3  136.89    8.10
  -7   1  -3  126.59    7.60
   7   1   3  138.79    8.40
   7   1   3  133.09    7.60
   8  -1   3    6.60    2.90
  -8  -1  -3    4.40    2.70
   8   1   3    2.40    3.30
  -8   1  -3    4.60    2.60
  10  -2  -3    1.80    2.60
 -10  -2   3    0.10    2.40
  10  -2  -3    4.70    3.80
  10   2  -3    3.90    3.60
  10   2  -3   -1.00    2.40
 -10   2   3   -1.90    3.30
   9  -2  -3    2.80    2.40
  -9  -2   3    0.70    2.10
   9  -2  -3    4.40    2.80
  -9   2   3   -1.30    1.90
   9   2  -3   -2.40    1.80
   9   2  -3   -1.20    3.00
  -8  -2   3    0.50    1.80
   8  -2  -3    2.10    2.10
   8  -2  -3    0.50    1.90
   8   2  -3    2.70    3.00
   8   2  -3    0.50    1.90
  -8   2   3   -0.90    1.60
  -7  -2   3    6.80    2.30
   7  -2  -3    4.60    2.30
   7  -2  -3    6.20    1.90
   7  -2  -3    4.00    2.20
  -7   2   3    4.90    2.10
   7   2  -3    3.40    2.60
   7   2  -3    4.90    2.20
   6  -2  -3   28.80    3.80
   6  -2  -3   15.00    2.60
  -6  -2   3   20.10    2.40
   6  -2  -3   22.90    3.40
  -6   2   3   23.10    3.50
   6   2  -3   16.80    3.30
   6   2  -3   25.00    3.30
   6   2  -3   22.60    2.40
   5  -2  -3  206.58    8.90
   5  -2  -3  205.88    8.20
  -5  -2   3  207.88    7.50
   5  -2  -3  208.48    8.90
  -5   2   3  203.28    8.60
   5   2  -3  213.08    8.80
   5   2  -3  210.58    7.50
   5   2  -3  216.68    8.80
   4  -2  -3  630.54   19.40
   4  -2  -3  608.04   18.90
  -4  -2   3  609.84   18.10
   4   2  -3  598.84   18.20
   4   2  -3  592.24   18.90
  -4   2   3  630.44   19.20
   4   2  -3  614.94   19.30
  -3  -2   3    2.30    0.80
   3  -2  -3    3.60    1.20
   3  -2  -3    4.30    1.30
   3   2  -3    2.40    1.10
   3   2  -3    5.40    1.30
  -3   2   3    4.80    1.30
   2  -2  -3  495.55   15.10
  -2  -2   3  492.15   14.70
  -2  -2   3  489.55   14.30
   2  -2  -3  474.45   14.70
   2  -2  -3  508.15   13.70
   2   2  -3  489.25   14.70
   2   2  -3  486.05   14.70
   2   2  -3  486.25   14.30
  -2   2   3  485.95   14.90
   1  -2  -3  391.86   12.50
   1  -2  -3  406.76   12.00
   1  -2  -3  405.46   12.00
  -1  -2   3  398.96   12.50
  -1  -2   3  415.36   11.50
   1   2  -3  414.06   12.60
  -1   2   3  401.26   12.00
  -1   2   3  411.16   11.90
   1   2  -3  412.36   12.00
  -1   2   3  404.36   12.40
   0  -2  -3   58.09    2.80
   0  -2   3   52.29    1.80
   0  -2  -3   54.69    2.70
   0  -2   3   53.39    3.00
   0   2   3   55.09    2.80
   0   2   3   53.49    2.20
   0   2  -3   54.09    2.10
   0   2   3   55.29    2.80
   0   2  -3   51.09    2.80
  -1  -2  -3   31.70    2.10
   1  -2   3   30.50    1.60
   1  -2   3   27.70    2.60
  -1  -2  -3   27.50    2.20
   1   2   3   30.00    1.60
   1   2   3   29.20    2.60
   1   2   3   30.90    2.20
  -1   2  -3   32.10    2.20
  -1   2  -3   28.70    1.50
   2  -2   3  869.41   25.80
   2  -2   3  857.51   26.20
   2  -2   3  880.21   24.90
   2  -2   3  883.41   25.20
  -2  -2  -3  874.11   25.00
  -2  -2  -3  902.71   26.20
  -2   2  -3  866.21   25.70
  -2   2  -3  873.51   24.80
   2   2   3  881.21   25.00
   2   2   3  889.51   26.30
   2   2   3  908.91   26.00
   3  -2   3  156.38    6.10
   3  -2   3  157.58    6.60
   3  -2   3  164.88    6.40
  -3  -2  -3  151.98    6.90
   3  -2   3  158.38    6.90
  -3  -2  -3  157.38    5.70
   3   2   3  150.28    6.70
   3   2   3  174.08    6.30
  -3   2  -3  166.08    6.00
  -3   2  -3  163.48    6.50
   4  -2   3    4.70    1.60
  -4  -2  -3    2.30    1.40
  -4  -2  -3    2.60    1.00
   4  -2   3    4.30    1.50
   4  -2   3    1.30    1.00
   4  -2   3    4.90    1.70
   4   2   3    2.80    1.50
  -4   2  -3    3.70    1.40
  -4   2  -3    2.20    1.10
   4   2   3    3.00    1.50
  -5  -2  -3  172.28    8.00
   5  -2   3  178.38    8.40
   5  -2   3  170.28    7.90
   5  -2   3  162.18    7.50
   5  -2   3  179.08    7.50
  -5   2  -3  161.98    7.80
   5   2   3  173.38    7.60
  -5   2  -3  170.38    7.20
   5   2   3  181.38    8.40
  -6  -2  -3   -0.80    1.40
   6  -2   3    0.90    0.90
   6  -2   3    0.30    2.20
   6  -2   3    1.90    2.40
  -6   2  -3   -1.30    1.80
  -6   2  -3   -2.80    1.10
   6   2   3    1.00    0.90
   6   2   3    1.10    1.70
   7  -2   3  122.79    7.90
  -7  -2  -3  126.79    7.40
   7  -2   3  120.39    7.20
  -7   2  -3  135.99    7.60
   7   2   3  111.29    7.10
   7   2   3  127.99    8.50
   8  -2   3    2.50    2.30
  -8  -2  -3    1.80    2.10
  -8   2  -3   -0.60    2.00
   8   2   3    1.60    2.40
  -8   2  -3    2.10    2.20
  -9  -3   3    2.00    3.10
   9  -3  -3    0.30    3.00
   9  -3  -3    0.10    2.40
   9   3  -3   -1.30    2.90
   9   3  -3   -1.40    2.00
  -9   3   3   -0.50    3.10
   8  -3  -3    2.90    2.30
   8  -3  -3    3.60    2.50
   8  -3  -3    3.70    2.00
   8   3  -3    4.30    2.50
  -8   3   3    1.80    2.10
   8   3  -3    0.40    2.00
   7  -3  -3   -0.40    1.60
   7  -3  -3    0.20    1.30
   7  -3  -3    0.30    1.70
  -7   3   3   -0.30    1.50
   7   3  -3    0.60    2.50
   7   3  -3   -2.00    1.50
  -6  -3   3   -0.30    1.20
   6  -3  -3   -2.80    1.40
   6  -3  -3    0.60    2.10
   6  -3  -3    0.80    1.60
  -6   3   3    2.60    1.60
   6   3  -3    1.50    1.60
   6   3  -3    1.90    1.70
  -5  -3   3   32.00    2.90
   5  -3  -3   25.10    3.00
   5  -3  -3   27.20    3.30
  -5   3   3   31.10    3.30
   5   3  -3   29.40    2.50
   5   3  -3   26.60    3.10
   5   3  -3   32.30    3.80
   4  -3  -3 3586.74   98.19
  -4  -3   3 3506.25   97.19
   4  -3  -3 3611.44   97.99
  -4   3   3 3498.25   97.99
   4   3  -3 3612.94   96.79
   4   3  -3 3552.24   98.19
   4   3  -3 3475.55   97.69
   3  -3  -3 3404.36   92.39
  -3  -3   3 3368.26   91.89
   3  -3  -3 3331.37   92.39
   3   3  -3 3353.26   92.29
   3   3  -3 3341.77   91.59
  -3   3   3 3384.86   92.39
   3   3  -3 3313.87   91.79
   2  -3  -3  157.88    4.80
   2  -3  -3  157.48    6.10
   2  -3  -3  150.78    5.80
  -2  -3   3  150.78    5.80
   2   3  -3  156.58    5.90
   2   3  -3  153.98    5.30
   2   3  -3  146.79    5.70
  -2   3   3  161.98    5.80
  -2   3   3  149.19    5.90
   1  -3  -3  649.34   18.90
   1  -3  -3  666.33   19.60
  -1  -3   3  669.13   18.10
  -1  -3   3  641.94   19.60
   1   3  -3  665.83   19.50
   1   3  -3  680.73   19.10
  -1   3   3  667.13   19.60
  -1   3   3  650.93   19.00
   0  -3   3   56.19    3.20
   0  -3  -3   56.09    2.90
   0  -3  -3   60.99    3.00
   0   3  -3   55.79    3.10
   0   3   3   60.69    3.20
   0   3   3   54.89    2.50
   0   3  -3   55.09    2.50
   1  -3   3   30.90    2.80
   1  -3   3   28.40    2.70
   1  -3   3   30.70    1.60
  -1  -3  -3   31.20    2.10
  -1  -3  -3   34.50    2.90
  -1   3  -3   33.80    2.90
  -1   3  -3   32.70    1.80
   1   3   3   27.90    2.60
   1   3   3   33.90    2.00
  -2  -3  -3 1006.00   28.30
   2  -3   3 1023.70   29.50
   2  -3   3  994.60   29.80
   2  -3   3 1000.00   28.40
  -2  -3  -3 1006.60   29.60
  -2   3  -3  994.70   29.30
   2   3   3 1030.80   29.70
  -2   3  -3 1011.40   28.40
   2   3   3  993.50   28.60
  -3  -3  -3  301.27   11.20
   3  -3   3  328.17   11.40
   3  -3   3  313.27   10.40
   3  -3   3  316.17   11.00
  -3  -3  -3  316.17    9.60
   3  -3   3  315.07   10.40
   3   3   3  304.97   11.30
  -3   3  -3  297.97   10.10
  -3   3  -3  301.47   10.80
   3   3   3  306.77   10.40
  -4  -3  -3   24.80    3.20
  -4  -3  -3   18.90    1.90
   4  -3   3   22.50    2.70
   4  -3   3   23.40    2.80
   4  -3   3   26.60    3.30
  -4   3  -3   28.70    2.90
   4   3   3   22.10    2.80
  -4   3  -3   21.20    2.40
   4   3   3   28.40    3.40
   5  -3   3  289.07   11.20
  -5  -3  -3  270.57   11.60
   5  -3   3  290.37   11.00
   5  -3   3  278.47   11.50
   5  -3   3  293.07   11.00
  -5   3  -3  316.47   11.50
  -5   3  -3  295.87   10.70
   5   3   3  276.97   11.80
  -5   3  -3  298.47   10.90
   6  -3   3    2.90    2.30
  -6  -3  -3    2.50    1.80
   6  -3   3    0.00    1.60
   6  -3   3    0.70    0.90
   6  -3   3   -1.60    1.90
  -6   3  -3    2.30    1.70
   6   3   3    0.60    1.80
   6   3   3    1.00    1.40
  -6   3  -3    1.00    1.50
  -6   3  -3    1.70    2.00
  -7  -3  -3    7.40    2.50
   7  -3   3    4.60    2.10
   7  -3   3    7.20    3.20
   7  -3   3    6.20    2.50
  -7   3  -3    7.70    2.30
  -7   3  -3    3.90    1.60
   7   3   3    5.20    2.60
   7   3   3    8.80    2.90
  -7   3  -3    5.10    2.40
   8  -3   3    4.30    3.10
  -8  -3  -3    2.40    2.10
   8   3   3    1.30    2.60
  -8   3  -3   -0.60    2.20
   9  -4  -3   22.20    4.50
   9   4  -3   26.60    5.30
   9   4  -3   22.30    4.50
  -9   4   3   23.00    4.40
   8  -4  -3   75.79    7.50
   8  -4  -3   77.29    5.40
   8   4  -3   60.79    6.70
  -8   4   3   78.29    6.10
   8   4  -3   72.09    6.80
  -7  -4   3   35.90    3.80
   7  -4  -3   23.20    3.90
   7  -4  -3   36.40    4.20
   7   4  -3   27.10    4.50
   7   4  -3   30.80    4.50
  -7   4   3   34.60    4.30
   6  -4  -3   24.00    3.60
   6  -4  -3   29.70    3.80
  -6  -4   3   31.20    3.40
   6   4  -3   28.30    3.80
   6   4  -3   27.10    3.70
  -6   4   3   27.90    3.50
   5  -4  -3   36.40    3.80
  -5  -4   3   32.40    3.10
   5  -4  -3   31.10    3.70
   5   4  -3   28.10    2.30
   5   4  -3   31.50    3.40
   5   4  -3   29.10    3.60
  -5   4   3   25.40    3.40
   4  -4  -3  693.83   21.80
  -4  -4   3  714.13   21.30
   4  -4  -3  732.73   22.10
   4   4  -3  699.73   20.40
  -4   4   3  674.33   21.60
  -4   4   3  705.13   21.80
   4   4  -3  688.53   21.40
   4   4  -3  674.93   21.80
   3  -4  -3  335.67    9.20
   3  -4  -3  335.67    9.20
  -3  -4   3  349.87   11.30
   3  -4  -3  322.27   11.60
   3  -4  -3  312.87   11.40
   3   4  -3  335.97   10.90
  -3   4   3  348.27   11.60
   3   4  -3  319.87   11.30
  -3   4   3  344.17   11.40
   3   4  -3  343.07   10.70
  -2  -4   3  990.40   29.50
   2  -4  -3 1031.40   28.20
   2  -4  -3 1042.60   29.80
   2  -4  -3  992.90   29.40
   2   4  -3 1034.60   29.20
  -2   4   3 1016.40   29.30
  -2   4   3  989.00   29.60
   2   4  -3 1029.50   29.40
   2   4  -3 1042.80   28.60
  -1  -4   3   73.99    3.70
   1  -4  -3   72.59    3.10
   1  -4  -3   68.29    3.70
   1   4  -3   63.99    3.40
  -1   4   3   56.29    3.60
   1   4  -3   60.19    3.10
  -1   4   3   67.69    3.20
   1   4  -3   71.69    2.30
   0  -4  -3  106.29    4.50
   0  -4  -3  104.49    4.40
   0  -4   3   97.69    4.60
   0  -4   3  105.69    4.80
   0   4   3  106.39    4.20
   0   4  -3  100.79    4.60
   0   4   3  103.79    4.70
   0   4  -3  103.79    4.10
   1  -4   3   57.59    3.50
   1  -4   3   52.09    3.30
  -1  -4  -3   60.39    3.40
  -1  -4  -3   59.09    3.00
  -1   4  -3   59.39    2.20
  -1   4  -3   57.09    3.40
  -1   4  -3   61.89    2.90
   1   4   3   58.79    3.50
   1   4   3   63.79    3.10
   2  -4   3  167.88    6.90
   2  -4   3  165.18    5.80
  -2  -4  -3  174.08    7.10
   2  -4   3  145.99    6.90
  -2  -4  -3  151.88    5.70
  -2   4  -3  175.68    5.70
  -2   4  -3  174.98    6.90
  -2   4  -3  166.38    6.10
   2   4   3  165.98    7.00
   2   4   3  174.38    6.30
  -3  -4  -3    3.00    1.40
   3  -4   3    1.50    1.30
   3  -4   3    3.40    1.30
   3  -4   3    3.30    1.70
   3  -4   3    2.60    1.30
  -3  -4  -3    4.60    0.90
  -3   4  -3    4.30    1.30
   3   4   3    3.90    1.60
  -3   4  -3    3.30    1.10
   3   4   3    3.30    1.40
  -3   4  -3    5.30    1.50
   4  -4   3   43.20    4.20
  -4  -4  -3   31.80    3.70
   4  -4   3   42.50    3.70
   4  -4   3   43.70    4.00
   4  -4   3   32.60    3.40
  -4   4  -3   41.60    3.70
  -4   4  -3   42.40    3.10
  -4   4  -3   45.70    3.20
   4   4   3   40.50    4.40
   5  -4   3   20.10    3.10
   5  -4   3   12.20    2.60
  -5  -4  -3   19.70    3.20
   5   4   3    7.40    1.90
  -5   4  -3   16.30    2.60
   5   4   3   15.00    3.40
  -5   4  -3   18.90    2.80
  -5   4  -3   14.50    2.50
  -5   4  -3   19.70    3.00
   6  -4   3    4.60    2.40
  -6  -4  -3    0.40    1.70
   6  -4   3    3.20    2.00
   6  -4   3    2.20    2.00
   6  -4   3    2.70    2.30
  -6   4  -3    1.90    2.00
  -6   4  -3    1.80    1.90
   6   4   3    2.20    2.20
  -6   4  -3    0.70    1.70
  -6   4  -3    2.20    1.70
   6   4   3    5.70    2.40
   7  -4   3   28.80    4.50
   7  -4   3   31.00    4.60
   7  -4   3   25.50    4.30
  -7  -4  -3   37.50    5.00
  -7   4  -3   34.60    4.30
   7   4   3   33.40    5.10
  -7   4  -3   36.80    4.50
   7   4   3   35.40    4.80
  -7   4  -3   33.10    4.10
   8  -4   3   16.60    4.20
  -8  -4  -3   13.10    3.60
  -8   4  -3   10.70    3.40
   8   4   3    6.90    3.80
   9  -5  -3   34.00    5.40
  -9   5   3   34.10    5.00
   9   5  -3   25.30    4.80
  -9   5   3   29.10    4.90
   9   5  -3   34.10    5.60
   8  -5  -3   26.50    4.50
   8  -5  -3   32.20    4.50
   8   5  -3   27.50    4.60
  -8   5   3   26.90    4.20
   8   5  -3   33.00    4.80
  -8   5   3   29.80    4.50
   7  -5  -3   97.59    6.40
  -7  -5   3   86.69    5.50
   7  -5  -3   88.19    7.60
   7   5  -3   87.99    6.40
  -7   5   3   80.09    6.20
  -7   5   3   93.49    6.20
   7   5  -3   97.69    6.40
   6  -5  -3   15.30    2.90
   6  -5  -3   20.10    3.50
  -6  -5   3   20.30    2.80
  -6   5   3   23.90    3.50
   6   5  -3   18.10    3.20
   6   5  -3   19.60    3.50
  -6   5   3   20.10    3.10
   5  -5  -3  110.59    5.90
  -5  -5   3  107.99    5.60
   5  -5  -3  107.19    6.10
   5   5  -3  110.09    5.80
  -5   5   3  110.49    5.90
  -5   5   3  106.29    5.90
   5   5  -3  110.39    6.20
  -4  -5   3  200.68    8.00
   4  -5  -3  209.28    8.50
   4  -5  -3  200.68    8.40
   4   5  -3  193.18    7.80
  -4   5   3  190.48    8.20
  -4   5   3  187.18    8.00
   4   5  -3  198.38    8.30
   4   5  -3  200.08    7.00
  -3  -5   3  164.58    6.90
   3  -5  -3  171.88    5.40
   3  -5  -3  175.08    7.20
   3  -5  -3  179.48    7.40
   3   5  -3  169.48    6.30
  -3   5   3  155.98    7.10
  -3   5   3  198.48    7.30
   3   5  -3  183.88    7.40
   3   5  -3  171.88    6.60
   2  -5  -3  145.39    5.10
  -2  -5   3  147.19    6.20
   2  -5  -3  146.99    6.40
   2   5  -3  149.39    6.10
  -2   5   3  143.79    6.20
   2   5  -3  145.09    5.80
  -2   5   3  153.28    6.00
   2   5  -3  152.68    5.30
   1  -5  -3    1.60    0.90
   1  -5  -3    1.60    1.00
  -1  -5   3    3.10    1.20
  -1   5   3    1.90    1.10
   1   5  -3    2.00    1.00
   1   5  -3    2.00    0.60
  -1   5   3    1.20    1.10
   1   5  -3    1.40    0.90
   0  -5  -3   39.00    2.50
   0  -5  -3   35.20    2.50
   0  -5   3   35.50    2.80
   0  -5   3   34.80    3.20
   0   5  -3   38.10    2.40
   0   5  -3   33.30    2.90
   0   5  -3   35.20    1.10
   0   5   3   33.00    3.10
   0   5  -3   34.90    1.10
   0   5   3   32.60    2.30
  -1  -5  -3 1205.68   34.70
  -1  -5  -3 1188.78   33.80
   1  -5   3 1172.38   35.00
   1  -5   3 1196.78   34.90
  -1   5  -3 1207.38   32.70
  -1   5  -3 1200.28   34.70
  -1   5  -3 1210.18   33.90
   1   5   3 1190.08   34.90
  -2  -5  -3    0.10    0.70
   2  -5   3    1.30    1.20
   2  -5   3    0.10    1.00
  -2  -5  -3    1.00    1.10
   2   5   3    0.20    0.80
  -2   5  -3    0.20    0.90
   2   5   3    0.80    1.10
  -2   5  -3   -0.20    0.60
  -2   5  -3    2.00    1.50
   3  -5   3  106.29    5.60
   3  -5   3   98.99    5.50
  -3  -5  -3  107.89    4.00
   3  -5   3  106.49    4.70
  -3  -5  -3  100.59    5.50
  -3   5  -3  103.19    4.50
  -3   5  -3  103.89    5.40
  -3   5  -3  106.79    4.90
   3   5   3  111.89    6.00
   4  -5   3   43.00    3.80
  -4  -5  -3   48.30    4.50
   4  -5   3   49.00    4.70
   4  -5   3   37.90    3.90
   4   5   3   41.10    3.80
   4   5   3   53.59    4.90
  -4   5  -3   45.60    3.20
  -4   5  -3   50.19    4.30
  -4   5  -3   37.90    3.00
   5  -5   3   30.80    3.80
   5  -5   3   33.70    3.60
   5  -5   3   39.50    4.30
  -5  -5  -3   30.90    4.00
   5  -5   3   29.50    3.50
  -5   5  -3   39.30    3.60
   5   5   3   27.30    4.00
   5   5   3   40.40    4.20
  -5   5  -3   31.50    3.40
  -5   5  -3   34.60    3.80
   6  -5   3    9.90    2.60
   6  -5   3   11.80    2.70
   6  -5   3   10.00    2.50
  -6  -5  -3    8.10    2.50
   6  -5   3   13.10    2.70
   6   5   3   10.30    3.50
  -6   5  -3   12.30    2.60
  -6   5  -3   10.60    2.40
  -6   5  -3    4.70    2.10
  -6   5  -3    9.40    2.50
   6   5   3   11.00    2.90
   7  -5   3   -1.00    1.60
   7  -5   3    0.40    2.20
  -7  -5  -3    1.60    2.70
   7  -5   3    0.80    2.50
   7   5   3    0.10    2.30
  -7   5  -3    2.20    1.50
  -7   5  -3    4.80    2.30
  -7   5  -3   -1.50    1.10
   7   5   3    3.20    3.40
  -7   5  -3   -0.80    1.70
  -8  -5  -3   20.40    4.10
   8   5   3   22.40    5.30
   9  -6  -3   -0.60    2.30
  -9   6   3   -0.70    2.00
   9   6  -3    7.50    3.70
   9   6  -3   -2.10    3.10
  -9   6   3   -1.80    3.00
   8  -6  -3    3.00    2.10
   8  -6  -3    5.90    2.80
  -8   6   3    7.10    2.70
  -8   6   3    1.70    2.20
   8   6  -3    3.70    3.10
   8   6  -3    7.30    3.00
   7  -6  -3  416.96   16.10
   7  -6  -3  391.46   15.30
  -7  -6   3  386.36   14.50
  -7   6   3  371.96   15.20
   7   6  -3  387.36   15.40
  -7   6   3  384.66   15.30
   7   6  -3  387.56   15.80
   6  -6  -3    6.50    2.20
   6  -6  -3    3.20    2.60
  -6  -6   3    5.50    2.10
  -6   6   3    9.00    2.90
  -6   6   3    5.40    2.50
   6   6  -3    6.40    2.30
   6   6  -3    5.90    2.20
   5  -6  -3    9.60    2.30
   5  -6  -3   10.00    2.50
  -5  -6   3   17.80    2.70
  -5   6   3   11.80    2.50
   5   6  -3   11.30    2.60
  -5   6   3   14.40    2.60
   5   6  -3    7.10    2.20
  -4  -6   3   36.20    3.60
   4  -6  -3   33.30    3.70
   4  -6  -3   35.50    3.80
  -4   6   3   22.00    2.90
   4   6  -3   37.90    3.80
   4   6  -3   31.90    2.30
  -4   6   3   31.30    3.40
   4   6  -3   40.50    3.60
   3  -6  -3    0.90    1.30
   3  -6  -3    0.20    1.10
  -3  -6   3    2.40    1.30
   3  -6  -3    2.60    0.80
   3   6  -3    2.90    1.20
  -3   6   3    4.10    1.40
   3   6  -3    2.50    1.70
   3   6  -3    1.20    0.80
  -3   6   3    2.60    1.30
  -2  -6   3  172.58    7.30
   2  -6  -3  163.08    5.90
   2  -6  -3  167.78    7.10
  -2   6   3  171.08    6.80
   2   6  -3  165.68    6.50
  -2   6   3  178.78    7.20
   2   6  -3  167.88    6.00
   2   6  -3  168.08    6.90
   1  -6  -3  966.50   27.60
   1  -6  -3  959.90   28.20
  -1  -6   3  938.51   28.60
   1   6  -3  970.60   26.50
  -1   6   3  954.50   28.00
   1   6  -3  959.60   28.00
  -1   6   3  953.50   28.40
   1   6  -3  932.51   27.90
   0  -6   3  142.69    6.30
   0  -6  -3  133.29    5.70
   0  -6   3  130.69    5.90
   0  -6  -3  137.39    5.70
   0   6  -3  129.99    5.80
   0   6  -3  138.89    4.20
   0   6   3  127.79    6.00
   0   6   3  135.29    5.70
   0   6  -3  134.59    5.60
   1  -6   3    8.10    1.90
  -1  -6  -3   10.10    1.60
   1  -6   3    8.80    1.90
  -1  -6  -3   10.80    1.90
  -1   6  -3   10.70    1.00
   1   6   3    9.90    2.20
  -1   6  -3    8.60    1.70
  -1   6  -3    6.20    1.50
   1   6   3    8.60    1.60
  -2  -6  -3   43.80    3.90
   2  -6   3   32.90    3.60
   2  -6   3   42.40    4.00
  -2  -6  -3   39.00    2.30
   2   6   3   35.80    3.60
  -2   6  -3   39.50    2.90
   2   6   3   41.40    3.10
  -2   6  -3   37.90    2.20
  -2   6  -3   36.20    3.60
   3  -6   3  211.88    9.10
   3  -6   3  232.48    9.30
  -3  -6  -3  196.68    9.00
   3   6   3  214.88    9.40
  -3   6  -3  223.98    8.30
  -3   6  -3  221.18    9.00
   3   6   3  204.58    8.50
  -3   6  -3  220.68    7.70
  -4  -6  -3   -2.30    1.00
   4  -6   3   -0.10    1.40
   4  -6   3    0.70    1.90
   4  -6   3    2.50    1.60
  -4   6  -3    2.50    1.30
  -4   6  -3    0.40    1.00
  -4   6  -3   -0.60    1.30
   4   6   3   -1.00    1.30
   4   6   3    0.90    1.30
   5  -6   3   97.89    6.40
   5  -6   3  115.99    6.50
   5  -6   3  106.99    6.20
   5  -6   3  108.39    5.90
  -5  -6  -3   96.59    6.30
  -5   6  -3  103.89    5.60
   5   6   3  101.19    6.60
  -5   6  -3   92.29    6.10
  -5   6  -3   98.09    5.70
   5   6   3   97.89    6.10
  -6  -6  -3  157.78    8.70
   6  -6   3  158.68    8.50
   6  -6   3  162.38    8.60
   6  -6   3  174.48    8.90
  -6   6  -3  176.38    8.10
  -6   6  -3  161.48    8.40
  -6   6  -3  177.08    8.30
  -6   6  -3  155.48    8.20
   6   6   3  160.78    8.50
   6   6   3  165.38    9.60
  -7  -6  -3   30.60    4.70
   7  -6   3   32.10    4.60
  -7   6  -3   34.30    4.30
  -7   6  -3   33.50    4.50
   7   6   3   30.10    4.50
   7   6   3   35.20    5.80
  -8  -6  -3    4.80    3.40
   8   6   3   -2.80    2.90
   9  -7  -3    2.80    3.20
   9  -7  -3    7.60    3.30
  -9   7   3    7.70    3.90
  -9   7   3    4.60    2.80
   9   7  -3    2.30    3.40
   9   7  -3    3.00    2.80
   8  -7  -3    2.20    2.10
  -8  -7   3   -2.50    1.20
   8  -7  -3    1.90    2.40
  -8   7   3    2.70    3.00
   8   7  -3    2.90    2.40
   8   7  -3    5.70    3.70
  -8   7   3   -0.60    2.00
   7  -7  -3   74.89    7.10
   7  -7  -3   96.09    6.80
  -7  -7   3   78.89    5.60
   7   7  -3   81.09    6.10
   7   7  -3   84.49    7.70
  -7   7   3   90.69    6.40
  -7   7   3   97.59    6.90
  -6  -7   3   47.60    4.80
   6  -7  -3   41.30    5.00
   6  -7  -3   46.80    5.00
  -6   7   3   38.60    4.60
  -6   7   3   47.50    5.20
   6   7  -3   56.19    5.20
   6   7  -3   53.89    5.80
  -5  -7   3   38.40    4.20
   5  -7  -3   34.70    4.40
   5  -7  -3   38.40    4.40
  -5   7   3   35.20    4.30
   5   7  -3   37.10    4.00
   5   7  -3   36.00    4.30
  -5   7   3   38.20    4.40
  -4  -7   3   93.29    5.60
   4  -7  -3  101.69    5.80
   4  -7  -3   99.39    5.70
   4   7  -3  105.79    4.50
  -4   7   3   98.49    5.50
   4   7  -3   90.39    5.60
  -4   7   3   91.29    5.40
   4   7  -3  100.39    5.30
   3  -7  -3  147.39    5.50
   3  -7  -3  128.39    6.70
  -3  -7   3  156.68    7.10
  -3   7   3  165.48    7.10
   3   7  -3  150.68    6.20
   3   7  -3  152.28    6.00
   3   7  -3  155.38    7.00
  -3   7   3  156.08    6.90
   2  -7  -3    3.10    1.10
  -2  -7   3    1.00    1.20
   2  -7  -3    3.60    1.40
   2   7  -3    2.30    1.30
  -2   7   3    0.60    1.40
   2   7  -3    1.90    1.20
   2   7  -3    4.30    1.10
  -2   7   3    5.30    1.60
   1  -7  -3  164.28    6.40
  -1  -7   3  159.48    7.20
   1  -7  -3  165.78    7.00
  -1  -7   3  162.68    6.80
  -1   7   3  161.38    6.70
   1   7  -3  160.78    5.50
   1   7  -3  161.28    6.70
   1   7  -3  160.98    6.70
  -1   7   3  165.78    7.20
   0  -7  -3   61.39    3.70
   0  -7   3   64.09    4.00
   0  -7   3   63.39    4.20
   0  -7  -3   62.79    3.70
   0   7  -3   64.49    2.60
   0   7  -3   66.69    3.70
   0   7  -3   69.89    4.00
   0   7   3   61.39    4.30
   0   7   3   63.69    3.80
   1  -7   3    5.40    1.70
   1  -7   3    9.30    2.30
  -1  -7  -3    9.30    1.60
  -1  -7  -3    8.70    1.90
  -1   7  -3    8.60    1.70
  -1   7  -3    8.50    1.10
   1   7   3    5.60    2.10
   1   7   3    7.00    1.90
  -1   7  -3    8.40    1.80
  -2  -7  -3    4.40    1.60
  -2  -7  -3    6.40    1.30
   2  -7   3    7.30    2.20
   2  -7   3    8.70    2.10
  -2   7  -3    8.00    1.80
   2   7   3    4.30    1.70
  -2   7  -3    2.70    1.40
   2   7   3    5.00    1.80
  -2   7  -3    6.30    1.20
  -3  -7  -3   46.40    4.50
   3  -7   3   47.00    4.70
   3  -7   3   39.40    4.20
   3   7   3   53.19    4.90
  -3   7  -3   48.40    3.00
   3   7   3   43.80    4.10
  -3   7  -3   45.60    4.60
  -3   7  -3   43.30    3.90
   4  -7   3    0.20    1.40
  -4  -7  -3    0.00    1.50
   4  -7   3   -0.10    2.00
   4   7   3    0.80    1.60
  -4   7  -3    0.50    1.60
   4   7   3   -0.50    1.30
  -4   7  -3   -1.10    1.80
  -4   7  -3   -0.50    1.10
  -5  -7  -3   -0.90    1.50
   5  -7   3    0.80    1.70
   5  -7   3    1.90    2.20
  -5   7  -3    0.10    1.60
   5   7   3    0.80    2.10
   5   7   3    1.10    1.90
  -5   7  -3   -0.30    1.50
  -6  -7  -3    1.50    2.00
   6  -7   3    3.80    2.50
   6  -7   3    5.50    2.40
   6   7   3    1.30    2.40
  -6   7  -3    6.50    2.20
  -6   7  -3    2.70    1.50
   6   7   3   -0.90    2.60
  -7  -7  -3    1.90    2.10
   7  -7   3    1.80    2.10
  -7   7  -3    1.70    2.40
   7   7   3   -2.50    1.60
  -7   7  -3    1.80    2.00
   7   7   3   -1.70    2.10
   8  -8  -3   -2.70    1.80
   8  -8  -3   -2.20    2.60
  -8  -8   3   -0.60    2.20
  -8   8   3   -2.20    2.80
   8   8  -3   -2.10    1.90
  -8   8   3   -3.30    1.80
   8   8  -3   -0.90    1.90
   7  -8  -3   18.80    4.40
  -7  -8   3   14.10    3.30
   7  -8  -3   22.70    4.30
   7   8  -3   13.80    3.20
   7   8  -3   16.10    4.20
  -7   8   3   17.20    4.00
  -7   8   3   12.20    3.70
  -6  -8   3   29.30    4.20
   6  -8  -3   25.10    4.20
   6  -8  -3   19.00    4.20
   6   8  -3   26.60    3.80
  -6   8   3   19.80    3.90
   6   8  -3   14.90    3.30
  -6   8   3   21.90    3.60
   5  -8  -3   76.09    5.80
  -5  -8   3   69.19    5.40
   5  -8  -3   73.49    5.50
  -5   8   3   70.09    5.10
   5   8  -3   73.39    5.40
   5   8  -3   77.09    5.30
  -5   8   3   79.09    5.40
   4  -8  -3    1.70    1.60
  -4  -8   3    5.40    2.00
  -4   8   3    1.90    1.50
   4   8  -3    3.20    1.80
   4   8  -3    1.30    1.60
  -4   8   3    3.50    2.20
   3  -8  -3    7.90    1.40
  -3  -8   3    5.40    2.20
   3  -8  -3    5.80    1.90
   3   8  -3    6.20    1.60
   3   8  -3    7.60    1.70
  -3   8   3    7.40    2.30
  -3   8   3    6.40    1.90
   3   8  -3    9.30    2.20
   2  -8  -3  315.77   10.40
  -2  -8   3  299.17   11.70
   2  -8  -3  308.97   11.40
   2   8  -3  298.97   11.20
  -2   8   3  301.07   11.30
  -2   8   3  289.07   11.40
   2   8  -3  304.27   10.00
  -1  -8   3   36.70    3.80
   1  -8  -3   41.70    3.20
  -1  -8   3   30.30    3.10
   1   8  -3   33.50    2.10
   1   8  -3   32.00    3.20
  -1   8   3   32.30    3.30
  -1   8   3   34.00    3.50
   1   8  -3   44.00    3.20
   0  -8  -3  427.26   14.30
   0  -8  -3  434.66   14.00
   0  -8   3  431.46   15.00
   0  -8   3  408.96   14.50
   0   8  -3  416.56   14.20
   0   8  -3  408.96   14.40
   0   8   3  420.56   14.30
   0   8   3  415.66   14.80
   0   8  -3  428.06   12.50
   1  -8   3    0.60    1.30
   1  -8   3    1.10    1.70
  -1  -8  -3    0.10    1.20
  -1  -8  -3   -0.40    1.00
  -1   8  -3    0.20    0.80
   1   8   3   -0.20    1.40
  -1   8  -3    1.10    1.20
  -1   8  -3   -0.20    1.00
   1   8   3    0.20    1.70
   2  -8   3    1.50    1.40
  -2  -8  -3    0.30    1.00
   2  -8   3    0.60    1.80
  -2  -8  -3   -0.30    1.20
   2   8   3    0.50    1.60
   2   8   3   -0.30    1.30
  -2   8  -3    0.00    1.40
  -2   8  -3    0.80    1.40
   3  -8   3  506.65   17.70
   3  -8   3  494.55   17.40
  -3  -8  -3  479.05   17.40
   3   8   3  482.55   17.70
  -3   8  -3  509.75   16.70
   3   8   3  483.65   16.90
  -3   8  -3  508.75   17.50
  -4  -8  -3    1.70    1.70
   4  -8   3    5.70    2.20
   4  -8   3    5.50    2.60
  -4   8  -3    5.70    2.10
   4   8   3    7.20    2.50
   4   8   3    7.10    2.90
  -4   8  -3    5.30    2.20
  -5  -8  -3    4.80    2.30
   5  -8   3    6.30    2.40
   5  -8   3    2.20    1.90
   5   8   3    4.90    2.10
   5   8   3    5.40    3.20
  -5   8  -3    8.10    2.60
  -5   8  -3    6.30    2.30
   6  -8   3   36.30    4.80
   6  -8   3   38.00    5.10
  -6  -8  -3   28.30    4.50
   6   8   3   43.30    5.50
   6   8   3   32.80    4.50
  -6   8  -3   37.20    4.50
  -6   8  -3   40.30    5.10
   7  -8   3    1.00    2.10
  -7  -8  -3    1.80    2.90
   7   8   3    3.50    2.90
  -7   8  -3    1.80    2.00
  -7   8  -3    0.30    2.60
   7   8   3   -0.50    2.10
  -8  -9   3    0.80    2.40
   8  -9  -3    2.00    3.20
   8  -9  -3    2.20    3.00
  -8   9   3   -0.30    3.00
   8   9  -3   -0.70    1.90
   8   9  -3    5.80    3.00
  -8   9   3    2.80    2.50
  -7  -9   3    2.80    2.70
   7  -9  -3    1.90    3.00
   7  -9  -3    2.50    3.20
   7   9  -3    3.50    2.30
   7   9  -3    0.70    2.10
  -7   9   3   -0.70    2.40
  -7   9   3    3.00    3.00
   6  -9  -3   20.10    4.10
  -6  -9   3   21.40    3.60
  -6   9   3   26.90    4.10
   6   9  -3   23.20    3.60
   6   9  -3   28.50    4.40
  -6   9   3   27.20    4.50
  -5  -9   3  232.78   10.40
   5  -9  -3  229.88   10.60
   5   9  -3  213.68    9.70
  -5   9   3  228.48   10.30
   5   9  -3  245.48   10.80
  -5   9   3  212.08   10.00
   4  -9  -3  112.69    6.90
  -4  -9   3  107.29    6.50
  -4   9   3  110.09    6.60
   4   9  -3  114.99    5.90
   4   9  -3  114.59    6.70
  -4   9   3  115.99    6.80
  -3  -9   3   14.30    2.80
   3  -9  -3    5.40    2.00
   3   9  -3    5.90    1.70
   3   9  -3   12.30    2.60
  -3   9   3    7.30    2.40
  -3   9   3    6.00    1.90
   3   9  -3    9.30    1.90
   2  -9  -3   24.40    3.20
   2  -9  -3   23.30    2.60
  -2  -9   3   20.70    3.40
   2   9  -3   24.30    2.50
  -2   9   3   21.80    3.10
   2   9  -3   22.40    3.40
  -2   9   3   22.90    3.30
   2   9  -3   10.80    2.00
  -1  -9   3   19.60    2.90
   1  -9  -3   21.40    3.00
  -1  -9   3   21.90    3.20
   1   9  -3   17.10    2.60
   1   9  -3   17.30    1.90
  -1   9   3   19.30    2.80
   1   9  -3   19.90    3.00
  -1   9   3   17.00    2.80
   0  -9  -3   18.20    2.60
   0  -9   3   11.60    2.30
   0  -9  -3   18.90    2.70
   0  -9   3   16.40    2.90
   0   9   3   16.00    2.80
   0   9  -3   15.40    2.50
   0   9   3   19.30    3.10
   0   9  -3   18.70    2.70
  -1  -9  -3   36.10    3.30
   1  -9   3   39.20    4.40
  -1  -9  -3   34.10    4.00
   1  -9   3   42.90    4.40
  -1   9  -3   37.50    4.10
   1   9   3   31.00    3.70
   1   9   3   35.20    4.00
  -1   9  -3   33.90    3.60
  -2  -9  -3   11.00    2.80
   2  -9   3   11.20    2.60
   2  -9   3   17.20    3.30
  -2   9  -3    9.80    2.80
   2   9   3   11.10    2.60
  -2   9  -3   10.60    2.20
   2   9   3   12.20    2.40
   3  -9   3  352.96   13.90
   3  -9   3  347.37   13.60
  -3  -9  -3  347.37   13.80
   3   9   3  355.36   13.40
  -3   9  -3  322.77   12.70
   3   9   3  337.47   13.70
  -3   9  -3  368.86   13.80
   4  -9   3  246.68   11.10
   4  -9   3  241.98   10.90
  -4  -9  -3  248.88   11.10
   4   9   3  222.88   10.40
  -4   9  -3  234.48   10.10
  -4   9  -3  219.38   10.50
   4   9   3  253.87   11.30
   5  -9   3    0.00    2.50
  -5  -9  -3    2.00    2.10
   5  -9   3    2.90    2.60
   5   9   3    7.20    2.40
   5   9   3    5.90    2.60
  -5   9  -3    0.70    1.90
  -5   9  -3    4.60    2.30
  -6  -9  -3    1.90    2.90
   6  -9   3    1.90    3.00
   6   9   3    0.80    1.80
   6   9   3    1.80    2.30
  -6   9  -3    1.40    2.80
  -6   9  -3    0.10    2.00
  -7  -9  -3    1.50    2.40
   7  -9   3   -3.70    2.50
  -7   9  -3    4.00    2.90
   7   9   3   -3.80    3.20
   8 -10  -3   -1.70    3.10
  -8 -10   3    0.40    2.50
   8  10  -3   -1.40    2.90
  -8  10   3   -0.80    3.00
   8  10  -3    1.40    3.10
  -8  10   3    3.30    2.70
   7 -10  -3   24.30    4.90
  -7 -10   3   21.80    4.30
   7  10  -3   29.50    5.30
  -7  10   3   29.70    4.90
   7  10  -3   23.40    4.30
  -7  10   3   27.70    4.90
   6 -10  -3   -0.20    1.90
  -6 -10   3    0.60    1.80
   6  10  -3    0.10    2.00
   6  10  -3    0.20    2.10
  -6  10   3    0.20    1.80
  -6  10   3    1.50    2.20
  -5 -10   3  146.19    8.30
   5 -10  -3  162.18    8.80
  -5  10   3  153.58    8.30
  -5  10   3  161.18    8.30
   5  10  -3  157.58    8.00
   5  10  -3  143.09    8.40
  -4 -10   3   15.20    3.50
   4 -10  -3   13.00    3.00
  -4  10   3   18.80    3.60
  -4  10   3   11.40    3.20
   4  10  -3   17.20    3.20
   4  10  -3   16.70    2.80
   3 -10  -3   14.90    3.00
  -3 -10   3    7.30    2.80
   3  10  -3   13.40    2.30
   3  10  -3    6.90    2.30
  -3  10   3   10.10    2.40
  -3  10   3    9.90    2.90
   3  10  -3    8.60    2.00
   2 -10  -3   18.90    2.70
  -2 -10   3   22.70    3.50
   2 -10  -3   12.50    2.60
  -2  10   3   16.00    2.90
  -2  10   3   19.20    3.00
   2  10  -3   13.90    2.70
   2  10  -3   19.30    2.50
   1 -10  -3   28.10    3.30
   1 -10  -3   24.80    3.20
  -1 -10   3   21.30    3.10
  -1 -10   3   24.50    3.50
   1  10  -3   22.40    3.20
   1  10  -3   24.80    3.20
  -1  10   3   21.00    3.40
  -1  10   3   29.20    3.80
   0 -10  -3  595.54   18.90
   0 -10   3  579.54   19.40
   0 -10  -3  574.74   19.20
   0 -10   3  566.14   20.00
   0  10  -3  573.54   19.20
   0  10   3  571.14   19.70
   0  10   3  582.34   19.50
   0  10  -3  569.04   19.20
  -1 -10  -3   16.60    2.50
  -1 -10  -3   14.60    3.20
   1 -10   3   15.30    3.30
   1 -10   3   11.20    2.90
   1  10   3   19.10    3.30
  -1  10  -3   15.70    3.10
  -1  10  -3   20.00    2.90
   1  10   3   21.40    3.30
  -2 -10  -3  151.68    7.90
   2 -10   3  170.28    8.60
   2 -10   3  153.48    8.40
   2  10   3  160.78    8.20
   2  10   3  159.48    7.80
  -2  10  -3  147.09    8.10
  -2  10  -3  151.48    7.60
  -3 -10  -3   45.00    5.20
   3 -10   3   36.70    4.50
   3 -10   3   36.90    4.60
   3  10   3   35.30    4.10
  -3  10  -3   30.40    4.10
   3  10   3   31.60    4.30
  -3  10  -3   35.90    4.00
  -4 -10  -3   98.39    6.70
   4 -10   3   95.09    6.70
   4 -10   3   95.49    6.70
   4  10   3   98.69    6.90
   4  10   3   90.19    6.50
  -4  10  -3  101.29    6.70
  -4  10  -3  101.39    6.30
  -5 -10  -3    2.90    2.20
   5 -10   3    3.50    2.50
   5 -10   3    2.10    2.30
   5  10   3    2.00    2.00
   5  10   3    3.50    3.10
  -5  10  -3    0.00    2.00
  -5  10  -3    0.50    2.10
  -6 -10  -3   22.10    4.30
   6 -10   3   26.70    4.90
   6  10   3   16.80    4.00
  -6  10  -3   22.30    4.00
   6  10   3   21.20    4.40
  -6  10  -3   18.40    4.20
   7 -11  -3   25.40    5.00
  -7 -11   3   21.10    4.50
   7  11  -3   24.30    4.70
  -7  11   3   27.20    5.20
   7  11  -3   21.40    4.10
  -7  11   3   19.80    4.00
  -6 -11   3   70.79    6.80
   6 -11  -3   55.29    6.30
  -6  11   3   59.29    6.30
   6  11  -3   67.89    6.40
  -6  11   3   57.79    6.10
   6  11  -3   58.69    6.80
   5 -11  -3   11.70    3.70
  -5 -11   3   23.90    4.10
   5  11  -3   19.20    3.40
   5  11  -3   15.50    3.60
  -5  11   3   22.00    4.30
  -5  11   3   19.10    3.60
   4 -11  -3   14.10    3.60
  -4 -11   3    9.50    2.80
   4  11  -3    7.80    2.40
  -4  11   3   13.10    3.30
   4  11  -3    9.60    2.80
  -4  11   3   11.10    3.20
  -3 -11   3   11.50    2.90
   3 -11  -3   15.40    3.60
  -3  11   3   17.40    3.60
   3  11  -3   14.00    3.00
  -3  11   3   18.30    3.60
  -2 -11   3   30.00    4.40
   2 -11  -3   38.20    4.50
   2 -11  -3   40.00    3.90
   2  11  -3   34.30    4.10
  -2  11   3   34.40    4.20
  -2  11   3   41.20    4.60
   1 -11  -3  548.75   18.40
  -1 -11   3  547.65   19.30
  -1 -11   3  527.55   18.10
   1 -11  -3  529.65   18.00
   1  11  -3  496.85   18.30
   1  11  -3  537.25   18.00
  -1  11   3  530.05   18.60
  -1  11   3  544.75   18.80
   0 -11  -3  494.65   17.40
   0 -11   3  495.35   18.30
   0 -11   3  508.25   17.60
   0 -11  -3  494.15   16.90
   0  11  -3  515.25   17.50
   0  11   3  472.05   17.40
   0  11   3  499.85   18.00
   0  11  -3  487.15   17.40
  -1 -11  -3   -2.30    1.90
   1 -11   3    1.80    2.40
  -1 -11  -3    0.80    1.50
   1 -11   3   -0.40    1.50
   1  11   3    0.40    1.60
  -1  11  -3   -0.40    1.40
  -1  11  -3    1.30    2.20
   1  11   3    0.40    1.70
   2 -11   3    8.00    2.60
  -2 -11  -3    7.90    2.50
   2 -11   3    7.70    2.50
   2  11   3    6.50    2.30
  -2  11  -3    9.10    2.60
  -2  11  -3    9.50    2.40
   2  11   3    7.90    2.60
  -3 -11  -3   17.80    3.90
   3 -11   3    7.50    2.60
   3 -11   3   13.50    3.20
  -3  11  -3   10.70    2.60
  -3  11  -3    5.90    2.50
   3  11   3    9.20    3.00
   3  11   3   14.40    3.20
   4 -11   3    7.30    3.30
   4 -11   3    8.70    3.10
  -4 -11  -3   12.20    3.30
  -4  11  -3    7.70    2.80
   4  11   3    3.70    2.20
  -4  11  -3    9.10    3.50
   4  11   3    8.40    3.00
   5 -11   3   32.40    5.00
   5 -11   3   36.20    4.90
  -5 -11  -3   30.30    4.90
  -5  11  -3   37.60    5.20
   5  11   3   36.20    5.30
   5  11   3   41.70    5.20
  -5  11  -3   31.90    4.50
  -6 -11  -3    8.10    3.20
   6 -11   3    6.00    3.70
   6  11   3   11.00    3.20
  -6  11  -3   17.60    4.30
  -6  11  -3    4.70    2.70
   6  11   3    8.70    4.10
  -7 -12   3   14.70    3.70
   7 -12  -3   13.70    4.60
   7  12  -3   13.70    3.90
  -7  12   3   10.00    4.10
  -7  12   3   11.90    3.50
  -6 -12   3   46.10    5.80
   6 -12  -3   35.20    5.30
  -6  12   3   38.80    5.70
   6  12  -3   27.50    4.80
  -6  12   3   40.00    5.30
  -5 -12   3    7.60    3.30
   5 -12  -3    7.60    3.00
  -5  12   3    6.40    3.20
  -5  12   3    7.80    2.90
   5  12  -3    7.00    2.90
   4 -12  -3   35.60    4.80
  -4 -12   3   36.20    5.00
  -4  12   3   48.00    5.80
   4  12  -3   31.70    4.60
  -4  12   3   48.00    5.20
  -3 -12   3    0.80    1.90
   3 -12  -3    4.90    2.30
  -3  12   3    1.90    2.00
   3  12  -3    6.00    2.40
  -3  12   3    1.60    2.00
   2 -12  -3    0.60    1.60
   2 -12  -3    0.70    1.70
  -2 -12   3    1.10    2.00
   2  12  -3    0.10    1.60
   2  12  -3    0.20    0.80
  -2  12   3    2.90    2.70
  -2  12   3    1.10    1.80
   1 -12  -3    9.50    2.40
  -1 -12   3   12.00    3.40
  -1 -12   3    7.90    2.60
   1 -12  -3   10.50    2.90
  -1  12   3    9.80    3.20
  -1  12   3   13.90    3.10
   1  12  -3    9.70    3.10
   1  12  -3   12.50    2.90
   0 -12   3  137.19    7.30
   0 -12  -3  124.69    6.90
   0 -12  -3  116.69    6.60
   0 -12   3  143.19    8.20
   0  12  -3  113.19    7.10
   0  12   3  107.19    6.80
   0  12   3  119.39    7.50
   0  12  -3  125.09    6.90
   1 -12   3   -0.40    1.70
   1 -12   3    0.00    1.70
  -1 -12  -3    1.70    2.30
   1  12   3    2.40    2.80
  -1  12  -3    1.50    1.80
  -1  12  -3    0.30    1.60
   1  12   3   -1.30    2.30
   2 -12   3   76.49    5.90
   2 -12   3   81.49    6.10
  -2 -12  -3   66.19    6.40
   2  12   3   74.69    5.60
  -2  12  -3   70.29    5.40
   2  12   3   85.39    6.60
  -2  12  -3   82.49    6.00
   3 -12   3    9.60    3.50
   3 -12   3    2.00    2.00
  -3 -12  -3    3.30    2.80
  -3  12  -3    2.80    2.70
  -3  12  -3    0.40    2.80
   3  12   3   -0.20    1.90
   3  12   3    4.10    2.30
   4 -12   3    5.60    2.40
  -4 -12  -3   -2.80    1.60
   4 -12   3    5.50    2.90
   4  12   3    3.50    2.90
   4  12   3    2.40    2.30
  -4  12  -3    3.70    2.50
  -4  12  -3    1.90    2.00
  -5 -12  -3   21.20    4.80
   5 -12   3   23.10    4.50
  -5  12  -3   22.70    4.20
   5  12   3   17.10    4.10
  -5  12  -3   24.80    4.50
   5  12   3   18.30    4.20
  -6 -13   3    9.40    3.80
   6 -13  -3   10.50    3.50
  -6  13   3    9.60    3.80
  -6  13   3   14.20    4.50
   6  13  -3   11.20    4.30
   5 -13  -3   -0.10    2.30
  -5 -13   3   -4.00    2.60
  -5  13   3   -1.70    2.60
  -5  13   3    3.80    2.70
   5  13  -3    1.50    3.00
  -4 -13   3    3.40    2.50
   4 -13  -3    3.90    2.50
  -4  13   3    2.50    2.20
  -4  13   3    3.90    2.50
   4  13  -3    6.50    2.60
   3 -13  -3   12.70    3.60
  -3 -13   3    8.70    3.50
  -3  13   3   15.60    3.30
   3  13  -3    9.90    2.90
  -3  13   3    7.80    2.90
  -2 -13   3   66.29    6.90
   2 -13  -3   83.49    6.40
   2  13  -3   88.19    6.20
  -2  13   3   78.19    6.00
  -2  13   3   86.59    6.20
   1 -13  -3  191.48    9.20
  -1 -13   3  184.78   10.00
  -1 -13   3  192.98    9.30
   1 -13  -3  201.78    9.60
  -1  13   3  189.58    9.60
  -1  13   3  178.08    9.80
   1  13  -3  194.38    9.20
   1  13  -3  194.48    9.60
   0 -13  -3    0.80    1.70
   0 -13   3   -2.20    2.20
   0 -13  -3    2.10    2.30
   0 -13   3    0.30    1.80
   0  13   3   -0.90    1.70
   0  13  -3   -1.30    2.40
   0  13   3    0.10    2.50
   0  13  -3    6.00    2.70
   1 -13   3    0.70    1.80
  -1 -13  -3   -1.60    2.20
   1 -13   3   -0.40    1.90
   1  13   3    2.10    2.10
  -1  13  -3   -0.70    1.60
  -1  13  -3   -0.90    1.50
   1  13   3   -1.70    1.70
   2 -13   3    7.20    2.70
  -2 -13  -3    7.40    3.30
   2 -13   3    9.40    3.40
   2  13   3    7.20    2.70
  -2  13  -3   14.50    3.40
  -2  13  -3   10.40    3.60
   2  13   3    7.20    2.70
   3 -13   3    1.70    2.40
  -3 -13  -3    1.60    2.20
   3 -13   3   -0.20    2.50
  -3  13  -3    0.50    1.80
   3  13   3    1.20    2.90
  -3  13  -3    2.80    2.40
   3  13   3    2.00    2.20
  -4 -13  -3   23.90    5.00
   4 -13   3   21.50    4.40
   4 -13   3   26.00    4.70
  -4  13  -3   17.80    4.00
   4  13   3   23.90    4.20
  -4  13  -3   24.40    4.40
   4  13   3   27.20    4.70
  -5 -13  -3   42.50    5.90
   5 -13   3   40.20    6.40
  -5  13  -3   46.00    6.40
   5  13   3   46.60    6.20
   5  13   3   34.90    5.20
  -5  13  -3   38.80    5.10
   5 -14  -3   -0.40    3.20
  -5 -14   3   -4.70    2.70
   5  14  -3    1.50    2.30
  -5  14   3   -4.40    2.80
  -5  14   3   -1.20    2.20
  -4 -14   3   18.10    4.60
   4 -14  -3    1.50    3.30
   4  14  -3    9.90    3.10
  -4  14   3   14.80    3.70
  -4  14   3   10.20    3.80
   3 -14  -3    3.80    2.50
  -3 -14   3    1.40    2.20
   3  14  -3    5.80    2.70
  -3  14   3    0.70    3.10
  -3  14   3    3.20    2.50
  -2 -14   3  144.99    8.80
   2 -14  -3  129.59    7.90
  -2  14   3  115.59    8.10
  -2  14   3  119.79    7.90
   2  14  -3  138.39    8.60
  -1 -14   3   12.90    2.90
  -1 -14   3   10.00    3.80
   1 -14  -3   25.30    4.20
   1 -14  -3   14.90    3.40
   1  14  -3   10.40    3.50
  -1  14   3    8.70    2.90
   1  14  -3   12.50    2.80
  -1  14   3    8.90    3.00
   0 -14  -3    0.50    2.40
   0 -14  -3    1.60    2.30
   0 -14   3    1.00    2.20
   0 -14   3    1.00    2.00
   0  14  -3   -1.50    1.60
   0  14   3    0.60    2.70
   0  14  -3    1.40    1.90
   0  14   3    0.50    2.20
   1 -14   3   -1.60    2.60
  -1 -14  -3   -2.20    1.30
   1 -14   3    3.80    3.10
  -1  14  -3    4.60    2.70
  -1  14  -3   -2.10    1.70
   1  14   3   -1.10    1.90
   1  14   3   -3.20    2.60
  -2 -14  -3   24.30    4.30
   2 -14   3   21.20    4.10
   2 -14   3   31.90    4.90
   2  14   3   40.00    5.70
  -2  14  -3   25.00    4.50
   2  14   3   23.50    4.70
  -2  14  -3   19.50    3.90
  -3 -14  -3   59.09    6.60
   3 -14   3   40.90    6.10
   3 -14   3   59.79    6.80
   3  14   3   60.09    6.40
  -3  14  -3   60.89    6.70
   3  14   3   62.79    6.70
  -3  14  -3   54.99    5.90
  -4 -14  -3   14.80    4.00
   4 -14   3   14.80    4.60
  -4  14  -3   14.80    4.60
  -4  14  -3   11.00    3.20
   4  14   3   14.00    3.80
   4  14   3    9.60    3.40
   4 -15  -3   19.30    4.30
  -4 -15   3   20.70    5.00
  -4  15   3   12.80    4.40
  -4  15   3   11.60    4.00
   4  15  -3   15.90    3.90
   3 -15  -3   17.00    4.40
  -3 -15   3   10.80    3.50
  -3  15   3    9.20    3.90
   3  15  -3   11.60    3.40
  -3  15   3   11.20    3.30
  -2 -15   3   15.40    4.00
   2 -15  -3   11.30    3.70
  -2  15   3   13.50    4.30
   2  15  -3    7.00    2.80
  -2  15   3   17.30    3.80
  -1 -15   3   -1.70    1.90
   1 -15  -3    0.30    1.80
  -1 -15   3    2.70    2.70
   1  15  -3   -2.50    2.20
   1  15  -3   -1.30    1.70
  -1  15   3   -0.70    1.90
  -1  15   3    0.20    2.90
   0 -15   3    4.20    3.00
   0 -15   3    2.80    2.30
   0 -15  -3    2.40    2.20
   0  15  -3   -0.90    1.90
   0  15   3    0.80    2.80
   0  15  -3   -3.50    2.20
   0  15   3    1.60    3.20
   1 -15   3    1.70    2.90
  -1 -15  -3   -1.60    2.80
   1 -15   3   -1.20    1.80
  -1  15  -3    2.30    2.30
   1  15   3    0.00    2.10
  -1  15  -3   -0.10    1.80
   1  15   3   -3.90    2.70
  -2 -15  -3   -1.00    2.10
   2 -15   3    3.40    3.50
   2 -15   3    2.20    2.40
   2  15   3    3.50    2.60
   2  15   3    1.20    2.30
  -2  15  -3    2.60    3.30
  -2  15  -3    3.40    3.20
   3 -15   3    5.50    3.40
   3 -15   3    2.90    2.80
  -3 -15  -3   -6.30    2.20
  -3  15  -3    1.50    2.50
   3  15   3   -2.90    2.70
  -3  15  -3    1.30    2.90
   3  15   3   -1.80    2.90
   2 -16  -3   32.90    5.20
  -2 -16   3   42.00    6.30
  -2  16   3   25.00    5.30
  -2  16   3   39.10    5.80
   2  16  -3   42.20    6.10
   1 -16  -3    1.30    2.00
  -1 -16   3    2.80    2.60
  -1  16   3    2.70    3.00
  -1  16   3   -0.80    3.10
   1  16  -3    1.60    3.10
   0 -16  -3   50.49    6.20
   0 -16   3   42.20    5.50
   0 -16   3   48.00    6.30
   0  16   3   53.99    6.60
   0  16  -3   48.30    5.90
   0  16   3   56.19    6.80
   0  16  -3   50.99    5.70
   1 -16   3    8.30    3.00
  -1 -16  -3    4.80    3.40
   1 -16   3    9.30    3.30
   1  16   3    7.70    3.20
  -1  16  -3    7.50    3.00
  -1  16  -3    5.90    2.90
   1  16   3    8.40    3.80
 -10   0   4   22.00    4.90
  10   0  -4   23.40    4.90
  10   0  -4   16.10    5.00
   9   0  -4   -0.50    2.90
  -9   0   4   -1.60    2.70
   9   0  -4    2.40    2.50
   8   0  -4   -1.50    1.70
   8   0  -4    0.50    2.00
  -8   0   4   -0.30    1.70
   7   0  -4    0.20    1.80
   7   0  -4    0.40    1.50
  -7   0   4   -0.40    1.50
   7   0  -4    0.30    1.60
   6   0  -4   -0.50    1.20
   6   0  -4    1.10    2.10
  -6   0   4    1.80    1.40
   6   0  -4    1.80    1.60
   5   0  -4   -0.20    1.30
   5   0  -4   -0.40    1.10
  -5   0   4   -0.20    1.00
  -5   0   4    0.20    0.60
   5   0  -4    2.90    1.80
  -4   0   4  662.53   18.40
   4   0  -4  650.63   20.10
   4   0  -4  636.94   20.10
  -4   0   4  638.04   19.90
   4   0  -4  647.94   19.90
  -3   0   4   -0.20    0.60
  -3   0   4   -0.10    0.50
   3   0  -4    0.20    0.70
   3   0  -4    0.30    0.90
  -2   0   4  127.89    4.80
   2   0  -4  127.89    4.80
   2   0  -4  128.99    5.40
   1   0  -4   -0.40    0.50
  -1   0   4   -0.20    0.70
  -1   0   4    0.20    0.90
   1   0  -4    0.80    0.90
   0   0   4 1297.07   37.30
   0   0  -4 1337.77   37.20
   0   0   4 1295.37   36.40
   1   0   4    1.60    1.10
   1   0   4   -0.70    0.80
  -1   0  -4    0.20    0.80
   2   0   4    0.00    0.90
   2   0   4   -0.30    1.10
  -2   0  -4    0.80    0.80
  -2   0  -4   -0.30    0.90
   2   0   4   -0.30    0.60
  -3   0  -4    0.00    1.00
   3   0   4    0.60    0.80
   3   0   4   -0.30    1.20
   3   0   4    1.60    1.80
  -3   0  -4    1.00    1.50
  -4   0  -4   63.59    3.80
  -4   0  -4   64.49    4.50
   4   0   4   70.19    3.80
   4   0   4   61.89    4.50
   4   0   4   59.89    4.60
   5   0   4    3.00    2.30
  -5   0  -4    1.40    1.40
  -5   0  -4    0.30    2.10
   5   0   4    3.00    2.50
   6   0   4   17.20    3.70
  -6   0  -4   11.80    2.70
  -7   0  -4   -0.60    2.40
   7   0   4   -3.00    2.30
   8   0   4    2.40    2.50
  -8   0  -4    3.70    2.20
  10  -1  -4   11.40    3.70
  10  -1  -4    5.20    3.90
 -10  -1   4    7.20    3.10
 -10   1   4    7.60    3.20
  10   1  -4    6.40    3.10
  10   1  -4    9.20    3.50
   9  -1  -4   14.30    3.70
  -9  -1   4    7.30    2.80
   9  -1  -4   15.90    3.90
   9   1  -4   18.40    4.50
  -9   1   4   12.90    3.50
   9   1  -4    9.00    3.30
   8  -1  -4   14.50    3.60
   8  -1  -4   13.00    3.40
  -8  -1   4    8.20    3.20
  -8   1   4   14.70    3.20
   8   1  -4   19.10    4.10
   8   1  -4   10.30    3.00
   7  -1  -4   10.40    2.50
  -7  -1   4   16.60    3.10
   7  -1  -4   14.30    3.00
   7  -1  -4   19.00    3.50
   7   1  -4   11.80    3.00
   7   1  -4   14.20    3.00
  -7   1   4   19.80    3.40
  -6  -1   4   25.70    3.30
   6  -1  -4   25.80    3.60
   6  -1  -4   19.60    3.10
   6  -1  -4   19.90    2.90
   6   1  -4   30.20    3.70
  -6   1   4   25.00    3.30
   6   1  -4   21.20    3.30
   6   1  -4   20.20    2.70
  -5  -1   4   68.49    3.20
  -5  -1   4   62.59    4.00
   5  -1  -4   65.19    4.00
   5  -1  -4   71.29    4.50
   5  -1  -4   59.39    4.50
  -5   1   4   63.39    4.40
   5   1  -4   67.89    4.40
   5   1  -4   68.19    4.30
  -4  -1   4  164.38    6.80
  -4  -1   4  175.28    6.00
   4  -1  -4  168.78    6.90
   4  -1  -4  169.58    7.10
  -4   1   4  177.58    7.10
   4   1  -4  172.68    6.80
   4   1  -4  160.88    6.90
   4   1  -4  171.18    7.10
  -3  -1   4  232.28    7.30
   3  -1  -4  213.28    7.80
   3  -1  -4  209.78    8.00
  -3   1   4  212.68    6.60
   3   1  -4  216.68    7.80
   3   1  -4  208.98    7.60
  -3   1   4  211.78    7.80
   3   1  -4  208.18    7.90
   2  -1  -4  303.77   10.50
   2  -1  -4  307.17    9.90
  -2  -1   4  332.57   10.10
  -2  -1   4  313.57    9.80
   2   1  -4  307.87    9.80
  -2   1   4  312.27   10.20
  -2   1   4  313.77    9.60
   2   1  -4  317.17   10.50
   1  -1  -4   15.40    1.20
   1  -1  -4   18.90    2.20
  -1  -1   4   18.50    1.50
  -1  -1   4   15.40    1.80
  -1   1   4   17.50    1.80
   1   1  -4   17.50    1.20
  -1   1   4   17.50    1.20
   1   1  -4   18.50    2.10
   0  -1   4  877.61   26.10
   0  -1  -4  884.41   25.90
   0  -1   4  891.51   24.90
   0  -1  -4  896.51   25.90
   0   1  -4  899.11   26.00
   0   1   4  896.31   24.00
   0   1   4  883.51   26.00
   0   1   4  885.01   24.00
  -1  -1  -4  104.59    4.50
  -1  -1  -4   97.39    4.80
   1  -1   4  112.59    4.20
   1  -1   4  112.09    5.20
  -1   1  -4  105.59    3.10
   1   1   4  108.19    3.30
  -1   1  -4  108.19    4.80
   1   1   4   97.39    4.90
  -2  -1  -4   95.29    4.30
   2  -1   4   99.29    4.30
   2  -1   4   81.29    4.80
   2  -1   4   96.59    3.50
  -2  -1  -4   92.29    4.80
  -2   1  -4   92.59    3.40
   2   1   4   82.39    4.80
   2   1   4   96.29    3.60
  -2   1  -4   91.79    4.50
   2   1   4   95.89    4.50
   3  -1   4    2.90    1.30
   3  -1   4    5.80    1.20
  -3  -1  -4    2.90    1.20
   3  -1   4    7.00    2.20
  -3  -1  -4    5.30    1.90
  -3   1  -4    2.80    1.10
   3   1   4    5.50    2.20
  -3   1  -4    1.80    1.70
   3   1   4    3.00    1.20
   3   1   4    3.80    1.70
   4  -1   4  188.28    8.90
  -4  -1  -4  176.78    7.10
   4  -1   4  179.38    8.10
  -4  -1  -4  185.58    8.50
   4  -1   4  198.78    7.50
   4   1   4  198.88    8.50
  -4   1  -4  199.08    7.80
   4   1   4  198.88    7.50
  -4   1  -4  204.98    8.80
   4   1   4  195.78    8.90
   5  -1   4 1147.29   37.30
   5  -1   4 1268.57   38.40
   5  -1   4 1266.57   37.60
  -5  -1  -4 1238.68   37.90
   5   1   4 1283.27   36.90
  -5   1  -4 1243.68   37.90
  -5   1  -4 1246.08   36.40
   5   1   4 1254.97   38.00
  -6  -1  -4    1.90    1.80
   6  -1   4   -0.80    1.80
   6  -1   4   -0.20    2.20
  -6   1  -4    1.40    1.80
   6   1   4   -0.90    1.70
  -7  -1  -4    0.80    2.50
   7  -1   4   -0.40    2.40
   7   1   4    2.00    2.30
  -7   1  -4    0.80    1.80
  -8  -1  -4   -0.10    2.60
   8  -1   4    7.70    3.00
  -8   1  -4    4.20    2.90
   8   1   4   11.90    4.00
  10  -2  -4    6.40    3.10
 -10  -2   4    6.70    3.00
  10  -2  -4    9.50    3.40
  10   2  -4    6.20    3.20
  10   2  -4    8.80    4.10
 -10   2   4    7.70    3.20
   9  -2  -4   21.10    4.60
  -9  -2   4   14.50    3.50
   9  -2  -4   16.20    4.00
  -9   2   4   16.00    4.50
   9   2  -4   17.60    3.90
   9   2  -4   14.60    3.70
   8  -2  -4   23.80    4.60
  -8  -2   4   27.30    4.10
   8  -2  -4   16.40    3.80
   8  -2  -4   22.60    5.30
   8   2  -4   20.80    3.80
   8   2  -4   18.10    3.70
  -8   2   4   18.10    4.00
   7  -2  -4   11.80    2.60
   7  -2  -4    4.00    2.70
   7  -2  -4    9.10    3.20
  -7  -2   4   13.10    3.10
   7   2  -4    8.60    2.60
  -7   2   4   11.40    3.20
   7   2  -4   13.20    3.20
  -6  -2   4  110.29    6.10
   6  -2  -4  109.29    6.50
  -6  -2   4  115.79    5.00
   6  -2  -4  109.49    6.40
   6  -2  -4  115.69    6.00
  -6   2   4  113.89    6.30
   6   2  -4  120.59    5.50
   6   2  -4  118.49    6.40
   6   2  -4  127.39    6.80
   5  -2  -4  619.94   19.90
  -5  -2   4  626.14   19.80
   5  -2  -4  627.24   20.40
  -5  -2   4  637.94   18.70
   5   2  -4  634.84   19.20
   5   2  -4  632.84   20.30
  -5   2   4  613.44   20.10
   5   2  -4  592.54   19.90
   4  -2  -4  920.51   27.70
  -4  -2   4  924.21   26.70
   4  -2  -4  957.00   27.90
  -4  -2   4  933.91   27.30
   4   2  -4  880.51   27.10
   4   2  -4  921.71   27.70
   4   2  -4  929.91   27.40
  -4   2   4  941.81   27.80
   3  -2  -4    0.30    1.10
  -3  -2   4   -0.30    0.80
   3  -2  -4    0.30    0.40
  -3  -2   4    1.20    0.90
   3  -2  -4    0.30    0.90
   3   2  -4    1.30    0.90
  -3   2   4    0.10    1.20
   3   2  -4   -0.60    0.90
   3   2  -4   -0.30    0.70
  -2  -2   4  650.73   19.60
   2  -2  -4  657.53   20.10
  -2  -2   4  668.63   18.90
   2  -2  -4  663.53   19.30
   2  -2  -4  660.23   18.80
  -2   2   4  658.83   19.20
   2   2  -4  648.64   19.80
   2   2  -4  661.33   19.30
  -2   2   4  659.63   18.80
  -2   2   4  662.93   19.70
  -1  -2   4   11.00    1.00
   1  -2  -4   10.90    1.70
  -1  -2   4   11.20    1.70
   1   2  -4   11.60    1.70
   1   2  -4   12.90    1.30
   0  -2   4   18.60    2.20
   0  -2   4   16.00    1.10
   0  -2  -4   15.90    2.00
   0  -2  -4   15.60    1.90
   0   2   4   18.50    1.20
   0   2  -4   16.00    1.00
   0   2   4   18.80    2.10
   0   2  -4   14.90    2.00
   0   2   4   16.30    1.90
   1  -2   4    9.90    1.20
  -1  -2  -4    9.80    1.70
  -1  -2  -4    8.40    1.40
   1  -2   4    7.20    1.60
   1   2   4    8.60    1.60
  -1   2  -4    9.10    0.90
   1   2   4   11.90    1.90
  -1   2  -4    7.30    1.70
   1   2   4   10.60    1.00
  -2  -2  -4  665.63   19.60
   2  -2   4  677.43   20.90
   2  -2   4  663.93   19.40
  -2  -2  -4  661.73   20.60
   2   2   4  656.83   18.90
   2   2   4  652.23   20.30
   2   2   4  633.44   20.70
  -2   2  -4  661.93   20.20
  -2   2  -4  649.34   18.70
  -3  -2  -4   14.50    2.70
   3  -2   4   20.00    2.40
   3  -2   4   15.60    2.60
   3  -2   4   20.70    2.10
  -3  -2  -4   17.70    2.00
  -3   2  -4   19.30    2.40
  -3   2  -4   20.50    2.00
   3   2   4   17.90    2.10
   3   2   4   25.10    2.90
  -4  -2  -4    2.20    1.10
  -4  -2  -4    1.10    1.50
   4  -2   4    3.00    1.40
   4  -2   4    2.80    1.70
   4  -2   4    3.90    1.50
   4   2   4    0.10    1.80
  -4   2  -4    4.00    1.70
  -4   2  -4    2.60    1.20
   4   2   4    3.30    1.50
  -4   2  -4    3.00    1.60
  -5  -2  -4   72.39    5.30
   5  -2   4   81.99    5.60
   5  -2   4   79.79    5.10
  -5   2  -4   85.49    5.50
  -5   2  -4   80.69    4.50
   5   2   4   79.49    5.50
  -5   2  -4   76.19    4.50
   5   2   4   77.59    4.80
   6  -2   4   12.20    3.40
  -6  -2  -4   16.30    3.30
   6  -2   4   17.00    3.20
   6   2   4   12.40    3.50
  -6   2  -4   13.20    3.30
  -7  -2  -4   25.30    4.10
   7  -2   4   21.40    3.80
  -7   2  -4   18.30    3.70
   7   2   4   17.40    3.90
  -8  -2  -4    9.30    3.10
   8  -2   4   20.20    4.10
   8   2   4   18.40    4.30
  -8   2  -4   14.40    3.30
  -8   2  -4   18.70    3.80
   9  -3  -4   24.70    4.70
  -9   3   4   21.50    4.10
   9   3  -4   27.00    4.80
   9   3  -4   18.80    4.50
   8  -3  -4   15.20    3.20
  -8  -3   4    9.50    3.30
   8  -3  -4   12.30    3.80
  -8   3   4    8.80    2.90
   8   3  -4    9.20    3.40
   8   3  -4    8.10    3.00
  -7  -3   4    0.40    1.60
   7  -3  -4    0.80    1.40
   7  -3  -4   -2.10    1.50
  -7   3   4   -1.00    2.10
   7   3  -4    1.40    1.90
   7   3  -4   -0.80    1.50
  -6  -3   4   15.60    2.20
   6  -3  -4   13.70    2.80
   6  -3  -4   14.10    2.90
  -6  -3   4   17.50    2.80
   6   3  -4   14.90    2.20
   6   3  -4   14.30    2.90
   6   3  -4   14.70    3.00
  -6   3   4   13.20    2.60
  -5  -3   4    0.70    1.10
  -5  -3   4    1.90    1.20
   5  -3  -4    0.00    1.20
   5  -3  -4    3.00    2.00
   5   3  -4    2.60    1.40
   5   3  -4   -1.20    1.70
   5   3  -4    0.50    1.20
  -5   3   4    2.40    1.40
   4  -3  -4   40.40    3.70
   4  -3  -4   42.30    3.70
  -4  -3   4   32.10    2.50
  -4  -3   4   42.10    2.80
  -4   3   4   45.50    3.30
   4   3  -4   34.50    2.70
   4   3  -4   44.50    2.90
   4   3  -4   40.20    3.60
   3  -3  -4   16.80    2.30
   3  -3  -4   13.00    0.80
  -3  -3   4   14.90    1.70
  -3  -3   4   17.30    2.20
   3  -3  -4   13.80    1.90
   3   3  -4   15.70    2.10
  -3   3   4   14.40    1.80
   3   3  -4   18.30    2.00
  -3   3   4   12.70    2.00
   3   3  -4   11.30    1.90
  -2  -3   4   51.79    2.40
   2  -3  -4   52.49    3.00
   2  -3  -4   57.09    2.50
   2  -3  -4   48.50    3.20
  -2  -3   4   55.99    3.20
   2   3  -4   51.69    2.90
  -2   3   4   51.39    2.70
   2   3  -4   52.69    2.40
   2   3  -4   45.40    3.00
  -2   3   4   57.29    3.30
  -1  -3   4   30.70    3.00
   1  -3  -4   35.20    3.10
  -1  -3   4   33.00    1.30
   1  -3  -4   35.70    2.30
  -1   3   4   32.40    2.50
  -1   3   4   35.40    2.10
   1   3  -4   30.40    2.00
   1   3  -4   33.40    2.50
   0  -3  -4  645.64   19.30
   0  -3   4  627.64   19.70
   0  -3  -4  659.53   19.30
   0   3   4  626.64   19.50
   0   3   4  647.04   18.30
   0   3  -4  649.24   18.20
   0   3  -4  618.64   19.50
  -1  -3  -4  485.95   14.80
   1  -3   4  479.05   13.70
  -1  -3  -4  492.75   15.40
   1  -3   4  471.55   15.70
  -1   3  -4  483.25   13.90
   1   3   4  449.46   15.20
  -1   3  -4  484.85   15.40
   1   3   4  483.25   14.10
   2  -3   4   76.29    4.60
   2  -3   4   78.69    3.50
  -2  -3  -4   77.49    3.70
  -2  -3  -4   70.39    4.30
   2   3   4   72.49    3.40
  -2   3  -4   67.59    4.00
  -2   3  -4   75.59    3.20
   2   3   4   72.39    4.40
   3  -3   4  489.35   15.10
   3  -3   4  493.55   16.80
  -3  -3  -4  486.75   14.90
  -3  -3  -4  487.35   16.60
   3  -3   4  485.65   15.30
   3   3   4  480.25   15.10
  -3   3  -4  472.55   15.90
   3   3   4  486.75   16.50
  -3   3  -4  502.85   14.90
  -4  -3  -4   80.89    5.20
   4  -3   4   76.39    5.20
   4  -3   4   76.19    4.30
   4  -3   4   87.09    4.80
   4   3   4   79.19    4.60
   4   3   4   86.39    5.60
  -4   3  -4   80.39    4.20
  -4   3  -4   80.99    5.10
  -4   3  -4   78.39    4.80
   5  -3   4   41.30    4.60
   5  -3   4   40.90    4.20
  -5  -3  -4   37.70    4.30
  -5   3  -4   38.80    3.60
   5   3   4   35.60    3.80
  -5   3  -4   34.90    4.10
  -5   3  -4   34.70    3.60
   5   3   4   40.90    4.80
   6  -3   4   18.00    3.50
  -6  -3  -4   11.90    2.90
   6  -3   4   14.30    3.60
   6   3   4   16.40    3.50
  -6   3  -4   13.80    2.70
  -6   3  -4   16.10    3.30
   7  -3   4    1.60    2.60
  -7  -3  -4   -1.20    1.90
   7  -3   4    1.20    2.80
  -7   3  -4    2.10    2.20
   7   3   4    1.10    2.20
  -7   3  -4   -1.30    2.10
  -8  -3  -4   12.30    3.90
   8   3   4    9.50    4.10
  -8   3  -4    8.90    3.20
  -9  -4   4   85.49    7.80
   9  -4  -4   74.29    7.70
   9   4  -4   76.39    7.90
  -9   4   4   83.99    7.80
   9   4  -4   90.69    8.70
  -8  -4   4   -1.00    2.30
   8  -4  -4    6.00    2.70
   8  -4  -4   -0.90    2.70
   8   4  -4   -0.70    2.00
   8   4  -4   -0.70    2.70
  -8   4   4    0.70    1.90
   7  -4  -4   -0.40    1.30
   7  -4  -4   -0.80    2.40
   7   4  -4   -1.80    2.00
  -7   4   4    0.30    1.70
   7   4  -4    1.50    1.90
   6  -4  -4  408.16   15.00
  -6  -4   4  403.26   14.00
   6  -4  -4  417.76   15.60
  -6   4   4  407.36   15.30
   6   4  -4  429.76   15.30
   6   4  -4  421.06   15.70
   5  -4  -4  230.38    9.60
  -5  -4   4  254.77    9.10
   5  -4  -4  213.58    9.50
   5   4  -4  228.28    9.70
  -5   4   4  226.88    9.60
   5   4  -4  245.98    8.60
   5   4  -4  228.18    9.20
   4  -4  -4  127.19    6.30
  -4  -4   4  130.69    5.70
   4  -4  -4  132.39    6.30
   4   4  -4  127.99    5.50
  -4   4   4  117.39    6.00
   4   4  -4  132.59    5.80
   4   4  -4  126.29    6.10
  -4   4   4  140.49    6.30
   3  -4  -4    4.80    0.60
  -3  -4   4    3.20    1.40
   3  -4  -4    3.60    1.70
   3  -4  -4    4.40    1.40
  -3   4   4    3.50    1.40
   3   4  -4    2.80    1.30
   3   4  -4    4.20    1.30
  -3   4   4    1.70    1.10
   3   4  -4    4.30    1.20
   2  -4  -4    4.50    1.70
   2  -4  -4    6.40    1.10
   2  -4  -4    6.10    1.30
  -2  -4   4    4.80    1.40
  -2  -4   4    4.40    0.90
   2   4  -4    4.50    0.90
  -2   4   4    3.90    1.30
   2   4  -4    4.70    1.20
  -2   4   4    3.90    1.20
   2   4  -4    5.70    1.40
  -1  -4   4   10.20    1.80
   1  -4  -4    9.80    1.50
   1  -4  -4   11.00    1.90
  -1   4   4    8.80    1.40
   1   4  -4    7.50    1.40
  -1   4   4   15.10    2.20
   1   4  -4   10.50    1.80
   0  -4  -4   39.40    2.70
   0  -4   4   42.40    3.10
   0  -4  -4   46.30    2.90
   0   4   4   53.59    3.50
   0   4  -4   42.30    2.30
   0   4   4   45.20    2.50
   0   4  -4   45.30    3.30
   1  -4   4  474.15   15.80
  -1  -4  -4  484.05   15.50
  -1  -4  -4  477.75   14.80
   1   4   4  470.65   14.30
  -1   4  -4  480.85   13.30
  -1   4  -4  473.35   14.20
  -1   4  -4  476.35   15.50
   1   4   4  480.45   15.60
  -2  -4  -4   10.10    1.60
   2  -4   4    9.50    1.40
   2  -4   4    8.50    2.00
   2  -4   4    8.90    1.90
  -2  -4  -4   10.00    2.20
  -2   4  -4   10.90    1.60
   2   4   4    7.50    1.90
  -2   4  -4    8.40    1.20
  -2   4  -4    8.00    1.70
   2   4   4    7.90    1.40
   3  -4   4   29.00    2.80
  -3  -4  -4   26.90    2.30
  -3  -4  -4   25.10    3.20
   3  -4   4   27.90    3.50
   3  -4   4   24.80    3.10
   3   4   4   24.30    2.50
  -3   4  -4   26.80    2.50
  -3   4  -4   28.50    3.30
   3   4   4   25.60    3.50
   4  -4   4   15.80    2.90
   4  -4   4   15.80    2.70
   4  -4   4   11.80    2.20
   4  -4   4   20.30    2.70
  -4  -4  -4   15.20    2.90
  -4   4  -4   16.20    2.60
   4   4   4   14.40    2.90
   4   4   4   10.00    2.20
  -4   4  -4   11.60    1.90
  -4   4  -4   17.40    2.30
   5  -4   4   10.00    3.20
  -5  -4  -4   12.60    3.30
   5  -4   4   10.90    2.60
   5  -4   4   10.70    2.80
  -5   4  -4   11.80    2.70
  -5   4  -4   13.30    2.40
  -5   4  -4   14.40    3.10
   5   4   4   14.20    3.10
   5   4   4   11.40    2.50
  -5   4  -4   11.60    2.40
   6  -4   4    5.80    2.40
  -6  -4  -4    4.20    2.30
   6   4   4    0.20    2.70
  -6   4  -4    6.90    2.40
  -6   4  -4    7.00    2.40
  -6   4  -4    4.80    2.10
  -7  -4  -4    7.10    3.30
   7  -4   4    5.60    2.60
   7   4   4    7.10    3.70
  -7   4  -4    7.70    2.50
   9  -5  -4   63.29    7.10
  -9  -5   4   68.09    7.20
   9   5  -4   64.59    7.20
   9   5  -4   64.69    7.40
  -9   5   4   56.79    6.40
  -9   5   4   65.19    7.30
   8  -5  -4   14.40    3.10
   8  -5  -4   15.50    3.70
   8   5  -4   19.90    3.90
  -8   5   4   13.50    3.80
   8   5  -4   18.60    4.30
  -8   5   4   12.30    3.10
   7  -5  -4   84.19    5.90
   7  -5  -4   89.19    6.40
  -7  -5   4   92.69    5.50
   7   5  -4   83.29    5.90
  -7   5   4   79.19    5.90
  -7   5   4   96.09    6.30
   7   5  -4   87.69    6.40
   6  -5  -4  607.04   20.40
  -6  -5   4  596.64   19.40
   6  -5  -4  591.14   20.70
  -6   5   4  594.24   20.30
   6   5  -4  548.25   19.70
   6   5  -4  603.74   20.80
  -6   5   4  601.94   20.50
  -5  -5   4    0.80    1.10
   5  -5  -4    0.00    1.80
   5  -5  -4    0.60    2.00
   5   5  -4    0.50    2.00
  -5   5   4   -0.10    1.80
   5   5  -4   -0.10    1.10
   5   5  -4    0.70    1.30
  -5   5   4    0.40    1.80
  -4  -5   4    2.10    1.40
   4  -5  -4    0.70    1.30
   4  -5  -4   -0.70    1.10
   4   5  -4    1.80    1.30
  -4   5   4    1.80    1.20
  -4   5   4    1.10    1.30
   4   5  -4    0.10    1.20
   4   5  -4    0.00    1.20
   3  -5  -4   75.09    4.40
  -3  -5   4   60.19    3.90
   3  -5  -4   71.49    4.10
   3  -5  -4   73.19    2.70
   3   5  -4   65.39    3.40
   3   5  -4   70.39    4.10
   3   5  -4   72.19    3.80
  -3   5   4   68.49    3.90
  -3   5   4   70.39    4.20
   2  -5  -4  182.88    7.50
  -2  -5   4  188.38    7.70
   2  -5  -4  186.08    6.30
   2   5  -4  193.08    6.00
  -2   5   4  170.28    6.90
  -2   5   4  177.58    7.50
   2   5  -4  183.08    7.10
   2   5  -4  177.78    7.10
  -1  -5   4  326.87   11.70
   1  -5  -4  319.27   11.30
   1  -5  -4  345.77   10.80
  -1   5   4  313.67   10.70
   1   5  -4  336.07   11.40
   1   5  -4  331.07   10.80
  -1   5   4  327.77   11.50
   0  -5   4   71.19    4.50
   0  -5  -4   77.49    3.90
   0  -5  -4   71.79    3.90
   0   5  -4   72.79    3.50
   0   5   4   80.29    4.40
   0   5   4   75.49    3.70
   0   5  -4   74.49    4.40
  -1  -5  -4  160.68    6.40
   1  -5   4  169.58    7.50
   1  -5   4  174.98    7.40
  -1  -5  -4  163.28    7.00
   1   5   4  172.28    7.30
  -1   5  -4  165.68    7.10
  -1   5  -4  165.28    6.10
   1   5   4  171.68    6.40
  -2  -5  -4  114.79    4.80
   2  -5   4  105.39    5.70
   2  -5   4  104.19    6.00
  -2  -5  -4  112.69    5.80
  -2   5  -4  112.79    4.10
   2   5   4  111.09    5.00
  -2   5  -4  110.19    4.70
  -2   5  -4  109.09    5.60
   2   5   4  113.09    5.90
   3  -5   4   15.40    2.00
   3  -5   4   10.70    2.50
   3  -5   4   15.80    2.60
  -3  -5  -4    9.40    2.30
  -3  -5  -4   16.20    1.90
  -3   5  -4   14.50    2.00
   3   5   4   10.40    2.00
  -3   5  -4   11.80    2.20
  -3   5  -4   10.70    1.60
   3   5   4   20.40    3.00
  -4  -5  -4    1.50    1.70
   4  -5   4    5.60    1.90
   4  -5   4    3.30    1.80
   4  -5   4    0.30    1.40
   4   5   4    5.40    2.00
   4   5   4    1.80    1.60
  -4   5  -4    4.20    1.70
  -4   5  -4    4.60    1.50
  -4   5  -4    2.20    1.40
   5  -5   4   26.70    4.00
   5  -5   4   27.80    4.20
  -5  -5  -4   21.30    3.90
   5   5   4   26.50    4.00
   5   5   4   24.10    3.40
  -5   5  -4   28.00    3.20
  -5   5  -4   19.20    3.40
   6  -5   4   33.60    4.60
   6  -5   4   29.80    4.00
  -6  -5  -4   29.10    4.30
  -6   5  -4   32.00    4.10
  -6   5  -4   30.40    3.80
   6   5   4   32.50    4.80
  -7  -5  -4    2.90    2.30
   7  -5   4   -1.50    2.50
  -7   5  -4    7.30    2.90
   7   5   4    3.40    2.60
   9  -6  -4   26.60    4.90
   9  -6  -4   37.50    5.00
  -9   6   4   43.50    5.70
  -9   6   4   40.30    5.60
   9   6  -4   37.60    6.20
   9   6  -4   32.50    5.50
   8  -6  -4   11.00    3.20
   8  -6  -4   10.00    3.00
  -8   6   4   18.10    3.60
  -8   6   4    7.00    3.50
   8   6  -4   15.90    3.80
   8   6  -4   13.60    3.30
   7  -6  -4   45.70    5.40
  -7  -6   4   50.79    4.90
   7  -6  -4   61.59    6.20
  -7   6   4   44.50    5.10
   7   6  -4   43.40    5.80
  -7   6   4   38.80    4.70
   7   6  -4   56.49    5.80
   6  -6  -4   52.09    5.30
   6  -6  -4   56.29    5.60
  -6  -6   4   63.89    4.70
   6   6  -4   50.29    5.40
  -6   6   4   54.39    5.60
  -6   6   4   56.79    5.30
   6   6  -4   55.29    5.20
   5  -6  -4    9.20    2.90
   5  -6  -4    6.20    2.10
  -5  -6   4    9.30    2.10
  -5   6   4   19.90    3.30
   5   6  -4   14.50    2.70
   5   6  -4   12.80    3.10
   5   6  -4    9.70    2.00
  -5   6   4   10.00    2.30
   4  -6  -4    8.40    2.10
   4  -6  -4    4.30    1.80
  -4  -6   4    7.80    2.00
   4   6  -4    7.30    1.70
   4   6  -4    6.80    1.70
   4   6  -4    9.30    2.10
  -4   6   4    9.00    2.30
  -4   6   4    6.40    1.90
   3  -6  -4    2.50    0.80
  -3  -6   4    2.10    1.40
   3  -6  -4    2.70    1.50
  -3   6   4    1.80    1.30
   3   6  -4    4.00    1.20
   3   6  -4    4.40    1.50
  -3   6   4    2.20    1.20
   3   6  -4    0.50    0.60
  -2  -6   4  167.98    7.30
   2  -6  -4  162.38    7.30
   2  -6  -4  161.58    6.00
  -2   6   4  167.58    7.20
  -2   6   4  167.68    6.70
   2   6  -4  159.68    6.70
   2   6  -4  161.48    6.70
   2   6  -4  158.08    5.50
  -1  -6   4  780.92   24.80
   1  -6  -4  821.82   24.40
   1  -6  -4  803.82   23.70
  -1   6   4  787.12   24.60
  -1   6   4  814.42   23.90
   1   6  -4  794.22   24.30
   1   6  -4  792.52   23.80
   0  -6  -4   75.59    4.20
   0  -6  -4   83.49    4.30
   0  -6   4   88.49    5.00
   0   6  -4   83.09    4.60
   0   6  -4   84.29    4.10
   0   6   4   87.39    4.20
   0   6   4   84.29    4.80
  -1  -6  -4  265.27    9.20
  -1  -6  -4  249.97    9.80
   1  -6   4  268.17   10.40
   1  -6   4  266.07   10.30
   1   6   4  261.37   10.20
  -1   6  -4  264.87   10.10
  -1   6  -4  268.17    9.20
   1   6   4  249.18    9.20
  -2  -6  -4    0.80    1.00
   2  -6   4   -0.20    1.20
  -2  -6  -4    1.70    1.70
   2  -6   4    0.00    1.30
   2   6   4    0.40    1.70
  -2   6  -4    0.60    1.10
   2   6   4    4.00    1.50
  -2   6  -4    1.00    1.30
   3  -6   4   32.30    3.90
  -3  -6  -4   38.30    4.30
   3  -6   4   38.00    4.00
  -3   6  -4   35.70    3.20
  -3   6  -4   30.90    3.60
   3   6   4   30.90    4.10
   3   6   4   31.80    3.30
  -4  -6  -4  176.68    8.60
   4  -6   4  165.98    8.30
   4  -6   4  175.58    8.60
  -4   6  -4  177.88    8.20
   4   6   4  173.88    7.80
   4   6   4  159.48    8.50
  -4   6  -4  167.98    7.30
   5  -6   4    1.80    1.80
   5  -6   4    1.80    2.30
  -5  -6  -4    0.40    1.80
  -5   6  -4    0.90    1.60
  -5   6  -4    4.40    2.40
   5   6   4    3.40    2.00
   5   6   4    5.10    3.00
   6  -6   4  269.57   12.30
   6  -6   4  246.88   11.40
  -6  -6  -4  268.77   12.30
  -6   6  -4  256.87   11.20
  -6   6  -4  257.87   11.60
   6   6   4  245.98   12.20
  -7  -6  -4    5.30    2.70
   7  -6   4    6.00    3.30
  -7   6  -4    5.90    2.90
   7   6   4    7.70    3.20
  -7   6  -4    6.90    2.80
   9  -7  -4   26.60    5.00
   9  -7  -4   26.50    5.00
   9   7  -4   28.60    5.20
  -9   7   4   24.10    4.50
  -9   7   4   22.60    4.50
   9   7  -4   22.60    5.30
   8  -7  -4    3.40    2.40
   8  -7  -4    8.30    3.10
  -8   7   4   11.40    3.20
  -8   7   4    7.50    2.90
   8   7  -4   10.00    3.00
   8   7  -4    7.30    3.00
   7  -7  -4    2.70    2.80
   7  -7  -4    0.20    2.80
  -7  -7   4    2.00    1.70
   7   7  -4    0.90    2.00
  -7   7   4    3.10    3.00
  -7   7   4    1.10    2.00
   7   7  -4    0.70    2.40
  -6  -7   4  144.49    7.40
   6  -7  -4  147.59    8.10
   6  -7  -4  141.29    8.40
  -6   7   4  131.69    8.00
   6   7  -4  131.19    7.20
  -6   7   4  163.78    8.50
   6   7  -4  153.48    8.30
   5  -7  -4    4.30    2.10
   5  -7  -4    3.30    1.90
  -5  -7   4    4.90    2.20
  -5   7   4    5.00    2.00
   5   7  -4    6.70    2.20
   5   7  -4    6.70    2.30
  -5   7   4    5.10    2.50
   4  -7  -4  239.88   10.60
  -4  -7   4  273.77   10.70
   4  -7  -4  274.47   10.80
  -4   7   4  246.18   10.30
  -4   7   4  258.07   10.60
   4   7  -4  272.27    9.50
   4   7  -4  265.87   10.80
   4   7  -4  270.07    9.80
  -3  -7   4    4.10    1.60
   3  -7  -4    5.20    1.80
  -3   7   4    9.70    2.20
   3   7  -4    3.10    1.10
  -3   7   4    4.80    1.60
   3   7  -4   12.80    1.80
   3   7  -4    6.90    1.80
   2  -7  -4    1.30    1.30
   2  -7  -4    1.40    1.00
  -2  -7   4    3.70    1.40
   2   7  -4    1.40    1.40
   2   7  -4    1.30    1.40
  -2   7   4    1.00    1.20
  -2   7   4    0.30    1.50
   2   7  -4    1.90    0.80
   1  -7  -4   82.39    4.30
  -1  -7   4   89.19    5.10
   1  -7  -4   79.99    4.60
   1   7  -4   79.19    4.30
  -1   7   4   79.89    4.80
   1   7  -4   81.89    4.60
  -1   7   4   79.39    4.50
   0  -7   4  104.39    5.70
   0  -7  -4   93.59    5.00
   0  -7  -4  103.99    5.20
   0  -7   4   91.69    5.30
   0   7  -4   91.79    4.70
   0   7   4   96.99    5.70
   0   7  -4  101.79    5.30
   0   7   4  103.79    5.10
  -1  -7  -4  520.35   16.00
  -1  -7  -4  502.55   16.90
   1  -7   4  513.35   17.30
   1  -7   4  504.05   17.40
  -1   7  -4  491.25   16.00
   1   7   4  492.85   17.20
  -1   7  -4  499.85   17.00
  -2  -7  -4  306.47   12.40
   2  -7   4  337.67   12.80
  -2  -7  -4  324.47   11.00
   2  -7   4  346.27   13.00
   2   7   4  327.87   11.70
   2   7   4  356.66   13.00
  -2   7  -4  333.07   11.50
  -2   7  -4  332.07   12.50
  -3  -7  -4    0.10    1.50
   3  -7   4   -2.30    1.90
   3  -7   4    0.10    2.10
   3   7   4   -0.90    1.40
  -3   7  -4    1.70    2.10
   3   7   4    0.20    1.50
  -3   7  -4    0.30    1.00
   4  -7   4  353.56   14.10
  -4  -7  -4  364.86   14.30
   4  -7   4  348.77   14.20
  -4   7  -4  350.86   12.80
   4   7   4  352.76   13.20
   4   7   4  362.06   14.50
  -4   7  -4  367.96   14.00
  -5  -7  -4    7.90    2.70
   5  -7   4   23.80    3.70
   5  -7   4   11.70    3.40
  -5   7  -4   16.00    2.80
  -5   7  -4   15.80    3.00
   5   7   4   17.10    3.60
   5   7   4   15.60    2.90
  -6  -7  -4    6.70    3.30
   6  -7   4   10.40    3.30
   6  -7   4    4.70    2.90
  -6   7  -4    4.10    2.70
  -6   7  -4    4.80    2.60
   6   7   4    5.70    2.90
  -7  -7  -4    2.60    3.20
   7  -7   4    3.10    2.90
  -7   7  -4    4.50    2.90
   7   7   4    6.00    3.80
   8  -8  -4    1.70    2.10
   8  -8  -4   -0.70    2.30
  -8   8   4   -2.60    1.90
   8   8  -4    0.30    2.60
  -8   8   4    1.40    2.30
   8   8  -4   -0.60    3.30
  -7  -8   4    1.80    2.40
   7  -8  -4   -3.00    1.70
   7  -8  -4    3.70    3.10
   7   8  -4    0.00    2.00
   7   8  -4    6.10    2.80
  -7   8   4    2.20    2.20
  -7   8   4    4.00    2.50
   6  -8  -4    5.50    2.90
   6  -8  -4    0.10    2.70
  -6  -8   4   -2.40    1.80
   6   8  -4    0.50    1.90
   6   8  -4   -0.30    1.40
  -6   8   4   -0.60    2.40
  -6   8   4    3.20    2.00
   5  -8  -4    4.60    2.20
  -5  -8   4    8.10    2.80
   5  -8  -4   10.20    3.00
   5   8  -4   12.50    3.30
   5   8  -4   12.00    2.60
  -5   8   4    9.40    2.90
  -5   8   4   12.00    2.70
   4  -8  -4    7.50    2.30
  -4  -8   4    9.60    2.70
   4   8  -4    3.80    1.60
   4   8  -4    7.70    1.90
   4   8  -4    3.30    1.80
  -4   8   4    3.90    1.90
  -4   8   4    8.20    2.20
   3  -8  -4   22.20    3.30
  -3  -8   4   25.00    3.40
   3   8  -4   19.70    2.20
   3   8  -4   25.70    3.30
  -3   8   4   22.70    3.10
   3   8  -4   18.20    2.40
  -3   8   4   28.40    3.50
  -2  -8   4    9.90    2.40
   2  -8  -4    9.10    2.10
   2  -8  -4   14.40    2.00
  -2   8   4    8.90    2.20
   2   8  -4   10.20    2.20
  -2   8   4    6.00    2.10
   2   8  -4   15.70    2.70
  -1  -8   4   31.20    3.70
   1  -8  -4   32.10    3.60
   1  -8  -4   37.70    3.40
  -1   8   4   32.30    3.40
   1   8  -4   29.90    3.20
  -1   8   4   27.20    3.40
   1   8  -4   39.90    3.70
   0  -8  -4   31.80    3.50
   0  -8   4   27.30    3.40
   0  -8   4   26.80    3.50
   0  -8  -4   26.90    2.90
   0   8   4   28.90    3.60
   0   8  -4   29.90    3.40
   0   8   4   26.20    3.00
   0   8  -4   31.40    3.30
  -1  -8  -4  726.33   22.90
  -1  -8  -4  714.63   21.90
   1  -8   4  691.13   23.40
   1  -8   4  730.03   23.40
   1   8   4  720.33   22.40
   1   8   4  700.03   23.30
  -1   8  -4  704.33   23.10
  -1   8  -4  718.83   22.10
  -2  -8  -4  287.57   11.90
   2  -8   4  308.87   12.50
   2  -8   4  310.87   12.50
  -2   8  -4  316.97   11.30
   2   8   4  311.27   12.50
  -2   8  -4  317.57   12.40
   2   8   4  307.07   11.40
   3  -8   4   39.70    4.50
  -3  -8  -4   37.90    4.60
   3  -8   4   49.50    5.00
  -3   8  -4   41.90    4.40
  -3   8  -4   47.70    4.10
   3   8   4   40.40    4.70
   3   8   4   27.30    3.30
  -4  -8  -4    1.00    1.70
   4  -8   4   -0.20    1.60
   4  -8   4   -2.10    1.50
  -4   8  -4    0.70    1.70
   4   8   4    1.80    1.20
   4   8   4    0.70    2.40
  -4   8  -4    0.80    1.30
   5  -8   4    2.30    2.00
   5  -8   4    4.40    2.30
  -5  -8  -4    3.20    2.30
  -5   8  -4    5.40    2.30
  -5   8  -4    1.40    1.80
   5   8   4    1.30    1.80
   5   8   4    5.10    2.60
   6  -8   4   -1.00    1.80
  -6  -8  -4   -0.20    2.80
   6  -8   4   -1.30    1.60
   6   8   4    2.00    3.30
  -6   8  -4    0.70    1.90
   7  -8   4    4.10    2.50
  -7  -8  -4    2.70    2.50
   7   8   4    3.50    2.80
  -7   8  -4    2.90    2.20
  -8  -9   4   24.50    4.00
   8  -9  -4   18.50    4.40
   8  -9  -4   19.00    4.00
   8   9  -4   23.80    4.60
  -8   9   4   17.10    3.90
  -8   9   4   14.50    3.80
   8   9  -4   19.50    4.80
   7  -9  -4    5.30    2.60
  -7  -9   4    3.30    2.10
   7  -9  -4   -0.50    2.30
   7   9  -4    0.90    2.30
   7   9  -4    6.30    2.40
  -7   9   4    4.50    2.60
  -7   9   4    3.00    2.40
  -6  -9   4    0.00    1.70
   6  -9  -4    0.50    2.00
   6   9  -4    2.60    1.90
  -6   9   4   -0.20    1.90
  -6   9   4    2.00    2.10
   6   9  -4    1.00    2.10
  -5  -9   4   23.10    3.70
   5  -9  -4   25.40    3.90
  -5   9   4   23.00    4.00
   5   9  -4   23.20    3.40
  -5   9   4   21.90    4.00
   5   9  -4   19.70    3.90
   4  -9  -4   41.70    4.90
  -4  -9   4   42.00    4.70
  -4   9   4   49.40    4.80
   4   9  -4   31.50    4.10
  -4   9   4   41.60    4.60
   4   9  -4   43.20    3.90
  -3  -9   4    2.80    1.90
   3  -9  -4    4.90    2.00
  -3   9   4    6.50    2.20
   3   9  -4    4.70    1.90
  -3   9   4    3.70    2.30
   3   9  -4    5.20    1.80
  -2  -9   4    5.10    2.40
   2  -9  -4    2.90    1.70
   2  -9  -4    5.10    1.60
   2   9  -4    3.80    1.70
   2   9  -4    1.00    1.70
  -2   9   4    4.40    1.70
  -2   9   4    2.10    2.20
   1  -9  -4   90.99    5.30
  -1  -9   4   97.69    6.00
  -1   9   4   94.19    5.30
  -1   9   4   89.69    5.60
   1   9  -4   86.89    5.20
   1   9  -4   97.39    5.50
   0  -9   4   38.50    4.40
   0  -9   4   44.30    4.70
   0  -9  -4   42.60    4.10
   0  -9  -4   42.90    3.90
   0   9   4   35.50    3.70
   0   9   4   42.50    4.70
   0   9  -4   45.20    4.20
   0   9  -4   33.30    3.80
   1  -9   4   44.20    4.60
   1  -9   4   47.70    5.00
  -1  -9  -4   43.90    4.40
  -1  -9  -4   45.70    3.50
  -1   9  -4   45.30    3.50
  -1   9  -4   45.20    4.50
   1   9   4   50.99    5.10
   1   9   4   47.30    4.40
  -2  -9  -4   83.19    5.60
   2  -9   4   89.39    6.00
   2  -9   4   91.29    6.10
   2   9   4   93.59    6.10
  -2   9  -4   85.69    5.70
  -2   9  -4   96.09    5.30
   2   9   4   92.79    5.60
   3  -9   4  119.69    7.30
   3  -9   4   85.59    6.10
  -3  -9  -4  111.19    6.90
  -3   9  -4   89.59    6.40
  -3   9  -4   85.69    5.40
   3   9   4   82.19    6.10
   3   9   4   97.39    5.70
   4  -9   4    1.80    2.00
   4  -9   4   -2.40    2.30
  -4  -9  -4    2.00    2.60
   4   9   4    2.10    1.70
  -4   9  -4    2.70    2.60
   4   9   4    0.10    1.90
  -4   9  -4   -1.50    1.60
   5  -9   4    3.20    2.20
   5  -9   4   -1.70    1.60
  -5  -9  -4    2.20    2.70
   5   9   4   -0.50    2.10
   5   9   4    2.00    2.50
  -5   9  -4    1.70    2.00
  -6  -9  -4   -1.50    1.70
   6  -9   4   -2.30    1.50
   6  -9   4    0.20    2.00
   6   9   4    0.70    2.30
  -6   9  -4   -0.20    1.90
  -8 -10   4   -2.10    2.40
   8 -10  -4    0.80    2.60
   8  10  -4    0.60    2.40
  -8  10   4    1.70    2.50
   8  10  -4    2.50    2.30
  -8  10   4    1.80    3.30
  -7 -10   4   43.80    5.50
   7 -10  -4   27.60    4.70
   7  10  -4   28.40    4.50
  -7  10   4   25.90    4.90
   7  10  -4   38.10    5.40
  -7  10   4   34.90    5.00
  -6 -10   4   -0.80    2.40
   6 -10  -4   -1.10    2.00
  -6  10   4   -1.90    1.60
   6  10  -4    2.20    2.20
   6  10  -4    1.40    2.70
  -6  10   4   -1.50    1.80
   5 -10  -4  111.59    7.80
  -5 -10   4  110.89    7.40
  -5  10   4  130.19    7.60
   5  10  -4  112.79    7.60
  -5  10   4  126.89    7.40
  -4 -10   4   24.40    3.80
   4 -10  -4   19.30    3.50
  -4  10   4   20.50    3.60
   4  10  -4   13.90    3.00
  -4  10   4   23.30    3.60
   3 -10  -4  133.49    7.40
  -3 -10   4  129.49    7.50
  -3  10   4  133.49    7.40
   3  10  -4  130.19    6.50
   3  10  -4  138.69    7.60
  -3  10   4  150.38    7.50
  -2 -10   4   22.00    3.50
   2 -10  -4   17.90    3.10
   2 -10  -4   17.70    2.60
   2  10  -4   30.00    3.50
   2  10  -4   22.30    3.60
  -2  10   4   27.30    3.80
  -2  10   4   22.50    3.40
  -1 -10   4   19.60    3.70
   1 -10  -4   19.30    3.20
  -1  10   4   18.40    3.30
   1  10  -4   10.00    2.80
   1  10  -4   16.20    2.80
  -1  10   4   13.40    3.10
   0 -10   4    1.00    2.10
   0 -10  -4    4.50    1.90
   0 -10  -4    2.00    2.00
   0 -10   4    2.10    1.80
   0  10  -4    2.80    1.60
   0  10  -4    3.10    2.40
   0  10   4    1.90    1.80
   0  10   4    3.10    2.10
   1 -10   4    2.10    1.80
  -1 -10  -4   -1.70    1.30
  -1 -10  -4    0.90    1.40
   1 -10   4   -0.70    2.10
   1  10   4    0.10    1.60
  -1  10  -4    1.50    1.60
  -1  10  -4    0.30    1.40
   1  10   4   -1.80    1.80
  -2 -10  -4  227.58   10.50
   2 -10   4  234.18   10.70
   2 -10   4  217.78   10.40
  -2  10  -4  210.48   10.10
   2  10   4  242.38   10.80
  -2  10  -4  218.58    9.50
   2  10   4  208.38    9.50
  -3 -10  -4  108.59    7.00
   3 -10   4  119.79    7.80
   3 -10   4  106.29    7.00
  -3  10  -4  109.89    6.30
  -3  10  -4  101.39    7.10
   3  10   4   97.79    6.10
   3  10   4  119.09    7.40
  -4 -10  -4   -0.50    2.40
   4 -10   4    1.00    2.90
   4 -10   4    1.60    2.00
   4  10   4    0.10    2.10
  -4  10  -4   -3.70    1.60
  -4  10  -4    5.00    2.90
   4  10   4   -1.10    1.40
  -5 -10  -4    1.90    3.00
   5 -10   4   -0.30    2.10
   5 -10   4    1.10    1.90
   5  10   4   -0.20    2.10
  -5  10  -4    2.30    2.30
   6 -10   4   -0.10    3.20
  -6 -10  -4    0.50    2.20
  -6  10  -4    3.40    3.30
   6  10   4    0.90    3.30
  -7 -11   4   14.60    4.00
   7 -11  -4   18.70    4.20
  -7  11   4   14.90    4.30
   7  11  -4   13.20    3.80
  -7  11   4   11.20    3.50
   6 -11  -4    4.80    3.30
  -6 -11   4    1.80    2.20
  -6  11   4    1.60    2.40
   6  11  -4    1.10    2.30
  -6  11   4   -0.30    2.00
   5 -11  -4    0.50    2.10
  -5 -11   4    3.70    2.10
  -5  11   4    0.30    2.00
   5  11  -4    0.70    1.90
  -5  11   4   -0.20    1.90
  -4 -11   4    1.50    2.60
   4 -11  -4    0.90    1.90
   4  11  -4    2.90    2.60
  -4  11   4   -1.10    2.40
  -4  11   4    0.10    1.90
   3 -11  -4  104.49    6.70
  -3 -11   4  115.19    7.40
  -3  11   4   99.49    6.90
   3  11  -4  104.49    6.60
   3  11  -4   93.09    5.60
  -3  11   4  109.69    6.60
   2 -11  -4   65.79    5.20
  -2 -11   4   80.39    5.90
   2  11  -4   77.39    5.40
  -2  11   4   82.49    5.80
   2  11  -4   77.09    5.20
  -2  11   4   83.09    5.90
   1 -11  -4   -0.10    1.40
   1 -11  -4    0.20    0.90
  -1 -11   4   -0.70    2.40
  -1 -11   4   -0.20    1.40
   1  11  -4    0.00    2.10
  -1  11   4   -0.60    2.10
   1  11  -4    1.00    2.10
  -1  11   4    0.40    1.70
   0 -11  -4    0.60    2.00
   0 -11  -4    3.60    1.60
   0 -11   4    1.40    1.80
   0 -11   4    0.80    1.70
   0  11   4    6.20    2.20
   0  11  -4    5.30    2.10
   0  11  -4    1.00    2.00
   0  11   4    0.50    1.80
  -1 -11  -4    5.20    2.10
   1 -11   4    3.60    2.10
   1 -11   4    4.10    2.20
   1  11   4    3.70    2.10
  -1  11  -4    4.70    1.90
   1  11   4    4.40    2.00
  -1  11  -4    2.70    2.10
   2 -11   4   37.50    4.90
  -2 -11  -4   42.10    4.90
   2 -11   4   30.60    4.40
  -2  11  -4   39.40    4.40
   2  11   4   38.10    4.90
  -2  11  -4   29.70    4.30
   2  11   4   30.80    4.00
  -3 -11  -4   16.40    3.50
   3 -11   4   14.50    3.80
   3 -11   4   14.00    3.90
   3  11   4   11.90    3.20
   3  11   4   11.50    3.10
  -3  11  -4   16.50    3.30
  -3  11  -4   12.80    3.70
  -4 -11  -4   28.60    4.70
   4 -11   4   32.30    5.40
   4 -11   4   33.30    5.30
  -4  11  -4   40.70    5.50
  -4  11  -4   35.90    4.40
   4  11   4   28.30    4.70
   4  11   4   31.50    4.50
   5 -11   4    3.50    2.90
  -5 -11  -4    0.30    2.20
   5 -11   4    1.40    2.40
  -5  11  -4    0.10    2.20
   5  11   4   -1.20    2.10
   7 -12  -4    3.90    3.00
  -7 -12   4    5.50    2.80
  -7  12   4    8.60    4.00
   7  12  -4   13.80    4.30
  -7  12   4    2.90    2.70
  -6 -12   4    2.40    2.30
   6 -12  -4    5.50    2.80
  -6  12   4    3.10    2.60
   6  12  -4    5.00    3.50
  -6  12   4    8.70    3.20
   5 -12  -4   -0.70    2.70
  -5 -12   4   -2.30    1.60
  -5  12   4   -0.40    2.00
   5  12  -4    1.30    2.90
  -5  12   4    0.10    3.00
  -4 -12   4   24.90    4.30
   4 -12  -4   25.70    4.30
   4  12  -4   30.10    4.50
  -4  12   4   31.80    4.50
  -4  12   4   33.10    4.70
   3 -12  -4  162.28    9.20
  -3 -12   4  181.68    9.60
  -3  12   4  151.48    8.70
   3  12  -4  172.08    9.00
  -3  12   4  164.78    9.00
  -2 -12   4  239.58   11.60
   2 -12  -4  243.48   11.00
  -2  12   4  254.97   11.20
   2  12  -4  231.38   10.80
  -2  12   4  242.78   11.50
   2  12  -4  252.87   10.40
  -1 -12   4   -0.60    1.80
   1 -12  -4    0.80    1.40
  -1 -12   4    0.90    1.70
   1 -12  -4   -0.70    1.40
   1  12  -4    1.50    2.30
  -1  12   4   -3.00    1.60
  -1  12   4    1.20    1.90
   1  12  -4    0.40    1.60
   0 -12  -4   38.70    4.80
   0 -12   4   48.80    5.20
   0 -12   4   43.80    5.60
   0 -12  -4   56.29    5.10
   0  12   4   44.60    5.20
   0  12   4   41.30    4.70
   0  12  -4   50.19    5.00
   0  12  -4   46.30    5.00
   1 -12   4    1.20    2.10
  -1 -12  -4   -0.40    2.30
   1 -12   4    3.10    2.20
  -1  12  -4    4.20    2.10
  -1  12  -4    0.70    1.90
   1  12   4    2.90    2.30
   1  12   4    2.50    2.60
  -2 -12  -4   45.50    5.60
   2 -12   4   43.30    5.70
   2 -12   4   41.70    5.30
  -2  12  -4   47.00    5.40
   2  12   4   41.90    5.70
   2  12   4   45.00    5.00
  -2  12  -4   50.19    5.20
  -3 -12  -4   20.50    4.40
   3 -12   4   17.70    4.50
   3 -12   4   23.90    4.20
   3  12   4   14.90    3.70
  -3  12  -4   18.70    3.30
  -3  12  -4   16.40    4.10
   3  12   4   20.00    4.00
   4 -12   4    8.00    3.70
   4 -12   4   -0.90    1.90
  -4 -12  -4    1.10    2.30
   4  12   4    2.60    2.70
  -4  12  -4    4.00    3.40
  -4  12  -4    0.40    1.60
   4  12   4    3.10    2.70
  -5 -12  -4   -0.90    2.20
   5 -12   4   -0.60    2.30
   5 -12   4   -1.90    2.60
  -5  12  -4   -1.10    2.10
   5  12   4    1.40    2.50
  -6 -13   4    7.40    3.70
   6 -13  -4    4.00    2.80
  -6  13   4    1.60    3.40
  -6  13   4    4.60    2.90
   6  13  -4    3.80    2.80
  -5 -13   4   10.10    3.80
   5 -13  -4    8.00    3.10
   5  13  -4   13.00    3.60
  -5  13   4    9.50    3.90
  -5  13   4    4.00    3.50
   4 -13  -4    6.40    2.80
  -4 -13   4    3.80    2.50
   4  13  -4    7.60    2.80
  -4  13   4    4.50    2.60
  -4  13   4    3.20    3.20
  -3 -13   4  123.29    8.50
   3 -13  -4  131.79    7.90
  -3  13   4  102.19    7.20
  -3  13   4  123.89    8.20
   3  13  -4  113.19    7.70
   2 -13  -4  399.26   15.60
  -2 -13   4  360.46   16.20
  -2  13   4  382.46   15.60
   2  13  -4  406.16   14.80
   2  13  -4  390.16   15.70
  -2  13   4  394.36   15.90
  -1 -13   4   -0.20    1.90
   1 -13  -4    2.40    2.30
   1 -13  -4    2.30    1.90
   1  13  -4   -1.10    1.60
   1  13  -4   -1.30    2.20
  -1  13   4   -2.90    1.70
  -1  13   4    0.30    1.90
   0 -13   4   51.99    5.80
   0 -13   4   46.80    5.70
   0 -13  -4   57.89    5.90
   0 -13  -4   48.00    5.00
   0  13   4   58.19    6.10
   0  13   4   50.89    5.70
   0  13  -4   57.69    5.60
   0  13  -4   48.00    5.60
  -1 -13  -4   -1.30    1.60
   1 -13   4    0.00    2.00
   1 -13   4   -2.00    1.80
  -1  13  -4    3.20    2.70
   1  13   4   -1.60    1.70
  -1  13  -4    1.80    2.00
   1  13   4    0.30    2.10
   2 -13   4    6.40    2.80
   2 -13   4    9.10    3.00
  -2 -13  -4   12.50    3.70
  -2  13  -4    6.10    2.70
   2  13   4    6.60    2.50
   2  13   4    9.70    3.10
  -2  13  -4    9.10    2.70
   3 -13   4    7.20    3.40
   3 -13   4    3.70    2.70
  -3 -13  -4    8.70    3.50
  -3  13  -4    6.00    2.80
   3  13   4    6.60    3.00
   3  13   4    6.20    3.50
  -3  13  -4    2.70    2.80
  -4 -13  -4    0.50    2.20
   4 -13   4    0.90    2.90
   4 -13   4    0.40    2.20
   4  13   4    0.00    2.70
  -4  13  -4    0.40    2.40
   4  13   4    0.50    2.40
  -4  13  -4    1.40    2.70
   5 -14  -4    8.80    3.20
  -5 -14   4   13.10    3.70
  -5  14   4    6.10    3.00
  -5  14   4   11.60    3.60
   5  14  -4   10.90    3.50
  -4 -14   4   55.29    7.00
   4 -14  -4   69.99    7.40
   4  14  -4   62.09    6.60
  -4  14   4   58.19    6.90
  -4  14   4   57.09    6.40
  -3 -14   4   14.70    3.90
   3 -14  -4   13.80    3.60
   3  14  -4   16.40    3.70
  -3  14   4   11.90    3.40
  -3  14   4   21.00    4.60
  -2 -14   4    1.50    2.30
   2 -14  -4    5.90    3.00
   2  14  -4    6.30    3.20
  -2  14   4    2.30    3.30
  -2  14   4    0.30    2.10
  -1 -14   4   28.70    4.90
   1 -14  -4   40.90    4.80
   1  14  -4   34.30    5.10
  -1  14   4   30.40    4.60
  -1  14   4   34.30    4.80
   1  14  -4   46.40    5.40
   0 -14   4    0.50    2.80
   0 -14  -4    6.00    2.80
   0 -14   4    5.90    2.80
   0  14   4    0.30    3.00
   0  14  -4    1.80    2.90
   0  14  -4    5.70    3.20
   0  14   4    9.70    3.50
  -1 -14  -4    7.50    2.60
   1 -14   4   18.80    4.50
   1 -14   4   13.00    3.50
   1  14   4   14.10    3.60
  -1  14  -4   18.40    4.30
   1  14   4    8.40    3.50
  -1  14  -4    8.20    3.20
   2 -14   4  105.59    8.00
   2 -14   4  143.69    9.40
  -2 -14  -4  125.49    8.60
  -2  14  -4  126.09    7.80
   2  14   4  138.29    9.40
   2  14   4  136.09    8.60
  -2  14  -4  135.19    9.00
   3 -14   4    9.80    3.50
   3 -14   4    1.60    3.00
  -3 -14  -4   11.40    4.00
   3  14   4    6.00    3.10
   3  14   4   10.70    3.60
  -3  14  -4    6.80    3.10
  -3  14  -4   11.10    3.60
  -4 -15   4    9.00    3.30
   4 -15  -4    6.70    3.20
   4  15  -4    7.00    3.10
  -4  15   4   13.50    3.90
  -4  15   4    9.60    3.50
   3 -15  -4   11.10    4.00
  -3 -15   4    3.50    3.40
  -3  15   4   -2.10    3.00
  -3  15   4    5.10    3.10
   3  15  -4    4.60    2.70
  -2 -15   4  102.09    9.50
   2 -15  -4   93.19    8.30
  -2  15   4  111.19    8.30
  -2  15   4   97.09    7.30
   2  15  -4   78.69    7.50
  -1 -15   4    2.90    2.70
   1 -15  -4    4.50    2.30
   1  15  -4    0.80    2.20
   1  15  -4   -0.90    1.80
  -1  15   4    3.50    2.60
  -1  15   4    1.20    3.30
   0 -15   4   -0.50    2.00
   0 -15  -4   -0.30    1.80
   0 -15   4    0.80    2.30
   0  15  -4    0.10    1.90
   0  15  -4    0.40    2.00
   0  15   4   -4.30    2.70
   0  15   4    0.10    3.20
  -1 -15  -4   42.60    5.70
   1 -15   4   43.70    5.70
   1 -15   4   56.99    6.70
  -1  15  -4   44.80    5.60
  -1  15  -4   40.30    5.50
   1  15   4   45.50    5.70
   1  15   4   43.60    5.80
   2 -15   4   28.20    5.10
   2 -15   4   20.70    4.30
  -2 -15  -4   31.90    5.10
   2  15   4   19.70    4.60
  -2  15  -4   27.00    4.70
  -2  15  -4   22.20    4.00
   2  15   4   20.20    4.30
  -1 -16   4    5.30    2.90
   1  16  -4    1.20    3.10
  -1  16   4   -0.10    3.10
  -1  16   4    1.80    2.30
   9   0  -5    2.00    2.50
   9   0  -5    0.30    2.20
  -9   0   5    0.90    2.20
  -8   0   5    1.00    2.60
   8   0  -5   -2.30    2.40
   8   0  -5    1.50    2.80
  -7   0   5   35.40    4.30
   7   0  -5   35.30    4.90
   7   0  -5   31.80    3.70
   7   0  -5   34.80    4.50
   6   0  -5    0.20    1.90
   6   0  -5   -1.10    2.00
   6   0  -5   -0.50    1.10
  -6   0   5    0.70    1.80
   5   0  -5  144.19    6.90
  -5   0   5  149.39    6.80
   5   0  -5  141.09    6.70
   4   0  -5   -0.30    1.00
  -4   0   5    0.80    0.80
   4   0  -5    0.20    1.30
  -4   0   5    2.90    1.20
   3   0  -5    7.10    1.50
  -3   0   5    7.10    1.30
  -3   0   5    2.50    1.20
   3   0  -5    4.60    1.50
   2   0  -5    0.00    0.80
   2   0  -5    0.10    0.90
  -2   0   5   -0.10    0.80
  -2   0   5    0.10    0.90
  -1   0   5  211.38    7.30
  -1   0   5  218.28    6.30
  -1   0   5  207.78    7.80
   1   0  -5  219.78    8.20
   1   0  -5  208.48    6.40
   0   0   5    1.80    1.10
   0   0   5   -0.10    0.70
   0   0  -5    1.00    1.40
   1   0   5  605.74   20.10
  -1   0  -5  651.13   19.80
   1   0   5  647.44   19.10
  -2   0  -5    0.60    1.10
   2   0   5   -0.10    1.20
   2   0   5    1.00    1.10
  -2   0  -5    0.10    0.90
  -3   0  -5  496.25   17.10
   3   0   5  478.95   17.30
  -3   0  -5  507.15   16.20
   4   0   5    1.30    1.80
  -4   0  -5    1.40    1.50
   4   0   5   -0.80    1.20
  -4   0  -5   -1.30    0.90
   5   0   5  271.77   12.40
   5   0   5  282.27   11.60
  -5   0  -5  262.07   11.80
  -6   0  -5   -1.30    1.60
   6   0   5    1.10    1.80
   7   0   5    3.40    3.00
  -7   0  -5    1.20    2.00
  -9  -1   5   18.80    4.30
   9  -1  -5   14.80    3.60
   9  -1  -5   16.30    4.70
   9   1  -5   16.40    4.20
   9   1  -5   10.80    3.50
  -9   1   5   16.60    3.90
  -8  -1   5    0.40    1.90
   8  -1  -5    1.90    2.20
   8  -1  -5    1.70    2.90
   8   1  -5   -0.10    2.70
  -8   1   5    0.70    2.00
   8   1  -5   -0.60    1.80
  -7  -1   5   16.10    3.00
   7  -1  -5   21.00    3.00
   7  -1  -5   17.40    3.40
   7   1  -5   17.30    2.80
   7   1  -5   16.50    3.20
   7   1  -5    9.60    2.70
  -7   1   5   10.90    3.10
   6  -1  -5   60.99    4.70
   6  -1  -5   51.89    4.60
  -6  -1   5   57.59    5.10
   6   1  -5   62.59    4.70
  -6   1   5   58.39    4.40
   6   1  -5   59.19    5.40
  -5  -1   5    5.70    1.20
  -5  -1   5    5.60    1.70
   5  -1  -5    3.60    1.90
   5  -1  -5    3.50    1.70
   5   1  -5    2.60    1.30
   5   1  -5    6.40    1.90
   5   1  -5    4.60    2.00
  -5   1   5    4.70    1.60
   4  -1  -5  121.19    5.80
  -4  -1   5  117.19    4.70
  -4  -1   5  118.69    5.40
   4  -1  -5  106.39    5.50
  -4   1   5  116.39    5.50
   4   1  -5  112.49    5.50
  -4   1   5  112.69    4.00
   4   1  -5  115.89    5.60
   3  -1  -5   31.90    2.80
   3  -1  -5   34.70    3.40
  -3  -1   5   38.80    2.60
  -3  -1   5   37.00    2.50
   3   1  -5   34.70    2.60
   3   1  -5   37.20    3.30
  -3   1   5   33.70    2.10
  -3   1   5   39.20    2.70
  -2  -1   5  234.98    8.20
   2  -1  -5  238.18    7.60
   2  -1  -5  205.48    8.50
  -2  -1   5  222.68    7.60
   2   1  -5  234.68    8.70
  -2   1   5  235.48    7.90
   2   1  -5  227.78    7.60
  -2   1   5  234.68    8.10
   1  -1  -5  112.89    5.40
  -1  -1   5  116.59    5.30
  -1  -1   5  113.99    4.30
  -1   1   5  115.09    4.80
   1   1  -5  117.59    3.80
  -1   1   5  113.49    5.00
  -1   1   5  114.49    3.80
   1   1  -5  125.99    5.50
   0  -1   5  820.52   24.70
   0  -1  -5  801.42   24.30
   0  -1   5  823.62   23.10
   0  -1  -5  821.92   24.30
   0   1   5  813.22   23.80
   0   1  -5  791.22   24.40
   0   1   5  808.62   24.50
   1  -1   5   13.10    2.30
   1  -1   5   14.50    1.70
  -1  -1  -5   10.60    1.90
  -1  -1  -5    8.30    1.80
   1   1   5   14.00    1.80
  -1   1  -5   11.60    2.10
   1   1   5   13.10    2.30
  -2  -1  -5   16.40    2.50
  -2  -1  -5   11.20    2.00
   2  -1   5   11.50    2.30
   2  -1   5   15.00    2.00
   2   1   5   13.60    2.40
  -2   1  -5   16.20    2.30
   3  -1   5  133.89    6.20
  -3  -1  -5  134.59    6.10
   3  -1   5  137.09    7.20
  -3  -1  -5  152.98    7.20
  -3   1  -5  139.69    6.40
   3   1   5  139.39    7.20
   3   1   5  122.89    6.30
  -3   1  -5  149.19    7.10
  -4  -1  -5   12.40    2.70
  -4  -1  -5    7.60    1.90
   4  -1   5    7.90    2.40
   4  -1   5    7.80    1.90
   4   1   5    9.80    2.70
   4   1   5    9.60    2.70
  -4   1  -5   12.60    2.20
  -4   1  -5   10.00    2.50
   5  -1   5    5.60    2.40
   5  -1   5    5.00    2.90
  -5  -1  -5    4.40    2.60
  -5   1  -5    5.80    1.90
   5   1   5    1.60    1.80
  -5   1  -5    7.90    2.80
   6  -1   5    1.10    2.40
  -6  -1  -5    3.90    2.80
   6  -1   5    1.90    2.30
   6   1   5   -0.30    1.80
  -6   1  -5   -0.50    1.60
  -7  -1  -5   -1.00    1.90
   7  -1   5    5.20    3.40
   7   1   5    0.70    2.10
  -7   1  -5    4.40    2.90
   9  -2  -5   17.60    4.70
  -9  -2   5   13.70    3.40
  -9   2   5   13.00    3.90
   9   2  -5   13.80    3.70
   9   2  -5   15.10    3.80
   8  -2  -5    1.90    2.30
  -8  -2   5    2.60    2.60
   8  -2  -5   -0.50    1.30
   8   2  -5    0.30    2.50
  -8   2   5   -0.60    2.40
   8   2  -5   -0.20    2.70
   7  -2  -5    3.20    2.20
  -7  -2   5    1.70    2.20
   7  -2  -5    2.90    2.10
  -7   2   5   -0.40    1.50
   7   2  -5    3.10    2.50
   7   2  -5   -0.70    1.70
   6  -2  -5  147.99    7.40
  -6  -2   5  141.99    7.00
   6  -2  -5  137.59    7.50
   6   2  -5  145.19    6.70
   6   2  -5  149.29    7.40
   6   2  -5  162.08    7.80
  -6   2   5  149.99    7.50
  -5  -2   5  157.68    7.00
   5  -2  -5  165.48    7.70
  -5  -2   5  168.88    6.40
   5  -2  -5  160.98    7.70
   5   2  -5  163.08    7.70
   5   2  -5  168.18    7.20
   5   2  -5  163.18    7.30
  -5   2   5  172.98    7.60
   4  -2  -5   40.80    3.80
   4  -2  -5   47.70    3.50
  -4  -2   5   41.50    2.80
   4   2  -5   35.60    3.30
   4   2  -5   40.60    3.70
   4   2  -5   45.00    3.20
  -4   2   5   43.50    3.30
   3  -2  -5   15.30    2.10
   3  -2  -5   15.70    2.40
  -3  -2   5   15.20    2.10
  -3  -2   5   14.30    1.80
   3  -2  -5   15.30    1.40
  -3   2   5   18.20    1.60
  -3   2   5   14.90    2.10
   3   2  -5   16.40    2.30
   3   2  -5   13.40    2.00
  -2  -2   5   15.00    2.00
   2  -2  -5   13.40    2.30
  -2  -2   5   14.90    1.60
   2  -2  -5   14.20    1.60
   2  -2  -5   14.10    1.70
  -2   2   5   15.60    1.70
  -2   2   5   13.30    2.10
  -2   2   5   17.00    1.80
   2   2  -5   14.60    2.20
   2   2  -5   14.00    1.60
   1  -2  -5  936.81   27.90
  -1  -2   5  929.91   27.80
  -1  -2   5  951.50   26.10
   1   2  -5  941.31   26.10
   1   2  -5  925.91   27.90
  -1   2   5  953.20   26.20
  -1   2   5  947.71   27.50
  -1   2   5  925.01   27.40
   0  -2   5  162.28    7.20
   0  -2   5  167.38    5.50
   0  -2  -5  174.58    6.80
   0  -2  -5  162.18    6.80
   0   2  -5  164.38    6.90
   0   2   5  166.28    6.90
   0   2   5  173.28    5.10
   0   2   5  173.58    6.70
   1  -2   5   -0.40    1.10
  -1  -2  -5   -0.60    1.10
   1  -2   5    0.30    0.70
  -1  -2  -5    1.50    1.40
   1   2   5    0.00    1.40
   1   2   5    0.10    0.80
  -1   2  -5   -0.20    0.90
   1   2   5   -0.20    0.40
  -1   2  -5    0.30    0.30
  -2  -2  -5    8.00    1.70
   2  -2   5    0.80    1.80
   2  -2   5    9.50    1.60
  -2  -2  -5    9.50    2.10
  -2   2  -5    5.10    1.60
   2   2   5    8.40    2.00
   2   2   5    3.50    1.70
  -3  -2  -5 1351.06   39.90
  -3  -2  -5 1332.77   38.20
   3  -2   5 1334.87   40.20
   3  -2   5 1313.77   38.30
  -3   2  -5 1311.47   38.90
   3   2   5 1340.67   39.40
   3   2   5 1338.57   40.20
   4  -2   5   10.80    2.40
   4  -2   5   17.80    3.60
  -4  -2  -5    6.20    2.60
  -4  -2  -5   12.50    2.40
  -4   2  -5    9.60    2.30
  -4   2  -5   15.20    3.20
   4   2   5   16.70    3.20
  -5  -2  -5   28.10    4.40
   5  -2   5   27.50    3.70
   5  -2   5   31.90    4.70
  -5   2  -5   38.80    4.90
  -5   2  -5   28.80    3.50
   5   2   5   28.00    3.90
  -6  -2  -5    2.40    2.80
   6  -2   5    6.40    3.20
   6   2   5    8.60    2.80
  -6   2  -5    3.80    2.50
  -7  -2  -5   12.40    3.70
  -7   2  -5    7.20    2.70
   7   2   5   10.70    3.30
   9  -3  -5   41.50    6.10
  -9  -3   5   49.90    5.90
  -9   3   5   51.99    6.10
   9   3  -5   53.89    6.80
   9   3  -5   47.40    5.90
   8  -3  -5   10.70    2.70
   8  -3  -5    3.10    2.40
  -8  -3   5    3.80    2.20
   8   3  -5    4.70    2.40
   8   3  -5    5.60    3.20
  -8   3   5    5.30    2.50
   7  -3  -5  231.08   10.20
  -7  -3   5  212.28    9.80
   7  -3  -5  208.98   10.60
   7   3  -5  219.48   10.10
  -7   3   5  214.88   10.20
   7   3  -5  230.18   10.90
   6  -3  -5   40.30    4.50
  -6  -3   5   43.80    5.00
  -6  -3   5   36.40    3.90
   6  -3  -5   41.50    4.30
   6   3  -5   41.60    4.20
   6   3  -5   36.60    3.50
  -6   3   5   42.80    4.40
   6   3  -5   39.00    4.40
   5  -3  -5    7.80    2.10
  -5  -3   5   12.50    2.30
   5  -3  -5    4.40    2.20
  -5  -3   5    8.00    1.80
   5   3  -5    2.10    1.10
   5   3  -5    7.30    1.80
   5   3  -5    9.40    2.40
  -5   3   5   11.10    2.30
  -4  -3   5  240.58    8.60
  -4  -3   5  242.98    8.80
   4  -3  -5  247.68    9.40
   4  -3  -5  220.08    9.30
   4   3  -5  236.68    9.00
   4   3  -5  246.48    8.80
   4   3  -5  221.68    9.10
  -4   3   5  243.88    9.40
  -3  -3   5   18.40    1.90
   3  -3  -5   17.20    1.40
   3  -3  -5   15.90    2.30
  -3  -3   5   18.50    2.30
   3  -3  -5   17.40    2.50
  -3   3   5   13.70    2.20
   3   3  -5   17.60    2.10
   3   3  -5   18.40    2.50
  -2  -3   5  190.38    6.10
   2  -3  -5  183.88    6.50
  -2  -3   5  178.18    7.40
   2  -3  -5  189.28    7.70
   2  -3  -5  190.38    6.80
   2   3  -5  182.68    7.50
  -2   3   5  185.48    6.70
  -2   3   5  178.28    7.40
   2   3  -5  194.28    6.80
  -1  -3   5  114.39    3.60
  -1  -3   5  119.49    5.50
   1  -3  -5   94.19    4.60
   1  -3  -5  120.29    5.50
   1   3  -5  107.69    5.30
  -1   3   5  105.59    5.10
   1   3  -5  116.69    4.30
  -1   3   5  120.59    4.30
  -1   3   5  119.79    5.10
   0  -3   5   16.70    0.90
   0  -3   5   15.50    2.40
   0  -3  -5   17.00    2.30
   0  -3  -5   14.20    2.10
   0   3   5   17.30    1.50
   0   3   5   17.40    2.50
   0   3   5   17.40    2.50
   0   3  -5   19.40    1.30
   0   3  -5   18.50    2.50
   1  -3   5  115.99    4.10
   1  -3   5  124.69    6.30
  -1  -3  -5  120.59    5.70
  -1  -3  -5  112.19    5.30
   1   3   5  129.39    5.90
  -1   3  -5  112.39    5.80
   1   3   5  121.59    5.90
  -1   3  -5  113.19    4.00
   1   3   5  117.79    4.20
   2  -3   5    5.00    1.20
  -2  -3  -5    3.90    1.60
  -2  -3  -5    2.10    1.30
   2  -3   5    2.40    1.50
  -2   3  -5    2.60    0.80
   2   3   5    3.60    1.00
   2   3   5    2.90    1.40
  -2   3  -5    2.50    1.30
   3  -3   5  233.58   10.40
  -3  -3  -5  245.98    8.90
   3  -3   5  247.98    8.90
  -3  -3  -5  232.38   10.20
   3   3   5  254.07   10.10
  -3   3  -5  252.87    9.80
   4  -3   5    5.30    2.60
  -4  -3  -5    3.00    1.80
   4  -3   5    6.40    2.20
  -4   3  -5    7.80    2.40
   4   3   5    5.40    2.60
   5  -3   5   43.90    5.30
  -5  -3  -5   36.00    4.90
  -5   3  -5   34.10    3.80
  -5   3  -5   29.70    4.40
   5   3   5   41.10    4.90
   6  -3   5   12.50    3.80
  -6  -3  -5    9.10    2.80
  -6   3  -5    9.80    3.10
   6   3   5    8.40    3.40
   7  -3   5    7.20    3.70
  -7  -3  -5    4.30    2.40
   7   3   5   10.00    3.90
  -7   3  -5    3.30    2.80
   9  -4  -5   93.49    8.90
  -9  -4   5   72.59    7.00
   9   4  -5   79.09    7.70
  -9   4   5   77.19    7.80
   9   4  -5   81.09    8.00
   8  -4  -5   22.00    4.10
  -8  -4   5   25.30    4.00
   8  -4  -5   34.80    4.40
  -8   4   5   24.20    4.20
   8   4  -5   24.70    4.20
   8   4  -5   27.40    4.20
   7  -4  -5    3.80    2.30
  -7  -4   5    5.60    2.60
   7  -4  -5    8.10    2.40
  -7   4   5    4.40    2.20
   7   4  -5    7.00    2.60
   7   4  -5    3.10    2.40
   6  -4  -5  145.39    8.10
   6  -4  -5  152.38    7.80
  -6  -4   5  151.88    6.80
  -6  -4   5  157.78    7.50
   6   4  -5  144.09    6.60
  -6   4   5  155.28    7.90
   6   4  -5  138.89    7.90
   6   4  -5  157.68    7.70
   5  -4  -5  329.07   12.80
   5  -4  -5  349.47   13.10
  -5  -4   5  333.67   11.90
  -5   4   5  340.77   12.70
  -5   4   5  326.87   12.80
   5   4  -5  345.07   12.30
   5   4  -5  345.27   12.90
   5   4  -5  349.77   12.00
   4  -4  -5   19.10    2.80
   4  -4  -5   21.90    2.80
  -4  -4   5   16.40    2.10
  -4  -4   5   16.30    2.40
   4   4  -5   16.50    2.50
   4   4  -5   21.40    2.90
  -4   4   5   14.70    2.20
   4   4  -5   20.50    2.40
  -4   4   5   20.70    2.90
  -3  -4   5  274.37    9.80
  -3  -4   5  248.18    8.40
   3  -4  -5  255.47    7.90
   3  -4  -5  253.47    9.90
   3  -4  -5  259.37    9.50
   3   4  -5  257.97    8.50
  -3   4   5  259.17    9.30
  -3   4   5  237.58    9.70
   3   4  -5  259.07    9.50
   3   4  -5  250.77    9.30
  -2  -4   5  114.19    4.00
   2  -4  -5  106.39    5.50
   2  -4  -5  119.09    4.60
  -2  -4   5  114.89    5.70
  -2   4   5  120.09    5.60
  -2   4   5  115.29    4.90
   2   4  -5  115.09    5.60
   2   4  -5  116.29    5.00
   1  -4  -5  379.06   12.80
   1  -4  -5  360.66   12.10
  -1  -4   5  376.76   13.10
   1   4  -5  381.26   11.70
  -1   4   5  370.36   12.80
   1   4  -5  362.36   12.80
  -1   4   5  384.86   11.70
   0  -4   5  195.98    8.10
   0  -4  -5  175.48    7.30
   0  -4  -5  193.88    7.50
   0   4  -5  186.48    6.30
   0   4  -5  181.78    7.70
   0   4   5  183.08    7.60
   0   4   5  181.78    6.30
  -1  -4  -5  415.56   13.70
   1  -4   5  417.56   14.80
  -1  -4  -5  424.56   14.30
  -1   4  -5  415.66   14.40
  -1   4  -5  411.86   12.50
   1   4   5  430.16   14.50
   1   4   5  411.26   12.70
   2  -4   5   13.80    2.60
  -2  -4  -5   13.20    2.10
  -2  -4  -5    6.20    1.90
  -2   4  -5   11.50    1.50
  -2   4  -5    9.80    2.10
   2   4   5    9.80    1.60
   2   4   5   10.40    2.50
  -3  -4  -5   19.80    3.10
  -3  -4  -5   26.90    2.70
   3  -4   5   17.80    3.10
   3   4   5   23.50    3.50
  -3   4  -5   24.70    3.20
   4  -4   5   49.70    5.20
  -4  -4  -5   50.89    5.20
   4   4   5   48.70    5.00
  -4   4  -5   48.30    4.60
  -5  -4  -5   36.80    5.00
   5  -4   5   36.40    4.90
  -5   4  -5   30.70    4.10
  -5   4  -5   42.50    4.60
   5   4   5   34.40    4.60
   6  -4   5   13.30    3.40
  -6  -4  -5   15.50    3.60
  -6   4  -5   14.90    3.20
  -6   4  -5    9.20    2.30
   6   4   5    8.60    3.00
   7  -4   5   31.40    5.10
  -7  -4  -5   27.30    4.70
  -7   4  -5   28.60    4.50
   7   4   5   18.60    4.60
   9  -5  -5   48.70    6.90
  -9  -5   5   42.80    5.70
   9  -5  -5   39.70    5.40
   9   5  -5   53.39    6.90
   9   5  -5   37.80    5.40
  -9   5   5   48.40    6.10
  -9   5   5   51.79    6.60
  -8  -5   5   81.69    6.00
   8  -5  -5   75.49    7.30
   8  -5  -5   63.89    6.30
   8   5  -5   80.99    7.20
  -8   5   5   70.49    6.80
   8   5  -5   72.79    7.30
  -8   5   5   78.29    7.40
  -7  -5   5    3.80    2.00
   7  -5  -5    4.50    2.90
   7  -5  -5   10.20    2.70
  -7   5   5    5.50    3.10
   7   5  -5    3.20    1.90
  -7   5   5    5.20    2.80
   7   5  -5    5.40    2.60
  -6  -5   5  227.98    9.20
  -6  -5   5  221.58    9.40
   6  -5  -5  214.98   10.10
   6  -5  -5  228.58   10.20
   6   5  -5  203.98   10.10
  -6   5   5  209.38    9.90
  -6   5   5  201.98    9.50
   6   5  -5  220.38    9.60
   5  -5  -5   71.99    5.30
   5  -5  -5   77.69    5.50
  -5  -5   5   74.39    4.70
  -5  -5   5   72.59    4.30
  -5   5   5   71.19    5.00
   5   5  -5   69.59    4.90
  -5   5   5   70.29    5.00
   5   5  -5   80.29    4.50
   5   5  -5   68.79    4.30
  -4  -5   5  224.48    9.00
  -4  -5   5  236.48    8.30
   4  -5  -5  215.08    9.10
   4  -5  -5  211.98    9.40
   4   5  -5  226.38    9.20
   4   5  -5  225.78    8.30
  -4   5   5  224.68    9.00
  -4   5   5  228.58    9.40
  -3  -5   5   27.30    2.00
   3  -5  -5   21.30    3.00
   3  -5  -5   25.70    1.90
  -3  -5   5   28.80    3.10
   3  -5  -5   32.80    3.40
  -3   5   5   34.20    3.60
  -3   5   5   26.30    2.90
   3   5  -5   27.30    3.00
   3   5  -5   30.90    3.10
   3   5  -5   25.60    2.00
   2  -5  -5   55.89    3.00
  -2  -5   5   45.00    2.30
   2  -5  -5   56.49    3.80
  -2  -5   5   49.00    3.80
   2   5  -5   51.89    3.10
  -2   5   5   49.30    3.60
   2   5  -5   54.49    3.80
  -2   5   5   49.90    3.20
  -1  -5   5   96.39    5.40
   1  -5  -5  113.99    5.00
   1  -5  -5  103.89    5.40
   1   5  -5   95.39    4.40
   1   5  -5  101.59    5.20
  -1   5   5  105.89    5.40
  -1   5   5   98.59    4.50
   0  -5  -5   46.80    4.00
   0  -5  -5   46.80    3.40
   0  -5   5   44.80    4.20
   0   5  -5   37.60    3.70
   0   5   5   41.50    2.70
   0   5  -5   44.10    2.60
   0   5   5   41.60    3.90
  -1  -5  -5  104.39    5.00
  -1  -5  -5   97.49    5.30
   1  -5   5  100.69    5.80
   1   5   5  104.99    4.50
   1   5   5   89.49    5.30
  -1   5  -5  102.79    4.30
  -1   5  -5  108.49    5.60
   2  -5   5   82.69    5.30
  -2  -5  -5   74.19    4.10
  -2  -5  -5   78.99    4.90
   2   5   5   75.99    4.00
  -2   5  -5   74.09    5.00
   2   5   5   71.29    5.10
  -2   5  -5   73.19    3.70
   3  -5   5  157.68    8.50
  -3  -5  -5  168.38    8.20
   3   5   5  188.98    8.70
  -3   5  -5  157.68    7.70
  -4  -5  -5  215.98   10.30
   4  -5   5  219.18   10.30
   4   5   5  206.58    9.90
  -4   5  -5  211.58    9.60
   5  -5   5    2.90    2.70
  -5  -5  -5    2.30    2.10
  -5   5  -5    1.00    1.60
  -5   5  -5    7.70    2.80
   5   5   5    4.00    2.80
  -6  -5  -5   28.70    4.60
   6  -5   5   24.90    4.80
  -6   5  -5   27.30    4.50
  -6   5  -5   27.90    4.10
   6   5   5   19.00    3.90
   7  -5   5    1.40    2.20
  -7  -5  -5    2.70    3.10
  -7   5  -5    0.20    1.80
   7   5   5    0.20    2.50
   9  -6  -5    7.80    3.00
  -9  -6   5   11.20    3.20
   9  -6  -5   12.50    4.30
   9   6  -5    7.90    3.10
  -9   6   5   10.20    3.60
   9   6  -5   10.10    3.30
  -9   6   5   16.90    4.40
   8  -6  -5   13.00    3.30
   8  -6  -5   15.80    4.30
  -8  -6   5   13.50    3.50
   8   6  -5   13.80    3.20
   8   6  -5   13.50    3.50
  -8   6   5    9.20    3.10
  -8   6   5   17.90    4.10
  -7  -6   5  101.79    6.30
   7  -6  -5   96.69    6.90
   7  -6  -5   90.19    6.90
  -7   6   5  100.39    6.70
   7   6  -5   92.69    6.80
   7   6  -5   98.99    6.40
  -7   6   5   97.29    6.80
   6  -6  -5  150.38    8.40
   6  -6  -5  140.79    7.80
  -6  -6   5  139.49    7.20
  -6   6   5  126.59    7.50
   6   6  -5  143.69    7.40
  -6   6   5  130.69    7.70
   6   6  -5  142.39    8.10
   5  -6  -5  138.09    7.70
  -5  -6   5  141.29    6.90
   5  -6  -5  132.19    7.30
  -5   6   5  135.49    7.40
   5   6  -5  147.59    6.50
   5   6  -5  135.59    6.60
  -5   6   5  158.28    7.50
   5   6  -5  147.39    7.50
   4  -6  -5    1.00    1.50
  -4  -6   5    0.50    1.60
   4  -6  -5    2.10    2.00
   4   6  -5    0.80    0.80
  -4   6   5    2.80    1.60
   4   6  -5   -0.40    1.30
  -4   6   5    0.10    1.20
   4   6  -5    0.00    1.70
  -3  -6   5    0.60    1.20
   3  -6  -5   -0.90    1.10
  -3  -6   5    0.90    0.80
   3   6  -5    1.90    1.30
   3   6  -5    1.20    1.20
   3   6  -5    0.70    0.80
  -3   6   5    0.50    1.40
  -3   6   5    0.60    1.30
  -2  -6   5   -0.70    1.00
   2  -6  -5    0.50    0.90
   2  -6  -5    1.00    1.30
   2   6  -5    0.40    1.20
   2   6  -5   -0.60    1.40
  -2   6   5   -1.20    1.00
  -2   6   5    0.10    0.60
   1  -6  -5  453.85   15.30
   1  -6  -5  447.26   14.60
  -1  -6   5  453.25   15.70
   1   6  -5  470.85   15.40
  -1   6   5  465.25   14.50
   1   6  -5  427.56   14.30
  -1   6   5  433.96   15.40
   0  -6  -5  189.58    7.90
   0  -6   5  183.08    8.60
   0  -6  -5  195.48    7.90
   0   6   5  184.58    8.30
   0   6  -5  182.88    8.30
   0   6   5  193.78    7.30
   0   6  -5  194.78    7.20
  -1  -6  -5    1.40    1.30
  -1  -6  -5    3.90    1.60
   1  -6   5    1.50    1.50
  -1   6  -5    1.40    1.00
   1   6   5    1.50    1.30
   1   6   5    2.40    1.50
  -1   6  -5    1.30    1.40
   2  -6   5   64.59    5.00
  -2  -6  -5   77.79    5.10
  -2  -6  -5   76.19    4.20
   2   6   5   74.09    4.10
   2   6   5   75.39    5.10
  -2   6  -5   79.19    5.40
  -2   6  -5   73.29    3.90
   3  -6   5   18.20    3.30
  -3  -6  -5   22.40    3.50
   3   6   5   21.90    3.80
  -3   6  -5   24.60    3.40
  -4  -6  -5  120.69    7.10
   4  -6   5   95.39    7.00
   4   6   5  111.09    6.90
  -4   6  -5   98.39    6.50
   5  -6   5    3.10    2.20
  -5  -6  -5    0.70    1.90
  -5   6  -5    0.30    1.60
   5   6   5   -0.60    2.60
  -6  -6  -5   31.80    4.90
   6  -6   5   39.20    5.70
   6   6   5   44.30    5.80
  -6   6  -5   37.90    5.10
  -6   6  -5   29.70    4.50
  -9  -7   5    0.90    2.20
   9  -7  -5    2.00    2.30
   9  -7  -5   -2.40    3.20
  -9   7   5    4.10    3.70
   9   7  -5   -0.50    2.10
  -9   7   5    0.40    2.50
   9   7  -5    1.40    2.40
   8  -7  -5   15.90    4.20
  -8  -7   5    6.80    2.60
   8  -7  -5    3.30    3.50
  -8   7   5    4.80    2.70
   8   7  -5   16.80    4.40
   8   7  -5    8.40    2.90
  -8   7   5   16.70    4.40
   7  -7  -5    0.70    2.00
  -7  -7   5    3.00    2.20
   7  -7  -5   -0.70    1.80
  -7   7   5    4.00    2.20
   7   7  -5   -1.50    1.70
  -7   7   5    2.50    2.20
   7   7  -5    0.70    1.60
  -6  -7   5   52.69    5.20
   6  -7  -5   41.60    5.00
   6  -7  -5   52.09    5.70
   6   7  -5   50.39    4.70
   6   7  -5   53.09    5.60
  -6   7   5   45.40    5.40
  -6   7   5   45.50    5.00
   5  -7  -5    5.20    2.20
   5  -7  -5    4.80    2.20
  -5  -7   5    1.40    1.50
  -5   7   5    6.80    2.40
  -5   7   5    3.80    1.80
   5   7  -5    4.60    2.00
   5   7  -5    4.20    1.90
  -4  -7   5   17.60    2.90
   4  -7  -5   25.60    3.60
   4   7  -5   29.20    3.00
  -4   7   5   26.40    3.50
   4   7  -5   27.20    3.50
  -4   7   5   23.90    3.70
   4   7  -5   20.40    2.80
   3  -7  -5  553.34   18.60
  -3  -7   5  507.65   18.30
   3   7  -5  564.24   18.00
  -3   7   5  513.75   17.50
   3   7  -5  525.65   17.50
  -3   7   5  557.54   18.50
   2  -7  -5   59.39    3.40
  -2  -7   5   51.19    5.00
   2  -7  -5   53.79    4.80
  -2   7   5   53.69    4.90
   2   7  -5   52.99    3.80
   2   7  -5   59.89    4.00
  -2   7   5   53.69    3.70
   1  -7  -5   94.09    4.80
  -1  -7   5   89.29    5.50
   1  -7  -5   96.59    5.30
   1   7  -5   99.69    5.40
   1   7  -5  100.79    4.90
  -1   7   5   74.09    4.50
  -1   7   5   91.99    5.70
   0  -7   5   72.39    5.10
   0  -7  -5   81.89    4.90
   0  -7  -5   81.29    4.80
   0   7   5   84.49    4.50
   0   7  -5   67.29    4.70
   0   7   5   79.09    5.40
   0   7  -5   72.09    4.10
  -1  -7  -5  568.64   18.80
  -1  -7  -5  562.04   17.90
   1  -7   5  555.14   19.50
   1   7   5  553.74   17.80
   1   7   5  560.34   19.30
  -1   7  -5  551.44   19.00
  -1   7  -5  573.44   17.60
   2  -7   5  143.89    8.10
  -2  -7  -5  157.78    6.70
  -2  -7  -5  166.88    8.20
  -2   7  -5  168.68    8.30
  -2   7  -5  168.98    6.90
   2   7   5  177.18    8.60
   2   7   5  160.18    7.00
   3  -7   5  124.09    7.70
  -3  -7  -5  133.09    7.50
   3  -7   5  116.39    7.00
   3   7   5  108.29    6.90
  -3   7  -5  128.19    7.10
  -4  -7  -5   -0.80    1.60
   4  -7   5   -1.90    1.50
   4  -7   5    0.60    1.80
  -4   7  -5    0.10    1.80
   4   7   5   -0.50    1.80
   5  -7   5    2.60    2.20
  -5  -7  -5    0.00    2.40
   5  -7   5    0.50    2.60
   5   7   5   -0.50    2.00
  -5   7  -5    1.60    1.90
  -6  -7  -5    4.20    3.30
   6  -7   5    6.70    2.80
  -6   7  -5   10.60    2.90
   6   7   5   10.90    3.60
  -6   7  -5   10.40    2.80
   8  -8  -5    0.90    3.10
   8  -8  -5   -1.90    3.20
   8   8  -5    2.00    2.60
   8   8  -5    3.60    2.30
  -8   8   5   -0.50    3.20
  -8   8   5    3.20    3.50
  -7  -8   5   17.50    3.40
   7  -8  -5   30.10    4.60
   7  -8  -5   18.70    4.00
  -7   8   5   14.30    3.40
   7   8  -5   20.90    3.70
   7   8  -5   20.00    4.50
  -7   8   5   22.60    4.60
   6  -8  -5   12.20    3.10
   6  -8  -5   17.40    3.50
  -6  -8   5   22.10    3.80
  -6   8   5   17.30    3.40
   6   8  -5   24.10    4.00
   6   8  -5   15.70    2.90
  -6   8   5   20.60    3.70
   5  -8  -5   34.70    4.50
  -5  -8   5   19.40    3.30
   5   8  -5   25.20    3.70
  -5   8   5   28.50    3.90
  -5   8   5   25.80    4.20
  -4  -8   5   29.80    4.10
   4  -8  -5   29.80    4.00
  -4   8   5   26.10    3.70
   4   8  -5   30.80    3.50
   4   8  -5   24.00    3.80
  -4   8   5   24.10    3.60
  -3  -8   5   21.30    3.30
   3  -8  -5   11.30    2.70
  -3   8   5   16.70    2.70
   3   8  -5   18.10    2.70
  -3   8   5   18.00    3.00
   3   8  -5   16.10    3.00
  -2  -8   5   49.20    4.80
   2  -8  -5   49.10    4.70
   2  -8  -5   42.30    3.30
  -2   8   5   51.19    4.90
  -2   8   5   47.40    3.60
   2   8  -5   48.40    4.40
   2   8  -5   48.40    4.40
   1  -8  -5  113.89    6.10
   1  -8  -5  110.09    5.70
  -1  -8   5  112.69    6.60
  -1   8   5  110.89    6.40
   1   8  -5  120.19    6.30
   1   8  -5  116.79    5.70
  -1   8   5  118.29    6.00
   0  -8   5  516.85   18.30
   0  -8  -5  515.15   17.10
   0  -8  -5  511.05   17.30
   0   8   5  530.55   16.90
   0   8  -5  508.65   16.60
   0   8  -5  485.45   17.60
   0   8   5  514.25   18.10
  -1  -8  -5   34.10    3.90
  -1  -8  -5   28.20    3.20
   1  -8   5   30.80    4.10
  -1   8  -5   27.20    3.70
   1   8   5   29.00    3.40
   1   8   5   37.00    4.40
  -1   8  -5   33.30    3.30
   2  -8   5    3.50    2.10
  -2  -8  -5    1.90    1.80
   2  -8   5    2.50    2.50
  -2   8  -5    2.10    1.80
   2   8   5    2.80    2.00
  -2   8  -5    1.10    1.50
   2   8   5    2.70    1.70
  -3  -8  -5    1.20    1.90
   3  -8   5    2.80    2.10
   3  -8   5    2.70    2.20
   3   8   5    3.00    2.70
  -3   8  -5    3.20    2.70
  -4  -8  -5    4.20    2.20
   4  -8   5    2.80    2.30
   4  -8   5    2.80    2.30
   4   8   5    2.60    2.90
  -4   8  -5    0.00    1.70
   5  -8   5   -1.80    2.70
   5  -8   5    0.30    2.80
  -5  -8  -5    2.00    3.00
   5   8   5   -2.20    1.90
  -5   8  -5    3.40    2.90
   6  -8   5    0.50    2.10
  -6  -8  -5   -4.20    2.60
  -6   8  -5    0.00    2.70
   6   8   5   -3.40    2.70
  -6   8  -5    1.10    1.80
   8  -9  -5   -2.70    3.20
   8  -9  -5   -0.70    3.20
   8   9  -5   -1.10    2.20
  -8   9   5    0.70    2.40
  -8   9   5    4.00    3.50
  -7  -9   5    0.50    2.30
   7  -9  -5    3.00    3.20
   7  -9  -5    1.80    2.50
  -7   9   5   -0.90    1.90
   7   9  -5    1.60    3.00
  -7   9   5   -0.90    2.80
  -6  -9   5    1.50    2.40
   6  -9  -5    3.20    2.30
   6   9  -5    0.80    2.70
  -6   9   5    0.00    2.00
  -6   9   5    2.60    2.70
   5  -9  -5   13.30    3.70
  -5  -9   5   14.20    3.10
   5   9  -5   16.00    3.70
  -5   9   5   21.40    3.80
  -5   9   5   19.40    3.40
   4  -9  -5   46.90    5.00
  -4  -9   5   41.60    4.90
  -4   9   5   50.99    5.30
   4   9  -5   45.20    4.20
  -4   9   5   38.60    4.30
   4   9  -5   36.80    4.40
   3  -9  -5  127.69    7.50
  -3  -9   5  118.99    7.10
  -3   9   5  127.89    6.70
  -3   9   5  128.99    7.20
   3   9  -5  130.09    7.00
   3   9  -5  124.89    6.50
   2  -9  -5  293.87   10.70
   2  -9  -5  286.27   11.90
  -2  -9   5  300.77   12.70
   2   9  -5  311.27   11.70
  -2   9   5  294.27   11.60
   2   9  -5  306.27   11.70
  -2   9   5  308.07   12.40
   1  -9  -5   20.60    2.90
   1  -9  -5   20.40    3.40
  -1  -9   5   20.70    3.50
  -1   9   5   23.80    3.60
   1   9  -5   20.20    3.00
  -1   9   5   20.40    3.20
   1   9  -5   20.70    3.20
   0  -9  -5  301.67   12.00
   0  -9  -5  306.37   11.80
   0  -9   5  316.47   13.20
   0   9  -5  337.07   12.70
   0   9   5  329.27   12.00
   0   9   5  303.47   12.90
   0   9  -5  304.67   11.50
   1  -9   5    7.00    2.40
  -1  -9  -5    6.50    2.00
   1  -9   5    5.80    2.40
  -1  -9  -5    7.90    2.60
   1   9   5    2.80    2.00
  -1   9  -5    8.00    2.50
  -1   9  -5    7.50    2.10
   1   9   5    1.20    1.30
   2  -9   5   26.30    4.40
  -2  -9  -5   33.50    4.50
   2  -9   5   22.30    3.80
   2   9   5   29.40    4.20
  -2   9  -5   30.50    3.50
  -2   9  -5   23.00    4.10
   2   9   5   29.80    3.60
  -3  -9  -5    0.80    1.70
   3  -9   5   -0.50    1.90
   3  -9   5    3.60    2.40
   3   9   5    0.50    1.80
  -3   9  -5    3.40    2.10
   4  -9   5   -0.80    1.90
   4  -9   5    3.50    2.30
  -4  -9  -5   -0.30    1.80
  -4   9  -5    3.30    2.20
   4   9   5    0.40    2.00
  -5  -9  -5    3.40    3.10
   5  -9   5    0.50    2.70
   5  -9   5   -0.40    2.30
   5   9   5   -0.10    2.10
  -5   9  -5    1.30    2.10
   6  -9   5   17.60    4.10
   6  -9   5    5.30    2.90
  -6  -9  -5    7.00    3.10
   6   9   5    6.60    3.20
  -6   9  -5   10.40    3.30
   7 -10  -5    3.40    3.60
  -7 -10   5    5.90    2.60
   7  10  -5    8.90    3.80
  -7  10   5    4.30    2.60
  -7  10   5    5.20    2.80
  -6 -10   5    9.20    2.80
   6 -10  -5   13.00    3.50
   6  10  -5   12.40    3.70
  -6  10   5    9.70    3.50
  -6  10   5    6.60    3.50
  -5 -10   5    1.30    1.80
   5 -10  -5    4.50    2.50
   5  10  -5    5.20    3.00
  -5  10   5    3.60    2.30
  -5  10   5    0.50    2.70
   4 -10  -5    5.50    2.40
  -4 -10   5    2.50    2.00
  -4  10   5    4.20    2.30
  -4  10   5    7.10    2.40
   4  10  -5    5.10    2.70
  -3 -10   5   51.39    5.50
   3 -10  -5   47.80    5.40
  -3  10   5   63.49    6.10
   3  10  -5   50.99    4.00
   3  10  -5   58.39    5.30
  -3  10   5   50.99    5.00
  -2 -10   5  121.09    7.40
   2 -10  -5  132.89    7.50
  -2  10   5  116.49    7.20
  -2  10   5  143.99    7.10
   2  10  -5  124.69    6.70
   2  10  -5  126.39    6.70
  -1 -10   5    1.10    1.70
   1 -10  -5    0.20    1.30
   1 -10  -5    0.50    1.50
   1  10  -5    1.30    2.20
   1  10  -5   -1.00    1.60
  -1  10   5    3.20    2.10
  -1  10   5    1.40    2.10
   0 -10  -5   17.00    3.00
   0 -10  -5   19.50    3.10
   0 -10   5   16.90    3.40
   0  10   5   16.60    2.90
   0  10  -5   10.60    3.10
   0  10   5   16.20    3.20
   0  10  -5   10.90    2.50
   1 -10   5   -0.10    1.80
  -1 -10  -5    0.80    1.70
  -1 -10  -5    0.10    1.60
   1 -10   5    0.00    1.80
  -1  10  -5   -1.00    1.70
   1  10   5    1.70    2.00
  -1  10  -5   -0.30    1.60
   1  10   5   -0.90    1.70
   2 -10   5   52.69    5.70
  -2 -10  -5   69.59    6.20
   2 -10   5   51.09    5.80
   2  10   5   64.19    6.30
  -2  10  -5   52.49    5.60
  -2  10  -5   56.49    5.00
   3 -10   5   26.70    4.40
  -3 -10  -5   35.70    4.80
   3 -10   5   30.20    5.00
   3  10   5   28.30    4.50
  -3  10  -5   27.40    4.30
   4 -10   5    3.20    3.20
   4 -10   5    6.80    2.90
  -4 -10  -5    5.50    2.60
   4  10   5    4.40    2.80
  -4  10  -5    1.60    2.90
   5 -10   5    1.20    3.10
   5 -10   5    2.00    2.50
  -5 -10  -5    1.40    2.20
  -5  10  -5    3.40    2.50
   5  10   5    0.60    3.10
   7 -11  -5   72.09    7.60
  -7 -11   5   67.19    7.00
  -7  11   5   69.89    7.20
   7  11  -5   63.89    7.30
  -7  11   5   68.19    7.30
   6 -11  -5   36.60    5.30
  -6 -11   5   36.70    5.30
  -6  11   5   39.70    5.50
   6  11  -5   34.90    5.00
  -6  11   5   32.20    5.40
   5 -11  -5   26.50    4.40
  -5 -11   5   22.10    4.50
   5  11  -5   29.30    4.30
  -5  11   5   20.80    4.50
  -5  11   5   24.40    4.40
  -4 -11   5    6.30    2.60
   4 -11  -5    8.40    3.50
   4  11  -5    7.50    2.50
  -4  11   5    7.50    2.80
  -4  11   5    6.30    2.50
  -3 -11   5    2.70    2.10
   3 -11  -5    5.80    2.80
  -3  11   5    1.60    2.10
   3  11  -5    0.60    2.20
   3  11  -5    2.30    2.00
  -3  11   5    5.40    2.30
  -2 -11   5   18.10    3.60
   2 -11  -5   17.90    3.60
   2  11  -5   18.20    3.10
  -2  11   5   16.90    3.50
   2  11  -5   15.10    2.80
  -2  11   5   19.50    3.60
   1 -11  -5   -0.70    1.90
   1 -11  -5   -0.40    1.10
  -1 -11   5    3.70    2.20
  -1  11   5    0.10    2.10
   1  11  -5   -1.50    1.10
   1  11  -5    3.20    1.90
  -1  11   5    1.60    2.10
   0 -11  -5    0.60    1.90
   0 -11   5    0.50    1.80
   0 -11  -5   -3.70    1.60
   0  11  -5   -0.80    1.60
   0  11   5   -0.80    1.70
   0  11  -5    1.00    2.00
   0  11   5    0.90    2.20
  -1 -11  -5   -0.10    1.70
   1 -11   5   -0.20    1.90
   1 -11   5    0.60    2.00
   1  11   5   -2.60    1.60
   1  11   5    2.20    2.20
  -1  11  -5    0.70    2.00
  -1  11  -5   -0.80    1.30
  -2 -11  -5   40.40    5.00
   2 -11   5   31.20    4.80
   2 -11   5   32.80    4.70
   2  11   5   31.90    4.20
   2  11   5   31.50    5.10
  -2  11  -5   33.40    4.70
  -2  11  -5   25.80    3.70
  -3 -11  -5   12.40    3.30
   3 -11   5    9.30    3.70
   3 -11   5   10.00    3.80
  -3  11  -5    6.70    3.40
   3  11   5    8.90    3.10
  -4 -11  -5   12.40    3.50
   4 -11   5   17.70    4.60
   4 -11   5   10.50    3.40
  -4  11  -5   13.20    4.00
   4  11   5   16.10    3.90
  -5 -11  -5    2.50    2.70
   5 -11   5    3.90    2.90
   5 -11   5    1.30    3.00
  -5  11  -5    0.70    2.40
   5  11   5    3.50    2.80
   6 -12  -5    5.40    3.70
  -6 -12   5    6.50    2.80
  -6  12   5    4.20    3.50
   6  12  -5   14.10    4.10
  -6  12   5    5.70    2.90
  -5 -12   5   -0.70    2.00
   5 -12  -5   -0.30    2.20
  -5  12   5    0.30    2.10
  -5  12   5    1.50    2.50
   5  12  -5    1.60    2.90
  -4 -12   5   84.69    6.70
   4 -12  -5   77.89    7.20
   4  12  -5   87.79    6.50
  -4  12   5   82.89    7.40
  -4  12   5   74.59    7.40
  -3 -12   5    2.10    2.20
   3 -12  -5   -3.00    1.50
   3  12  -5    2.30    1.90
   3  12  -5    0.10    1.40
  -3  12   5   -1.40    2.50
  -3  12   5   -1.80    1.80
   2 -12  -5   27.70    4.10
  -2 -12   5   33.80    4.90
  -2  12   5   31.90    5.10
   2  12  -5   34.20    4.40
   2  12  -5   30.30    4.40
  -2  12   5   35.50    4.40
   1 -12  -5    0.50    1.10
   1 -12  -5    2.30    2.40
  -1 -12   5    1.70    2.10
  -1  12   5    0.00    1.80
   1  12  -5   -0.60    2.00
  -1  12   5   -0.20    2.00
   1  12  -5    0.70    1.70
   0 -12  -5   15.40    3.40
   0 -12  -5   18.70    3.10
   0 -12   5   15.00    4.00
   0  12   5   23.40    4.60
   0  12  -5   17.70    3.10
   0  12  -5   16.90    3.40
   0  12   5   12.40    2.90
   1 -12   5    1.30    2.20
  -1 -12  -5    5.20    2.80
   1 -12   5    1.00    2.80
  -1  12  -5    4.50    2.40
   1  12   5    1.70    2.50
  -1  12  -5    4.60    2.50
   1  12   5    4.40    2.60
  -2 -12  -5    0.60    2.10
   2 -12   5   -3.10    1.80
   2 -12   5    0.30    2.20
   2  12   5    2.20    2.40
  -2  12  -5    2.10    2.30
   2  12   5    0.40    2.20
  -2  12  -5    3.60    2.30
   3 -12   5   25.70    4.70
   3 -12   5   24.70    5.10
  -3 -12  -5   19.10    4.00
  -3  12  -5   20.80    4.80
   3  12   5   19.80    4.70
   4 -12   5    1.70    3.60
  -4 -12  -5    3.10    2.60
   4 -12   5   -0.80    3.00
  -4  12  -5    1.10    3.50
   4  12   5    3.90    2.80
   5 -13  -5    2.90    2.60
  -5 -13   5    0.20    2.80
   5  13  -5    2.40    2.30
  -5  13   5    3.80    3.70
  -5  13   5    1.10    2.40
   4 -13  -5   10.40    3.30
  -4 -13   5    4.80    2.70
   4  13  -5    4.70    2.60
  -4  13   5    4.70    2.90
  -4  13   5    1.60    2.30
  -3 -13   5    8.10    3.70
   3 -13  -5    9.60    3.10
  -3  13   5    2.20    3.50
   3  13  -5   10.90    3.00
  -3  13   5    5.60    2.70
  -2 -13   5  150.38    9.90
   2 -13  -5  169.48    9.40
  -2  13   5  178.98    9.30
   2  13  -5  168.98    9.30
  -2  13   5  167.78   10.00
   2  13  -5  180.48    9.10
   1 -13  -5    9.30    3.10
  -1 -13   5    4.30    2.60
  -1  13   5    7.00    2.60
   1  13  -5   15.90    3.30
   1  13  -5    5.00    2.70
  -1  13   5    8.50    3.20
   0 -13  -5   52.29    5.80
   0 -13   5   57.39    7.00
   0  13   5   74.29    7.10
   0  13   5   54.59    5.60
   0  13  -5   60.79    6.00
   0  13  -5   61.99    6.20
   1 -13   5   54.89    6.20
   1 -13   5   44.60    6.30
  -1 -13  -5   59.29    6.30
  -1  13  -5   53.59    6.00
  -1  13  -5   54.49    5.60
   1  13   5   43.40    5.10
   1  13   5   53.39    6.20
   2 -13   5   10.90    4.00
  -2 -13  -5   14.40    3.40
   2 -13   5   16.20    4.00
  -2  13  -5   14.60    3.70
   2  13   5   14.40    3.80
   2  13   5   15.90    3.80
  -3 -13  -5    7.00    3.00
   3 -13   5    7.60    4.00
   3 -13   5    3.70    2.60
   3  13   5    6.50    3.90
  -3  13  -5    4.80    2.80
  -4 -14   5   13.40    3.60
   4 -14  -5   15.40    4.60
  -4  14   5   12.60    3.60
   4  14  -5   26.20    4.50
  -4  14   5   20.90    5.00
  -3 -14   5    6.40    3.10
   3 -14  -5    7.10    2.80
  -3  14   5    1.80    3.40
  -3  14   5    3.50    2.80
   3  14  -5    8.30    2.80
   2 -14  -5    2.50    3.00
  -2 -14   5    4.50    2.70
  -2  14   5    0.50    3.00
   2  14  -5    5.20    2.80
   2  14  -5    4.10    2.40
  -2  14   5   -0.90    2.30
   1 -14  -5    1.60    2.50
  -1 -14   5    1.00    2.40
   1  14  -5    0.10    2.00
  -1  14   5    2.20    2.60
  -1  14   5    1.50    2.20
   1  14  -5    0.50    1.80
   0 -14  -5   26.10    4.50
   0 -14   5   31.60    5.60
   0  14   5   29.00    4.90
   0  14  -5   20.40    3.70
   0  14   5   21.60    4.40
   0  14  -5   30.10    4.50
   1 -14   5   47.70    6.00
  -1 -14  -5   31.90    5.30
   1 -14   5   32.20    5.70
   1  14   5   39.50    5.40
   1  14   5   56.79    7.00
  -1  14  -5   39.40    5.20
  -1  14  -5   41.60    5.50
   2 -14   5   23.50    5.20
  -2 -14  -5   17.40    3.90
   2 -14   5   16.90    4.20
  -2  14  -5   14.00    3.80
   2  14   5   21.00    4.20
   2  14   5   12.70    3.70
   3 -15  -5   13.60    4.00
  -3 -15   5    9.00    3.40
  -3  15   5    3.00    2.80
   3  15  -5   13.90    3.50
  -3  15   5    3.50    2.80
   2 -15  -5   46.10    5.90
  -2 -15   5   31.40    5.30
  -2  15   5   36.30    5.50
  -2  15   5   22.70    4.70
   2  15  -5   23.30    4.10
  -1 -15   5   10.20    3.60
   1  15  -5    6.20    3.20
  -1  15   5    7.10    2.90
   1  15  -5    7.50    3.30
  -1  15   5    6.20    3.00
   0 -15   5  103.59    8.00
   0  15  -5   91.89    7.10
   0  15  -5   71.99    7.50
   0  15   5   71.39    7.50
   0  15   5  103.89    9.00
   9   0  -6   -3.30    2.60
  -9   0   6    1.20    2.20
   8   0  -6   41.30    5.40
  -8   0   6   33.80    4.60
  -7   0   6   -1.10    1.40
   7   0  -6    3.20    2.10
   7   0  -6   -2.10    2.10
   6   0  -6   69.19    5.10
   6   0  -6   87.39    5.50
  -6   0   6   81.79    5.20
  -5   0   6   -0.20    1.10
   5   0  -6    0.30    1.60
   5   0  -6   -1.00    1.10
  -4   0   6   76.49    3.60
   4   0  -6   72.89    4.70
  -4   0   6   75.79    4.50
   4   0  -6   82.39    4.40
  -3   0   6    0.80    0.90
   3   0  -6    0.60    1.00
   3   0  -6    0.00    1.10
  -3   0   6    0.00    0.90
   2   0  -6 1249.77   34.90
   2   0  -6 1212.98   36.70
  -2   0   6 1255.57   35.60
  -2   0   6 1274.97   36.10
   1   0  -6    0.20    1.50
  -1   0   6   -0.70    0.90
  -1   0   6    0.00    0.90
   0   0   6   39.70    2.70
   0   0   6   43.90    3.50
   0   0  -6   47.20    3.40
  -1   0  -6    0.30    1.10
   1   0   6    1.80    1.90
   1   0   6   -0.60    0.90
  -1   0  -6   -1.70    1.40
  -2   0  -6  299.47   11.30
   2   0   6  300.07   12.20
  -2   0  -6  295.17   11.80
   2   0   6  333.67   11.10
   3   0   6   -0.10    1.10
  -3   0  -6    0.10    1.60
   3   0   6   -0.50    1.50
  -3   0  -6   -1.70    1.10
   4   0   6    3.00    1.50
  -4   0  -6    4.20    2.00
  -4   0  -6    7.10    1.80
   4   0   6    4.10    2.30
   5   0   6   -1.90    2.60
   5   0   6   -1.10    1.70
  -5   0  -6   -2.60    2.10
  -6   0  -6   14.30    3.40
  -7   0  -6    3.30    2.30
   9  -1  -6    4.60    2.70
  -9  -1   6   -0.80    1.90
  -9   1   6   -2.80    2.50
   9   1  -6   -1.00    1.90
   9   1  -6   -1.90    2.80
  -8  -1   6    8.60    2.70
   8  -1  -6    9.00    3.40
   8  -1  -6    6.50    2.30
  -8   1   6    4.00    2.80
   8   1  -6   11.10    3.00
   8   1  -6    9.40    3.00
   7  -1  -6  129.29    7.60
   7  -1  -6  129.29    7.00
  -7  -1   6  129.99    7.20
   7   1  -6  133.89    7.50
  -7   1   6  124.89    7.20
   7   1  -6  118.39    7.40
   6  -1  -6  141.59    7.70
   6  -1  -6  140.59    7.20
  -6  -1   6  127.29    7.00
  -6   1   6  145.69    7.50
   6   1  -6  154.18    7.70
   6   1  -6  150.38    7.30
   5  -1  -6    0.70    1.40
   5  -1  -6   -0.20    1.10
  -5  -1   6    0.60    1.50
   5   1  -6   -0.30    1.10
   5   1  -6    1.70    1.70
  -5   1   6   -1.20    1.10
  -4  -1   6  160.08    6.20
   4  -1  -6  151.18    7.30
  -4  -1   6  150.88    6.50
   4  -1  -6  153.98    6.60
   4   1  -6  151.58    7.10
  -4   1   6  137.69    5.80
   4   1  -6  153.28    6.60
  -4   1   6  162.18    7.00
  -3  -1   6   41.80    2.90
   3  -1  -6   49.50    3.70
   3  -1  -6   34.50    2.60
  -3  -1   6   37.20    2.70
  -3   1   6   36.10    3.40
  -3   1   6   33.40    2.40
   3   1  -6   36.90    2.70
   3   1  -6   40.50    3.80
   2  -1  -6  101.99    5.50
  -2  -1   6   98.29    4.20
  -2  -1   6   92.29    4.90
   2  -1  -6   90.39    3.90
  -2   1   6  103.79    4.70
  -2   1   6   97.49    4.70
  -2   1   6  105.39    4.00
   2   1  -6   88.69    5.00
   2   1  -6   96.29    3.90
  -1  -1   6  492.55   14.40
  -1  -1   6  468.45   15.70
   1  -1  -6  468.05   15.90
   1  -1  -6  479.15   15.30
   1   1  -6  481.55   15.90
  -1   1   6  454.15   13.40
  -1   1   6  474.95   15.00
  -1   1   6  481.25   15.50
   0  -1  -6  159.38    6.70
   0  -1   6  142.09    6.70
   0  -1   6  134.69    5.30
   0  -1  -6  138.79    6.50
   0   1   6  151.38    6.90
   0   1   6  135.29    5.90
   0   1  -6  145.09    6.60
  -1  -1  -6  514.45   17.50
   1  -1   6  528.25   18.00
  -1  -1  -6  534.05   17.20
   1  -1   6  528.35   16.00
   1   1   6  509.85   16.60
   1   1   6  530.15   17.90
  -1   1  -6  531.45   17.40
   2  -1   6    0.70    1.60
  -2  -1  -6    1.20    1.50
   2  -1   6    0.70    1.20
  -2  -1  -6    0.10    1.70
   2   1   6    1.60    1.50
  -2   1  -6    1.60    1.50
  -2   1  -6   -0.10    1.60
   2   1   6    0.30    1.40
  -3  -1  -6    7.40    2.10
   3  -1   6    9.20    2.10
  -3  -1  -6    7.10    2.20
   3  -1   6    5.20    2.20
   3   1   6    5.20    2.30
  -3   1  -6    6.80    2.10
  -3   1  -6    5.90    2.10
   3   1   6    1.20    0.90
  -4  -1  -6   66.99    6.10
   4  -1   6   80.99    5.20
   4  -1   6   84.09    6.00
  -4  -1  -6   73.09    4.40
   4   1   6   64.99    5.10
   4   1   6   62.89    6.20
  -4   1  -6   63.89    5.90
  -4   1  -6   75.79    5.00
  -5  -1  -6   -1.90    2.10
   5  -1   6   -0.90    1.80
  -5   1  -6    0.40    1.80
   5   1   6    2.20    1.80
  -6  -1  -6    0.00    2.50
   6  -1   6    0.20    2.30
  -6   1  -6    0.90    1.90
   6   1   6    0.20    1.80
  -7  -1  -6   -0.50    2.70
  -7   1  -6    3.20    3.20
   9  -2  -6    6.90    3.00
  -9  -2   6    3.10    3.10
   9   2  -6    1.40    2.40
   9   2  -6    3.10    3.20
  -9   2   6    6.50    2.80
  -8  -2   6   32.10    4.80
   8  -2  -6   27.30    4.90
   8  -2  -6   33.60    4.40
   8   2  -6   40.00    5.30
  -8   2   6   32.50    4.60
   8   2  -6   27.90    4.70
   7  -2  -6    6.80    2.60
   7  -2  -6    6.60    2.50
  -7  -2   6   11.50    3.00
   7   2  -6    7.40    2.90
   7   2  -6    8.90    2.70
  -7   2   6    7.90    2.60
   7   2  -6    7.30    2.40
   6  -2  -6    6.20    2.10
  -6  -2   6    4.70    2.20
   6  -2  -6    5.40    2.10
   6   2  -6    3.70    2.40
  -6   2   6    4.30    2.50
   6   2  -6    3.40    1.90
   6   2  -6    4.30    2.20
  -5  -2   6   -1.60    0.80
   5  -2  -6    0.90    1.50
   5  -2  -6   -1.00    0.90
  -5  -2   6   -0.30    1.00
   5   2  -6    0.80    1.30
   5   2  -6   -1.10    1.50
  -5   2   6   -0.80    1.70
  -4  -2   6   12.40    2.10
  -4  -2   6   12.20    2.00
   4  -2  -6    9.50    2.20
   4  -2  -6   12.90    2.40
   4   2  -6   11.30    2.20
  -4   2   6   14.70    2.40
   4   2  -6   15.30    2.70
  -3  -2   6  126.09    5.70
   3  -2  -6  121.29    6.40
   3  -2  -6  124.29    5.40
   3  -2  -6  125.69    4.90
  -3  -2   6  121.89    5.20
  -3   2   6  125.69    5.00
   3   2  -6  118.79    5.30
  -3   2   6  126.79    5.30
  -3   2   6  124.19    5.80
   3   2  -6  125.19    6.10
  -2  -2   6  116.59    5.40
   2  -2  -6  104.19    5.80
   2  -2  -6  112.89    4.50
  -2  -2   6  106.19    4.30
   2  -2  -6  110.59    4.80
  -2   2   6  110.99    4.30
   2   2  -6   98.79    5.60
   2   2  -6  102.59    4.30
  -2   2   6  113.59    5.00
  -2   2   6  108.19    5.20
   1  -2  -6   29.20    2.90
  -1  -2   6   30.90    1.90
  -1  -2   6   30.60    3.30
   1  -2  -6   25.30    3.20
  -1   2   6   32.00    1.70
  -1   2   6   32.30    3.20
   1   2  -6   35.20    3.50
  -1   2   6   30.50    3.10
   1   2  -6   30.90    1.50
   0  -2   6   35.60    3.70
   0  -2  -6   37.20    3.60
   0  -2   6   37.30    2.10
   0  -2  -6   42.30    3.70
   0   2  -6   39.50    3.90
   0   2   6   40.00    3.80
  -1  -2  -6   17.30    2.80
   1  -2   6   15.70    2.80
   1  -2   6   14.70    1.70
  -1  -2  -6   18.70    2.60
   1   2   6   13.70    2.10
  -1   2  -6   14.10    2.60
   1   2   6   11.40    2.70
  -2  -2  -6  121.29    6.50
  -2  -2  -6  128.29    6.00
   2  -2   6  118.49    6.70
   2   2   6  119.39    6.00
   2   2   6  114.49    6.60
  -2   2  -6  114.09    6.10
  -3  -2  -6  469.15   17.20
  -3  -2  -6  491.15   15.90
   3  -2   6  503.55   17.90
   3   2   6  467.45   17.50
  -3   2  -6  450.25   17.10
  -3   2  -6  476.85   16.40
   3   2   6  481.75   16.60
   4  -2   6    0.60    1.90
  -4  -2  -6   -1.00    2.20
  -4   2  -6    0.20    1.50
   4   2   6    1.70    2.20
  -4   2  -6    2.80    1.60
   5  -2   6    1.90    2.20
  -5  -2  -6    2.00    2.00
  -5   2  -6    1.70    1.90
   5   2   6    2.70    2.00
  -5   2  -6    0.50    1.80
  -6  -2  -6    4.60    2.40
   6  -2   6    1.50    3.40
  -6   2  -6   -1.20    2.60
   6   2   6   -0.90    2.60
   9  -3  -6    2.90    2.70
  -9  -3   6    4.00    3.10
   9   3  -6   -1.40    2.10
   9   3  -6    0.80    2.80
  -9   3   6    2.20    2.70
   8  -3  -6    2.10    2.60
   8  -3  -6    3.50    3.00
  -8  -3   6   -0.20    1.70
   8   3  -6    0.60    1.90
   8   3  -6   -0.60    2.50
  -8   3   6    5.40    3.10
   7  -3  -6    0.20    2.70
  -7  -3   6    3.90    2.40
   7  -3  -6    3.10    2.10
   7   3  -6    3.60    2.40
   7   3  -6    4.30    2.30
  -7   3   6    3.60    2.70
   6  -3  -6    2.90    1.90
   6  -3  -6    3.00    2.50
  -6  -3   6    4.60    1.70
   6   3  -6    1.10    0.80
   6   3  -6    9.10    2.20
   6   3  -6    5.30    2.10
  -6   3   6    4.40    2.10
   5  -3  -6   11.40    2.60
   5  -3  -6    8.40    2.20
  -5  -3   6   16.80    2.60
  -5  -3   6   23.60    2.70
   5   3  -6   20.10    2.90
  -5   3   6   17.90    3.10
   5   3  -6   16.20    2.80
   5   3  -6   17.50    2.70
   4  -3  -6   52.29    4.10
  -4  -3   6   54.79    3.60
  -4  -3   6   49.10    3.30
   4  -3  -6   58.29    4.00
   4   3  -6   48.50    3.70
  -4   3   6   48.50    3.80
   4   3  -6   44.30    4.10
   3  -3  -6   54.39    4.00
   3  -3  -6   48.70    3.30
  -3  -3   6   47.90    2.80
  -3  -3   6   47.60    3.40
   3  -3  -6   47.10    2.60
  -3   3   6   49.10    3.20
   3   3  -6   50.29    3.20
  -3   3   6   41.80    3.90
   3   3  -6   46.70    3.60
  -2  -3   6    1.80    0.80
  -2  -3   6    2.40    1.30
   2  -3  -6    2.50    1.40
   2  -3  -6    1.70    1.10
   2   3  -6    3.20    1.10
  -2   3   6    2.50    1.10
  -2   3   6    3.50    1.40
  -2   3   6    1.70    1.20
   2   3  -6    3.00    1.40
  -1  -3   6    9.20    2.00
   1  -3  -6   10.50    2.10
  -1   3   6   10.70    2.10
  -1   3   6   13.90    2.50
  -1   3   6   16.50    1.60
   1   3  -6   14.70    2.40
   1   3  -6   14.50    1.40
   0  -3   6   82.49    5.30
   0  -3  -6   81.79    4.90
   0  -3  -6   82.19    4.60
   0   3   6   76.69    4.70
   0   3  -6   83.39    4.90
   0   3   6   86.79    4.80
   1  -3   6  312.17   12.40
  -1  -3  -6  304.27   11.30
  -1  -3  -6  322.27   11.90
   1   3   6  317.37   12.10
  -1   3  -6  314.07   11.90
   1   3   6  314.07   11.60
   2  -3   6   15.20    3.30
  -2  -3  -6   20.70    2.80
  -2  -3  -6   18.80    3.00
  -2   3  -6   15.70    2.70
   2   3   6   13.70    2.70
   3  -3   6  429.36   16.10
  -3  -3  -6  389.76   15.20
  -3  -3  -6  398.16   13.80
   3   3   6  415.96   15.10
  -3   3  -6  409.46   14.70
   4  -3   6    1.30    2.70
  -4  -3  -6    1.70    2.40
  -4   3  -6    1.30    1.50
   4   3   6    0.40    2.20
  -4   3  -6    1.80    2.30
   5  -3   6  108.39    7.60
  -5  -3  -6  116.59    7.60
  -5   3  -6  125.39    7.60
   5   3   6  130.69    8.00
  -5   3  -6  140.19    7.30
  -6  -3  -6    8.90    3.10
   6  -3   6   10.50    3.30
  -6   3  -6   13.10    3.30
   6   3   6    7.80    2.90
  -9  -4   6    7.80    3.50
   9  -4  -6   12.90    3.80
   9  -4  -6    5.10    3.20
   9   4  -6   17.90    4.40
  -9   4   6   13.20    3.60
  -9   4   6    6.70    3.80
   9   4  -6    9.00    3.60
  -8  -4   6    2.90    2.00
   8  -4  -6    5.00    2.70
   8  -4  -6    4.20    2.90
   8   4  -6    3.10    3.10
  -8   4   6    0.80    1.90
   8   4  -6    7.80    2.80
  -8   4   6    2.70    2.30
   7  -4  -6   82.39    6.10
   7  -4  -6   90.09    6.60
  -7  -4   6   77.89    5.30
   7   4  -6   81.29    6.10
  -7   4   6   73.19    5.80
   7   4  -6   74.99    5.50
  -7   4   6   82.39    5.90
   6  -4  -6   53.39    5.30
   6  -4  -6   49.40    5.20
  -6   4   6   45.60    5.00
   6   4  -6   59.69    4.60
   6   4  -6   47.20    5.00
  -6   4   6   54.89    5.20
   6   4  -6   56.89    4.80
  -5  -4   6    0.80    1.40
   5  -4  -6    0.20    1.30
   5  -4  -6   -0.70    1.40
  -5  -4   6    1.70    1.10
  -5   4   6    1.50    1.50
  -5   4   6    0.80    1.30
   5   4  -6   -0.90    1.10
   5   4  -6    0.60    1.30
   5   4  -6   -0.10    0.90
  -4  -4   6    1.60    1.30
   4  -4  -6    0.30    1.60
  -4  -4   6    1.30    1.50
   4  -4  -6    2.50    2.20
   4   4  -6    1.60    1.40
  -4   4   6    1.10    1.60
  -4   4   6   -0.60    1.20
   4   4  -6    0.10    1.40
  -3  -4   6   49.70    3.30
   3  -4  -6   53.29    4.10
  -3  -4   6   54.79    4.00
   3  -4  -6   57.09    3.70
   3   4  -6   58.49    3.60
  -3   4   6   54.49    4.70
  -3   4   6   59.89    3.60
   3   4  -6   54.79    3.90
   2  -4  -6    8.80    1.60
  -2  -4   6   11.80    2.40
   2  -4  -6    5.20    1.80
  -2   4   6    6.10    1.40
  -2   4   6    8.60    2.00
   2   4  -6    5.70    1.80
   2   4  -6    7.80    1.50
   1  -4  -6   14.40    2.40
  -1  -4   6   10.90    2.30
   1   4  -6   12.40    1.50
  -1   4   6   16.20    2.80
   1   4  -6   12.70    2.30
  -1   4   6   11.90    1.60
   0  -4  -6    0.20    1.10
   0  -4   6    0.50    1.40
   0  -4  -6    0.00    1.40
   0   4   6    0.40    1.20
   0   4  -6    0.20    1.70
  -1  -4  -6   86.59    5.10
   1  -4   6   89.99    6.00
  -1  -4  -6  100.99    5.50
  -1   4  -6   95.49    5.70
   1   4   6   85.19    5.20
  -2  -4  -6   -1.40    1.80
  -2  -4  -6    1.60    1.50
   2  -4   6    2.10    2.40
   2   4   6    0.40    1.50
  -2   4  -6    0.80    1.50
  -3  -4  -6    1.90    2.20
   3  -4   6    2.70    2.10
   3   4   6    2.30    1.80
  -3   4  -6    3.70    2.30
   4  -4   6   78.19    6.20
  -4  -4  -6  108.89    6.70
  -4   4  -6   96.99    6.20
  -4   4  -6   97.19    6.40
   4   4   6   81.09    6.30
  -5  -4  -6    3.00    2.30
   5  -4   6    6.00    2.70
  -5   4  -6    4.00    2.20
  -5   4  -6    4.50    2.40
   5   4   6    2.30    2.10
  -6  -4  -6    4.70    2.60
   6  -4   6    4.00    3.30
   6   4   6    9.20    3.60
  -6   4  -6    5.90    3.00
   9  -5  -6   31.50    5.10
   9  -5  -6   22.00    4.60
  -9  -5   6   27.80    4.80
   9   5  -6   27.90    5.00
  -9   5   6   23.20    4.40
   9   5  -6   31.20    5.20
  -9   5   6   27.30    4.70
   8  -5  -6   24.90    4.40
   8  -5  -6   22.70    4.30
  -8  -5   6   18.10    3.30
   8   5  -6   23.70    4.00
  -8   5   6   17.40    4.30
  -8   5   6   18.40    3.80
   8   5  -6   34.30    5.10
   7  -5  -6   24.70    4.40
  -7  -5   6   18.40    3.40
   7  -5  -6   27.80    4.10
   7   5  -6   29.90    4.20
   7   5  -6   27.10    4.40
  -7   5   6   29.70    4.20
  -7   5   6   24.50    4.10
   6  -5  -6   28.60    4.10
  -6  -5   6   27.70    3.30
  -6  -5   6   31.70    3.60
   6  -5  -6   27.50    4.00
   6   5  -6   25.20    3.80
  -6   5   6   27.10    3.70
   6   5  -6   35.40    3.90
  -6   5   6   37.40    4.50
   6   5  -6   26.70    3.70
   5  -5  -6    1.70    1.60
  -5  -5   6    0.30    1.30
   5  -5  -6   -0.10    1.60
  -5  -5   6   -0.60    1.10
   5   5  -6   -0.10    1.00
  -5   5   6    1.10    1.40
   5   5  -6    1.70    1.50
  -5   5   6   -1.10    1.30
   5   5  -6   -0.10    1.90
   4  -5  -6   -0.10    1.80
   4  -5  -6    2.50    1.70
  -4  -5   6    3.30    1.50
   4   5  -6    1.00    1.20
   4   5  -6    5.60    1.60
  -4   5   6    2.20    1.70
   4   5  -6    4.30    2.00
  -4   5   6    4.20    1.90
   3  -5  -6    7.30    2.10
  -3  -5   6    5.20    1.80
  -3   5   6    6.00    1.80
   3   5  -6    6.90    1.70
  -3   5   6    7.70    2.10
   3   5  -6    6.70    1.90
   2  -5  -6   47.80    4.50
   2  -5  -6   52.79    3.30
  -2  -5   6   47.70    4.40
  -2   5   6   51.79    3.30
  -2   5   6   57.49    4.40
   2   5  -6   56.99    3.40
   2   5  -6   46.00    4.20
   1  -5  -6  501.45   16.80
  -1  -5   6  531.55   18.10
   1  -5  -6  538.05   17.70
  -1   5   6  547.45   16.30
  -1   5   6  527.25   17.80
   1   5  -6  538.95   16.20
   1   5  -6  518.05   17.80
   0  -5  -6   86.69    4.80
   0  -5   6   81.59    5.30
   0  -5  -6   77.69    4.70
   0   5   6   87.19    5.20
   0   5  -6   82.89    5.10
  -1  -5  -6    5.90    1.90
  -1  -5  -6    8.00    1.90
   1  -5   6    1.90    2.30
   1   5   6    5.10    1.90
  -1   5  -6    5.40    2.00
  -2  -5  -6   49.20    3.70
  -2  -5  -6   50.69    4.90
   2  -5   6   54.99    5.50
   2   5   6   53.29    5.20
  -2   5  -6   57.19    5.20
   3  -5   6   12.80    3.10
  -3  -5  -6   16.90    3.30
  -3   5  -6    9.90    2.60
   3   5   6   10.70    2.70
  -4  -5  -6    4.60    2.20
   4  -5   6    1.00    2.00
  -4   5  -6    2.30    1.80
   4   5   6    4.50    2.30
  -5  -5  -6    2.60    2.20
   5  -5   6    1.70    2.10
  -5   5  -6    5.00    2.80
  -5   5  -6    4.80    2.30
   5   5   6    1.40    2.20
  -6  -5  -6   23.30    4.80
   6  -5   6   32.90    5.50
  -6   5  -6   25.30    4.50
  -6   5  -6   22.90    3.90
   6   5   6   30.70    5.40
  -9  -6   6   12.50    3.80
   9  -6  -6    6.20    3.00
   9  -6  -6    4.60    3.40
  -9   6   6   12.90    4.40
  -9   6   6   11.00    3.30
   9   6  -6   10.90    3.40
   9   6  -6    7.40    3.50
  -8  -6   6  332.27   14.00
   8  -6  -6  358.06   15.00
   8  -6  -6  339.77   15.20
   8   6  -6  327.57   14.20
  -8   6   6  338.07   15.00
  -8   6   6  321.97   14.60
   8   6  -6  378.86   16.00
   7  -6  -6   42.00    5.10
   7  -6  -6   33.60    5.10
  -7  -6   6   13.00    2.90
   7   6  -6   27.00    4.00
  -7   6   6   28.00    4.60
   7   6  -6   28.80    4.80
  -7   6   6   43.40    5.30
   6  -6  -6   47.40    5.60
   6  -6  -6   67.49    6.30
  -6  -6   6   60.89    5.30
   6   6  -6   58.09    4.60
  -6   6   6   58.69    5.80
   6   6  -6   56.09    5.70
  -6   6   6   66.79    6.00
   5  -6  -6  123.89    7.20
  -5  -6   6  129.59    6.80
   5  -6  -6  149.19    7.80
   5   6  -6  129.89    6.60
  -5   6   6  134.29    7.40
   5   6  -6  127.59    7.20
  -5   6   6  120.49    6.90
   4  -6  -6    4.20    1.70
  -4  -6   6    4.50    1.80
   4  -6  -6    3.30    1.90
  -4   6   6    3.30    1.80
   4   6  -6    1.90    1.90
   4   6  -6    1.60    1.90
  -4   6   6    5.10    2.10
   3  -6  -6   26.40    3.80
  -3  -6   6   30.90    3.90
   3   6  -6   31.90    3.60
   3   6  -6   30.50    3.40
  -3   6   6   27.50    3.50
  -2  -6   6  211.88    9.50
   2  -6  -6  223.18    8.20
   2  -6  -6  220.98    9.40
   2   6  -6  215.08    8.40
  -2   6   6  221.68    8.40
   2   6  -6  218.18    9.30
  -2   6   6  202.78    9.30
  -1  -6   6  225.08   10.20
   1  -6  -6  240.88    9.20
   1  -6  -6  234.18    9.80
   1   6  -6  251.07    8.80
  -1   6   6  244.38    8.80
  -1   6   6  244.78   10.30
   1   6  -6  242.68   10.00
   0  -6  -6  714.23   22.50
   0  -6  -6  709.73   22.50
   0  -6   6  692.53   23.40
   0   6   6  715.73   21.20
   0   6  -6  698.63   21.70
   0   6   6  711.73   23.10
   0   6  -6  695.63   23.00
  -1  -6  -6    0.20    1.40
  -1  -6  -6    3.40    1.80
   1  -6   6    0.90    1.70
   1   6   6    3.30    1.90
  -1   6  -6    0.50    1.50
  -2  -6  -6  284.67   11.90
   2  -6   6  300.77   12.60
  -2  -6  -6  294.97   10.70
   2   6   6  300.47   12.30
  -2   6  -6  266.57   11.70
  -3  -6  -6    2.10    1.90
   3  -6   6    5.90    3.10
  -3   6  -6    0.70    1.70
   3   6   6    2.00    2.00
   4  -6   6    1.50    2.00
  -4  -6  -6   -0.60    1.60
   4   6   6    0.30    1.80
  -4   6  -6    0.40    1.70
  -5  -6  -6    6.80    2.80
   5  -6   6    8.90    3.00
  -5   6  -6    7.70    3.10
  -5   6  -6   11.90    3.10
   5   6   6   10.30    3.10
   6  -6   6   31.80    5.20
  -6  -6  -6   36.20    5.40
  -6   6  -6   36.40    5.00
   6   6   6   40.80    6.00
  -6   6  -6   36.20    4.80
   8  -7  -6   62.79    6.90
   8  -7  -6   61.39    6.60
  -8   7   6   57.49    6.50
  -8   7   6   63.99    6.70
   8   7  -6   52.59    6.50
   7  -7  -6   17.60    4.20
   7  -7  -6   31.10    4.70
  -7   7   6   21.40    4.00
  -7   7   6   13.40    3.50
   7   7  -6   20.20    4.00
   6  -7  -6   19.70    3.70
   6  -7  -6   20.10    3.70
  -6  -7   6   20.50    3.50
  -6   7   6   20.20    4.20
   6   7  -6   18.60    3.80
  -6   7   6   20.40    3.50
   5  -7  -6    3.00    2.10
   5  -7  -6    4.20    2.00
  -5  -7   6    4.40    2.30
  -5   7   6    4.40    2.30
   5   7  -6    2.60    2.40
  -5   7   6    4.00    1.80
   5   7  -6    2.40    1.50
  -4  -7   6   12.60    2.70
   4  -7  -6   16.50    3.10
   4   7  -6   16.10    3.10
   4   7  -6   23.10    3.00
  -4   7   6   19.10    3.30
  -4   7   6   10.50    2.60
  -3  -7   6  172.98    8.70
   3  -7  -6  183.48    8.70
  -3   7   6  181.78    8.60
  -3   7   6  173.48    7.80
   3   7  -6  179.28    8.10
   3   7  -6  188.98    8.10
   2  -7  -6   98.89    4.90
   2  -7  -6   97.69    5.80
  -2  -7   6   90.69    5.80
  -2   7   6  100.59    5.10
   2   7  -6   85.69    5.00
  -2   7   6   96.29    6.20
   2   7  -6  102.09    5.80
   1  -7  -6   19.70    2.80
   1  -7  -6   19.70    2.90
  -1  -7   6   23.20    3.50
  -1   7   6   21.70    3.40
   1   7  -6   16.40    3.10
  -1   7   6   22.60    2.80
   1   7  -6   21.80    2.60
   0  -7   6   25.00    4.10
   0  -7  -6   36.90    4.00
   0  -7  -6   32.40    3.80
   0   7  -6   37.80    4.20
   0   7   6   35.30    4.20
   0   7  -6   36.70    3.40
   0   7   6   35.10    3.30
  -1  -7  -6    9.50    2.00
   1  -7   6    7.10    2.40
  -1  -7  -6    7.50    2.20
  -1   7  -6    9.60    2.50
   1   7   6   10.70    2.70
  -2  -7  -6   81.59    5.90
   2  -7   6   75.19    5.90
   2   7   6   82.99    5.80
  -2   7  -6   79.39    5.60
   3  -7   6   -1.10    1.80
  -3  -7  -6   -0.20    2.30
  -3   7  -6    2.30    1.90
   3   7   6    1.60    2.60
  -4  -7  -6   79.69    6.20
   4  -7   6   70.19    7.20
   4   7   6   72.89    7.10
  -4   7  -6   75.19    6.60
  -5  -7  -6    6.90    2.80
   5  -7   6    6.80    2.90
   5   7   6    5.20    2.70
  -5   7  -6   13.00    3.60
  -6  -7  -6    4.30    2.70
   6  -7   6    2.70    2.70
  -6   7  -6    5.90    2.70
  -6   7  -6    7.90    2.80
   6   7   6    8.00    3.80
   8  -8  -6    3.30    2.50
   8  -8  -6   -0.20    2.30
   8   8  -6   -1.70    1.70
  -8   8   6    0.70    2.40
  -8   8   6   -1.90    2.00
   7  -8  -6    8.50    3.00
   7  -8  -6    8.20    3.00
   7   8  -6    8.50    3.50
  -7   8   6   11.50    3.20
  -7   8   6   10.30    3.90
  -6  -8   6   49.00    5.30
   6  -8  -6   56.59    5.90
   6  -8  -6   44.90    5.50
  -6   8   6   53.89    5.80
   6   8  -6   41.60    5.10
  -6   8   6   56.49    5.70
  -5  -8   6  101.79    6.40
   5  -8  -6  112.19    7.20
  -5   8   6   91.59    6.10
  -5   8   6  111.39    7.40
   5   8  -6  102.59    6.50
  -4  -8   6    3.90    2.00
   4  -8  -6    4.50    2.20
  -4   8   6    0.00    1.80
   4   8  -6    4.80    2.00
   4   8  -6    4.80    2.20
  -4   8   6    2.00    1.60
   3  -8  -6   85.09    5.90
  -3  -8   6   77.19    5.70
   3   8  -6  116.89    6.20
  -3   8   6  100.39    5.80
   3   8  -6   94.29    5.80
  -3   8   6   92.59    6.50
   2  -8  -6   52.59    5.00
  -2  -8   6   45.50    5.10
  -2   8   6   53.89    5.50
   2   8  -6   50.39    4.70
   2   8  -6   50.69    3.70
  -1  -8   6    8.90    2.60
   1  -8  -6   12.00    2.80
   1  -8  -6    6.60    2.10
  -1   8   6   15.30    3.20
  -1   8   6   14.60    2.60
   1   8  -6    8.80    2.80
   1   8  -6   11.10    2.10
   0  -8  -6   24.70    3.30
   0  -8  -6   34.20    4.00
   0  -8   6   26.60    4.30
   0   8   6   30.40    3.30
   0   8  -6   30.50    3.20
   0   8   6   26.40    3.90
   0   8  -6   32.10    4.20
  -1  -8  -6   10.90    2.40
   1  -8   6   10.10    3.20
  -1  -8  -6    9.30    2.80
   1   8   6    6.70    2.40
  -1   8  -6    6.40    2.40
   2  -8   6  153.88    8.80
  -2  -8  -6  155.58    8.30
   2   8   6  167.28    8.80
  -2   8  -6  153.48    8.30
   3  -8   6   -0.40    1.90
  -3  -8  -6   -2.50    1.40
  -3   8  -6    2.00    2.70
   3   8   6    0.10    1.70
  -4  -8  -6   25.70    4.30
   4  -8   6   22.90    4.70
   4   8   6   23.30    4.30
  -4   8  -6   24.00    4.50
   5  -8   6   47.60    6.30
  -5  -8  -6   37.90    5.50
   5   8   6   48.50    6.50
  -5   8  -6   41.90    5.20
   8  -9  -6    0.30    2.30
   8  -9  -6    3.70    3.50
   8   9  -6    0.50    2.50
  -8   9   6   -1.90    2.20
  -8   9   6    0.60    2.50
  -7  -9   6    5.50    2.90
   7  -9  -6    8.10    3.10
   7   9  -6    7.70    3.70
  -7   9   6    4.80    2.70
  -7   9   6    2.30    2.50
   6  -9  -6   -0.50    1.90
  -6  -9   6   -3.30    2.10
  -6   9   6    2.50    2.80
  -6   9   6   -0.40    2.00
   6   9  -6   -0.60    1.80
  -5  -9   6   11.00    3.20
   5  -9  -6   11.20    3.60
  -5   9   6    7.60    3.00
  -5   9   6    9.70    3.00
   5   9  -6    6.90    2.40
   4  -9  -6    0.40    1.80
  -4  -9   6   -0.60    2.30
  -4   9   6    0.90    2.70
  -4   9   6    3.90    2.00
   4   9  -6    2.50    1.90
   4   9  -6    1.30    1.80
  -3  -9   6    5.10    2.80
   3  -9  -6    7.10    2.50
  -3   9   6    5.90    2.50
   3   9  -6    6.00    2.50
   3   9  -6    6.10    2.40
  -3   9   6    5.10    2.30
   2  -9  -6   65.99    5.10
  -2  -9   6   64.89    6.10
  -2   9   6   76.69    6.60
   2   9  -6   62.59    4.70
  -2   9   6   62.19    4.40
   2   9  -6   60.69    4.30
   1  -9  -6   38.20    4.00
   1  -9  -6   39.60    4.40
  -1  -9   6   44.70    5.40
  -1   9   6   45.10    5.30
   1   9  -6   40.20    4.50
   1   9  -6   35.30    3.70
  -1   9   6   36.30    4.00
   0  -9  -6    7.20    2.40
   0  -9   6    0.60    2.40
   0  -9  -6    4.10    2.20
   0   9  -6    5.50    2.10
   0   9  -6    5.20    2.20
   0   9   6    7.60    2.60
   0   9   6    2.90    2.00
   1  -9   6  146.89    8.50
  -1  -9  -6  139.49    7.70
  -1  -9  -6  154.08    7.30
   1   9   6  154.68    8.50
  -1   9  -6  143.89    8.40
  -2  -9  -6   40.90    4.80
   2  -9   6   30.10    4.60
   2   9   6   31.00    4.60
  -2   9  -6   43.20    5.30
  -3  -9  -6   -2.10    1.60
   3  -9   6    0.50    2.10
  -3   9  -6   -1.50    1.80
   3   9   6    1.40    2.10
   4  -9   6   -0.70    2.80
  -4  -9  -6    4.90    2.70
   4   9   6    0.20    3.20
  -4   9  -6    3.30    2.40
  -5  -9  -6    1.20    3.30
   5  -9   6    5.30    3.50
   5   9   6    6.80    3.10
  -5   9  -6    0.60    3.00
  -7 -10   6    0.70    2.30
   7 -10  -6    3.30    3.60
  -7  10   6   -2.10    3.20
  -7  10   6    3.60    2.50
   7  10  -6    4.60    3.40
  -6 -10   6    6.40    3.00
   6 -10  -6    5.50    2.90
   6  10  -6    0.00    2.10
  -6  10   6    5.60    3.20
  -6  10   6    7.20    3.10
   5 -10  -6  118.49    7.80
  -5 -10   6   97.19    7.40
  -5  10   6  122.29    7.70
  -5  10   6  110.09    7.90
   5  10  -6  119.09    7.40
  -4 -10   6   14.70    3.30
   4 -10  -6   10.40    3.40
  -4  10   6    9.70    2.70
  -4  10   6   17.30    3.70
   4  10  -6   11.50    2.70
  -3 -10   6    0.00    1.80
   3 -10  -6    2.70    2.80
  -3  10   6    0.90    2.10
   3  10  -6   -0.40    2.00
   3  10  -6    1.60    2.10
  -3  10   6    2.00    2.40
  -2 -10   6    0.90    2.40
   2 -10  -6    0.30    2.30
  -2  10   6   -0.80    2.00
   2  10  -6   -1.20    1.70
   2  10  -6    0.70    2.20
  -2  10   6    0.00    2.70
   1 -10  -6    6.60    2.30
  -1 -10   6    6.40    2.50
   1 -10  -6    6.70    2.30
  -1  10   6    8.90    2.50
   1  10  -6    8.10    2.50
  -1  10   6    6.70    2.60
   1  10  -6    4.00    2.10
   0 -10   6    1.40    2.00
   0 -10  -6    0.30    1.50
   0 -10  -6    1.70    2.10
   0  10  -6    1.00    1.90
   0  10   6   -1.70    1.60
   0  10  -6    0.60    1.90
   0  10   6    0.40    1.90
   1 -10   6   36.60    5.10
  -1 -10  -6   40.90    5.00
  -1  10  -6   47.40    5.30
   1  10   6   38.90    5.20
  -2 -10  -6    2.90    2.80
   2 -10   6    2.80    2.40
  -2  10  -6    1.00    2.00
   2  10   6    2.70    2.30
   3 -10   6   -0.10    2.10
  -3 -10  -6    2.70    2.20
   3  10   6    0.50    2.10
  -3  10  -6    2.70    2.50
   4 -10   6    3.90    3.50
  -4 -10  -6    0.50    2.20
   4  10   6    3.80    2.70
  -4  10  -6    2.60    3.20
   6 -11  -6   41.60    5.80
  -6 -11   6   31.90    5.20
  -6  11   6   32.10    4.80
  -6  11   6   35.00    5.30
   6  11  -6   48.20    5.90
   5 -11  -6    0.50    2.10
  -5 -11   6    4.70    2.60
   5  11  -6    5.10    2.50
  -5  11   6    4.20    2.70
  -5  11   6    3.30    2.30
  -4 -11   6   28.30    4.60
   4 -11  -6   29.40    4.90
  -4  11   6   31.20    4.30
   4  11  -6   22.00    3.80
  -4  11   6   23.60    4.20
   3 -11  -6   -1.40    2.40
  -3 -11   6   -0.40    1.90
  -3  11   6    0.30    2.10
   3  11  -6    0.40    1.60
   3  11  -6   -2.30    1.30
  -3  11   6    0.60    1.80
   2 -11  -6    1.20    2.50
  -2 -11   6    0.50    2.00
  -2  11   6   -0.20    1.50
   2  11  -6    3.50    2.00
  -2  11   6   -2.80    2.70
   2  11  -6    3.80    2.30
  -1 -11   6   18.80    3.90
   1 -11  -6   19.60    3.30
   1  11  -6   18.20    3.40
  -1  11   6   21.00    4.10
  -1  11   6   24.10    3.80
   1  11  -6   25.00    3.60
   0 -11  -6   53.29    5.20
   0 -11  -6   51.89    5.50
   0 -11   6   62.09    6.90
   0  11   6   70.39    6.70
   0  11  -6   50.49    5.50
   1 -11   6   22.40    4.80
  -1 -11  -6   17.30    3.80
   1  11   6   20.20    4.50
  -1  11  -6   20.40    4.00
   2 -11   6   25.20    5.00
  -2 -11  -6   22.60    4.50
   2  11   6   23.10    4.40
  -2  11  -6   15.60    3.70
   3 -11   6   18.90    4.70
  -3 -11  -6   24.10    4.40
  -3  11  -6   20.80    4.80
   3  11   6   20.50    4.30
   4 -11   6   60.89    7.10
  -4 -11  -6   36.80    5.60
   4  11   6   59.29    7.00
  -4  11  -6   44.70    6.30
  -6 -12   6    7.80    2.90
   6 -12  -6    8.90    3.50
   6  12  -6    9.70    3.80
  -6  12   6    5.30    3.10
  -6  12   6    3.50    2.70
  -5 -12   6    9.70    3.20
   5 -12  -6    7.10    3.70
  -5  12   6    7.50    2.90
   5  12  -6    7.80    3.30
  -5  12   6    8.40    3.30
  -4 -12   6    0.20    2.90
   4 -12  -6    0.80    2.30
   4  12  -6    2.30    2.60
  -4  12   6   -0.90    2.30
  -4  12   6   -3.20    2.50
   3 -12  -6    1.00    2.80
  -3 -12   6   -2.00    1.70
  -3  12   6    1.10    2.80
   3  12  -6    1.20    2.40
  -3  12   6    0.20    3.20
   3  12  -6    1.30    2.30
  -2 -12   6    5.60    2.80
   2 -12  -6    6.10    2.50
   2  12  -6    0.20    2.10
  -2  12   6    3.80    2.30
   2  12  -6    7.30    2.50
  -2  12   6    5.40    3.50
  -1 -12   6    7.50    3.60
   1 -12  -6    1.30    2.30
  -1  12   6    4.90    2.80
   1  12  -6    5.70    3.10
   1  12  -6    1.10    2.20
  -1  12   6    5.90    2.90
   0 -12   6    7.30    2.90
   0 -12  -6    7.70    3.00
   0  12   6    5.70    2.80
   0  12   6    6.40    2.80
   0  12  -6    7.60    2.90
   1 -12   6   54.19    6.50
  -1 -12  -6   47.30    5.50
  -1  12  -6   34.90    5.40
   1  12   6   50.99    6.10
   2 -12   6    1.70    2.40
  -2 -12  -6    2.40    3.00
  -2  12  -6    4.90    2.80
   2  12   6    5.30    3.50
   3 -12   6    0.80    2.50
  -3 -12  -6   -1.10    2.10
  -3  12  -6   -2.80    3.10
   3  12   6    5.40    3.00
  -5 -13   6    2.10    3.20
   5 -13  -6   -0.90    2.20
  -5  13   6    0.20    2.70
  -5  13   6    0.40    2.40
   5  13  -6   -0.40    2.10
   4 -13  -6    9.10    3.30
  -4 -13   6   10.40    4.00
  -4  13   6   13.80    3.80
  -4  13   6   11.00    3.30
   4  13  -6   18.00    4.10
   3 -13  -6   13.40    3.50
  -3 -13   6   25.70    5.20
  -3  13   6   14.00    3.40
  -3  13   6   14.80    3.80
   3  13  -6   17.00    3.80
   2 -13  -6    6.40    2.70
  -2 -13   6    6.10    2.90
   2  13  -6    9.40    3.10
   2  13  -6    9.30    3.40
  -2  13   6    5.90    3.90
  -2  13   6    5.30    3.10
   1 -13  -6   44.30    5.30
  -1 -13   6   42.60    6.30
   1  13  -6   38.90    5.00
  -1  13   6   37.30    4.80
   1  13  -6   39.80    5.40
  -1  13   6   33.20    5.10
   0 -13  -6    1.00    2.50
   0 -13   6    0.80    2.20
   0  13  -6    1.40    2.20
   0  13   6   -1.10    2.10
   1 -13   6   19.80    4.40
   1  13   6   18.10    4.90
  -1  13  -6   26.30    5.00
   2 -13   6    4.50    2.80
  -2 -13  -6   -0.70    2.60
  -2  13  -6    2.00    2.70
   2  13   6    4.70    2.80
   3 -14  -6    3.10    2.60
  -3 -14   6    1.30    3.10
  -3  14   6    0.60    2.70
  -3  14   6    2.80    3.50
   3  14  -6    5.60    3.10
  -2 -14   6   72.49    8.00
   2  14  -6   86.19    7.40
  -2  14   6   66.79    7.30
  -2  14   6   74.69    7.20
   2  14  -6   80.59    7.20
  -1 -14   6   67.69    8.00
  -1  14   6   77.39    8.00
  -1  14   6   67.89    6.60
   1  14  -6   71.89    7.20
   0 -14   6   26.30    5.00
   0  14  -6   21.10    4.20
   0  14   6   17.30    4.30
  -1 -14  -6    1.00    2.20
   1 -14   6   -1.10    2.10
   1  14   6   -1.00    2.50
  -1  14  -6   -2.60    3.00
  -9   0   7   -2.00    2.60
   9   0  -7    3.40    2.60
   8   0  -7    1.30    2.80
  -8   0   7   -0.20    1.70
   8   0  -7    3.00    2.60
  -7   0   7    5.60    2.30
   7   0  -7    6.20    2.40
   7   0  -7    6.90    2.80
   6   0  -7    0.70    2.20
   6   0  -7    3.20    2.30
  -6   0   7    1.00    2.00
   5   0  -7   -1.20    1.40
   5   0  -7    0.40    1.70
  -5   0   7   -0.40    1.60
  -4   0   7    1.10    1.20
   4   0  -7    1.10    1.50
   4   0  -7   -1.10    1.20
  -4   0   7   -0.40    1.00
   3   0  -7  738.73   22.60
  -3   0   7  811.22   23.40
   3   0  -7  776.42   24.70
  -3   0   7  748.43   23.30
   2   0  -7    1.20    1.40
  -2   0   7    0.00    1.20
  -2   0   7    0.70    1.10
  -1   0   7  121.69    5.50
  -1   0   7  139.09    6.70
   1   0  -7  134.89    6.90
   0   0   7    0.80    1.10
   0   0  -7    0.00    1.20
   0   0   7    0.30    1.90
  -1   0  -7    1.90    2.00
   1   0   7    1.50    1.50
   1   0   7    0.20    2.20
  -1   0  -7    0.00    1.80
  -2   0  -7    1.20    1.90
   2   0   7   -1.10    2.30
  -2   0  -7   -2.40    1.80
   2   0   7    0.40    1.40
  -3   0  -7    7.10    2.70
  -3   0  -7    4.30    2.20
   3   0   7   -0.30    2.50
  -4   0  -7    0.50    1.80
  -4   0  -7   -0.50    1.80
   4   0   7   -1.90    1.70
   5   0   7    6.10    2.90
  -5   0  -7    1.10    2.00
  -6   0  -7   -4.30    1.30
  -9  -1   7   -0.10    2.60
   9  -1  -7    1.00    2.20
   9   1  -7    5.10    3.30
  -9   1   7   -0.80    2.10
   8  -1  -7   51.09    6.20
  -8  -1   7   49.80    5.70
   8  -1  -7   47.80    5.40
  -8   1   7   54.59    5.80
   8   1  -7   56.59    6.40
   7  -1  -7    1.50    1.80
  -7  -1   7    0.90    2.20
   7  -1  -7    1.00    1.70
   7   1  -7    2.10    1.70
   7   1  -7    6.60    2.80
  -7   1   7    0.70    2.40
   6  -1  -7    0.40    1.50
   6  -1  -7    0.50    1.60
  -6  -1   7    4.80    1.80
   6   1  -7    2.40    1.70
  -6   1   7    1.80    1.70
   6   1  -7    3.10    1.80
   5  -1  -7   21.30    3.30
   5  -1  -7   17.90    3.00
  -5   1   7   17.90    3.10
   5   1  -7   19.70    3.10
   5   1  -7   21.60    3.20
  -4  -1   7   65.59    3.90
  -4  -1   7   60.19    3.70
   4  -1  -7   54.59    3.80
   4  -1  -7   54.39    5.20
  -4   1   7   54.09    4.10
   4   1  -7   61.49    3.90
   4   1  -7   57.29    4.40
   3  -1  -7   14.70    2.00
  -3  -1   7   11.80    2.30
  -3  -1   7   14.60    2.10
   3  -1  -7   16.60    2.80
  -3   1   7   13.20    1.80
   3   1  -7   13.10    2.60
   3   1  -7   14.00    1.90
  -3   1   7   15.20    2.20
  -3   1   7    9.20    1.90
  -2  -1   7   41.20    2.80
  -2  -1   7   51.59    3.80
   2  -1  -7   41.40    3.00
   2  -1  -7   39.70    4.30
   2   1  -7   45.20    4.30
  -2   1   7   43.10    3.70
  -2   1   7   37.80    3.50
   1  -1  -7   45.10    4.30
  -1  -1   7   49.20    4.50
   1  -1  -7   48.40    3.50
  -1  -1   7   48.80    2.90
  -1   1   7   52.09    3.30
   1   1  -7   40.40    4.20
  -1   1   7   47.90    3.70
   0  -1  -7    1.30    1.40
   0  -1  -7    0.70    1.70
   0  -1   7   -0.10    1.40
   0   1   7   -0.10    1.30
   0   1  -7   -0.30    1.20
   0   1   7   -1.00    1.70
   1  -1   7    8.60    2.50
  -1  -1  -7    7.80    2.20
  -1  -1  -7    6.40    2.00
   1   1   7    6.10    1.80
   1   1   7   10.60    2.60
  -1   1  -7    7.90    2.10
  -2  -1  -7    0.20    1.40
  -2  -1  -7    0.60    1.40
   2  -1   7    0.10    1.60
  -2   1  -7    2.50    1.60
  -2   1  -7    2.00    1.60
   2   1   7    2.40    2.00
   2   1   7   -0.50    1.40
   3  -1   7  179.28    9.50
  -3  -1  -7  165.48    7.90
  -3  -1  -7  156.18    8.50
  -3   1  -7  164.58    7.90
  -3   1  -7  154.38    8.70
   3   1   7  166.48    7.80
   3   1   7  179.38    9.20
   4  -1   7    7.50    2.90
  -4  -1  -7    7.40    3.10
   4   1   7    4.20    1.90
   4   1   7   15.60    3.70
  -4   1  -7    8.30    2.30
  -4   1  -7    7.20    2.50
   5  -1   7    1.70    2.40
  -5  -1  -7    0.70    2.70
  -5   1  -7   -0.30    1.90
  -6  -1  -7    9.60    3.80
  -6   1  -7    5.40    3.40
  -9  -2   7   75.59    7.20
   9  -2  -7   59.19    6.80
  -9   2   7   66.19    6.90
   9   2  -7   79.79    8.10
  -8  -2   7   -3.70    2.10
   8  -2  -7    1.70    2.80
   8  -2  -7    2.60    2.10
   8   2  -7    3.80    3.10
  -8   2   7   -1.10    2.60
   7  -2  -7    5.10    2.80
   7  -2  -7   -0.40    2.40
  -7  -2   7   -0.70    1.90
   7   2  -7   -0.30    1.60
   7   2  -7    2.80    2.20
  -7   2   7    3.20    2.20
   6  -2  -7   24.70    3.70
  -6  -2   7   23.10    3.30
   6  -2  -7   23.70    3.50
  -6   2   7   21.20    3.70
   6   2  -7   28.80    3.80
   6   2  -7   21.80    3.20
   5  -2  -7    4.50    1.70
   5  -2  -7    2.80    1.90
   5   2  -7    4.20    1.90
   5   2  -7    3.60    1.80
  -5   2   7    1.80    1.60
  -4  -2   7   96.59    5.10
  -4  -2   7  104.29    5.10
   4  -2  -7  109.89    5.50
   4  -2  -7   93.29    6.10
   4   2  -7  105.49    5.30
  -4   2   7   98.79    5.10
   4   2  -7  106.09    6.00
  -4   2   7   99.59    5.60
   3  -2  -7   87.09    4.30
  -3  -2   7   86.69    4.20
   3  -2  -7   85.19    4.20
   3  -2  -7   86.19    5.40
  -3  -2   7   88.29    4.80
  -3   2   7   87.39    4.20
   3   2  -7  101.59    5.90
  -3   2   7   80.39    4.20
  -3   2   7   79.09    4.90
   3   2  -7   83.49    4.20
  -2  -2   7   63.09    4.40
   2  -2  -7   55.99    4.30
   2  -2  -7   50.59    3.50
  -2   2   7   61.09    3.90
   2   2  -7   51.29    4.80
   1  -2  -7  217.88    8.70
   1  -2  -7  219.88    9.30
  -1  -2   7  217.78    9.30
  -1   2   7  211.98    8.90
   1   2  -7  221.78    9.30
   0  -2   7    1.70    1.70
   0  -2  -7    1.70    1.90
   0  -2  -7    1.50    1.40
   0   2   7    0.20    1.30
   0   2   7    1.10    1.50
   0   2  -7    2.80    2.00
  -1  -2  -7  121.29    6.60
  -1  -2  -7  123.29    6.30
   1  -2   7  125.79    7.10
   1   2   7  109.49    5.90
   1   2   7  124.59    6.90
  -1   2  -7  134.79    6.80
  -2  -2  -7  188.78    9.40
  -2  -2  -7  209.18    8.90
   2  -2   7  230.28   10.40
   2   2   7  217.18   10.10
  -2   2  -7  222.88    9.50
  -3  -2  -7    1.80    1.80
   3  -2   7    0.70    1.90
  -3  -2  -7    2.60    1.90
   3   2   7    1.40    2.00
  -3   2  -7    3.40    2.00
  -3   2  -7    1.60    1.60
   3   2   7    1.60    1.60
   4  -2   7   27.00    4.40
  -4  -2  -7   26.60    4.50
  -4   2  -7   24.70    3.50
   4   2   7   27.60    3.80
  -4   2  -7   23.00    3.90
   5  -2   7    0.80    3.10
  -5  -2  -7    2.80    2.80
  -5   2  -7    1.80    2.80
   5   2   7   -2.00    2.10
   6  -2   7   30.90    5.20
  -6  -2  -7   40.80    5.60
  -6   2  -7   42.30    5.70
  -9  -3   7    1.30    2.10
   9  -3  -7   -1.40    2.20
  -9   3   7    1.60    3.20
   9   3  -7    3.10    2.60
   9   3  -7    2.70    2.40
  -8  -3   7   -1.40    2.30
   8  -3  -7    3.50    3.00
   8  -3  -7    1.30    2.00
   8   3  -7    5.60    3.20
  -8   3   7    1.30    2.10
   7  -3  -7   26.10    4.00
   7  -3  -7   26.00    4.00
  -7  -3   7   25.10    3.60
  -7   3   7   21.40    3.80
   7   3  -7   26.50    4.00
   6  -3  -7    0.30    1.70
  -6  -3   7    0.30    1.60
   6  -3  -7   -2.90    1.70
   6   3  -7    0.70    2.10
  -6   3   7   -0.60    1.50
   6   3  -7    2.80    2.10
  -5  -3   7   14.60    2.50
   5  -3  -7    9.40    2.20
  -5  -3   7   11.70    2.20
   5  -3  -7   12.50    2.80
  -5   3   7   13.60    3.10
  -5   3   7   12.00    2.20
   5   3  -7   10.70    2.60
   5   3  -7   10.50    2.50
   4  -3  -7  117.89    5.80
  -4  -3   7  100.59    5.60
   4  -3  -7  108.89    6.40
   4   3  -7  112.59    6.20
  -4   3   7  114.19    5.60
   4   3  -7  105.69    5.50
  -4   3   7  104.09    5.90
  -3  -3   7  186.28    8.00
   3  -3  -7  186.18    8.60
   3  -3  -7  181.58    7.20
   3   3  -7  166.78    8.40
  -3   3   7  192.28    8.30
  -3   3   7  192.08    7.20
   3   3  -7  183.48    7.10
   2  -3  -7    0.60    2.00
   2  -3  -7    0.20    1.20
  -2  -3   7    1.10    1.70
   2   3  -7   -0.80    1.80
  -2   3   7    0.60    1.40
  -2   3   7    0.30    1.20
   1  -3  -7    2.00    1.60
   1  -3  -7    2.40    2.10
  -1  -3   7    0.80    1.40
  -1   3   7    2.70    1.50
   1   3  -7    0.80    1.40
  -1   3   7    4.40    1.90
   0  -3   7    3.20    1.90
   0  -3  -7    5.50    2.30
   0  -3  -7    2.00    1.50
   0   3   7    3.80    1.60
   0   3  -7    3.70    1.80
   0   3   7    3.20    1.80
  -1  -3  -7  488.15   16.80
   1  -3   7  500.65   18.10
  -1  -3  -7  506.85   17.40
   1   3   7  500.05   17.70
   1   3   7  464.85   16.70
  -1   3  -7  508.85   17.40
  -2  -3  -7   50.19    3.80
  -2  -3  -7   45.80    4.80
   2  -3   7   33.30    4.50
   2   3   7   31.50    4.00
  -2   3  -7   35.20    4.10
  -3  -3  -7   48.30    5.20
   3  -3   7   52.29    5.70
  -3  -3  -7   56.29    4.80
  -3   3  -7   51.39    5.00
   3   3   7   59.89    4.60
  -3   3  -7   39.60    4.90
   4  -3   7   -0.70    2.60
  -4  -3  -7    2.10    2.80
  -4   3  -7    5.40    2.80
  -4   3  -7    1.20    1.70
   4   3   7    2.70    2.40
   5  -3   7    3.60    2.70
  -5  -3  -7    4.00    2.40
  -5   3  -7    2.30    2.50
   5   3   7   10.60    3.00
  -5   3  -7    7.60    2.70
   6  -3   7    0.10    3.10
  -6  -3  -7    2.00    2.30
   6   3   7    9.70    3.50
  -6   3  -7   -2.20    2.60
   9  -4  -7   31.20    5.10
   9  -4  -7   24.60    4.80
  -9  -4   7   22.80    4.30
   9   4  -7   29.50    5.50
   9   4  -7   29.10    4.80
  -9   4   7   22.50    5.10
  -9   4   7   28.90    4.70
   8  -4  -7    0.30    2.60
   8  -4  -7   -1.50    1.70
  -8  -4   7    0.00    2.30
   8   4  -7    0.60    1.90
  -8   4   7   -0.10    2.90
   8   4  -7   -1.70    2.00
  -8   4   7    1.60    2.00
  -7  -4   7    8.60    2.50
   7  -4  -7   16.90    3.40
   7  -4  -7   17.50    3.60
   7   4  -7   22.30    3.70
  -7   4   7   15.90    3.80
  -7   4   7   17.60    3.30
   7   4  -7   14.90    3.20
   6  -4  -7   39.70    4.50
   6  -4  -7   47.60    5.40
   6   4  -7   37.60    4.10
  -6   4   7   33.70    4.00
  -6   4   7   39.20    5.00
   6   4  -7   41.20    4.80
   5  -4  -7    3.70    1.70
  -5  -4   7    5.30    1.90
   5  -4  -7    5.40    2.80
   5   4  -7    3.60    1.60
  -5   4   7    4.10    1.70
   5   4  -7    3.00    2.20
  -5   4   7    3.10    1.90
   4  -4  -7   47.60    4.30
  -4  -4   7   52.19    4.60
   4  -4  -7   47.80    4.90
  -4   4   7   58.99    5.30
   4   4  -7   59.79    5.20
   4   4  -7   51.09    3.90
  -4   4   7   47.20    3.70
  -3  -4   7  198.68    8.60
   3  -4  -7  190.48    9.10
   3   4  -7  184.78    8.60
   3   4  -7  195.58    7.60
  -3   4   7  204.08    7.60
  -3   4   7  182.58    8.60
  -2  -4   7  175.28    8.20
   2  -4  -7  176.48    7.10
   2  -4  -7  174.28    8.20
  -2   4   7  159.58    7.80
   2   4  -7  172.88    8.10
  -1  -4   7   42.50    4.50
   1  -4  -7   42.60    4.20
   1   4  -7   47.10    4.50
  -1   4   7   44.90    4.20
   0  -4  -7   27.00    3.30
   0  -4   7   32.70    4.10
   0  -4  -7   32.30    3.90
   0   4   7   27.00    3.60
   0   4  -7   23.50    3.40
   1  -4   7 1253.47   38.70
  -1  -4  -7 1279.17   37.30
  -1  -4  -7 1262.57   37.90
  -1   4  -7 1202.38   37.80
   1   4   7 1232.88   37.50
  -2  -4  -7   73.49    4.90
  -2  -4  -7   69.19    5.20
   2  -4   7   68.79    6.60
  -2   4  -7   86.09    5.60
   2   4   7   77.79    5.30
  -3  -4  -7   10.60    3.30
   3  -4   7    8.60    2.80
  -3   4  -7    5.60    2.70
   3   4   7   11.80    2.80
   4  -4   7    3.20    2.40
  -4  -4  -7    2.60    2.80
  -4   4  -7    4.30    2.60
   4   4   7    5.00    2.40
  -4   4  -7    4.30    2.30
   5  -4   7    4.20    3.40
  -5  -4  -7    2.00    2.10
  -5   4  -7   -3.70    2.00
   5   4   7   -0.60    2.60
  -5   4  -7    1.30    1.90
   8  -5  -7   11.10    3.70
   8  -5  -7   -0.20    1.90
   8   5  -7   -0.30    2.00
  -8   5   7    7.00    2.70
  -8   5   7    4.50    2.80
   7  -5  -7   16.90    3.70
   7  -5  -7   12.40    3.60
  -7   5   7   15.60    3.50
   7   5  -7   17.30    3.80
  -7   5   7   18.60    3.90
   6  -5  -7    9.90    3.00
   6  -5  -7   10.40    2.90
  -6   5   7    3.10    2.60
   6   5  -7   11.20    3.00
   6   5  -7   -0.30    0.80
  -6   5   7    4.90    2.30
   5  -5  -7    4.80    2.30
   5  -5  -7    7.10    3.00
  -5  -5   7    4.10    2.10
  -5   5   7    3.90    2.10
  -5   5   7    6.50    2.80
   5   5  -7    4.90    1.90
   5   5  -7   10.10    2.60
   4  -5  -7    0.50    1.70
   4  -5  -7    4.20    2.00
  -4  -5   7   -1.40    1.60
   4   5  -7    0.60    1.50
  -4   5   7   -1.80    2.00
  -4   5   7   -2.00    1.30
   4   5  -7    1.70    1.60
   3  -5  -7  170.18    8.70
  -3  -5   7  198.68    8.80
   3   5  -7  187.18    7.70
   3   5  -7  189.38    8.70
  -3   5   7  195.88    7.70
  -3   5   7  199.38    9.10
   2  -5  -7  628.34   20.90
  -2  -5   7  592.24   20.80
   2  -5  -7  634.74   19.30
  -2   5   7  636.04   20.70
   2   5  -7  593.74   20.60
  -1  -5   7   24.20    3.50
   1  -5  -7   20.40    3.10
  -1   5   7   19.40    3.10
   1   5  -7   21.20    3.60
   0  -5  -7   94.79    5.80
   0  -5   7  106.19    6.60
   0  -5  -7  102.89    6.10
   0   5  -7  106.49    6.60
   0   5   7  106.49    6.30
  -1  -5  -7   49.20    4.50
   1  -5   7   46.10    5.20
  -1  -5  -7   54.19    5.20
  -1   5  -7   50.39    5.10
   1   5   7   55.09    5.30
  -2  -5  -7   -0.70    1.60
   2  -5   7    0.80    1.90
  -2  -5  -7    2.30    1.90
  -2   5  -7   -0.50    1.60
   2   5   7    1.70    2.30
  -3  -5  -7    4.30    2.80
   3  -5   7    1.90    2.80
  -3   5  -7    2.10    2.00
   3   5   7    6.60    2.80
   4  -5   7   14.10    4.10
  -4  -5  -7   22.20    4.40
  -4   5  -7   25.50    3.90
   4   5   7   20.50    4.20
   5  -5   7    7.20    3.00
  -5  -5  -7    3.00    2.50
   5   5   7    6.80    3.50
  -5   5  -7    4.40    2.70
  -5   5  -7    4.50    3.10
   8  -6  -7    5.00    2.80
   8  -6  -7    5.20    2.80
   8   6  -7    2.40    3.00
  -8   6   7   -1.00    2.10
  -8   6   7    6.20    2.70
   7  -6  -7  104.09    7.40
   7  -6  -7  104.59    7.60
  -7   6   7  107.59    7.40
  -7   6   7  106.59    7.80
   7   6  -7  102.09    7.50
   6  -6  -7    4.10    2.40
   6  -6  -7    4.30    2.10
  -6   6   7    4.70    2.10
   6   6  -7    2.90    2.50
  -6   6   7    4.00    2.40
  -5  -6   7    0.60    1.70
   5  -6  -7   -0.50    1.50
   5  -6  -7   -2.00    1.50
  -5   6   7    1.40    1.80
   5   6  -7    1.00    2.10
  -5   6   7    0.70    1.50
   5   6  -7   -1.00    1.80
  -4  -6   7   22.10    3.60
   4  -6  -7   20.00    3.50
   4   6  -7   17.90    2.80
   4   6  -7   20.30    3.20
  -4   6   7   22.60    3.50
  -3  -6   7   21.20    3.60
   3  -6  -7   21.70    3.60
  -3   6   7   25.20    3.90
   3   6  -7   21.30    2.90
  -3   6   7   31.50    3.30
   3   6  -7   20.60    3.50
   2  -6  -7  150.88    6.60
  -2  -6   7  147.29    7.70
   2  -6  -7  145.19    7.60
  -2   6   7  138.49    7.40
   2   6  -7  140.29    7.70
   1  -6  -7  212.08    9.50
   1  -6  -7  271.77   10.80
  -1  -6   7  281.77   11.50
   1   6  -7  247.28   10.70
  -1   6   7  268.87   11.20
   0  -6  -7   17.60    3.20
   0  -6  -7   15.40    3.10
   0  -6   7   12.10    3.50
   0   6   7   11.70    3.10
   0   6  -7   14.50    2.90
  -1  -6  -7   81.29    5.10
  -1  -6  -7   64.69    5.00
   1  -6   7   59.99    6.40
  -1   6  -7   72.49    5.40
   1   6   7   72.59    5.30
   2  -6   7   62.09    6.30
  -2  -6  -7   63.39    6.00
  -2   6  -7   61.89    5.80
   2   6   7   64.09    6.20
  -3  -6  -7    0.90    1.90
   3  -6   7    2.50    2.30
   3   6   7    0.80    1.90
  -3   6  -7   -0.40    1.70
   4  -6   7    3.80    2.60
  -4  -6  -7    0.90    2.80
  -4   6  -7    1.50    2.10
   4   6   7    0.50    2.00
   5  -6   7    1.80    2.50
  -5  -6  -7   -0.40    2.80
  -5   6  -7   -0.60    2.60
  -5   6  -7   -0.90    1.90
   5   6   7    1.80    3.00
   8  -7  -7   22.00    4.40
   8  -7  -7   27.80    4.70
  -8   7   7   39.20    5.90
  -8   7   7   23.40    4.30
   8   7  -7   31.70    5.40
   7  -7  -7   66.69    7.30
   7  -7  -7   83.79    7.60
  -7   7   7   83.79    7.60
   7   7  -7   76.99    7.30
  -7   7   7   73.89    6.90
   6  -7  -7   -0.70    2.00
   6  -7  -7    0.90    2.00
  -6  -7   7    1.60    1.50
   6   7  -7    1.40    1.90
  -6   7   7    1.00    2.10
  -6   7   7    0.00    1.70
   5  -7  -7    3.70    2.40
  -5  -7   7    9.50    2.80
  -5   7   7    9.30    3.00
  -5   7   7   11.40    2.90
   5   7  -7    9.70    2.40
   5   7  -7    4.10    2.50
  -4  -7   7    1.80    2.20
   4  -7  -7    1.70    2.00
  -4   7   7   -0.80    1.70
   4   7  -7    0.20    1.50
   4   7  -7    1.40    1.40
  -4   7   7    2.00    1.90
  -3  -7   7    2.30    2.40
   3  -7  -7    2.90    1.90
   3   7  -7    2.70    1.60
  -3   7   7    5.20    2.70
   3   7  -7    1.70    2.30
  -3   7   7    4.00    2.00
   2  -7  -7  254.17   11.00
  -2  -7   7  254.27   11.30
  -2   7   7  252.17   11.30
   2   7  -7  267.47   11.20
  -1  -7   7   -0.90    2.10
   1  -7  -7   -0.70    2.00
   1  -7  -7    0.90    1.60
   1   7  -7    0.20    1.60
  -1   7   7   -1.40    1.50
   0  -7   7    8.50    2.70
   0  -7  -7    2.30    2.10
   0  -7  -7    7.00    2.50
   0   7   7    5.40    2.80
   0   7  -7    5.30    2.30
  -1  -7  -7    5.20    1.80
   1  -7   7    1.60    2.10
  -1  -7  -7    3.70    2.00
   1   7   7    1.50    2.00
  -1   7  -7    0.20    1.70
   2  -7   7   -1.60    1.80
  -2  -7  -7    0.70    2.30
  -2   7  -7    0.20    1.80
   2   7   7   -0.10    1.80
   3  -7   7   19.30    4.10
  -3  -7  -7   23.20    4.00
   3   7   7   18.80    3.70
  -3   7  -7   27.60    4.20
   4  -7   7   71.39    7.60
  -4  -7  -7   77.19    7.60
   4   7   7   85.89    7.70
  -4   7  -7   75.69    7.00
  -5  -7  -7   11.90    4.10
   5  -7   7    9.40    3.40
  -5   7  -7   15.10    3.60
  -5   7  -7   15.00    4.20
   5   7   7   12.60    4.10
   8  -8  -7   -1.90    1.90
   8  -8  -7    2.90    3.30
  -8   8   7    4.10    2.60
  -8   8   7    1.20    2.70
   8   8  -7    3.90    2.50
   7  -8  -7    0.30    2.20
   7  -8  -7    4.10    2.70
   7   8  -7    1.80    2.20
  -7   8   7    0.80    3.20
  -7   8   7   -1.30    1.90
  -6  -8   7   -1.50    2.00
   6  -8  -7    1.80    2.30
  -6   8   7    0.00    2.50
   6   8  -7   -0.60    2.30
  -6   8   7    0.20    2.20
  -5  -8   7   11.00    2.90
   5  -8  -7    9.00    2.90
   5   8  -7    9.10    2.50
  -5   8   7   16.20    4.10
  -5   8   7    6.30    2.80
   5   8  -7    4.30    1.80
  -4  -8   7    7.10    2.80
   4  -8  -7    3.00    2.20
   4   8  -7    7.70    2.60
  -4   8   7    3.50    2.30
   4   8  -7    1.80    2.30
  -4   8   7    9.20    2.60
   3  -8  -7   -2.60    2.30
  -3  -8   7   -0.40    2.30
   3   8  -7    1.50    1.70
  -3   8   7   -0.40    1.60
   3   8  -7   -1.00    1.40
  -3   8   7   -0.80    2.50
   2  -8  -7   12.90    2.90
  -2  -8   7    7.60    2.40
  -2   8   7   10.80    3.00
   2   8  -7    6.30    2.30
  -1  -8   7   32.50    4.80
   1  -8  -7   37.80    4.30
   1  -8  -7   34.90    3.80
  -1   8   7   43.00    5.30
   1   8  -7   31.60    4.20
   0  -8   7   24.60    4.10
   0  -8  -7   26.60    3.80
   0  -8  -7   24.30    3.70
   0   8   7   26.00    4.30
   0   8  -7   30.70    4.20
  -1  -8  -7   31.70    3.70
  -1  -8  -7   21.70    3.90
   1  -8   7   30.40    4.70
   1   8   7   32.30    4.50
  -1   8  -7   26.80    4.10
   2  -8   7    2.10    2.30
  -2  -8  -7    2.20    2.00
  -2   8  -7    1.00    2.10
   2   8   7    2.00    2.20
   3  -8   7    2.50    2.50
  -3  -8  -7   -0.90    1.90
   3   8   7   -1.00    2.00
  -3   8  -7    2.00    3.00
  -4  -8  -7   58.59    6.80
   4  -8   7   58.19    6.90
  -4   8  -7   48.70    6.20
   4   8   7   57.59    6.80
   7  -9  -7    9.10    4.00
  -7   9   7    2.30    2.60
   7   9  -7    8.00    3.40
  -7   9   7    5.30    2.80
  -6  -9   7    8.20    2.70
   6  -9  -7    9.60    3.90
  -6   9   7    5.80    3.70
  -6   9   7    8.70    3.30
   6   9  -7    9.90    3.40
  -5  -9   7  115.89    7.60
   5  -9  -7  123.89    8.00
  -5   9   7  100.69    7.00
  -5   9   7  108.49    7.50
   5   9  -7  109.79    7.20
  -4  -9   7  101.99    6.80
   4  -9  -7  100.79    7.00
  -4   9   7   92.79    6.30
  -4   9   7   99.19    7.40
   4   9  -7   95.39    6.40
   4   9  -7   92.69    6.00
  -3  -9   7    3.30    2.20
   3  -9  -7    0.40    2.60
  -3   9   7   -1.80    2.60
   3   9  -7    2.50    1.60
  -3   9   7    0.70    1.50
   3   9  -7    0.60    2.30
  -2  -9   7   28.10    4.40
   2  -9  -7   40.00    5.00
   2   9  -7   45.20    5.10
  -2   9   7   30.30    4.40
   1  -9  -7    2.60    2.50
  -1  -9   7    1.10    1.90
   1  -9  -7    1.30    1.70
   1   9  -7   -0.90    1.60
  -1   9   7    0.70    2.10
   0  -9  -7   17.60    3.10
   0  -9  -7   18.50    3.10
   0  -9   7   21.10    4.40
   0   9   7   12.50    3.20
   0   9  -7   18.80    4.10
  -1  -9  -7   29.00    4.20
   1  -9   7   30.00    4.70
  -1   9  -7   27.10    4.30
   1   9   7   28.10    4.30
  -2  -9  -7    6.60    3.10
   2  -9   7   10.80    3.40
   2   9   7   12.60    3.30
  -2   9  -7    6.50    3.40
  -3  -9  -7   10.70    3.10
   3  -9   7   11.00    3.40
  -3   9  -7    8.90    3.00
   3   9   7    5.90    3.40
   4  -9   7   44.30    6.20
  -4  -9  -7   55.89    6.80
  -4   9  -7   65.29    6.90
   4   9   7   48.90    6.30
   7 -10  -7   -1.90    2.10
  -7  10   7    0.90    2.60
  -7  10   7    0.70    2.30
   7  10  -7    3.10    3.00
  -6 -10   7   -1.10    1.60
   6 -10  -7   -0.80    2.30
   6  10  -7   -4.40    2.00
  -6  10   7    3.60    3.10
  -6  10   7   -2.10    2.20
   5 -10  -7   22.40    4.70
  -5 -10   7   23.50    4.00
  -5  10   7   10.60    3.50
   5  10  -7   18.90    3.80
  -5  10   7   15.90    3.80
  -4 -10   7   34.50    4.80
   4 -10  -7   25.00    4.30
   4  10  -7   34.60    4.30
  -4  10   7   24.90    4.50
   4  10  -7   31.40    4.10
  -4  10   7   29.70    4.40
  -3 -10   7    3.00    2.80
   3 -10  -7    2.30    2.10
   3  10  -7    0.40    2.40
   3  10  -7    1.90    1.60
  -3  10   7    2.20    2.30
  -3  10   7    1.10    1.70
   2 -10  -7   33.50    4.50
  -2 -10   7   31.00    4.70
  -2  10   7   35.90    4.90
   2  10  -7   36.00    4.50
   1 -10  -7   36.40    4.50
  -1 -10   7   29.40    4.80
  -1  10   7   32.60    5.10
   1  10  -7   24.30    4.40
   0 -10  -7  124.19    7.00
   0 -10  -7  123.99    7.40
   0 -10   7  124.49    8.20
   0  10  -7  127.09    7.80
   0  10   7  114.09    7.70
   1 -10   7   10.20    3.80
   1  10   7   -0.80    2.00
  -1  10  -7    8.70    2.80
  -2 -10  -7   16.00    4.00
   2 -10   7   13.40    3.80
   2  10   7   13.50    3.60
  -2  10  -7   19.90    4.00
  -3 -10  -7   26.70    4.60
   3 -10   7   22.10    4.60
   3  10   7   27.30    5.20
  -3  10  -7   40.40    5.90
  -6 -11   7    1.30    2.20
   6 -11  -7    4.40    3.70
   6  11  -7    9.00    3.50
  -6  11   7    0.70    3.30
  -6  11   7    2.80    3.20
   5 -11  -7   -1.20    2.10
  -5 -11   7   -1.60    1.80
   5  11  -7    3.00    2.10
  -5  11   7    0.80    3.50
  -5  11   7   -2.50    2.60
   4 -11  -7   12.00    3.40
  -4 -11   7    6.00    3.30
  -4  11   7   11.00    2.90
   4  11  -7   13.40    3.00
  -4  11   7   11.90    3.60
  -3 -11   7    6.30    3.40
   3 -11  -7   13.00    3.30
   3  11  -7   14.20    3.10
  -3  11   7   13.30    3.60
   3  11  -7   12.50    3.00
  -3  11   7    7.30    2.90
   2 -11  -7    5.90    2.50
  -2 -11   7    9.00    3.60
  -2  11   7    3.30    2.70
   2  11  -7    2.50    2.80
  -1 -11   7   18.10    4.10
   1 -11  -7   16.50    3.60
   1  11  -7   14.60    3.40
  -1  11   7   20.90    4.20
   0 -11  -7   83.59    6.00
   0 -11   7   89.99    8.30
   0  11   7   91.09    7.10
   0  11  -7   97.09    8.30
   1 -11   7   36.90    5.50
  -1 -11  -7   27.80    4.60
   1  11   7   51.59    6.60
  -1  11  -7   41.30    5.70
   2 -11   7    5.70    3.00
  -2 -11  -7    1.10    2.90
  -2  11  -7    6.60    3.70
   2  11   7    5.60    2.80
  -3 -11  -7   29.30    5.30
   3 -11   7   36.90    6.30
  -3  11  -7   35.90    5.40
   3  11   7   34.40    5.90
   5 -12  -7    9.00    3.40
  -5 -12   7   12.30    3.60
  -5  12   7    6.20    3.10
   5  12  -7    5.10    2.50
  -5  12   7    9.70    3.10
   4 -12  -7    2.00    3.20
  -4 -12   7    2.50    3.10
   4  12  -7   -0.70    2.30
  -4  12   7    3.50    2.40
  -4  12   7    0.90    2.60
   3 -12  -7   25.50    4.30
  -3 -12   7   29.80    5.00
  -3  12   7   26.00    4.10
  -3  12   7   29.40    5.00
   3  12  -7   25.00    5.30
   3  12  -7   29.20    4.60
  -2 -12   7    1.00    2.30
   2 -12  -7   -3.20    1.60
  -2  12   7    0.10    2.50
   2  12  -7    0.60    1.90
   1 -12  -7   35.10    4.70
  -1 -12   7   40.90    6.20
  -1  12   7   30.50    4.80
   1  12  -7   27.30    4.50
   0 -12   7    5.50    2.90
   0  12   7    4.30    2.80
   0  12  -7    7.60    3.10
   1 -12   7    5.00    3.60
  -1 -12  -7   -0.40    2.70
  -1  12  -7   -1.10    2.10
   1  12   7    3.00    2.70
  -2 -12  -7    2.70    3.10
   2 -12   7    2.50    2.70
  -2  12  -7    2.80    3.70
   2  12   7   -0.70    2.20
  -4 -13   7    0.90    3.30
   4 -13  -7   -3.40    3.10
  -4  13   7   -3.60    3.50
   4  13  -7    1.70    1.90
  -4  13   7   -1.10    3.10
  -3 -13   7    5.60    3.00
   3 -13  -7    3.90    3.30
  -3  13   7    4.90    3.40
  -3  13   7    3.10    2.80
  -2 -13   7   15.10    4.00
   2 -13  -7   16.40    4.00
   2  13  -7   19.00    4.30
  -2  13   7   19.60    4.30
  -1 -13   7   25.30    4.80
   1 -13  -7   19.70    3.90
  -1  13   7   21.70    4.50
   1  13  -7   23.10    4.70
   0 -13   7   23.20    5.40
   0  13  -7   19.10    4.20
   0  13   7   24.80    4.80
   1 -13   7    7.50    3.40
  -1 -13  -7    2.00    2.40
   1  13   7    6.80    3.30
  -1  13  -7    9.30    3.30
   9   0  -8   -3.20    2.40
  -9   0   8   -0.20    2.80
   8   0  -8   35.50    4.90
   8   0  -8   24.20    4.40
  -8   0   8   39.40    5.00
   7   0  -8   -3.40    1.90
  -7   0   8   -2.40    2.00
   7   0  -8   -0.30    1.80
   6   0  -8   24.60    3.60
   6   0  -8   21.30    4.00
  -6   0   8   23.80    3.70
   5   0  -8    0.90    1.50
  -5   0   8   -0.80    0.70
   5   0  -8    0.40    1.70
   4   0  -8    5.50    2.20
  -4   0   8    7.80    2.20
  -3   0   8   -0.80    1.30
   3   0  -8   -2.00    1.20
  -3   0   8   -0.50    1.40
   2   0  -8   82.49    6.00
  -2   0   8   95.49    5.40
  -2   0   8   86.39    5.30
  -1   0   8    1.30    2.00
   1   0  -8    0.50    2.20
   0   0   8   96.69    6.10
   0   0  -8   94.29    5.80
   0   0  -8   90.39    6.20
   1   0   8    0.80    1.80
  -1   0  -8    0.30    1.50
  -1   0  -8   -0.40    1.60
   2   0   8   65.39    6.60
  -2   0  -8   65.49    6.30
  -2   0  -8   72.59    6.10
  -3   0  -8    2.00    2.50
  -3   0  -8    3.70    2.30
   3   0   8   -1.50    2.70
  -4   0  -8   -2.30    2.40
   4   0   8   -3.30    2.70
  -5   0  -8    1.10    3.00
   9  -1  -8   -0.40    2.60
  -9  -1   8    0.90    2.10
   9   1  -8    2.10    3.00
  -9   1   8    0.70    2.90
  -8  -1   8   11.20    3.00
   8  -1  -8   18.30    3.70
   8  -1  -8   10.90    3.10
   8   1  -8   10.70    3.10
  -8   1   8    9.90    2.90
  -7  -1   8   -0.20    1.50
   7  -1  -8    2.40    2.80
   7  -1  -8    0.50    2.30
   7   1  -8    0.70    2.50
  -7   1   8   -1.60    2.40
   7   1  -8   -0.90    1.50
   6  -1  -8   17.90    3.40
   6  -1  -8   22.60    3.80
  -6   1   8   24.50    3.80
   6   1  -8   22.20    3.60
   6   1  -8   19.10    3.20
  -5  -1   8  109.99    6.10
   5  -1  -8  120.49    7.10
   5  -1  -8  124.69    6.40
   5   1  -8  116.49    6.20
  -5   1   8  114.39    6.50
   5   1  -8  113.29    6.90
   4  -1  -8   48.40    5.00
   4   1  -8   55.29    5.30
  -3  -1   8   24.00    3.20
   3  -1  -8   22.90    2.80
   3  -1  -8   22.80    3.60
  -3   1   8   30.00    3.40
   3   1  -8   23.70    3.50
  -3   1   8   29.20    3.20
   2  -1  -8   28.40    3.30
  -2  -1   8   29.00    3.60
   2  -1  -8   31.20    4.00
   2   1  -8   23.60    3.80
  -2   1   8   31.60    3.70
  -2   1   8   34.60    3.40
   1  -1  -8   24.10    3.80
   1  -1  -8   24.50    3.40
  -1  -1   8   19.40    3.40
  -1   1   8   18.80    3.20
  -1   1   8   22.90    2.90
   1   1  -8   20.60    3.40
   0  -1  -8  363.06   13.80
   0  -1  -8  386.46   14.00
   0  -1   8  353.56   14.30
   0   1   8  343.37   12.70
   0   1  -8  359.16   14.00
   0   1   8  373.66   14.30
  -1  -1  -8   11.60    3.00
   1  -1   8   11.80    3.40
  -1  -1  -8   12.90    2.80
  -1   1  -8   12.30    2.80
   1   1   8   10.10    2.80
  -1   1  -8    8.40    2.90
  -2  -1  -8   73.09    5.50
   2  -1   8   59.09    6.40
  -2  -1  -8   71.59    5.40
  -2   1  -8   70.89    5.20
  -2   1  -8   83.89    6.20
   2   1   8   75.69    7.10
  -3  -1  -8    6.80    3.10
   3  -1   8    3.50    3.10
  -3  -1  -8    7.00    2.60
   3   1   8    4.30    2.50
  -3   1  -8    6.90    2.80
  -3   1  -8    2.20    2.50
  -4  -1  -8    2.60    2.30
   4  -1   8    3.00    2.60
  -4   1  -8   -0.50    1.80
  -4   1  -8    0.60    2.20
   4   1   8    2.30    2.50
  -5  -1  -8   64.09    7.00
   5  -1   8   68.39    7.50
  -5   1  -8   68.59    7.20
   8  -2  -8    1.50    1.80
  -8  -2   8    1.30    2.50
   8  -2  -8    3.70    2.40
   8   2  -8    2.70    2.20
  -8   2   8    2.10    2.90
   7  -2  -8    0.70    2.00
   7  -2  -8    2.20    2.00
  -7  -2   8    0.20    1.60
   7   2  -8    1.00    1.80
   7   2  -8   -1.70    1.30
  -7   2   8    1.80    1.90
   6  -2  -8   76.29    6.80
   6  -2  -8   76.99    5.60
   6   2  -8   63.89    5.80
   6   2  -8   66.39    5.90
  -6   2   8   65.89    5.90
   5  -2  -8  109.69    6.90
   5  -2  -8  109.79    6.20
   5   2  -8  114.79    6.20
  -5   2   8  112.59    6.10
  -5   2   8  117.69    6.80
   5   2  -8  110.59    7.10
  -4  -2   8  106.39    5.80
   4  -2  -8  118.19    6.90
   4   2  -8  104.49    6.50
  -4   2   8  108.09    6.30
  -3  -2   8   11.40    2.60
   3  -2  -8   11.30    2.70
   3   2  -8    6.10    2.20
  -3   2   8    2.10    1.60
   2  -2  -8   49.70    3.80
  -2  -2   8   56.09    4.30
   2  -2  -8   58.39    5.40
  -2   2   8   61.69    4.20
  -2   2   8   46.50    3.70
   2   2  -8   51.29    5.30
   1  -2  -8    4.20    2.00
   1  -2  -8    8.00    2.30
  -1  -2   8    7.50    2.20
  -1   2   8    3.80    2.20
   1   2  -8    7.40    2.40
  -1   2   8    4.80    1.90
   0  -2   8    2.60    2.00
   0  -2  -8    1.90    2.20
   0  -2  -8    2.20    2.10
   0   2  -8    1.50    2.40
   0   2   8    5.50    2.40
   0   2   8    3.80    1.90
  -1  -2  -8   39.80    4.70
   1  -2   8   29.70    4.50
  -1  -2  -8   28.40    3.70
  -1   2  -8   28.40    3.90
   1   2   8   28.30    3.60
   1   2   8   35.80    4.80
  -2  -2  -8    2.20    2.10
  -2  -2  -8   -0.30    1.60
   2  -2   8    2.00    2.70
  -2   2  -8    0.10    2.10
   2   2   8    0.40    2.00
  -2   2  -8    2.40    1.90
   2   2   8    2.50    2.10
  -3  -2  -8   10.10    3.00
  -3  -2  -8    8.80    2.30
   3  -2   8   15.10    3.50
  -3   2  -8    9.90    2.90
  -3   2  -8   10.70    3.00
   4  -2   8    5.80    2.80
  -4  -2  -8    4.30    2.50
  -4   2  -8    8.30    2.90
  -4   2  -8    8.60    2.90
  -5  -2  -8    3.00    3.00
   5  -2   8    6.30    4.00
  -5   2  -8    7.70    3.50
   8  -3  -8    5.80    3.40
   8  -3  -8   11.70    3.20
  -8   3   8   11.60    3.10
   8   3  -8    6.50    2.60
  -8   3   8    6.40    3.40
   7  -3  -8    1.30    2.10
   7  -3  -8    0.40    2.30
   7   3  -8    1.50    1.90
  -7   3   8    0.10    2.10
   7   3  -8    0.60    2.20
  -7   3   8    0.70    2.00
   6  -3  -8    8.50    2.80
   6  -3  -8    6.50    2.60
  -6   3   8   10.50    2.70
   6   3  -8    5.90    2.70
   6   3  -8   11.80    2.70
  -6   3   8    8.90    2.60
   5  -3  -8   28.20    4.50
   5  -3  -8   34.30    3.90
  -5   3   8   29.70    4.00
   5   3  -8   39.90    4.50
  -5   3   8   26.40    3.40
   5   3  -8   31.40    3.70
   4  -3  -8    5.50    2.20
  -4  -3   8    4.50    2.00
  -4   3   8   11.00    2.90
   4   3  -8    7.40    2.90
  -3  -3   8   12.40    2.80
   3  -3  -8   16.50    3.50
   3   3  -8   12.50    3.20
  -3   3   8   13.30    2.60
  -2  -3   8    0.50    2.00
   2  -3  -8   -0.40    1.30
   2  -3  -8    2.10    1.80
   2   3  -8   -2.00    1.30
  -2   3   8   -0.30    1.20
  -2   3   8   -0.60    1.50
   1  -3  -8  252.67   11.00
   1  -3  -8  250.47   10.20
  -1  -3   8  263.77   11.10
  -1   3   8  251.67   10.40
   1   3  -8  246.78   11.00
  -1   3   8  253.97   10.30
   0  -3  -8   74.39    5.10
   0  -3  -8   61.39    4.70
   0  -3   8   64.79    6.00
   0   3   8   64.79    5.90
   0   3  -8   63.49    5.70
   1  -3   8   86.29    6.70
  -1  -3  -8   91.59    5.70
  -1  -3  -8  102.89    6.20
   1   3   8   86.09    6.10
   1   3   8   69.59    5.10
  -1   3  -8   98.29    6.20
  -2  -3  -8    3.20    1.80
  -2  -3  -8    1.00    1.80
   2  -3   8    0.90    1.90
  -2   3  -8    1.70    2.50
   2   3   8    4.10    2.30
  -3  -3  -8    1.30    2.60
   3  -3   8    2.50    2.40
  -3   3  -8    3.30    2.20
  -3   3  -8    1.80    1.90
   3   3   8    0.90    1.60
  -4  -3  -8    2.30    2.40
   4  -3   8    0.30    3.10
  -4   3  -8    5.40    2.30
  -4   3  -8    3.40    2.90
  -5  -3  -8   -0.10    3.10
   5  -3   8    1.30    2.50
  -5   3  -8    1.20    2.10
   8  -4  -8   10.20    3.10
   8  -4  -8    9.40    3.90
  -8   4   8    8.00    3.10
  -8   4   8    5.70    2.70
   8   4  -8   12.80    3.40
   7  -4  -8   -0.80    2.80
   7  -4  -8    3.10    2.60
  -7   4   8    2.90    2.60
   7   4  -8   -0.20    1.50
  -7   4   8    0.40    2.00
   6  -4  -8   13.80    2.80
   6  -4  -8   13.40    3.20
   6   4  -8   15.30    3.40
  -6   4   8   18.50    3.60
  -6   4   8   17.30    3.00
   6   4  -8   10.20    3.20
   5  -4  -8   54.19    5.00
   5  -4  -8   58.49    5.80
  -5   4   8   60.89    5.60
   5   4  -8   58.79    5.70
  -5   4   8   58.49    4.20
   5   4  -8   51.49    4.90
  -4  -4   8  220.08    9.60
   4  -4  -8  215.68   10.20
   4   4  -8  211.08    9.80
  -4   4   8  215.28    9.90
   3  -4  -8  100.19    6.40
  -3  -4   8   86.59    5.90
   3   4  -8  106.59    6.40
  -3   4   8  100.39    6.30
  -2  -4   8   76.59    5.70
   2  -4  -8   79.19    5.50
   2  -4  -8   82.99    4.80
   2   4  -8   76.79    5.50
  -2   4   8   68.19    5.30
   1  -4  -8  361.86   14.10
   1  -4  -8  373.86   13.40
  -1  -4   8  382.96   14.60
  -1   4   8  364.76   13.80
   1   4  -8  348.97   14.10
   0  -4  -8    8.40    2.80
   0  -4   8    5.10    2.40
   0  -4  -8    6.70    2.10
   0   4   8    7.70    2.60
   0   4  -8    9.00    2.60
   1  -4   8   19.10    3.70
  -1  -4  -8   18.90    3.30
  -1  -4  -8   11.80    3.10
   1   4   8   11.80    2.90
  -1   4  -8   11.90    2.90
  -2  -4  -8    3.60    2.70
   2  -4   8    2.60    2.30
  -2  -4  -8    2.10    1.70
  -2   4  -8    4.60    2.20
   2   4   8    0.00    2.20
  -3  -4  -8    8.70    3.30
   3  -4   8   19.50    4.40
   3   4   8   12.80    3.30
  -3   4  -8    6.00    3.00
   4  -4   8   -1.40    2.10
  -4  -4  -8   -0.10    1.90
  -4   4  -8   -1.80    1.60
   4   4   8    0.40    2.50
  -4   4  -8   -1.50    2.40
   8  -5  -8   12.50    3.50
   8  -5  -8   11.70    3.50
  -8   5   8   14.40    3.30
   8   5  -8   17.10    4.30
  -8   5   8   13.00    3.50
   7  -5  -8   14.90    3.50
   7  -5  -8   18.20    3.90
  -7   5   8   18.60    3.50
  -7   5   8   14.70    4.10
   7   5  -8   17.90    3.60
   6  -5  -8    5.50    2.60
   6  -5  -8   -0.70    2.90
   6   5  -8   -0.20    1.70
  -6   5   8    1.40    2.80
  -6   5   8    4.00    2.40
   6   5  -8    6.30    2.60
  -5  -5   8   14.10    2.70
   5  -5  -8   14.20    3.10
   5  -5  -8   11.90    3.30
  -5   5   8   13.60    2.80
   5   5  -8   14.50    3.00
  -5   5   8   14.80    3.30
   5   5  -8   14.60    2.70
  -4  -5   8  326.07   12.80
   4  -5  -8  304.87   13.20
   4   5  -8  301.87   12.90
  -4   5   8  328.57   13.20
  -3  -5   8   17.50    3.40
   3  -5  -8   13.60    3.20
   3   5  -8   11.70    3.20
  -3   5   8   18.00    3.20
   2  -5  -8   21.10    3.40
  -2  -5   8   15.90    3.20
   2   5  -8   20.40    3.40
  -2   5   8   21.70    3.80
  -1  -5   8  279.17   11.90
   1  -5  -8  248.68   11.20
   1   5  -8  267.27   11.70
  -1   5   8  253.77   11.20
   0  -5  -8   95.79    6.20
   0  -5  -8   96.49    5.90
   0  -5   8   92.69    7.00
   0   5   8   97.79    6.10
   0   5  -8   95.49    6.30
  -1  -5  -8    1.50    2.10
   1  -5   8    5.50    2.50
  -1  -5  -8    3.50    2.00
   1   5   8    3.20    2.10
  -1   5  -8    1.50    2.60
   2  -5   8    4.00    3.10
  -2  -5  -8    8.10    2.60
   2   5   8    4.00    2.60
  -2   5  -8   10.00    3.40
  -3  -5  -8    3.60    2.90
   3  -5   8    2.50    2.60
   3   5   8   -1.40    2.30
  -3   5  -8    3.50    2.20
   4  -5   8   10.60    3.50
  -4  -5  -8    9.80    3.90
  -4   5  -8   14.70    3.80
  -4   5  -8   13.70    3.20
   4   5   8    7.80    3.40
   8  -6  -8    8.00    3.30
   8  -6  -8   11.20    3.40
  -8   6   8   10.80    3.10
   8   6  -8   13.40    3.50
  -8   6   8    9.10    4.00
   7  -6  -8   11.90    3.10
   7  -6  -8    8.30    3.80
  -7   6   8    9.20    2.90
   7   6  -8    5.10    2.80
  -7   6   8   13.20    3.50
   6  -6  -8   25.80    4.20
   6  -6  -8   21.70    4.20
  -6   6   8   22.00    3.90
  -6   6   8   20.60    3.90
   6   6  -8   33.00    4.40
   6   6  -8   22.80    3.90
   5  -6  -8   16.40    3.60
  -5  -6   8   19.00    3.40
  -5   6   8   17.40    3.50
   5   6  -8   13.10    3.30
   5   6  -8   21.10    3.50
  -4  -6   8  177.58    8.90
   4  -6  -8  184.28    9.40
   4   6  -8  169.68    8.70
  -4   6   8  161.68    9.00
  -3  -6   8   27.60    4.10
   3  -6  -8   21.90    3.80
  -3   6   8   22.30    3.70
   3   6  -8   27.10    3.90
  -2  -6   8    5.20    2.70
   2  -6  -8    6.00    2.80
  -2   6   8    4.60    2.20
   2   6  -8    3.30    2.60
  -1  -6   8   83.79    6.20
   1  -6  -8   85.89    5.80
   1   6  -8   88.99    6.10
  -1   6   8   84.39    6.30
   0  -6  -8   13.80    2.80
   0  -6   8   12.60    3.20
   0  -6  -8   16.60    3.00
   0   6  -8    6.00    3.10
   0   6   8   10.00    2.70
  -1  -6  -8    1.30    1.80
   1  -6   8    3.80    2.40
  -1  -6  -8    5.80    2.50
   1   6   8    5.80    2.90
  -1   6  -8    3.70    2.30
  -2  -6  -8    4.80    2.30
   2  -6   8    2.80    2.50
   2   6   8    7.50    2.50
  -2   6  -8    9.70    3.30
  -3  -6  -8   11.70    3.60
   3  -6   8    5.50    3.00
  -3   6  -8    5.60    2.70
   3   6   8    1.90    2.20
   4  -6   8   32.40    5.80
  -4  -6  -8   34.30    5.70
   4   6   8   34.70    5.50
  -4   6  -8   27.30    4.40
   7  -7  -8    2.10    2.50
   7  -7  -8    0.40    2.10
  -7   7   8    0.10    1.80
   7   7  -8    0.90    1.80
  -7   7   8   -2.00    2.00
   6  -7  -8   -0.40    2.10
  -6   7   8   -1.70    1.50
   6   7  -8    1.50    1.70
  -6   7   8   -1.00    2.20
   5  -7  -8   10.00    3.10
  -5  -7   8   10.00    2.90
  -5   7   8    4.20    2.50
  -5   7   8    6.10    3.30
   5   7  -8   14.70    3.50
   5   7  -8   11.00    3.30
  -4  -7   8    0.00    1.50
   4  -7  -8   -1.20    1.80
   4   7  -8   -0.30    1.80
  -4   7   8   -2.20    2.50
   3  -7  -8    0.60    1.90
  -3  -7   8    2.00    1.90
   3   7  -8   -1.20    1.60
  -3   7   8    0.80    2.10
   2  -7  -8   35.80    4.50
  -2  -7   8   30.40    4.50
  -2   7   8   27.00    4.50
   2   7  -8   36.70    4.50
   1  -7  -8   37.40    4.70
   1  -7  -8   31.90    3.90
  -1  -7   8   19.90    4.20
  -1   7   8   32.50    4.40
   1   7  -8   40.60    4.80
   0  -7  -8   73.99    5.70
   0  -7  -8   75.89    5.70
   0  -7   8   77.29    7.10
   0   7   8   73.09    6.50
   0   7  -8   80.49    7.10
   1  -7   8    6.10    3.30
  -1  -7  -8    3.70    2.00
  -1  -7  -8    2.30    2.10
  -1   7  -8    2.60    2.20
   1   7   8    4.20    2.40
   2  -7   8    6.50    2.90
  -2  -7  -8    6.60    2.70
  -2   7  -8    3.90    3.20
   2   7   8   10.50    3.60
   3  -7   8   35.20    5.60
  -3  -7  -8   24.10    4.20
  -3   7  -8   38.80    5.10
   3   7   8   26.30    4.50
   4  -7   8   11.60    4.30
  -4  -7  -8    9.20    3.80
  -4   7  -8    9.70    3.20
   4   7   8    9.20    3.30
   7  -8  -8   51.19    6.80
  -7   8   8   52.19    6.90
  -7   8   8   52.89    6.10
   7   8  -8   41.40    5.60
   6  -8  -8    7.10    3.80
   6   8  -8    5.70    2.90
  -6   8   8    3.30    2.70
  -6   8   8    6.30    2.40
  -5  -8   8    1.40    2.30
   5  -8  -8   -1.30    2.90
  -5   8   8   -0.40    2.90
   5   8  -8   -2.80    2.00
  -4  -8   8   -2.20    1.30
   4  -8  -8    2.00    2.20
   4   8  -8    1.90    2.00
  -4   8   8   -1.20    2.80
   3  -8  -8    8.80    2.90
  -3  -8   8    5.80    2.40
  -3   8   8    7.60    3.40
   3   8  -8    9.10    2.70
   2  -8  -8    3.40    2.10
  -2  -8   8    3.00    2.20
  -2   8   8    0.30    2.00
   2   8  -8    4.30    2.30
  -1  -8   8   90.69    8.20
   1  -8  -8  100.69    6.50
   1   8  -8   99.69    6.80
  -1   8   8  114.59    7.20
   0  -8  -8    8.20    2.80
   0  -8   8   12.50    3.30
   0  -8  -8   10.60    3.10
   0   8   8    7.10    2.70
   0   8  -8    5.50    3.30
   1  -8   8    7.70    3.90
  -1  -8  -8   17.70    3.70
   1   8   8   22.10    3.90
  -1   8  -8   17.90    4.20
  -2  -8  -8    3.30    3.00
   2  -8   8    3.00    2.60
   2   8   8    1.30    2.20
  -2   8  -8    1.30    2.40
  -3  -8  -8    2.40    2.20
   3  -8   8   -1.00    2.30
  -3   8  -8   -0.20    2.10
   3   8   8    0.20    2.20
  -6  -9   8    0.00    2.30
   6  -9  -8    0.50    2.40
   6   9  -8    1.60    2.00
  -6   9   8   -2.80    3.00
  -6   9   8    0.60    1.90
  -5  -9   8   18.30    3.70
   5  -9  -8   13.40    3.70
  -5   9   8   20.60    4.20
   4  -9  -8   13.00    3.50
  -4  -9   8   15.50    3.90
  -4   9   8   11.90    4.00
   4   9  -8    9.30    2.70
   3  -9  -8   13.80    3.90
  -3  -9   8    9.40    3.40
  -3   9   8   12.30    4.00
   3   9  -8   11.80    3.00
   2  -9  -8   13.70    3.80
  -2  -9   8   10.10    3.70
  -2   9   8   12.20    3.50
   2   9  -8   11.60    3.50
  -1  -9   8   32.60    5.30
   1  -9  -8   36.30    4.90
   1   9  -8   33.50    5.20
  -1   9   8   31.00    5.10
   0  -9  -8   47.20    5.10
   0  -9  -8   52.19    5.40
   0  -9   8   54.79    6.50
   0   9   8   58.99    6.40
   0   9  -8   53.69    6.00
  -1  -9  -8   21.50    3.90
   1  -9   8   24.70    5.20
  -1   9  -8   20.20    4.00
   1   9   8   22.50    4.30
   2  -9   8  176.98   10.80
  -2  -9  -8  182.88   10.00
   2   9   8  179.68   10.30
  -2   9  -8  179.88   10.20
   3  -9   8   10.10    3.70
  -3  -9  -8   11.00    3.40
  -3   9  -8   12.00    3.60
   3   9   8   15.10    4.40
  -6 -10   8   15.30    3.80
   6 -10  -8   20.40    5.00
   6  10  -8   18.30    3.60
  -6  10   8   15.40    3.60
  -6  10   8   15.80    4.20
   5 -10  -8   -2.00    1.90
  -5 -10   8    1.40    2.70
  -5  10   8   -6.20    1.50
  -4 -10   8    7.90    2.90
   4 -10  -8    6.30    3.60
   4  10  -8    3.00    2.70
  -4  10   8    5.30    3.80
   3 -10  -8   46.90    6.30
  -3 -10   8   72.79    7.20
   3  10  -8   72.89    6.90
  -3  10   8   62.29    7.20
  -2 -10   8    6.90    2.90
   2 -10  -8   10.50    3.60
   2  10  -8    9.90    3.00
  -2  10   8   14.20    4.40
  -1 -10   8   23.60    4.50
   1 -10  -8   22.30    3.80
  -1  10   8   29.10    4.70
   1  10  -8   30.20    4.60
   0 -10  -8    2.00    2.50
   0 -10   8    0.40    2.20
   0  10  -8   -3.00    2.80
   0  10   8   -0.70    2.90
   1 -10   8   22.40    4.60
  -1 -10  -8   20.30    4.20
   1  10   8   18.20    3.90
  -1  10  -8   24.10    4.50
   2 -10   8   15.10    4.60
  -2 -10  -8   25.20    4.40
  -2  10  -8   22.20    5.00
   2  10   8   24.00    4.60
   5 -11  -8    2.70    2.70
  -5 -11   8    4.40    3.00
  -5  11   8    1.10    2.70
   4 -11  -8   10.80    4.10
  -4 -11   8    7.50    3.00
   4  11  -8    9.40    3.40
  -4  11   8   13.80    4.50
   3 -11  -8   18.10    4.40
  -3 -11   8   15.20    4.30
   3  11  -8   18.50    3.70
  -3  11   8   25.80    5.20
  -2 -11   8   48.40    6.60
   2 -11  -8   48.90    6.00
   2  11  -8   52.89    6.10
  -2  11   8   40.90    6.20
   1 -11  -8   23.40    4.40
  -1 -11   8   17.00    4.70
   1  11  -8   22.30    4.70
  -1  11   8   32.70    5.50
   0 -11   8    0.10    2.40
   0  11   8    1.90    2.60
   0  11  -8    0.40    2.30
  -1 -11  -8    1.40    2.80
   1 -11   8   -2.20    2.10
   1  11   8    3.20    3.60
  -1  11  -8    0.90    2.60
  -4 -12   8    7.70    3.70
   4 -12  -8    6.50    3.90
  -4  12   8   -0.30    3.80
  -3 -12   8   25.60    4.90
   3 -12  -8   31.60    5.40
   3  12  -8   38.40    5.30
  -3  12   8   36.70    5.60
  -2 -12   8   56.49    6.80
   2 -12  -8   51.69    6.10
  -2  12   8   55.89    6.90
   2  12  -8   45.40    5.70
   1 -12  -8   -2.60    2.40
  -1 -12   8    0.00    2.30
  -1  12   8    1.80    2.60
   1  12  -8    3.80    2.80
   0 -12   8   -3.30    3.00
   0  12   8   -0.90    3.20
   0  12  -8    2.70    3.40
   8   0  -9   -0.40    2.80
   8   0  -9   -2.00    2.30
  -8   0   9    0.20    2.00
   7   0  -9    8.20    3.00
  -7   0   9    9.70    4.90
   6   0  -9   -2.20    2.40
   5   0  -9   -1.10    1.70
   4   0  -9    0.80    2.00
  -3   0   9   68.79    4.90
   3   0  -9   71.99    6.60
   2   0  -9    1.20    1.30
  -2   0   9    2.70    1.60
   2   0  -9   -1.70    1.50
  -1   0   9   91.29    6.10
   1   0  -9  105.59    7.00
   1   0  -9   84.69    5.70
   0   0   9   -0.60    2.50
   0   0  -9   -1.90    2.00
   0   0  -9    0.60    1.70
   1   0   9  193.98   10.10
  -1   0  -9  207.58    9.80
  -1   0  -9  189.08    9.70
  -2   0  -9    1.90    2.60
   2   0   9    4.10    3.30
  -2   0  -9   -0.50    1.60
  -3   0  -9   49.40    5.30
  -3   0  -9   55.19    6.60
   3   0   9   52.99    6.90
   4   0   9   -0.10    2.50
  -4   0  -9    0.30    2.10
   8  -1  -9    1.10    3.10
   8  -1  -9    6.90    3.10
  -8   1   9    3.90    2.40
   8   1  -9    2.90    2.40
   8   1  -9    5.00    3.00
   7  -1  -9   17.00    4.20
  -7   1   9   23.60    4.00
   7   1  -9   17.40    4.00
   6  -1  -9    3.80    2.40
   6   1  -9    2.30    2.30
  -6   1   9    1.70    2.30
   5  -1  -9   16.40    3.90
   5   1  -9   16.60    3.40
   4  -1  -9   -0.60    1.70
   4   1  -9   -4.30    1.30
   3  -1  -9    2.00    2.10
  -3  -1   9    2.10    1.60
   3   1  -9    4.70    2.40
   2  -1  -9   28.40    4.20
  -2  -1   9   31.10    4.10
  -2   1   9   26.20    3.50
   2   1  -9   26.60    4.40
  -1  -1   9    2.80    2.50
   1  -1  -9    6.60    2.40
   1  -1  -9    3.60    2.70
   1   1  -9    2.80    2.60
  -1   1   9    4.60    2.50
   0  -1  -9   56.29    5.40
   0  -1  -9   49.90    5.30
   0  -1   9   46.40    5.30
   0   1   9   53.89    5.50
   0   1  -9   60.19    5.80
   0   1  -9   48.60    5.20
  -1  -1  -9   12.00    2.90
  -1  -1  -9    8.50    2.70
   1  -1   9    5.50    2.70
  -1   1  -9   10.50    2.80
   1   1   9   11.60    3.10
  -1   1  -9    9.20    2.70
  -2  -1  -9    1.50    2.80
  -2  -1  -9    3.70    2.60
   2  -1   9    2.90    2.40
  -2   1  -9    2.60    2.10
   2   1   9    1.00    2.90
  -2   1  -9    7.10    2.50
  -3  -1  -9    6.00    2.70
   3  -1   9    3.90    3.30
  -3  -1  -9    5.20    2.60
   3   1   9    5.70    2.80
  -3   1  -9    5.30    2.40
  -3   1  -9    1.80    2.90
  -4  -1  -9    3.40    2.80
   4  -1   9    1.90    3.80
  -4   1  -9    2.70    3.10
   8  -2  -9    1.60    3.20
   8  -2  -9    2.60    2.80
  -8   2   9    6.50    2.90
   8   2  -9    5.50    3.50
   7  -2  -9    5.40    3.40
  -7   2   9    0.70    2.10
   7   2  -9    2.30    2.70
   6  -2  -9   16.70    3.60
  -6   2   9   13.30    3.00
   6   2  -9    6.60    2.60
   5  -2  -9    4.50    2.40
  -5   2   9    4.60    2.60
   5   2  -9    6.80    3.30
   4  -2  -9   24.80    4.40
   4   2  -9   25.00    4.50
  -3  -2   9   -1.90    1.80
   3  -2  -9    0.70    2.00
   3   2  -9    0.50    1.90
  -3   2   9   -1.90    1.70
  -2  -2   9   91.89    6.20
   2  -2  -9   87.49    5.40
   2  -2  -9   87.19    6.10
  -2   2   9   74.19    6.60
  -2   2   9   76.69    5.40
   2   2  -9   84.69    6.10
   1  -2  -9   -0.40    1.80
  -1  -2   9    0.00    2.30
   1  -2  -9   -1.80    2.30
   1   2  -9    2.00    2.00
  -1   2   9   -2.00    2.00
   0  -2   9   14.20    3.20
   0  -2  -9    6.80    2.70
   0  -2  -9    9.40    2.80
   0   2  -9    6.50    2.50
   0   2   9    8.80    3.10
   1  -2   9   22.80    4.20
  -1  -2  -9   24.70    3.70
  -1  -2  -9   21.80    4.20
  -1   2  -9   23.00    3.90
  -1   2  -9   24.00    3.90
   1   2   9   28.40    4.70
  -2  -2  -9    4.20    2.70
  -2  -2  -9    4.60    2.80
   2  -2   9    3.00    2.50
   2   2   9    4.80    3.20
  -2   2  -9    3.50    2.30
  -2   2  -9    6.70    3.00
  -3  -2  -9   18.60    3.90
   3  -2   9   21.00    4.50
  -3   2  -9   15.90    3.40
  -3   2  -9   15.90    3.70
   4  -2   9   16.00    4.20
  -4  -2  -9   13.80    4.20
  -4   2  -9   19.00    4.10
   8  -3  -9    3.70    2.60
   8  -3  -9    3.70    2.80
  -8   3   9    0.90    3.00
   7  -3  -9   18.10    3.80
   7   3  -9   19.40    3.60
  -7   3   9   16.10    3.60
   6  -3  -9  174.68   10.10
  -6   3   9  166.38    8.90
   6   3  -9  178.68    9.70
   5  -3  -9  120.19    7.70
  -5   3   9  114.69    7.00
   5   3  -9  130.89    7.80
  -4  -3   9  134.29    7.40
   4  -3  -9  142.59    8.60
   4   3  -9  126.89    7.80
  -4   3   9  137.09    7.60
  -3  -3   9  142.39    7.80
   3  -3  -9  137.99    8.10
  -3   3   9  155.48    7.60
   3   3  -9  144.59    8.50
   2  -3  -9   26.40    3.80
   2  -3  -9   25.30    4.20
  -2  -3   9   20.80    3.70
  -2   3   9   15.60    3.00
   2   3  -9   17.80    3.50
  -1  -3   9   92.29    6.40
   1  -3  -9   89.59    5.90
   1  -3  -9   78.39    5.90
   1   3  -9   87.29    6.20
  -1   3   9   85.69    5.50
  -1   3   9   78.39    5.90
   0  -3   9    2.80    2.20
   0  -3  -9    3.40    1.90
   0  -3  -9    0.30    2.50
   0   3   9    2.70    2.00
   0   3  -9    4.50    3.00
   0   3   9    2.60    2.40
   1  -3   9    4.10    2.50
  -1  -3  -9   -2.30    2.10
  -1  -3  -9    4.60    2.90
  -1   3  -9    7.30    3.30
  -2  -3  -9    5.00    3.00
   2  -3   9    3.70    3.30
  -2  -3  -9    5.20    2.20
  -2   3  -9    5.80    3.10
  -2   3  -9    4.30    2.40
  -3  -3  -9    5.00    2.60
   3  -3   9    4.60    3.50
  -3   3  -9    2.10    3.00
  -3   3  -9   10.20    3.60
   4  -3   9   77.89    8.30
  -4  -3  -9   84.19    8.20
  -4   3  -9   87.09    8.20
  -4   3  -9   98.49    7.30
   8  -4  -9   15.50    4.00
   8  -4  -9   11.90    3.50
  -8   4   9   14.10    4.40
   7  -4  -9   -1.40    3.10
  -7   4   9   -1.20    1.90
   7   4  -9   -0.10    1.90
   6  -4  -9    8.60    3.10
   6   4  -9    8.60    2.80
  -6   4   9    9.40    3.00
   5  -4  -9   18.20    4.30
  -5   4   9   21.00    3.70
   5   4  -9   25.20    4.50
  -4  -4   9  141.69    7.70
   4  -4  -9  138.29    8.30
  -4   4   9  134.19    7.90
   4   4  -9  144.89    8.50
  -3  -4   9  107.09    6.80
   3  -4  -9   96.99    6.70
   3   4  -9   90.09    6.50
  -3   4   9  115.29    6.90
   2  -4  -9   85.79    6.70
  -2  -4   9   98.39    6.80
   2   4  -9   97.79    7.10
  -2   4   9   93.69    6.00
  -1  -4   9   27.30    4.50
   1  -4  -9   21.20    3.60
   1  -4  -9   20.90    3.70
  -1   4   9   23.90    3.50
   1   4  -9   25.60    4.10
   0  -4   9    3.10    2.90
   0  -4  -9    0.50    2.30
   0  -4  -9    4.10    2.20
   0   4   9    3.70    2.40
   0   4  -9   -0.70    1.70
  -1  -4  -9    8.00    2.40
   1  -4   9    5.10    3.30
  -1  -4  -9    7.20    2.60
   1   4   9    9.50    3.00
  -1   4  -9   10.10    2.90
   2  -4   9   -0.30    2.10
  -2  -4  -9   -0.60    1.70
  -2   4  -9   -4.90    2.30
   3  -4   9    4.20    2.70
  -3  -4  -9    0.40    2.00
  -3   4  -9    0.20    2.00
  -3   4  -9    2.80    2.20
   7  -5  -9    2.50    2.70
  -7   5   9    4.30    2.70
   6  -5  -9   41.80    6.00
  -6   5   9   43.30    5.30
   6   5  -9   36.40    4.80
   5  -5  -9    6.10    2.70
  -5   5   9    6.00    2.50
   5   5  -9    5.10    3.00
   4  -5  -9    4.30    2.50
  -4  -5   9    4.30    2.40
   4   5  -9    3.40    2.90
  -4   5   9    4.00    2.30
   3  -5  -9    7.60    3.30
  -3  -5   9   11.20    2.80
   3   5  -9    6.40    3.30
  -3   5   9    6.30    2.40
   2  -5  -9   25.20    3.90
  -2  -5   9   27.20    4.10
   2   5  -9   29.40    4.30
  -2   5   9   28.60    4.10
   1  -5  -9  337.07   12.90
   1  -5  -9  310.97   13.50
  -1  -5   9  321.27   14.00
  -1   5   9  316.77   13.20
   1   5  -9  322.37   14.00
   0  -5   9   21.50    4.10
   0  -5  -9   23.30    4.10
   0  -5  -9   24.90    3.80
   0   5   9   26.30    3.90
   0   5  -9   30.20    4.50
  -1  -5  -9   -0.90    2.20
   1  -5   9    0.60    2.40
  -1  -5  -9   -0.80    2.40
  -1   5  -9   -1.70    1.80
   1   5   9    0.30    2.20
   2  -5   9    9.60    4.20
  -2  -5  -9    7.30    2.80
   2   5   9   13.60    3.20
  -2   5  -9    8.80    3.00
   3  -5   9   31.10    5.30
  -3  -5  -9   32.20    5.00
  -3   5  -9   24.60    4.60
  -3   5  -9   37.10    5.40
   7  -6  -9    1.50    3.40
  -7   6   9    1.90    2.50
   6  -6  -9    1.90    2.60
  -6   6   9    1.70    2.60
   6   6  -9    3.70    2.90
   5  -6  -9   -0.90    1.80
   5   6  -9   -1.70    2.40
  -5   6   9   -1.60    1.90
   4  -6  -9   -0.10    2.20
  -4  -6   9   -2.70    1.90
  -4   6   9   -2.10    1.70
   4   6  -9    1.60    2.10
   3  -6  -9   68.69    6.90
  -3  -6   9   61.69    6.20
  -3   6   9   62.09    6.40
   3   6  -9   73.59    6.90
   2  -6  -9    4.50    2.40
  -2  -6   9    1.50    2.60
  -2   6   9   -0.10    2.70
   2   6  -9    1.20    2.00
   1  -6  -9   94.29    6.50
  -1  -6   9   96.79    7.50
   1   6  -9   82.99    7.40
  -1   6   9  103.29    7.00
   0  -6  -9    7.70    2.50
   0  -6  -9    8.50    2.90
   0  -6   9    8.40    3.50
   0   6  -9    5.20    2.60
   0   6   9    6.90    2.60
   1  -6   9   34.50    5.40
  -1  -6  -9   33.20    4.50
  -1  -6  -9   38.90    5.20
  -1   6  -9   44.90    5.80
   1   6   9   29.90    4.50
  -2  -6  -9   17.90    3.80
   2  -6   9   28.10    5.00
  -2   6  -9   19.20    4.00
   2   6   9   22.60    4.00
   3  -6   9   10.80    4.30
  -3  -6  -9   10.00    3.20
   3   6   9   12.40    3.40
  -3   6  -9    9.90    3.90
   7  -7  -9   -0.40    2.30
  -7   7   9   -2.20    3.20
   6  -7  -9    1.10    2.50
  -6   7   9   -2.20    2.80
   5  -7  -9    0.60    2.30
  -5  -7   9   -0.10    2.00
   5   7  -9    0.00    1.90
  -5   7   9    0.60    2.40
   4  -7  -9    1.10    2.30
  -4  -7   9    3.80    2.70
  -4   7   9   -1.00    2.80
   4   7  -9    0.00    2.10
  -3  -7   9   75.49    7.00
   3  -7  -9   73.69    7.30
   3   7  -9   91.69    7.00
  -3   7   9   77.79    7.00
  -2  -7   9    3.80    2.20
   2  -7  -9    0.50    2.00
  -2   7   9    1.50    2.20
   2   7  -9   -2.30    1.80
   1  -7  -9    4.10    2.30
  -1  -7   9    2.40    2.40
  -1   7   9    5.00    3.00
   1   7  -9    4.80    2.60
   0  -7   9   10.90    3.90
   0  -7  -9   12.40    3.40
   0  -7  -9   10.90    3.20
   0   7   9    7.30    3.30
   0   7  -9   11.90    3.30
   1  -7   9    6.70    3.20
  -1  -7  -9    7.50    2.70
   1   7   9    2.20    3.00
  -1   7  -9    8.80    3.10
  -2  -7  -9    1.10    2.30
   2  -7   9    2.20    2.80
  -2   7  -9    3.10    2.50
   2   7   9   -2.40    2.60
   6  -8  -9    3.20    2.80
  -6   8   9    2.70    3.70
  -5  -8   9    9.10    3.10
   5  -8  -9   16.70    4.50
   5   8  -9   11.50    3.60
  -5   8   9   11.60    3.50
   4  -8  -9   23.10    4.40
  -4  -8   9   19.50    4.20
  -4   8   9   32.80    5.40
   4   8  -9   25.60    4.20
  -3  -8   9   11.00    3.20
   3  -8  -9    5.30    3.40
  -3   8   9    6.50    2.90
   3   8  -9   11.00    3.80
  -2  -8   9   12.80    3.30
   2  -8  -9   13.90    3.90
  -2   8   9   17.60    3.80
   2   8  -9   14.20    3.50
  -1  -8   9    6.20    2.90
   1  -8  -9   18.40    4.10
   1   8  -9   13.40    4.00
  -1   8   9    9.50    3.10
   0  -8   9   54.19    7.00
   0  -8  -9   71.79    6.40
   0  -8  -9   71.39    5.50
   0   8  -9   63.09    6.60
   0   8   9   70.79    7.20
   1  -8   9    0.40    2.50
  -1  -8  -9    2.90    2.80
  -1   8  -9   -0.70    2.10
   1   8   9   -1.10    2.70
  -2  -8  -9  103.09    8.00
   2  -8   9  130.79    9.20
  -2   8  -9  100.69    7.80
   2   8   9  127.29    8.70
   5  -9  -9    5.60    3.00
  -5  -9   9    5.40    3.00
  -5   9   9    4.00    3.00
   5   9  -9    2.10    3.00
  -4  -9   9   -0.60    1.80
   4  -9  -9    3.60    2.70
  -4   9   9    2.30    3.60
   4   9  -9   -1.50    2.80
   3  -9  -9   45.30    6.20
  -3  -9   9   47.90    6.30
  -3   9   9   54.69    6.70
   3   9  -9   59.49    6.60
   2  -9  -9   13.10    3.80
  -2  -9   9   10.60    3.30
  -2   9   9    7.50    3.10
   2   9  -9   11.70    3.90
  -1  -9   9   17.40    4.50
   1  -9  -9   16.30    3.60
   1   9  -9   12.80    4.20
  -1   9   9   16.60    3.80
   0  -9   9   11.30    4.40
   0   9   9   11.00    3.30
   0   9  -9    9.20    3.30
   1  -9   9   12.30    3.80
  -1  -9  -9    9.30    3.40
  -1   9  -9   18.30    4.10
   1   9   9   20.10    4.60
   4 -10  -9    0.60    3.30
  -4 -10   9    3.50    2.50
  -4  10   9   -3.90    3.20
   4  10  -9   -1.10    2.70
  -3 -10   9    2.30    2.40
   3 -10  -9    1.70    3.20
  -3  10   9    1.00    2.60
   3  10  -9   -0.40    2.20
   2 -10  -9   -0.20    2.70
  -2 -10   9    3.60    3.30
  -2  10   9   -1.00    3.30
   2  10  -9    1.40    2.50
   1 -10  -9    7.20    2.70
  -1 -10   9    3.10    3.50
   1  10  -9    6.10    3.00
  -1  10   9    6.30    3.70
   0 -10   9   37.60    5.90
   0  10   9   32.10    5.20
   0  10  -9   36.30    5.50
   3 -11  -9    2.60    3.20
  -3 -11   9    0.80    3.20
  -3  11   9    1.10    2.80
   3  11  -9    2.50    3.40
  -2 -11   9    6.60    3.10
   2 -11  -9   11.90    3.30
   2  11  -9    4.40    3.40
  -2  11   9    5.80    3.20
   1 -11  -9   22.90    4.60
  -1 -11   9   14.60    4.20
   1  11  -9   18.30    4.70
  -1  11   9   16.50    4.00
   7   0 -10   -1.40    2.80
   6   0 -10    2.40    3.20
   5   0 -10    0.60    2.20
   4   0 -10    2.60    2.50
   3   0 -10   -1.40    1.90
   2   0 -10  237.48   11.40
  -2   0  10  232.68   10.80
   2   0 -10  223.68   10.30
   1   0 -10    0.90    2.80
   1   0 -10    0.50    2.10
  -1   0  10   -2.00    2.20
   0   0 -10   56.59    5.80
   0   0 -10   44.00    5.70
   0   0  10   51.69    5.90
   1   0  10    0.10    1.90
  -1   0 -10    1.90    1.90
  -1   0 -10   -2.80    2.60
  -2   0 -10   10.00    3.10
  -2   0 -10   11.60    3.20
   2   0  10   14.40    3.80
   7  -1 -10   13.00    4.30
   7   1 -10   18.90    3.90
   6  -1 -10   95.29    7.30
   6   1 -10   96.89    7.20
   5  -1 -10   -3.40    1.70
   5   1 -10   -1.50    1.90
   4  -1 -10   88.49    6.80
   4   1 -10   78.89    7.40
   3  -1 -10   55.49    6.10
   3   1 -10   55.99    6.40
   2  -1 -10   68.99    6.60
  -2  -1  10   60.19    6.00
  -2   1  10   62.19    5.80
   2   1 -10   53.09    6.20
   1  -1 -10    2.50    1.80
   1  -1 -10    2.50    3.00
  -1  -1  10    4.40    2.90
   1   1 -10    1.20    2.40
   1   1 -10    1.50    2.10
  -1   1  10    0.40    1.90
   0  -1  10    2.80    2.40
   0  -1 -10    1.30    2.20
   0  -1 -10    3.10    2.10
   0   1 -10    1.90    2.00
   0   1 -10    2.50    2.90
   0   1  10    0.80    1.90
   1  -1  10   -5.00    2.50
  -1  -1 -10    3.30    2.30
  -1  -1 -10   -0.20    2.80
  -1   1 -10   -0.60    2.50
   1   1  10   -1.00    2.20
  -1   1 -10    2.50    3.00
   2  -1  10   24.60    4.70
  -2  -1 -10   22.00    4.00
  -2  -1 -10   18.30    4.30
   2   1  10   33.80    5.70
  -2   1 -10   16.90    3.60
  -2   1 -10   29.90    4.80
   7  -2 -10   32.80    5.10
   7   2 -10   38.40    5.30
   6  -2 -10   78.49    7.60
   6   2 -10   82.69    7.70
   5  -2 -10   12.90    3.60
   5   2 -10   10.00    3.20
   4  -2 -10   10.80    3.80
   4   2 -10   12.20    3.30
  -3  -2  10    1.40    1.70
   3  -2 -10    1.70    3.00
   3   2 -10    1.40    2.20
   2  -2 -10    2.10    2.30
  -2  -2  10   -1.50    1.50
   2   2 -10    2.90    2.30
  -1  -2  10   31.90    4.90
   1  -2 -10   30.80    4.90
   1  -2 -10   39.90    4.80
   1   2 -10   34.90    4.90
  -1   2  10   26.30    4.50
   0  -2  10   37.50    5.20
   0  -2 -10   24.40    4.20
   0  -2 -10   36.30    4.90
   0   2 -10   24.70    4.10
   0   2 -10   27.70    4.50
   0   2  10   25.60    4.70
  -1  -2 -10    2.30    2.80
  -1  -2 -10    0.90    2.60
   1  -2  10    2.40    3.20
   1   2  10    3.90    3.20
  -1   2 -10    3.00    2.80
  -1   2 -10    3.90    2.50
  -2  -2 -10    7.40    2.60
   2  -2  10    9.10    4.10
  -2  -2 -10   -0.50    2.90
  -2   2 -10    2.30    3.10
  -2   2 -10    5.50    3.30
   7  -3 -10    5.30    3.90
  -7   3  10    8.80    3.00
   7   3 -10   10.90    3.70
   6  -3 -10   57.79    6.60
   6   3 -10   60.49    6.70
  -6   3  10   64.89    6.50
   5  -3 -10    8.30    3.80
  -5   3  10   12.50    4.00
   5   3 -10    5.90    3.40
   4  -3 -10    9.00    3.00
   4   3 -10    8.60    2.90
   3  -3 -10    4.40    3.10
  -3  -3  10    4.40    2.70
   3   3 -10    1.30    3.10
  -2  -3  10    6.20    2.50
   2  -3 -10    9.30    3.00
   2   3 -10    1.70    3.10
   1  -3 -10   12.00    3.60
   1  -3 -10   10.00    3.10
  -1  -3  10    5.80    3.20
   1   3 -10   10.20    3.20
   0  -3 -10    3.70    3.00
   0  -3 -10    0.90    2.40
   0  -3  10    2.10    2.40
   0   3 -10   -0.80    2.90
  -1  -3 -10   12.50    3.70
   1  -3  10   27.50    4.90
  -1  -3 -10   19.30    4.30
  -1   3 -10   23.90    4.30
  -1   3 -10   21.10    4.50
   2  -3  10    2.70    2.70
  -2  -3 -10    3.10    3.10
  -2   3 -10    0.70    2.10
  -2   3 -10    1.00    2.20
   7  -4 -10   25.00    5.20
   7   4 -10   32.70    5.10
  -7   4  10   18.50    4.00
   6  -4 -10   75.49    7.50
   6   4 -10   76.09    7.20
  -6   4  10   83.29    6.40
   5  -4 -10    2.80    2.50
  -5   4  10    3.00    2.30
   5   4 -10    1.10    2.30
   4  -4 -10    1.20    2.20
  -4   4  10   -1.60    2.50
   4   4 -10   -0.50    2.90
   3  -4 -10    2.70    2.40
  -3  -4  10    4.70    2.70
  -3   4  10    1.20    2.60
   3   4 -10    0.90    2.20
  -2  -4  10   -1.10    1.50
   2  -4 -10   -1.50    1.90
   2   4 -10   -1.70    1.90
   1  -4 -10   32.20    4.20
   1  -4 -10   36.90    5.30
  -1  -4  10   40.10    5.30
   1   4 -10   38.80    5.60
   0  -4 -10    2.80    2.70
   0  -4  10    1.50    2.80
   0  -4 -10    0.40    1.70
   0   4 -10    0.80    2.20
   1  -4  10   11.30    4.10
  -1  -4 -10   15.00    3.30
  -1  -4 -10   19.50    4.20
  -1   4 -10   10.00    3.20
  -2  -4 -10    3.60    3.20
   2  -4  10    8.90    4.10
  -2   4 -10    1.90    3.00
  -2   4 -10    7.50    3.70
   6  -5 -10    6.20    3.10
   6   5 -10   -0.50    2.10
  -6   5  10    3.90    2.60
   5  -5 -10    1.90    2.40
   5   5 -10   -1.70    1.80
  -5   5  10    0.90    3.00
   4  -5 -10   10.30    3.30
  -4  -5  10   19.20    4.40
   4   5 -10   21.20    4.00
  -4   5  10   14.30    3.40
   3  -5 -10   67.19    6.70
  -3  -5  10   64.29    6.50
   3   5 -10   75.99    7.20
  -3   5  10   69.99    6.60
  -2  -5  10    5.00    3.20
   2  -5 -10    6.00    2.70
  -2   5  10    6.90    3.20
   2   5 -10    7.60    3.10
  -1  -5  10   -1.40    1.90
   1  -5 -10    0.10    2.70
  -1   5  10   -1.40    1.50
   1   5 -10    0.10    2.10
   0  -5 -10   18.50    3.60
   0  -5 -10   20.60    4.10
   0  -5  10   23.10    4.40
   0   5 -10   15.20    3.60
  -1  -5 -10    2.50    2.70
   1  -5  10    2.10    2.50
  -1  -5 -10   -0.50    1.90
  -1   5 -10    0.60    2.20
  -2  -5 -10   51.79    6.70
   2  -5  10   62.89    7.40
  -2   5 -10   64.79    7.20
   6  -6 -10   12.70    4.60
  -6   6  10   20.40    4.20
   5  -6 -10    9.10    4.10
  -5   6  10   16.00    4.30
   5   6 -10   12.90    3.60
   4  -6 -10   -0.70    2.10
  -4  -6  10    3.20    2.20
  -4   6  10    0.60    3.00
   4   6 -10    2.10    2.30
   3  -6 -10   41.70    5.60
  -3  -6  10   42.70    5.70
   3   6 -10   39.10    5.30
  -3   6  10   57.49    6.20
   2  -6 -10   85.69    6.70
  -2  -6  10  100.79    7.20
  -2   6  10   76.89    7.30
   2   6 -10   81.29    7.50
  -1  -6  10    5.50    2.80
   1  -6 -10    5.80    2.50
  -1   6  10    5.20    3.00
   1   6 -10    0.20    2.20
   0  -6 -10    0.50    1.80
   0  -6 -10    4.00    2.20
   0  -6  10   -2.40    2.00
   0   6  10    0.00    2.40
   0   6 -10    0.80    2.40
   1  -6  10    2.10    2.60
  -1  -6 -10    1.20    2.10
  -1   6 -10    2.60    2.50
   5  -7 -10   25.60    4.80
  -5   7  10   25.50    4.60
   5   7 -10   23.90    4.30
  -4  -7  10    1.60    2.10
   4  -7 -10    0.30    3.30
  -4   7  10    0.10    2.40
   4   7 -10   -0.50    2.20
  -3  -7  10  162.68    9.80
  -3   7  10  174.08   10.10
   3   7 -10  163.28    9.60
   2  -7 -10   26.60    4.40
  -2  -7  10   28.00    4.70
  -2   7  10   25.50    4.30
   2   7 -10   27.30    4.60
   1  -7 -10    4.40    2.50
  -1  -7  10    8.20    3.20
   1   7 -10    4.80    2.80
  -1   7  10    6.00    3.20
   0  -7  10  111.19    8.40
   0  -7 -10  115.09    7.80
   0   7 -10  110.29    8.00
   0   7  10  102.29    7.80
  -1  -7 -10    1.00    2.10
   1  -7  10    1.60    2.60
  -1   7 -10    4.30    2.60
   1   7  10    4.90    3.20
   5  -8 -10    3.10    2.90
  -5   8  10    2.70    2.90
   5   8 -10    0.10    2.20
  -4  -8  10   -1.60    2.30
   4  -8 -10   -4.10    3.00
   4   8 -10    0.90    3.40
  -4   8  10    4.40    2.80
  -3  -8  10   93.39    7.40
   3  -8 -10  109.79    7.90
   3   8 -10  105.39    7.70
  -3   8  10  106.89    7.80
  -2  -8  10    5.00    2.80
   2  -8 -10   10.60    3.20
   2   8 -10    3.30    2.90
  -2   8  10    4.80    3.50
  -1  -8  10   54.29    6.70
   1  -8 -10   37.10    5.50
  -1   8  10   46.30    5.70
   1   8 -10   48.20    6.50
   0  -8  10   25.20    5.00
   0   8 -10   25.10    4.70
   0   8  10   16.80    4.30
   3  -9 -10    8.60    3.30
  -3  -9  10    4.90    3.40
  -3   9  10    6.20    4.20
   3   9 -10    9.20    3.90
  -2  -9  10   41.30    5.90
   2  -9 -10   35.20    5.20
   2   9 -10   33.30    5.40
  -2   9  10   46.00    6.40
   6   0 -11   -5.30    2.90
   5   0 -11   43.20    5.80
   4   0 -11    0.50    2.40
   3   0 -11   13.60    3.70
   2   0 -11    1.30    2.40
   1   0 -11    5.50    2.90
   1   0 -11    5.10    2.80
  -1   0  11    8.20    3.40
   0   0  11    4.90    3.20
   0   0 -11   -0.20    2.30
   0   0 -11   -1.60    2.50
   1   0  11   14.20    4.50
  -1   0 -11   19.20    4.10
  -1   0 -11    9.80    3.80
   6  -1 -11    2.90    2.80
   6   1 -11    2.00    2.70
   5  -1 -11   45.20    6.30
   5   1 -11   33.00    5.70
   4  -1 -11   41.60    5.60
   4   1 -11   43.90    5.90
   3  -1 -11   -2.70    2.90
   3   1 -11    1.00    2.40
   2  -1 -11    2.40    2.60
  -2  -1  11   -0.50    2.30
   2   1 -11    3.70    2.70
   2   1 -11    1.50    3.30
  -1  -1  11   20.10    4.50
   1  -1 -11   16.50    3.80
   1  -1 -11   24.30    4.90
  -1   1  11   29.10    4.90
   1   1 -11   26.40    4.50
   1   1 -11   19.20    4.10
   0  -1 -11   -2.20    2.40
   0  -1 -11   -4.50    2.60
   0  -1  11    1.10    3.20
   0   1 -11    1.80    2.40
   0   1  11   -5.50    2.70
   0   1 -11    1.80    2.70
  -1  -1 -11   -2.20    2.00
   1  -1  11   -0.10    2.10
  -1  -1 -11   -0.60    2.70
  -1   1 -11    2.40    3.40
   1   1  11    3.90    3.60
  -1   1 -11    0.70    2.00
   6  -2 -11    5.80    3.10
   6   2 -11    7.30    3.30
   5  -2 -11    0.10    2.30
   5   2 -11    0.70    2.40
   4  -2 -11    6.10    3.00
   4   2 -11    3.70    2.70
   3  -2 -11   18.00    4.00
   3   2 -11   18.00    4.20
   2  -2 -11   -2.00    3.00
  -2  -2  11    4.20    2.90
   2   2 -11    0.90    2.50
   1  -2 -11    8.00    2.60
  -1  -2  11    7.30    3.40
   1  -2 -11    4.60    3.40
   1   2 -11    7.10    3.10
  -1   2  11   11.10    3.00
   1   2 -11    7.90    3.20
   0  -2  11    3.30    2.60
   0  -2 -11    2.50    3.10
   0  -2 -11    1.60    2.80
   0   2 -11    3.50    3.30
   0   2 -11    1.80    2.20
   0   2  11    1.40    3.10
  -1  -2 -11   68.19    7.00
  -1  -2 -11   71.79    7.60
   1  -2  11   57.69    7.50
  -1   2 -11   54.49    6.90
  -1   2 -11   64.49    6.90
   5  -3 -11    1.60    3.40
   5   3 -11    1.90    2.70
   4  -3 -11    1.60    3.40
   4   3 -11    4.20    3.60
   3  -3 -11    2.20    2.50
   3   3 -11    2.50    3.50
   2  -3 -11   11.00    4.00
  -2  -3  11    8.00    3.40
   2   3 -11   11.80    3.60
   1  -3 -11    3.40    2.70
  -1  -3  11    1.60    2.90
   1   3 -11    3.90    3.60
   0  -3  11    4.30    2.70
   0  -3 -11    1.50    3.10
   0  -3 -11    1.20    2.70
   0   3 -11    2.20    2.60
   0   3 -11   -0.70    1.80
   5  -4 -11   13.00    3.80
   5   4 -11   18.70    4.10
   4  -4 -11    2.30    2.50
   4   4 -11   -4.40    3.10
   3  -4 -11   57.29    6.90
  -3  -4  11   58.49    6.50
   3   4 -11   55.79    7.00
  -2  -4  11   13.70    4.00
   2  -4 -11   10.10    3.30
   2   4 -11   10.30    4.10
  -1  -4  11    3.20    2.50
   1  -4 -11    0.50    2.30
   1   4 -11    3.80    2.80
   0  -4  11    7.40    3.90
   0  -4 -11   12.90    3.30
   0  -4 -11   12.40    3.90
   0   4 -11    7.10    3.20
   5  -5 -11    5.10    3.80
   5   5 -11    7.90    3.30
   4  -5 -11   31.40    5.10
   4   5 -11   26.50    5.30
  -3  -5  11    6.40    3.20
   3  -5 -11    0.90    2.40
   3   5 -11    4.90    3.00
  -2  -5  11    2.20    2.50
   2  -5 -11    0.70    2.20
   2   5 -11   -2.70    3.30
   1  -5 -11   -0.60    2.10
  -1  -5  11    4.30    3.40
   1   5 -11   -3.40    2.00
   4  -6 -11   48.60    6.80
   4   6 -11   52.09    6.80
  -4   6  11   51.59    6.70
   3  -6 -11   51.59    6.30
  -3  -6  11   59.39    6.90
   3   6 -11   59.59    6.90
   2  -6 -11   16.50    3.90
  -2  -6  11   19.20    4.20
   2   6 -11   15.30    4.90
  -1  -6  11    6.90    3.90
   1  -6 -11    5.40    2.80
   1   6 -11    3.60    3.00
   0   0   0    0.00    0.00

_computing_structure_solution     'SHELXT 2014/5 (Sheldrick, 2014)'
;
_shelx_hkl_checksum              60764
_olex2_submission_special_instructions 'No special instructions were received'
loop_
_space_group_symop_operation_xyz
'x, y, z'
'-x+1/2, y+1/2, -z+1/2'
'-x, -y, -z'
'x-1/2, -y-1/2, z-1/2'
loop_
_atom_site_label
_atom_site_type_symbol
_atom_site_fract_x
_atom_site_fract_y
_atom_site_fract_z
_atom_site_U_iso_or_equiv
_atom_site_adp_type
_atom_site_occupancy
_atom_site_site_symmetry_order
_atom_site_calc_flag
_atom_site_refinement_flags_posn
F2 F 0.12666(11) 0.47431(7) 0.32079(10) 0.0253(2) Uani 1 1 d .
F1 F 0.05947(12) 0.66942(7) 0.43364(11) 0.0307(2) Uani 1 1 d .
F3 F 0.47432(16) 0.60761(7) 0.91430(11) 0.0390(3) Uani 1 1 d .
O1 O 0.61266(14) 0.26804(8) 0.71478(12) 0.0242(2) Uani 1 1 d .
N2 N 0.36794(15) 0.33028(9) 0.51053(13) 0.0186(2) Uani 1 1 d .
H2 H 0.2928 0.3137 0.4155 0.022 Uiso 1 1 calc R
N1 N 0.26838(18) 0.63931(10) 0.67489(15) 0.0260(3) Uani 1 1 d .
C1 C 0.18523(19) 0.60328(11) 0.53001(17) 0.0228(3) Uani 1 1 d .
C2 C 0.21682(18) 0.50352(11) 0.47263(16) 0.0199(3) Uani 1 1 d .
C3 C 0.34222(18) 0.43128(10) 0.57217(16) 0.0184(3) Uani 1 1 d .
C6 C 0.49972(18) 0.25352(11) 0.58388(16) 0.0194(3) Uani 1 1 d .
C7 C 0.4943(2) 0.15175(11) 0.48805(17) 0.0261(3) Uani 1 1 d .
H7A H 0.6190 0.1170 0.5192 0.039 Uiso 1 1 calc GR
H7B H 0.4609 0.1695 0.3733 0.039 Uiso 1 1 calc GR
H7C H 0.3993 0.1023 0.5090 0.039 Uiso 1 1 calc GR
C5 C 0.3882(2) 0.57073(12) 0.76625(17) 0.0259(3) Uani 1 1 d .
C4 C 0.4323(2) 0.46734(11) 0.72743(16) 0.0228(3) Uani 1 1 d .
H4 H 0.5193 0.4230 0.8024 0.027 Uiso 1 1 calc R
loop_
_atom_site_aniso_label
_atom_site_aniso_U_11
_atom_site_aniso_U_22
_atom_site_aniso_U_33
_atom_site_aniso_U_23
_atom_site_aniso_U_13
_atom_site_aniso_U_12
F2 0.0254(4) 0.0232(4) 0.0228(4) 0.0000(3) -0.0011(3) 0.0017(3)
F1 0.0285(4) 0.0208(4) 0.0421(5) 0.0047(4) 0.0084(4) 0.0059(3)
F3 0.0677(7) 0.0239(5) 0.0220(5) -0.0074(3) 0.0066(4) -0.0057(4)
O1 0.0244(5) 0.0223(5) 0.0209(5) 0.0012(4) -0.0023(4) -0.0008(4)
N2 0.0197(5) 0.0174(5) 0.0163(5) -0.0008(4) 0.0007(4) 0.0005(4)
N1 0.0326(6) 0.0188(5) 0.0306(6) -0.0028(5) 0.0152(5) -0.0034(5)
C1 0.0212(6) 0.0190(6) 0.0298(7) 0.0032(5) 0.0097(5) 0.0005(5)
C2 0.0193(6) 0.0201(6) 0.0199(6) 0.0003(5) 0.0048(5) -0.0015(5)
C3 0.0191(6) 0.0163(6) 0.0202(6) -0.0004(4) 0.0059(5) -0.0021(4)
C6 0.0196(6) 0.0183(6) 0.0195(6) 0.0014(5) 0.0041(5) -0.0009(5)
C7 0.0302(7) 0.0195(6) 0.0239(7) -0.0011(5) -0.0005(6) 0.0041(5)
C5 0.0374(8) 0.0213(7) 0.0203(7) -0.0038(5) 0.0099(6) -0.0058(5)
C4 0.0288(7) 0.0197(6) 0.0194(6) -0.0002(5) 0.0057(5) -0.0018(5)
loop_
_atom_type_symbol
_atom_type_description
_atom_type_scat_dispersion_real
_atom_type_scat_dispersion_imag
_atom_type_scat_source
C C 0.0033 0.0016 'International Tables Vol C Tables 4.2.6.8 and 6.1.1.4'
H H 0.0000 0.0000 'International Tables Vol C Tables 4.2.6.8 and 6.1.1.4'
F F 0.0171 0.0103 'International Tables Vol C Tables 4.2.6.8 and 6.1.1.4'
N N 0.0061 0.0033 'International Tables Vol C Tables 4.2.6.8 and 6.1.1.4'
O O 0.0106 0.0060 'International Tables Vol C Tables 4.2.6.8 and 6.1.1.4'
loop_
_geom_angle_atom_site_label_1
_geom_angle_atom_site_label_2
_geom_angle_atom_site_label_3
_geom_angle
C3 N2 H2 116.8
C6 N2 H2 116.8
C6 N2 C3 126.32(11)
C1 N1 C5 114.52(12)
F1 C1 C2 118.58(13)
N1 C1 F1 116.69(12)
N1 C1 C2 124.72(13)
F2 C2 C1 120.43(12)
F2 C2 C3 119.66(12)
C1 C2 C3 119.91(12)
N2 C3 C2 118.19(12)
N2 C3 C4 125.21(12)
C2 C3 C4 116.61(12)
O1 C6 N2 122.63(12)
O1 C6 C7 123.02(12)
N2 C6 C7 114.34(11)
C6 C7 H7A 109.5
C6 C7 H7B 109.5
C6 C7 H7C 109.5
H7A C7 H7B 109.5
H7A C7 H7C 109.5
H7B C7 H7C 109.5
F3 C5 C4 117.69(13)
N1 C5 F3 114.66(12)
N1 C5 C4 127.65(13)
C3 C4 H4 121.7
C5 C4 C3 116.58(13)
C5 C4 H4 121.7
loop_
_geom_bond_atom_site_label_1
_geom_bond_atom_site_label_2
_geom_bond_distance
F2 C2 1.3484(15)
F1 C1 1.3390(16)
F3 C5 1.3434(17)
O1 C6 1.2199(16)
N2 H2 0.8800
N2 C3 1.3893(17)
N2 C6 1.3787(16)
N1 C1 1.3126(19)
N1 C5 1.317(2)
C1 C2 1.3712(19)
C2 C3 1.3967(18)
C3 C4 1.3977(18)
C6 C7 1.4999(19)
C7 H7A 0.9800
C7 H7B 0.9800
C7 H7C 0.9800
C5 C4 1.381(2)
C4 H4 0.9500
loop_
_geom_torsion_atom_site_label_1
_geom_torsion_atom_site_label_2
_geom_torsion_atom_site_label_3
_geom_torsion_atom_site_label_4
_geom_torsion
F2 C2 C3 N2 -0.70(18)
F2 C2 C3 C4 179.31(12)
F1 C1 C2 F2 1.82(19)
F1 C1 C2 C3 -177.77(11)
F3 C5 C4 C3 -179.38(12)
N2 C3 C4 C5 179.90(12)
N1 C1 C2 F2 -178.93(12)
N1 C1 C2 C3 1.5(2)
N1 C5 C4 C3 1.2(2)
C1 N1 C5 F3 179.64(12)
C1 N1 C5 C4 -0.9(2)
C1 C2 C3 N2 178.90(12)
C1 C2 C3 C4 -1.09(18)
C2 C3 C4 C5 -0.12(19)
C3 N2 C6 O1 -0.9(2)
C3 N2 C6 C7 -179.97(12)
C6 N2 C3 C2 172.50(12)
C6 N2 C3 C4 -7.5(2)
C5 N1 C1 F1 178.80(12)
C5 N1 C1 C2 -0.5(2)
