#------------------------------------------------------------------------------
#$Date: 2017-07-27 01:34:31 +0300 (Thu, 27 Jul 2017) $
#$Revision: 199346 $
#$URL: file:///home/coder/svn-repositories/cod/cif/4/12/63/4126313.cif $
#------------------------------------------------------------------------------
#
# This file is available in the Crystallography Open Database (COD),
# http://www.crystallography.net/
#
# All data on this site have been placed in the public domain by the
# contributors.
#
data_4126313
loop_
_publ_author_name
'Surbella, Robert G.'
'Ducati, Lucas Colucci'
'Pellegrini, Kristi L.'
'McNamara, Bruce K.'
'Autschbach, Jochen'
'Schwantes, Jon Michael'
'Cahill, Christopher L.'
_publ_section_title
;
 Transuranic Hybrid Materials: Crystallographic and Computational Metrics
 of Supramolecular Assembly.
;
_journal_name_full               'Journal of the American Chemical Society'
_journal_paper_doi               10.1021/jacs.7b05689
_journal_year                    2017
_chemical_formula_moiety         '(C5 H5 I N 1+)2, (Np O2 Cl4 2-)'
_chemical_formula_sum            'C10 H10 Cl4 I2 N2 Np O2'
_chemical_formula_weight         822.80
_space_group_crystal_system      monoclinic
_space_group_IT_number           12
_space_group_name_Hall           '-C 2y'
_space_group_name_H-M_alt        'C 1 2/m 1'
_symmetry_cell_setting           monoclinic
_symmetry_Int_Tables_number      12
_symmetry_space_group_name_Hall  '-C 2y'
_symmetry_space_group_name_H-M   'C 1 2/m 1'
_atom_sites_solution_hydrogens   mixed
_audit_creation_method           SHELXL-2014/7
_cell_angle_alpha                90
_cell_angle_beta                 102.3940(10)
_cell_angle_gamma                90
_cell_formula_units_Z            2
_cell_length_a                   16.3553(8)
_cell_length_b                   8.6680(4)
_cell_length_c                   6.9455(3)
_cell_measurement_reflns_used    9624
_cell_measurement_temperature    296(2)
_cell_measurement_theta_max      62.962
_cell_measurement_theta_min      6.006
_cell_volume                     961.70(8)
_computing_cell_refinement       'SAINT, Bruker-AXS'
_computing_data_collection       'APEX, Bruker-AXS'
_computing_data_reduction        'SAINT, Bruker-AXS'
_computing_molecular_graphics    'WINGX (Farrugia, 2012)'
_computing_publication_material  'Crystal Maker (Palmer, 2009)'
_computing_structure_refinement  'SHELXL-2014/7 (Sheldrick, 2014)'
_computing_structure_solution    'SIR92 (Gualardi, 1994)'
_diffrn_ambient_temperature      296(2)
_diffrn_measured_fraction_theta_full 0.997
_diffrn_measured_fraction_theta_max 0.986
_diffrn_measurement_device_type  'Bruker D8 Venture, Photon CCD'
_diffrn_measurement_method       'omega and phi scans'
_diffrn_radiation_probe          x-ray
_diffrn_radiation_type           MoK\a
_diffrn_radiation_wavelength     0.71073
_diffrn_reflns_av_R_equivalents  0.0488
_diffrn_reflns_av_unetI/netI     0.0255
_diffrn_reflns_Laue_measured_fraction_full 0.997
_diffrn_reflns_Laue_measured_fraction_max 0.986
_diffrn_reflns_limit_h_max       23
_diffrn_reflns_limit_h_min       -24
_diffrn_reflns_limit_k_max       12
_diffrn_reflns_limit_k_min       -12
_diffrn_reflns_limit_l_max       10
_diffrn_reflns_limit_l_min       -10
_diffrn_reflns_number            19190
_diffrn_reflns_point_group_measured_fraction_full 0.997
_diffrn_reflns_point_group_measured_fraction_max 0.986
_diffrn_reflns_theta_full        25.500
_diffrn_reflns_theta_max         31.562
_diffrn_reflns_theta_min         3.003
_diffrn_source                   'Fine-Focus Sealed Tube'
_exptl_absorpt_coefficient_mu    9.171
_exptl_absorpt_correction_T_max  0.7462
_exptl_absorpt_correction_T_min  0.5819
_exptl_absorpt_correction_type   multi-scan
_exptl_absorpt_process_details   'Krause et. al 2015'
_exptl_crystal_colour            Yellow-Green
_exptl_crystal_density_diffrn    2.841
_exptl_crystal_description       Prismatic
_exptl_crystal_F_000             734
_exptl_crystal_recrystallization_method 'Acidic (HCl) aqueous evaporation'
_exptl_crystal_size_max          0.135
_exptl_crystal_size_mid          0.112
_exptl_crystal_size_min          0.076
_refine_diff_density_max         1.452
_refine_diff_density_min         -2.184
_refine_diff_density_rms         0.225
_refine_ls_extinction_method     none
_refine_ls_goodness_of_fit_ref   1.191
_refine_ls_hydrogen_treatment    mixed
_refine_ls_matrix_type           full
_refine_ls_number_parameters     60
_refine_ls_number_reflns         1687
_refine_ls_number_restraints     1
_refine_ls_restrained_S_all      1.191
_refine_ls_R_factor_all          0.0430
_refine_ls_R_factor_gt           0.0333
_refine_ls_shift/su_max          0.000
_refine_ls_shift/su_mean         0.000
_refine_ls_structure_factor_coef Fsqd
_refine_ls_weighting_details
'w=1/[\s^2^(Fo^2^)+(0.0231P)^2^+3.8134P] where P=(Fo^2^+2Fc^2^)/3'
_refine_ls_weighting_scheme      calc
_refine_ls_wR_factor_gt          0.0590
_refine_ls_wR_factor_ref         0.0628
_reflns_Friedel_coverage         0.000
_reflns_number_gt                1503
_reflns_number_total             1687
_reflns_threshold_expression     'I > 2\s(I)'
_cod_data_source_file            ja7b05689_si_002.cif
_cod_data_source_block           Compound_8
_cod_original_sg_symbol_H-M      'C 2/m'
_cod_database_code               4126313
_shelx_shelxl_version_number     2014/7
_shelx_space_group_comment
;
The symmetry employed for this shelxl refinement is uniquely defined
by the following loop, which should always be used as a source of
symmetry information in preference to the above space-group names.
They are only intended as comments.
;
_shelx_estimated_absorpt_t_min   0.371
_shelx_estimated_absorpt_t_max   0.542
_shelx_res_file
;

    shelx.res created by SHELXL-2014/7

TITL SIR92 run in space group C 2/m
CELL  0.71073  16.3553   8.6680   6.9455   90.000  102.394   90.000
ZERR     2.00   0.0008   0.0004   0.0003    0.000    0.001    0.000
LATT   7
SYMM  - X,   Y, - Z
SFAC  C    H    N    O    CL   I    NP
UNIT  20 20 4 4 8 4 2
MERG   2
OMIT     0   2   0
DFIX 0.86 0.02 HN1 N1
EQIV $1 x, y, z-1
HTAB C1 Cl2_$1
EQIV $2 -x+1, -y+1, -z+2
HTAB C2 Cl1_$2
HTAB N1 Cl2_$1
EQIV $3 -x+1, -y, -z+1
HTAB N1 Cl2_$3
HTAB C1 Cl2_$1
HTAB C2 Cl1_$2
HTAB N1 Cl2_$1
HTAB N1 Cl2_$3
FMAP   2
PLAN   5
SIZE     0.076   0.112   0.135
ACTA    51.00
BOND   $H
CONF
L.S.  24
TEMP    23.00
WGHT    0.023100    3.813400
FVAR       0.07658
C1    1    0.394015    0.134817    0.378351    11.00000    0.04563    0.04025 =
         0.04265    0.00582    0.01632   -0.00112
AFIX  43
H1    2    0.409209    0.226507    0.325915    11.00000   -1.20000
AFIX   0
C2    1    0.352465    0.138335    0.529583    11.00000    0.04014    0.03801 =
         0.03805   -0.00049    0.01135    0.00059
AFIX  43
H2    2    0.338799    0.231817    0.580385    11.00000   -1.20000
AFIX   0
C3    1    0.331190    0.000000    0.605410    10.50000    0.02852    0.04165 =
         0.02520    0.00000    0.00655    0.00000
N1    3    0.412707    0.000000    0.306212    10.50000    0.03830    0.05450 =
         0.03107    0.00000    0.01483    0.00000
O1    4    0.531596    0.500000    0.774892    10.50000    0.04601    0.03898 =
         0.02678    0.00000    0.01886    0.00000
CL1   5    0.659252    0.500000    1.189600    10.50000    0.03166    0.04445 =
         0.04221    0.00000    0.00529    0.00000
CL2   5    0.500000    0.193776    1.000000    10.50000    0.05299    0.01858 =
         0.04593    0.00000    0.02265    0.00000
I1    6    0.262416    0.000000    0.825597    10.50000    0.03652    0.06167 =
         0.03460    0.00000    0.01503    0.00000
NP1   7    0.500000    0.500000    1.000000    10.25000    0.02752    0.01655 =
         0.02186    0.00000    0.01137    0.00000
HN1   2    0.434342    0.000000    0.204920    10.50000   -1.20000
HKLF    4

REM  SIR92 run in space group C 2/m
REM R1 =  0.0333 for    1503 Fo > 4sig(Fo)  and  0.0430 for all    1687 data
REM     60 parameters refined using      1 restraints

END

WGHT      0.0231      3.8134

REM Highest difference peak  1.452,  deepest hole -2.184,  1-sigma level  0.225
Q1    1   0.5328  0.5000  1.1045  10.50000  0.05    1.45
Q2    1   0.5210  0.5000  0.8962  10.50000  0.05    1.32
Q3    1   0.5005  0.5680  0.9215  11.00000  0.05    1.00
Q4    1   0.2338  0.0000  0.7368  10.50000  0.05    0.87
Q5    1   0.3375  0.0000  1.0382  10.50000  0.05    0.79
;
_shelx_res_checksum              98870
_shelx_hkl_file
;
   4   0   0  357.59   10.63
   4   0   0  351.92   10.40
   4   0   0  374.27   10.70
   4   0   0  353.68   10.58
   4   0   0  362.52   10.64
   4   0   0  366.07   10.58
  -4   0   0  362.95   10.41
  -4   0   0  376.44   10.71
  -4   0   0  367.00   10.69
  -4   0   0  370.75   10.35
  -4   0   0  360.06   10.60
  -4   0   0  356.21   10.63
  -4   0   0  349.04   10.60
  -4   0   0  356.85   10.43
   6   0   0   44.18    1.49
  -6   0   0   40.20    1.75
  -6   0   0   40.19    1.77
   6   0   0   41.10    1.70
   6   0   0   43.67    1.55
   6   0   0   44.08    1.89
  -6   0   0   41.83    1.88
   6   0   0   45.89    1.91
  -6   0   0   42.66    1.49
  -8   0   0  349.80   10.75
   8   0   0  346.14   10.37
  -8   0   0  366.61   10.79
  -8   0   0  343.76   10.75
  -8   0   0  360.57   10.36
  -8   0   0  349.37   10.90
   8   0   0  352.45   10.35
   8   0   0  356.56   10.79
   8   0   0  360.54   10.80
  10   0   0    1.66    0.46
  10   0   0    1.36    0.89
 -10   0   0    1.64    0.75
 -10   0   0    0.23    0.65
  10   0   0    1.69    0.80
 -10   0   0    1.16    0.71
 -10   0   0    0.77    0.39
 -10   0   0    1.06    0.71
 -12   0   0  170.73    6.44
 -12   0   0  186.35    5.76
 -12   0   0  184.65    6.41
 -12   0   0  190.64    6.70
  12   0   0  179.80    5.69
  12   0   0  186.62    6.45
  12   0   0  193.44    6.45
  14   0   0   10.41    0.93
  14   0   0   11.37    1.89
  14   0   0   10.84    1.69
 -14   0   0   11.19    1.08
 -14   0   0    9.26    1.53
 -14   0   0    8.50    1.50
 -14   0   0   10.56    1.60
  16   0   0   15.51    2.00
  16   0   0   14.23    2.03
 -16   0   0   14.41    2.05
 -16   0   0   18.47    2.39
  16   0   0   17.76    1.61
 -16   0   0   14.27    2.25
 -18   0   0   16.54    2.41
 -18   0   0   16.69    2.39
 -18   0   0   12.54    2.02
  18   0   0   13.82    2.12
  20   0   0   11.36    1.81
 -20   0   0   10.45    2.19
 -20   0   0    9.17    2.12
 -20   0   0    8.40    2.31
  22   0   0    3.20    1.80
 -22   0   0    6.55    3.15
 -22   0   0    2.84    2.58
 -22   0   0    0.99    2.52
   3  -1   0  198.24    5.91
  -3  -1   0  201.65    6.08
   3  -1   0  197.89    5.93
  -3  -1   0  206.33    5.96
   3  -1   0  210.24    5.99
  -3  -1   0  208.20    5.98
  -3  -1   0  196.33    6.04
  -3  -1   0  202.02    6.08
   3  -1   0  196.22    5.90
   3  -1   0  197.38    5.78
   3  -1   0  200.00    5.86
   3  -1   0  201.59    5.87
  -3  -1   0  207.90    6.07
  -3  -1   0  204.02    6.16
  -3   1   0  202.84    5.95
  -3   1   0  198.28    6.03
  -3   1   0  206.12    5.99
  -3   1   0  205.14    5.89
   3   1   0  203.33    5.96
   3   1   0  211.59    5.98
  -3   1   0  204.65    5.78
   3   1   0  204.37    6.08
   3   1   0  201.40    6.07
  -3   1   0  201.90    5.92
   3   1   0  204.20    6.08
   3   1   0  215.14    6.19
  -3   1   0  209.99    5.88
  -3   1   0  201.89    5.99
  -3   1   0  185.09    5.92
   3   1   0  182.36    6.05
   3   1   0  201.82    5.91
  -3   1   0  208.36    5.94
   5  -1   0   75.70    2.31
  -5  -1   0   78.79    2.44
   5  -1   0   76.54    2.52
   5  -1   0   77.89    2.64
   5  -1   0   78.98    2.47
  -5  -1   0   73.68    2.71
  -5  -1   0   75.49    2.81
   5  -1   0   75.20    2.48
   5  -1   0   78.78    2.28
  -5  -1   0   77.20    2.85
   5  -1   0   80.39    2.66
   5  -1   0   75.43    2.37
  -5  -1   0   77.00    2.52
  -5  -1   0   75.00    2.73
   5   1   0   77.94    2.52
   5   1   0   75.06    2.69
  -5   1   0   75.91    2.29
  -5   1   0   70.62    2.55
  -5   1   0   74.68    2.64
  -5   1   0   75.84    2.55
  -5   1   0   79.50    2.62
  -5   1   0   75.06    2.61
  -5   1   0   81.33    2.30
  -5   1   0   76.07    2.66
   5   1   0   72.29    2.59
   5   1   0   71.14    2.66
   5   1   0   83.35    3.06
  -5   1   0   75.95    2.37
   5   1   0   74.48    2.78
   5   1   0   72.51    2.73
   7  -1   0  245.10    7.27
  -7  -1   0  247.14    7.46
  -7  -1   0  240.22    7.17
  -7  -1   0  244.31    7.02
  -7  -1   0  236.24    7.61
   7  -1   0  242.05    7.20
  -7  -1   0  233.94    7.46
   7  -1   0  247.86    6.94
   7  -1   0  238.23    7.12
  -7  -1   0  230.40    7.44
   7  -1   0  239.60    6.98
  -7   1   0  240.95    6.93
  -7   1   0  238.06    7.45
  -7   1   0  238.38    7.36
  -7   1   0  217.24    7.26
   7   1   0  231.91    7.25
  -7   1   0  234.13    7.30
   7   1   0  238.16    7.48
   7   1   0  243.07    7.53
  -7   1   0  236.52    7.00
   9  -1   0    1.57    0.35
  -9  -1   0    1.80    0.78
  -9  -1   0    1.34    0.33
  -9  -1   0    1.38    0.73
   9  -1   0    1.24    0.72
   9  -1   0    1.28    0.59
   9  -1   0    1.14    0.40
  -9  -1   0    0.67    0.72
   9  -1   0    1.28    0.35
  -9  -1   0    1.34    0.48
  -9  -1   0    1.52    0.68
   9   1   0    0.96    0.71
  -9   1   0    1.97    0.66
   9   1   0    2.06    0.93
  -9   1   0    0.52    0.61
  -9   1   0    2.00    0.36
  -9   1   0    1.97    0.68
   9   1   0    1.50    0.96
  -9   1   0    0.75    0.63
  -9   1   0    1.07    0.46
  11  -1   0  112.52    3.94
 -11  -1   0  102.25    4.13
  11  -1   0  104.72    3.30
 -11  -1   0  109.21    3.28
  11  -1   0  108.73    3.40
 -11  -1   0  108.14    4.55
  11  -1   0  103.90    3.59
  11  -1   0  109.48    4.06
 -11  -1   0  106.94    4.38
 -11  -1   0  107.11    3.63
 -11   1   0  100.51    4.02
  11   1   0  102.32    4.22
 -11   1   0  107.93    3.38
 -11   1   0  103.78    3.98
  11   1   0  105.74    4.25
 -11   1   0  106.68    4.06
  11   1   0  106.49    3.72
 -13  -1   0   -0.16    0.85
 -13  -1   0   -0.24    0.90
  13  -1   0    0.31    0.78
 -13  -1   0    0.67    0.58
  13  -1   0    0.55    0.52
 -13  -1   0    0.01    0.94
  13  -1   0    0.23    1.09
 -13   1   0   -1.37    0.84
 -13   1   0   -0.14    0.72
 -13   1   0    0.80    0.95
 -13   1   0    0.30    0.91
  13   1   0   -0.96    1.07
  13   1   0    1.10    0.64
  13   1   0    0.99    1.17
 -13   1   0    0.11    0.41
 -15  -1   0   61.35    2.57
  15  -1   0   57.92    2.45
 -15  -1   0   57.80    3.37
 -15  -1   0   55.17    3.40
 -15  -1   0   53.27    3.48
  15   1   0   60.08    3.63
 -15   1   0   58.78    3.37
 -15   1   0   54.40    3.35
 -15   1   0   57.84    3.23
  15   1   0   58.71    3.41
  15   1   0   50.72    2.45
 -17  -1   0    2.38    1.53
 -17  -1   0   -0.78    1.10
 -17  -1   0    0.69    1.28
  17  -1   0    0.93    1.18
  17  -1   0    0.29    1.01
 -17   1   0   -0.95    1.26
 -17   1   0    0.62    1.06
  17   1   0   -0.04    1.27
 -17   1   0    1.40    1.14
  19  -1   0   27.57    2.49
 -19  -1   0   32.06    3.44
  19  -1   0   36.71    3.24
 -19  -1   0   37.97    3.36
 -19  -1   0   34.24    3.74
 -19   1   0   30.72    3.57
 -19   1   0   37.43    3.18
  19   1   0   33.25    2.96
 -19   1   0   34.82    3.21
  21  -1   0   -2.00    1.35
 -21  -1   0   -2.11    1.81
 -21  -1   0    0.29    2.28
 -21  -1   0    2.46    2.01
  21   1   0   -0.07    1.49
 -21   1   0    1.26    2.00
 -21   1   0    1.38    1.70
 -21   1   0   -1.08    2.03
 -23  -1   0    5.33    2.74
 -23  -1   0    5.46    2.91
 -23  -1   0    4.17    2.62
 -23   1   0    3.07    2.32
 -23   1   0    3.58    2.83
  23   1   0    7.03    2.21
 -23   1   0   10.52    2.93
   0  -2   0  542.72   18.00
   0  -2   0  720.44   18.27
   0  -2   0  690.59   18.22
   0  -2   0  606.95   18.13
   0  -2   0  597.96   17.92
   0  -2   0  542.83   18.25
   0  -2   0  658.70   18.16
   0  -2   0  604.40   18.05
   0  -2   0  698.70   18.43
   0   2   0  617.15   17.91
   0   2   0  528.86   18.23
   0   2   0  531.21   17.92
   0   2   0  687.79   18.50
   0   2   0  660.35   18.18
   0   2   0  658.71   18.06
   0   2   0  655.23   18.26
   0   2   0  610.40   18.74
   0   2   0  638.31   18.06
   2  -2   0   29.94    1.27
  -2  -2   0   26.93    1.11
  -2  -2   0   28.62    1.28
   2  -2   0   25.09    1.24
  -2  -2   0   26.89    1.15
  -2  -2   0   23.47    1.20
  -2  -2   0   27.07    1.18
   2  -2   0   24.04    0.91
   2  -2   0   29.22    0.87
  -2  -2   0   22.94    1.23
  -2  -2   0   29.32    1.24
   2  -2   0   26.86    1.14
   2  -2   0   27.93    1.06
   2   2   0   29.45    1.32
   2   2   0   26.04    1.19
   2   2   0   30.28    1.35
   2   2   0   29.36    1.14
  -2   2   0   28.22    1.00
   2   2   0   26.58    1.28
  -2   2   0   28.35    0.90
  -2   2   0   28.89    1.04
  -2   2   0   26.32    1.11
  -2   2   0   29.22    1.01
  -2   2   0   27.30    0.97
   2   2   0   25.96    1.21
  -2   2   0   24.75    1.32
   2   2   0   27.28    1.22
   2   2   0   29.88    1.21
  -2   2   0   29.76    1.03
  -2   2   0   29.85    1.24
  -4  -2   0  283.46    8.46
   4  -2   0  285.55    8.50
  -4  -2   0  274.04    8.59
  -4  -2   0  290.33    8.71
  -4  -2   0  281.13    8.54
   4  -2   0  277.03    8.30
  -4  -2   0  292.15    8.61
   4  -2   0  286.59    8.50
   4  -2   0  283.35    8.48
  -4  -2   0  284.19    8.80
   4  -2   0  290.56    8.30
   4  -2   0  294.19    8.46
  -4  -2   0  286.43    8.70
   4  -2   0  287.01    8.58
  -4   2   0  293.48    8.49
  -4   2   0  289.43    8.35
  -4   2   0  275.53    8.36
   4   2   0  282.04    8.64
   4   2   0  292.62    8.79
  -4   2   0  294.18    8.50
   4   2   0  296.28    8.46
   4   2   0  297.66    8.66
  -4   2   0  289.72    8.61
  -4   2   0  291.14    8.47
  -4   2   0  302.78    8.47
   4   2   0  299.62    8.60
   4   2   0  297.85    8.58
  -4   2   0  290.33    8.47
   4   2   0  263.47    8.61
  -4   2   0  276.01    8.43
   6  -2   0    0.22    0.30
  -6  -2   0   -0.10    0.47
  -6  -2   0   -0.21    0.44
   6  -2   0    0.95    0.34
   6  -2   0    0.47    0.38
   6  -2   0    0.15    0.34
   6  -2   0    0.24    0.22
  -6  -2   0   -0.06    0.38
   6  -2   0    0.32    0.22
  -6  -2   0   -0.18    0.49
  -6  -2   0    0.06    0.33
  -6   2   0    0.19    0.27
  -6   2   0    0.05    0.36
  -6   2   0    0.27    0.24
  -6   2   0   -0.18    0.45
   6   2   0    0.72    0.50
  -6   2   0    0.23    0.35
  -6   2   0    0.46    0.39
   6   2   0    0.31    0.50
  -6   2   0    0.82    0.27
   6   2   0    0.46    0.36
  -6   2   0    0.57    0.48
  -6   2   0    0.06    0.39
   6   2   0   -0.54    0.55
   8  -2   0  156.33    4.77
   8  -2   0  146.94    4.56
   8  -2   0  146.49    4.60
   8  -2   0  148.77    4.72
  -8  -2   0  146.44    5.13
  -8  -2   0  150.30    5.31
  -8  -2   0  140.04    5.07
  -8  -2   0  152.45    4.83
   8  -2   0  152.58    4.48
  -8  -2   0  154.86    4.72
   8  -2   0  152.90    4.35
  -8   2   0  147.33    4.82
  -8   2   0  154.72    4.45
  -8   2   0  148.11    4.53
  -8   2   0  146.44    4.93
   8   2   0  143.68    4.96
   8   2   0  143.68    5.17
  -8   2   0  154.95    4.35
  -8   2   0  139.27    4.88
   8   2   0  139.72    5.09
  -8   2   0  148.46    4.96
 -10  -2   0    3.24    0.53
  10  -2   0    3.33    0.62
  10  -2   0    4.10    1.20
  10  -2   0    3.76    0.43
  10  -2   0    3.72    0.61
 -10  -2   0    3.04    0.88
 -10  -2   0    2.11    0.80
 -10  -2   0    4.81    0.96
  10  -2   0    4.16    0.60
 -10  -2   0    4.63    1.00
 -10   2   0    2.98    0.72
  10   2   0    3.24    1.00
  10   2   0    4.71    1.27
 -10   2   0    3.65    0.80
 -10   2   0    4.14    0.42
 -10   2   0    3.28    0.83
 -10   2   0    3.28    0.74
  10   2   0    3.49    0.98
 -12  -2   0  102.80    4.58
 -12  -2   0  105.53    3.45
 -12  -2   0  104.52    3.84
  12  -2   0  105.95    3.97
  12  -2   0  105.07    3.23
  12  -2   0  104.61    3.65
  12  -2   0  107.88    3.71
 -12  -2   0  101.94    4.30
 -12  -2   0  103.61    4.34
  12   2   0  104.55    3.98
 -12   2   0  104.91    3.22
 -12   2   0  101.57    4.17
  12   2   0  109.42    4.55
 -12   2   0  100.81    4.01
  12   2   0  102.56    4.46
 -12   2   0   99.77    4.14
 -14  -2   0    1.34    1.02
 -14  -2   0    1.89    1.21
  14  -2   0    1.33    0.74
 -14  -2   0    1.32    1.21
 -14  -2   0    2.39    0.88
  14  -2   0    1.13    1.09
  14  -2   0    2.57    0.69
 -14   2   0    1.88    1.12
  14   2   0    3.54    1.52
  14   2   0    0.70    1.41
  14   2   0    3.02    0.99
 -14   2   0    1.03    1.03
 -14   2   0    1.89    1.21
 -14   2   0    2.09    1.01
  16  -2   0    9.51    1.54
 -16  -2   0    8.84    1.72
 -16  -2   0    5.75    1.54
  16  -2   0    9.00    1.33
 -16  -2   0   10.99    1.83
 -16   2   0    7.23    1.63
  16   2   0    8.58    1.81
  16   2   0   10.51    2.18
 -16   2   0    8.18    1.48
 -16   2   0    8.93    1.56
 -18  -2   0    9.40    2.13
 -18  -2   0    6.97    1.84
  18  -2   0    6.80    1.52
 -18  -2   0    6.90    1.77
  18  -2   0    6.32    1.39
  18   2   0    2.46    3.86
 -18   2   0    7.72    2.01
 -18   2   0    9.35    1.79
  18   2   0    5.04    1.79
 -18   2   0    5.03    1.49
 -20  -2   0    4.03    2.10
 -20  -2   0    5.71    2.08
 -20  -2   0    7.65    2.04
 -20   2   0    3.82    1.64
 -20   2   0    5.41    2.10
 -20   2   0    6.40    2.03
  20   2   0    3.51    1.86
 -22  -2   0    5.62    2.41
 -22  -2   0    1.58    2.42
 -22  -2   0    0.41    2.83
 -22   2   0    2.14    1.98
 -22   2   0   -1.35    2.34
 -22   2   0    0.77    2.32
  22   2   0   -0.05    1.90
   1  -3   0  297.24    8.25
  -1  -3   0  275.59    8.07
   1  -3   0  280.91    8.45
  -1  -3   0  280.19    8.30
  -1  -3   0  275.89    8.28
  -1  -3   0  281.00    8.46
   1  -3   0  276.56    8.03
  -1  -3   0  269.68    8.93
  -1  -3   0  288.17    8.13
   1  -3   0  278.48    8.29
  -1  -3   0  256.40    8.36
  -1  -3   0  274.96    8.17
   1  -3   0  278.33    8.03
   1  -3   0  249.01    8.52
  -1   3   0  260.90    8.18
  -1   3   0  289.45    8.08
   1   3   0  289.54    8.36
  -1   3   0  279.40    8.08
   1   3   0  283.15    8.22
  -1   3   0  291.13    8.20
   1   3   0  280.19    8.26
   1   3   0  284.93    8.23
   1   3   0  273.26    8.20
  -1   3   0  280.81    8.07
   1   3   0  274.29    8.19
  -1   3   0  277.88    8.71
  -1   3   0  275.36    8.09
  -3  -3   0  147.17    4.55
  -3  -3   0  146.71    4.72
   3  -3   0  140.80    4.65
   3  -3   0  142.45    4.68
  -3  -3   0  142.58    4.53
   3  -3   0  144.56    4.42
  -3  -3   0  135.29    4.57
  -3  -3   0  138.46    4.59
   3  -3   0  148.00    4.57
  -3  -3   0  153.30    4.88
  -3   3   0  147.34    4.42
  -3   3   0  146.06    4.25
  -3   3   0  146.26    4.63
   3   3   0  147.60    4.77
  -3   3   0  150.50    4.36
  -3   3   0  142.51    4.63
   3   3   0  142.13    4.60
  -3   3   0  146.72    4.35
   3   3   0  143.87    4.60
   3   3   0  143.40    4.61
  -3   3   0  145.71    4.34
  -3   3   0  139.35    4.72
  -3   3   0  148.71    4.30
  -3   3   0  145.61    4.33
  -5  -3   0   69.78    2.67
  -5  -3   0   69.79    2.64
  -5  -3   0   72.41    2.76
   5  -3   0   71.42    2.54
   5  -3   0   69.50    2.64
  -5  -3   0   71.28    2.97
   5  -3   0   74.01    2.13
  -5  -3   0   71.00    2.51
   5  -3   0   73.62    2.62
   5  -3   0   70.19    2.53
  -5  -3   0   68.24    2.71
  -5   3   0   71.15    2.54
  -5   3   0   70.07    2.40
  -5   3   0   73.51    2.30
   5   3   0   69.08    2.68
  -5   3   0   72.77    2.38
   5   3   0   67.06    2.70
   5   3   0   68.65    2.72
  -5   3   0   70.07    2.70
  -5   3   0   72.58    2.44
  -5   3   0   72.79    2.54
  -5   3   0   74.80    2.51
   7  -3   0  320.44    9.69
  -7  -3   0  315.52    9.99
  -7  -3   0  306.22   10.19
   7  -3   0  325.25    9.64
  -7  -3   0  329.02    9.79
  -7  -3   0  326.04    9.80
   7  -3   0  332.27    9.36
  -7  -3   0  322.03   10.01
  -7   3   0  319.25    9.69
  -7   3   0  339.82    9.58
  -7   3   0  304.89    9.55
  -7   3   0  322.99    9.64
  -7   3   0  309.02    9.66
   7   3   0  320.54   10.02
  -7   3   0  327.79    9.59
   7   3   0  324.21   10.01
  -9  -3   0    7.19    1.02
   9  -3   0    7.97    0.94
   9  -3   0    7.63    0.79
  -9  -3   0    6.37    1.11
   9  -3   0    7.73    0.84
  -9  -3   0    7.03    1.07
  -9  -3   0    7.88    1.33
  -9  -3   0    6.61    0.90
  -9   3   0    7.34    1.00
  -9   3   0    7.42    0.72
  -9   3   0    7.94    0.96
   9   3   0    5.61    1.14
  -9   3   0    7.84    0.92
  -9   3   0    8.93    0.71
   9   3   0    6.93    1.15
  -9   3   0    8.61    1.26
   9   3   0    9.08    1.31
  11  -3   0  114.46    4.00
 -11  -3   0  113.29    4.61
  11  -3   0  112.85    3.50
  11  -3   0  116.50    3.91
 -11  -3   0  105.39    4.54
 -11  -3   0  114.42    4.86
 -11  -3   0  119.38    3.99
 -11  -3   0  110.65    4.12
  11  -3   0  114.19    3.51
 -11   3   0  109.11    4.10
 -11   3   0  122.50    3.67
 -11   3   0  111.29    4.32
 -11   3   0  116.54    4.31
 -11   3   0  116.30    4.25
  11   3   0  112.79    4.45
  11   3   0  110.23    4.60
  11   3   0  117.49    4.81
 -13  -3   0    5.78    1.45
 -13  -3   0    4.84    1.34
  13  -3   0    7.33    0.88
  13  -3   0    6.95    0.76
  13  -3   0    7.04    1.12
 -13  -3   0    6.86    0.86
 -13  -3   0    7.07    1.17
 -13  -3   0    7.51    1.56
  13  -3   0    6.72    1.09
  13   3   0    7.06    1.76
 -13   3   0    5.14    1.37
  13   3   0    5.71    1.65
 -13   3   0    6.15    1.15
  13   3   0    6.57    1.55
 -15  -3   0   55.37    3.47
 -15  -3   0   53.22    2.34
 -15  -3   0   55.94    3.82
  15  -3   0   56.41    2.62
  15  -3   0   55.27    2.12
 -15  -3   0   57.10    3.75
 -15   3   0   53.62    3.09
  15   3   0   53.47    3.93
 -15   3   0   58.55    3.21
  15   3   0   55.55    3.80
 -15   3   0   52.38    3.32
 -17  -3   0    3.53    1.58
 -17  -3   0   -0.34    1.22
  17  -3   0   -0.13    0.89
 -17  -3   0    2.50    1.48
  17   3   0   -0.29    1.68
 -17   3   0   -0.22    1.41
 -17   3   0    0.40    1.27
 -17   3   0    1.05    1.27
 -19  -3   0   38.24    3.84
  19  -3   0   40.19    2.45
 -19  -3   0   45.52    3.82
 -19   3   0   36.65    3.48
 -19   3   0   42.45    3.43
 -19   3   0   38.26    4.02
  19   3   0   37.06    3.74
 -21  -3   0    1.18    2.28
 -21  -3   0   -0.60    2.25
 -21  -3   0    3.46    2.23
 -21   3   0   -3.34    2.09
 -21   3   0   -0.08    1.67
 -21   3   0   -0.54    1.92
   0  -4   0  447.90   13.11
   0  -4   0  450.18   13.15
   0  -4   0  411.55   14.08
   0  -4   0  461.70   13.26
   0  -4   0  453.11   13.72
   0  -4   0  471.68   13.19
   0   4   0  471.63   13.22
   0   4   0  470.07   13.33
   0   4   0  469.65   13.31
   0   4   0  463.36   13.29
   0   4   0  457.23   13.48
   0   4   0  453.07   13.30
  -2  -4   0    1.73    1.26
  -2  -4   0    1.96    0.84
   2  -4   0    0.40    0.40
   2  -4   0    0.52    0.54
  -2  -4   0    0.05    0.43
  -2  -4   0   -0.16    0.45
  -2  -4   0    0.45    0.33
  -2  -4   0    0.78    0.59
  -2  -4   0    0.57    0.36
   2  -4   0   -0.06    0.61
   2  -4   0    0.49    0.32
  -2   4   0    0.90    0.49
   2   4   0    0.42    0.36
  -2   4   0    0.23    0.26
   2   4   0    0.55    0.39
  -2   4   0   -0.10    0.30
  -2   4   0    0.28    0.26
  -2   4   0   -0.45    0.41
   2   4   0   -0.38    0.36
  -2   4   0    0.44    0.26
  -2   4   0   -0.01    0.28
   2   4   0    0.32    0.54
  -4  -4   0  305.41    9.64
  -4  -4   0  318.08    9.37
   4  -4   0  301.85    9.42
  -4  -4   0  297.17    9.32
  -4  -4   0  313.23    9.51
  -4  -4   0  310.06    9.23
   4  -4   0  307.59    9.09
  -4  -4   0  312.85   10.38
  -4  -4   0  306.17    9.34
   4  -4   0  298.46    9.41
   4  -4   0  298.43    9.25
  -4   4   0  311.68    8.97
   4   4   0  297.70    9.31
   4   4   0  290.66    9.29
  -4   4   0  292.90    8.94
  -4   4   0  297.72    8.94
  -4   4   0  312.14    8.96
   4   4   0  307.39    9.33
  -4   4   0  315.29    8.87
  -4   4   0  308.79    8.92
  -6  -4   0   10.77    1.29
  -6  -4   0   12.25    1.05
  -6  -4   0    9.59    1.29
  -6  -4   0   13.79    1.69
   6  -4   0   12.38    1.07
   6  -4   0   12.24    0.99
  -6  -4   0   12.59    1.20
  -6  -4   0   11.92    1.11
   6  -4   0   13.02    1.23
   6   4   0    9.87    1.24
  -6   4   0   12.60    0.75
   6   4   0   12.80    1.22
  -6   4   0   12.98    0.83
  -6   4   0   11.02    1.00
  -6   4   0   13.23    0.92
   6   4   0   11.67    1.22
  -6   4   0   14.19    0.84
  -6   4   0   13.42    0.67
  -8  -4   0  123.24    4.33
   8  -4   0  120.08    4.18
   8  -4   0  120.24    4.22
  -8  -4   0  119.92    4.53
  -8  -4   0  114.51    4.50
  -8  -4   0  124.62    4.34
  -8  -4   0  117.69    4.80
   8   4   0  120.69    4.54
  -8   4   0  120.23    4.06
  -8   4   0  121.41    4.10
  -8   4   0  123.85    3.55
  -8   4   0  119.60    4.06
   8   4   0  120.91    4.58
  -8   4   0  125.57    3.57
  -8   4   0  120.28    4.15
 -10  -4   0   -0.35    0.82
  10  -4   0    0.16    0.72
 -10  -4   0    1.48    0.92
  10  -4   0    0.69    0.56
 -10  -4   0    0.45    0.95
 -10  -4   0    0.72    1.05
 -10  -4   0   -0.38    0.86
 -10   4   0    0.38    0.69
 -10   4   0    0.41    0.87
  10   4   0    0.54    0.91
 -10   4   0    0.86    0.50
  10   4   0    0.09    1.04
 -10   4   0   -0.59    0.78
 -12  -4   0   93.99    3.91
  12  -4   0   97.58    3.33
 -12  -4   0   98.43    3.74
  12  -4   0   95.54    3.69
 -12  -4   0   97.29    4.75
 -12  -4   0   94.33    4.31
  12   4   0   92.04    4.61
  12   4   0   95.57    4.38
 -12   4   0   93.28    3.85
  12   4   0   99.05    4.54
 -12   4   0   98.06    3.33
 -12   4   0   98.40    4.20
 -14  -4   0    8.18    1.68
 -14  -4   0    4.26    1.44
 -14  -4   0    7.04    1.97
  14  -4   0    6.22    1.12
 -14  -4   0    5.65    0.94
 -14   4   0    5.22    1.52
 -14   4   0    5.60    1.24
  14   4   0    4.12    1.85
  14   4   0    6.90    1.88
 -14   4   0    6.18    1.37
 -16  -4   0   14.53    2.49
 -16  -4   0   10.62    2.16
  16  -4   0   15.22    1.58
 -16  -4   0    8.81    1.88
 -16  -4   0   17.65    2.78
  16   4   0   14.35    2.58
 -16   4   0    9.19    1.82
 -16   4   0   12.62    2.25
 -16   4   0   10.49    1.82
  16   4   0   11.65    2.32
  16   4   0   11.73    2.55
 -18  -4   0   10.11    2.04
  18  -4   0   11.89    1.82
  18   4   0    3.54    2.39
 -18   4   0   10.08    2.85
 -18   4   0    8.37    1.61
  18   4   0    4.15    2.28
 -20  -4   0    4.79    2.57
 -20   4   0   -0.86    3.55
 -20   4   0    2.86    1.64
 -20   4   0    5.06    2.11
  20   4   0    1.59    2.44
 -22  -4   0   -0.56    2.97
 -22  -4   0   -4.09    3.90
 -22  -4   0    6.26    2.85
 -22   4   0    2.17    1.96
  22   4   0   -3.62    2.31
 -22   4   0    0.15    2.39
 -22   4   0   -2.46    2.30
  -1  -5   0   44.42    3.13
  -1  -5   0   47.84    1.89
  -1  -5   0   46.72    2.11
   1  -5   0   45.54    2.62
  -1  -5   0   46.08    2.04
   1  -5   0   47.15    1.69
  -1  -5   0   45.48    2.34
  -1  -5   0   46.81    1.68
   1  -5   0   48.31    2.37
   1  -5   0   44.80    2.00
  -1  -5   0   46.47    1.83
   1  -5   0   49.69    1.68
  -1  -5   0   46.25    1.67
   1   5   0   44.65    1.88
   1   5   0   44.29    2.07
  -1   5   0   46.03    1.77
  -1   5   0   49.03    1.79
  -1   5   0   48.89    1.72
  -1   5   0   46.83    1.76
   1   5   0   48.70    1.90
  -1   5   0   46.04    1.96
   1   5   0   45.94    1.87
  -3  -5   0   38.83    1.77
  -3  -5   0   35.93    3.21
  -3  -5   0   33.81    1.38
   3  -5   0   30.66    1.62
   3  -5   0   32.52    1.92
   3  -5   0   34.55    1.97
  -3  -5   0   32.65    1.68
  -3  -5   0   31.72    1.88
  -3  -5   0   32.53    1.64
   3  -5   0   34.07    1.42
  -3  -5   0   35.75    2.34
  -3   5   0   34.48    1.34
  -3   5   0   35.33    1.56
   3   5   0   33.65    1.63
   3   5   0   31.23    1.62
  -3   5   0   32.42    1.30
   3   5   0   32.61    1.65
  -3   5   0   33.45    1.32
  -3   5   0   33.10    1.34
  -5  -5   0   11.58    1.30
   5  -5   0   11.26    1.34
  -5  -5   0   13.75    2.68
  -5  -5   0   10.30    1.23
   5  -5   0   13.91    1.34
   5  -5   0   12.01    0.95
  -5  -5   0   13.02    1.24
   5  -5   0   10.22    1.17
  -5  -5   0   12.69    1.11
  -5  -5   0   15.92    1.99
  -5   5   0   12.40    0.75
  -5   5   0   11.02    0.85
  -5   5   0   12.61    0.73
   5   5   0   14.01    1.27
   5   5   0   10.56    1.21
  -5   5   0   11.53    0.74
  -5   5   0   12.41    0.78
   5   5   0   10.44    1.17
  -7  -5   0   93.38    3.78
  -7  -5   0   93.07    4.14
   7  -5   0   93.33    3.55
  -7  -5   0   95.98    3.54
   7  -5   0   96.81    3.76
   7  -5   0   95.49    3.66
  -7  -5   0   89.20    4.02
  -7  -5   0   93.66    4.10
  -7  -5   0   98.96    3.83
  -7   5   0   94.94    3.36
  -7   5   0   96.95    3.26
  -7   5   0   93.98    3.20
  -7   5   0  106.26    3.75
   7   5   0   97.05    3.85
  -7   5   0   98.40    3.28
  -9  -5   0    1.47    0.93
  -9  -5   0    0.15    0.96
  -9  -5   0   -0.28    1.02
  -9  -5   0   -0.45    0.64
  -9  -5   0    0.57    0.75
   9  -5   0    0.15    0.81
   9  -5   0    0.12    0.60
  -9   5   0   -0.82    0.59
   9   5   0   -0.02    0.99
  -9   5   0   -0.28    0.39
  -9   5   0   -0.32    0.76
  -9   5   0   -0.11    0.23
   9   5   0   -0.43    0.90
  -9   5   0    0.61    0.63
  -9   5   0    0.14    0.35
  11  -5   0   37.07    2.33
 -11  -5   0   37.06    2.79
 -11  -5   0   40.06    3.36
 -11  -5   0   42.03    2.35
 -11  -5   0   39.62    2.91
  11  -5   0   40.77    2.21
 -11   5   0   39.81    2.09
 -11   5   0   36.91    2.36
  11   5   0   40.23    2.99
  11   5   0   38.57    2.81
 -11   5   0   41.67    2.34
 -11   5   0   36.95    2.30
  11   5   0   41.32    3.01
 -13  -5   0    0.94    1.57
  13  -5   0    2.45    0.76
 -13  -5   0    2.26    1.48
 -13  -5   0    1.38    1.29
 -13  -5   0    0.59    0.90
  13  -5   0    1.76    0.87
  13   5   0    2.18    1.50
  13   5   0    2.65    1.67
 -13   5   0    2.02    1.16
 -13   5   0    1.61    0.95
 -13   5   0    1.31    0.75
  13   5   0    1.02    1.67
 -13   5   0    0.01    1.05
 -15  -5   0   23.09    3.48
  15  -5   0   23.56    1.80
 -15  -5   0   19.14    2.14
 -15  -5   0   22.90    2.86
 -15   5   0   19.16    2.42
  15   5   0   20.06    3.32
 -15   5   0   19.57    2.16
  15   5   0   18.66    3.08
  15   5   0   21.59    3.48
 -15   5   0   21.58    2.52
 -17  -5   0    1.21    1.63
  17  -5   0   -0.67    0.96
 -17  -5   0   -0.09    1.92
 -17   5   0    0.40    1.11
  17   5   0   -0.15    1.70
 -17   5   0    0.78    1.48
  17   5   0   -0.47    2.17
 -17   5   0   -2.03    1.38
  17   5   0   -0.47    2.21
  19  -5   0   19.08    2.29
 -19  -5   0   14.74    4.37
 -19  -5   0   17.07    3.66
  19   5   0    9.18    3.18
 -19   5   0   16.99    2.78
 -19   5   0   13.98    2.53
  19   5   0   16.42    3.54
 -19   5   0   17.74    2.66
 -21  -5   0   -2.53    2.78
 -21  -5   0   -1.23    2.62
 -21  -5   0    1.60    2.46
 -21   5   0   -2.02    1.73
 -21   5   0   -1.66    1.84
  21   5   0   -3.39    2.61
   0  -6   0  337.51    9.85
   0  -6   0  330.96   10.30
   0  -6   0  333.88    9.79
   0  -6   0  363.60   11.38
   0  -6   0  302.13   10.97
   0   6   0  329.50    9.99
   0   6   0  336.45   10.04
   0   6   0  324.07   10.01
  -2  -6   0    6.54    0.62
  -2  -6   0    5.75    1.77
  -2  -6   0    6.49    0.92
   2  -6   0    5.61    1.07
  -2  -6   0    5.48    1.00
   2  -6   0    6.03    1.14
   2  -6   0    7.15    1.06
  -2  -6   0    6.94    1.12
  -2  -6   0    6.75    0.99
   2  -6   0    6.42    0.69
  -2   6   0    6.50    0.68
   2   6   0    6.08    0.80
   2   6   0    5.69    0.80
  -2   6   0    6.17    0.68
  -2   6   0    6.08    0.97
  -2   6   0    6.97    0.69
   2   6   0    5.44    0.81
   4  -6   0  126.79    4.89
  -4  -6   0  131.08    4.55
   4  -6   0  128.90    4.20
  -4  -6   0  130.61    5.13
  -4  -6   0  125.25    4.11
  -4  -6   0  122.08    4.43
   4  -6   0  124.02    4.81
   4  -6   0  117.64    4.81
  -4  -6   0  127.31    4.96
  -4  -6   0  131.32    6.29
  -4   6   0  128.95    4.10
   4   6   0  135.12    4.57
  -4   6   0  133.74    4.11
  -4   6   0  130.02    4.01
   4   6   0  128.80    4.56
  -4   6   0  126.23    4.22
  -6  -6   0   26.09    2.60
   6  -6   0   21.16    1.70
  -6  -6   0   21.79    1.78
  -6  -6   0   20.11    1.39
  -6  -6   0   21.15    1.62
   6  -6   0   20.26    1.59
  -6  -6   0   22.05    3.55
  -6  -6   0   18.51    1.77
   6  -6   0   21.86    1.90
  -6  -6   0   21.04    1.93
  -6   6   0   20.82    1.09
   6   6   0   19.12    1.71
  -6   6   0   17.34    1.09
   6   6   0   20.41    1.65
   6   6   0   22.86    1.82
  -6   6   0   18.88    1.26
  -6   6   0   21.26    1.19
   8  -6   0   99.28    4.21
  -8  -6   0   99.62    4.17
  -8  -6   0   95.00    4.17
   8  -6   0   95.19    3.83
  -8  -6   0   99.44    4.91
  -8  -6   0   97.34    5.75
  -8  -6   0  104.68    4.19
   8  -6   0   95.38    3.88
   8   6   0   97.33    4.17
  -8   6   0   96.21    3.40
  -8   6   0   95.58    3.39
  -8   6   0   98.40    3.12
  -8   6   0   95.33    3.35
  -8   6   0   96.13    3.48
   8   6   0   95.75    4.23
  -8   6   0   94.53    3.13
 -10  -6   0    5.19    1.73
 -10  -6   0    3.53    1.09
  10  -6   0    2.82    0.91
 -10  -6   0    6.02    1.49
 -10  -6   0    3.42    1.36
 -10  -6   0    2.82    2.30
  10   6   0    3.07    1.29
 -10   6   0    1.65    1.02
  10   6   0    2.82    1.21
 -10   6   0    2.01    0.90
 -10   6   0    1.86    0.60
 -10   6   0    3.75    0.78
  12  -6   0   61.53    2.96
 -12  -6   0   73.07    3.93
 -12  -6   0   60.35    3.17
 -12  -6   0   63.53    5.42
 -12  -6   0   56.49    3.55
 -12  -6   0   63.10    4.40
  12  -6   0   60.18    3.14
  12   6   0   63.53    3.72
 -12   6   0   62.67    2.73
 -12   6   0   58.54    2.77
 -12   6   0   52.13    2.90
 -12   6   0   54.80    3.01
  12   6   0   60.15    3.71
  12   6   0   61.53    3.79
 -14  -6   0    7.95    1.88
 -14  -6   0    2.84    1.77
  14  -6   0    6.21    1.19
 -14  -6   0    5.71    1.27
 -14   6   0    8.84    1.58
  14   6   0    6.04    2.10
  14   6   0    5.13    1.78
 -14   6   0    6.28    1.70
 -14   6   0    6.70    1.26
  14   6   0    7.25    2.14
  16  -6   0    8.08    1.34
 -16  -6   0    9.76    2.12
 -16  -6   0    8.05    2.51
 -16  -6   0    6.45    1.44
  16   6   0    3.56    2.36
 -16   6   0    1.38    2.45
  16   6   0    6.53    2.42
  16   6   0    8.52    2.57
 -16   6   0    8.18    1.57
 -16   6   0    7.65    1.35
 -18  -6   0    2.32    2.85
  18  -6   0    6.42    1.53
 -18  -6   0   12.16    4.68
 -18  -6   0   10.35    2.53
 -18   6   0    4.93    1.65
  18   6   0    8.84    2.36
  18   6   0    2.42    2.82
 -18   6   0    3.11    1.40
 -20  -6   0    9.28    2.83
 -20  -6   0   -1.42    3.22
 -20  -6   0    3.85    5.29
 -20   6   0    3.16    1.84
  20   6   0   -4.40    2.82
   1  -7   0   51.05    1.94
   1  -7   0   52.68    3.40
  -1  -7   0   50.28    2.44
  -1  -7   0   49.83    2.91
   1  -7   0   51.94    2.87
   1  -7   0   52.18    2.53
  -1  -7   0   51.43    1.91
   1   7   0   50.91    2.23
  -1   7   0   49.22    2.11
   1   7   0   49.40    2.16
  -1   7   0   50.00    2.09
   1   7   0   47.93    2.25
  -1   7   0   47.52    2.21
  -3  -7   0   59.50    3.37
   3  -7   0   68.78    3.07
  -3  -7   0   72.26    2.53
  -3  -7   0   69.91    3.07
   3  -7   0   78.88    4.28
  -3  -7   0   71.15    3.55
  -3  -7   0   79.02    2.99
  -3  -7   0   70.59    2.91
   3  -7   0   72.78    2.64
  -3  -7   0   74.88    5.05
   3  -7   0   73.08    3.63
  -3   7   0   71.40    2.65
  -3   7   0   72.19    2.61
   3   7   0   72.25    2.96
   3   7   0   73.92    3.09
  -3   7   0   73.28    2.91
   3   7   0   69.22    3.01
  -3   7   0   72.09    2.65
  -5  -7   0   47.50    2.47
   5  -7   0   45.26    2.92
   5  -7   0   42.80    2.38
  -5  -7   0   44.90    4.71
   5  -7   0   45.44    2.73
   5  -7   0   45.37    2.06
  -5  -7   0   44.25    1.90
  -5  -7   0   44.92    3.26
  -5  -7   0   45.15    2.85
   5   7   0   42.47    2.45
   5   7   0   47.75    2.61
  -5   7   0   48.90    1.89
   5   7   0   49.20    2.41
  -5   7   0   42.56    1.84
  -5   7   0   46.29    1.75
  -7  -7   0   71.08    3.48
  -7  -7   0   74.61    3.71
   7  -7   0   71.68    3.28
  -7  -7   0   77.18    5.81
  -7  -7   0   71.94    2.94
   7  -7   0   73.57    3.80
  -7  -7   0   81.82    3.62
  -7  -7   0   71.63    3.27
   7  -7   0   70.18    3.39
  -7  -7   0   74.72    4.41
  -7   7   0   73.47    2.70
  -7   7   0   74.54    2.76
  -7   7   0   74.62    2.71
   7   7   0   74.90    3.67
  -7   7   0   70.75    2.61
   7   7   0   76.64    3.55
   9  -7   0    5.65    1.37
  -9  -7   0    4.71    1.93
  -9  -7   0    3.86    2.54
   9  -7   0    6.37    1.66
   9  -7   0    5.43    1.10
  -9  -7   0    6.50    1.35
  -9  -7   0    6.88    1.46
  -9   7   0    5.64    0.90
  -9   7   0    5.59    0.85
  -9   7   0    5.59    0.95
  -9   7   0    6.70    0.69
   9   7   0    7.95    1.52
   9   7   0    5.91    1.48
  -9   7   0    5.52    0.85
 -11  -7   0   40.96    4.09
 -11  -7   0   42.79    3.02
 -11  -7   0   40.55    5.41
  11  -7   0   36.29    3.15
  11  -7   0   40.71    2.50
 -11  -7   0   42.66    2.79
 -11   7   0   40.65    1.98
 -11   7   0   39.94    2.03
 -11   7   0   38.50    2.25
  11   7   0   43.26    3.22
 -13  -7   0    3.58    2.21
  13  -7   0    4.45    2.81
 -13  -7   0    7.57    1.79
  13  -7   0    5.31    1.21
 -13  -7   0    5.18    1.39
 -13  -7   0    3.98    3.22
 -13   7   0    5.53    1.08
  13   7   0    6.84    1.88
  13   7   0    5.33    1.95
  13   7   0    6.37    2.03
 -13   7   0    7.41    1.31
  15  -7   0   20.04    2.22
 -15  -7   0   18.43    3.41
 -15  -7   0   19.06    2.41
 -15  -7   0   20.68    4.56
  15   7   0   20.44    3.22
 -15   7   0   21.90    2.04
  15   7   0   17.12    3.09
  15   7   0   22.48    3.57
  17  -7   0    3.11    1.35
 -17  -7   0   -1.98    1.39
 -17  -7   0   -3.26    2.72
 -17  -7   0    6.41    2.35
 -17   7   0    1.16    1.23
  17   7   0   -3.35    2.39
  17   7   0    0.76    2.72
  17   7   0    1.61    3.33
 -19  -7   0    4.95    3.59
 -19  -7   0    3.01    5.87
  19  -7   0   10.38    2.07
 -19  -7   0   12.17    3.11
  19   7   0    5.16    3.26
 -19   7   0   10.37    1.83
  19   7   0    2.42    3.34
  19   7   0   13.91    3.02
   0  -8   0  104.29    5.53
   0  -8   0  102.86    3.37
   0  -8   0   97.80    4.11
   0  -8   0   97.49    4.53
   0   8   0   95.93    3.71
   0   8   0   94.21    4.12
   0   8   0  102.17    3.67
   2  -8   0   -0.60    1.30
   2  -8   0    0.93    1.20
   2  -8   0    0.58    0.78
  -2  -8   0    0.05    0.96
  -2  -8   0    0.16    0.84
   2  -8   0   -0.08    0.54
  -2  -8   0    0.64    1.81
  -2  -8   0    0.23    0.49
  -2   8   0    0.74    0.54
   2   8   0    0.35    0.62
  -2   8   0    0.96    0.47
   2   8   0    0.18    0.60
  -2   8   0    0.35    0.48
   2   8   0    0.75    0.72
   4  -8   0   24.67    1.88
  -4  -8   0   23.62    1.94
  -4  -8   0   26.23    4.20
   4  -8   0   24.55    1.57
   4  -8   0   26.78    2.72
  -4  -8   0   23.44    1.95
  -4  -8   0   25.66    2.54
  -4  -8   0   24.75    2.66
  -4  -8   0   25.28    1.32
   4  -8   0   25.98    2.48
  -4   8   0   24.79    1.39
   4   8   0   29.37    2.35
  -4   8   0   24.54    1.18
  -4   8   0   25.63    1.43
  -4   8   0   22.84    1.37
   4   8   0   25.33    1.90
   6  -8   0    3.87    1.47
  -6  -8   0    4.75    2.57
   6  -8   0    4.56    1.31
  -6  -8   0    5.18    0.77
  -6  -8   0    4.06    1.68
   6  -8   0    3.81    1.06
  -6  -8   0    5.91    1.41
  -6  -8   0    6.17    1.45
  -6  -8   0    3.28    1.04
  -6   8   0    4.54    0.78
  -6   8   0    3.28    0.45
   6   8   0    3.85    1.09
  -6   8   0    4.38    0.66
  -6   8   0    4.21    0.74
   6   8   0    4.90    1.29
   8  -8   0   24.62    2.91
   8  -8   0   27.43    2.11
  -8  -8   0   26.10    2.57
   8  -8   0   26.78    2.36
  -8  -8   0   27.27    2.18
  -8  -8   0   25.66    5.10
  -8  -8   0   29.30    2.60
  -8  -8   0   28.16    3.49
  -8   8   0   24.97    1.56
   8   8   0   26.11    2.38
   8   8   0   29.95    2.75
  -8   8   0   28.40    1.56
  -8   8   0   27.19    1.45
  10  -8   0    0.02    0.82
 -10  -8   0    0.51    2.99
 -10  -8   0   -0.43    1.16
 -10  -8   0   -2.45    1.85
 -10  -8   0    1.65    1.43
  10  -8   0    1.99    1.20
  10  -8   0   -2.04    1.33
 -10   8   0    0.66    0.59
  10   8   0    1.42    1.43
  10   8   0   -1.66    1.17
 -12  -8   0   16.92    3.04
 -12  -8   0   21.43    2.89
 -12  -8   0   23.59    4.53
  12  -8   0   23.03    2.13
 -12  -8   0   21.82    2.48
  12  -8   0   14.94    2.32
  12   8   0   22.56    3.10
  12   8   0   24.30    3.19
  12   8   0   26.02    3.01
 -12   8   0   18.51    1.55
 -14  -8   0    1.89    1.94
 -14  -8   0   -0.20    2.63
 -14  -8   0    0.97    3.57
 -14  -8   0   -0.31    1.38
  14  -8   0    1.58    1.19
 -14   8   0    2.02    0.88
  14   8   0    1.43    2.04
  14   8   0    3.10    2.34
  14   8   0    2.56    1.98
 -16  -8   0   -1.54    2.94
 -16  -8   0    0.34    4.53
  16  -8   0    2.44    1.44
 -16  -8   0    0.97    2.32
 -16  -8   0   -0.24    1.64
 -16   8   0    1.49    1.21
  16   8   0   -1.56    2.69
  16   8   0   -0.56    2.40
  16   8   0   -4.63    2.67
 -18  -8   0    3.93    2.69
 -18  -8   0   -5.07    3.34
  18  -8   0   -0.01    1.76
 -18  -8   0   -6.97    5.26
  18   8   0   -1.15    3.86
 -18   8   0    2.11    1.28
  18   8   0   -4.92    3.12
  -1  -9   0   22.42    2.44
  -1  -9   0   29.54    3.86
  -1  -9   0   25.95    1.39
   1  -9   0   23.53    1.40
   1  -9   0   22.60    2.66
  -1  -9   0   21.07    1.93
   1  -9   0   24.58    2.15
   1  -9   0   29.91    3.39
   1   9   0   29.83    2.00
   1   9   0   23.31    1.75
  -1   9   0   25.85    1.67
  -1   9   0   25.19    1.67
   3  -9   0   22.16    2.04
  -3  -9   0   23.32    2.69
   3  -9   0   20.79    2.68
  -3  -9   0   30.75    4.04
  -3  -9   0   22.23    1.35
   3  -9   0   25.34    2.94
  -3  -9   0   22.62    2.03
   3  -9   0   21.23    1.62
  -3   9   0   24.40    1.50
   3   9   0   26.27    2.19
   3   9   0   19.73    1.86
  -3   9   0   21.22    1.45
  -3   9   0   21.71    1.42
  -5  -9   0   15.40    1.77
   5  -9   0   11.38    1.97
   5  -9   0   16.38    1.80
  -5  -9   0   24.77    4.37
  -5  -9   0   18.30    2.32
  -5  -9   0   13.65    2.02
   5  -9   0   20.54    2.58
  -5  -9   0   17.47    1.28
   5   9   0   16.55    1.92
  -5   9   0   16.81    1.33
   5   9   0   19.04    2.22
  -5   9   0   17.34    1.26
  -5   9   0   15.02    1.23
  -7  -9   0   37.48    5.61
  -7  -9   0   40.44    3.56
   7  -9   0   32.88    2.51
  -7  -9   0   32.62    3.02
  -7  -9   0   35.23    2.54
   7  -9   0   28.93    3.22
  -7  -9   0   32.87    1.82
  -7  -9   0   33.76    2.87
   7  -9   0   34.67    2.72
   7   9   0   39.52    2.88
   7   9   0   30.11    2.60
  -7   9   0   29.87    1.63
  -7   9   0   32.77    1.70
   9  -9   0    5.21    1.40
   9  -9   0    4.75    1.27
   9  -9   0    3.51    1.88
  -9  -9   0    2.58    2.02
  -9  -9   0    4.47    1.71
  -9  -9   0    2.87    1.46
  -9  -9   0    6.31    3.40
  -9  -9   0    5.89    1.23
  -9   9   0    5.66    0.91
   9   9   0    3.49    1.57
   9   9   0    9.01    1.87
 -11  -9   0   11.94    4.08
  11  -9   0    8.69    2.38
  11  -9   0   12.96    1.86
 -11  -9   0   12.60    2.12
 -11  -9   0   17.40    2.52
 -11  -9   0   16.21    1.88
 -11  -9   0    8.30    2.72
 -11   9   0   15.10    1.28
  13  -9   0    1.99    2.03
 -13  -9   0    0.52    1.65
 -13  -9   0   -1.71    2.50
 -13  -9   0    3.76    2.20
  13  -9   0    3.34    1.50
 -13  -9   0    0.28    4.70
  13   9   0    4.75    2.47
  13   9   0    4.21    2.13
  13   9   0    5.23    1.96
 -13   9   0    4.60    0.94
 -15  -9   0    8.81    2.88
 -15  -9   0    2.88    4.91
  15  -9   0    7.41    1.86
 -15  -9   0    4.40    2.07
  15   9   0    6.02    2.82
  15   9   0    3.17    3.27
 -15   9   0    7.65    1.47
  15   9   0   12.90    4.53
   0 -10   0   54.97    3.31
   0 -10   0   68.55    4.85
   0 -10   0   54.98    3.94
   0  10   0   53.20    2.78
   0  10   0   60.56    3.19
  -2 -10   0   20.30    3.91
  -2 -10   0   12.45    2.24
   2 -10   0   10.62    1.72
  -2 -10   0   14.47    1.99
   2 -10   0   12.31    2.20
   2  10   0   12.59    1.75
  -2  10   0   10.31    1.34
   4 -10   0   43.17    3.61
  -4 -10   0   41.32    3.27
  -4 -10   0   53.57    5.38
   4 -10   0   38.56    3.59
   4 -10   0   38.03    2.71
  -4 -10   0   41.69    2.75
  -4  10   0   37.99    2.04
   4  10   0   37.80    2.68
   6 -10   0   16.44    2.23
  -6 -10   0   16.70    2.81
  -6 -10   0   12.82    1.84
   6 -10   0   12.46    2.48
   6  10   0   10.63    1.71
  -6  10   0   16.51    1.30
  -8 -10   0   28.90    5.50
  -8 -10   0   21.45    3.10
   8 -10   0   22.63    2.67
   8 -10   0   16.68    2.76
  -8 -10   0   17.56    2.51
   8 -10   0   19.53    2.44
  -8 -10   0   15.73    2.82
   8  10   0   20.08    2.83
  -8  10   0   21.71    1.45
 -10 -10   0    4.53    2.15
 -10 -10   0    3.27    3.79
  10 -10   0    6.92    1.62
 -10 -10   0    7.32    2.02
  10 -10   0    1.53    2.33
 -10  10   0    6.19    0.87
 -12 -10   0   16.18    3.01
  12 -10   0   13.17    3.46
 -12 -10   0   16.48    2.89
 -12 -10   0   16.95    4.84
  12 -10   0    8.57    2.83
 -12 -10   0   13.51    2.60
 -12  10   0   17.75    1.44
  12  10   0   18.56    3.97
  12  10   0   20.44    3.40
 -14 -10   0    1.73    2.25
 -14 -10   0    0.28    2.69
 -14 -10   0    4.00    3.45
 -14 -10   0    4.30    4.81
  14 -10   0    4.74    1.97
  14  10   0    4.13    3.18
  14  10   0    5.43    2.28
 -14  10   0    3.66    0.95
  14  10   0    7.90    2.76
  -1 -11   0    9.29    2.37
   1 -11   0   10.49    1.88
  -1 -11   0   11.72    1.90
   1 -11   0    8.95    2.32
   1  11   0    7.87    1.43
  -1  11   0   12.46    1.63
   3 -11   0   16.81    3.42
  -5 -11   0    3.61    2.09
   5 -11   0    1.74    2.07
  -5 -11   0    2.90    1.56
   5 -11   0    6.91    2.05
   5 -11   0    4.59    1.51
   5  11   0    4.72    1.51
  -5  11   0    8.60    1.33
  -7 -11   0    7.27    1.82
   7 -11   0    5.82    2.54
   7  11   0    6.81    1.92
  -7  11   0   12.39    1.34
  -9 -11   0   -0.92    2.04
   9 -11   0    1.91    1.47
  -9  11   0    3.52    0.81
 -11 -11   0   11.30    4.39
  11 -11   0    3.59    1.90
 -11  11   0    8.62    1.33
  11  11   0   11.32    3.06
  11  11   0    7.20    2.16
   0 -12   0   10.48    2.07
   0 -12   0    9.47    2.63
   0  12   0   14.98    2.19
   4 -12   0    9.92    2.23
   4 -12   0    3.68    2.69
  -4 -12   0    8.96    2.09
   4 -12   0   12.62    2.93
  -4 -12   0    8.92    2.73
  -4  12   0   10.16    1.64
   6 -12   0    5.13    1.87
  -6  12   0   11.04    1.72
  22   0  -1   15.43    2.29
 -22   0   1   14.99    3.41
 -22   0   1   14.40    2.93
 -22   0   1   17.93    3.34
  20   0  -1    2.34    1.44
  20   0  -1    3.67    1.22
 -20   0   1    0.28    2.17
 -20   0   1    1.46    1.80
 -20   0   1    3.72    2.13
 -18   0   1   44.56    3.77
  18   0  -1   45.77    3.09
  18   0  -1   42.13    2.62
 -18   0   1   44.87    3.58
 -18   0   1   41.22    3.88
  16   0  -1    3.87    1.46
 -16   0   1    1.42    1.50
 -16   0   1    1.78    1.22
  16   0  -1    2.89    1.18
 -16   0   1    2.06    1.56
  14   0  -1  121.76    4.87
 -14   0   1  110.62    5.04
  14   0  -1  119.17    4.74
 -14   0   1  117.97    5.02
  14   0  -1  118.42    4.22
 -14   0   1  119.17    5.05
 -12   0   1    5.02    1.27
 -12   0   1    5.15    1.09
  12   0  -1    6.47    0.98
  12   0  -1    5.18    1.06
  12   0  -1    5.04    1.13
 -12   0   1    5.63    1.31
  10   0  -1   98.34    3.46
 -10   0   1   90.00    3.85
  10   0  -1   91.77    3.13
 -10   0   1   94.92    3.86
  10   0  -1  100.73    3.75
 -10   0   1   93.14    3.72
 -10   0   1   94.23    3.83
  10   0  -1   99.01    3.78
  -8   0   1  162.24    5.69
  -8   0   1  173.70    5.50
  -8   0   1  168.19    5.72
   8   0  -1  176.06    5.65
  -8   0   1  168.28    5.69
   8   0  -1  168.95    5.41
   8   0  -1  172.36    5.12
   8   0  -1  160.24    5.60
  -8   0   1  167.56    5.70
  -6   0   1  152.08    4.86
  -6   0   1  134.59    4.85
  -6   0   1  148.88    4.72
  -6   0   1  146.55    4.91
   6   0  -1  163.22    5.21
   6   0  -1  151.30    4.45
  -6   0   1  148.73    4.92
   6   0  -1  143.90    4.80
   6   0  -1  138.01    4.78
   6   0  -1  150.33    4.35
   6   0  -1  144.50    4.71
  -4   0   1  211.92    6.07
   4   0  -1  195.75    6.02
   4   0  -1  182.13    5.62
   4   0  -1  198.18    6.01
  -4   0   1  164.14    5.87
  -4   0   1  202.60    5.94
   4   0  -1  173.54    5.85
  -4   0   1  198.78    5.92
   4   0  -1  186.28    5.87
   4   0  -1  196.78    6.04
   4   0  -1  189.87    5.89
   2   0  -1  176.16    4.99
  -2   0   1  158.83    4.95
   2   0  -1  155.43    4.96
  -2   0   1  166.29    4.96
  -2   0   1  164.20    4.91
  -2   0   1  162.35    4.91
  -2   0   1  166.24    4.98
   2   0  -1  172.59    4.96
   2   0  -1  156.37    4.90
   2   0  -1  166.37    4.99
   2   0  -1  157.96    4.91
   2   0  -1  161.62    4.91
   0   0   1  243.95    7.78
   0   0  -1  252.44    7.81
   0   0   1  276.40    7.89
   0   0  -1  288.28    7.77
   0   0   1  258.54    7.77
   0   0  -1  289.80    7.96
   0   0   1  242.14    7.74
   0   0   1  246.56    7.87
   0   0  -1  304.44    7.80
   0   0  -1  274.74    7.80
   0   0  -1  274.95    7.81
   0   0   1  262.60    8.06
   0   0  -1  261.41    7.79
   0   0  -1  270.41    7.72
   0   0   1  261.29    7.89
   2   0   1   56.64    1.79
   2   0   1   54.05    1.80
  -2   0  -1   54.39    1.59
   2   0   1   54.47    1.80
   2   0   1   53.94    1.81
  -2   0  -1   56.37    1.82
  -2   0  -1   55.75    1.79
  -2   0  -1   56.66    1.83
   2   0   1   52.82    1.79
   2   0   1   54.59    1.79
  -2   0  -1   56.96    1.80
   2   0   1   57.00    1.93
  -2   0  -1   49.98    1.81
  -2   0  -1   54.20    1.80
   2   0   1   53.69    1.76
  -2   0  -1   54.35    1.81
  -4   0  -1 1000.00   27.83
   4   0   1  909.60   26.83
   4   0   1  901.68   27.06
  -4   0  -1  924.17   27.70
   4   0   1  932.71   26.91
   4   0   1  968.76   27.25
   4   0   1  946.78   27.33
   4   0   1  966.67   27.18
  -4   0  -1  947.67   27.11
  -4   0  -1  927.90   26.93
  -4   0  -1  953.78   27.08
   4   0   1  890.30   27.00
  -4   0  -1  920.85   26.82
  -4   0  -1  948.60   26.93
   4   0   1  961.09   26.96
   6   0   1   22.00    0.82
  -6   0  -1   22.79    1.02
   6   0   1   22.77    1.04
  -6   0  -1   21.64    1.18
  -6   0  -1   23.37    1.19
   6   0   1   22.89    0.81
  -6   0  -1   20.73    1.17
  -6   0  -1   22.25    1.35
   6   0   1   23.10    1.38
   6   0   1   22.88    1.15
   8   0   1  186.40    5.46
  -8   0  -1  181.60    6.00
  -8   0  -1  182.45    5.68
   8   0   1  186.82    6.04
  -8   0  -1  191.44    6.27
   8   0   1  188.69    6.03
  -8   0  -1  178.46    5.95
  -8   0  -1  185.31    5.95
 -10   0  -1    6.61    1.09
 -10   0  -1    8.47    1.06
 -10   0  -1    7.48    1.29
 -10   0  -1    6.83    1.15
  10   0   1    8.13    1.20
  10   0   1    5.85    1.11
 -10   0  -1    6.10    0.77
  10   0   1    6.70    0.56
 -12   0  -1  206.35    6.15
  12   0   1  202.75    6.25
 -12   0  -1  211.66    7.04
 -12   0  -1  208.67    7.41
 -12   0  -1  207.64    7.10
 -12   0  -1  211.07    6.52
 -12   0  -1  205.57    6.16
 -12   0  -1  208.00    7.12
  12   0   1  209.34    7.11
  12   0   1  209.32    7.05
  14   0   1    0.61    1.16
 -14   0  -1    0.74    0.94
  14   0   1   -0.71    1.28
 -14   0  -1    0.59    0.97
  14   0   1    0.77    0.43
 -14   0  -1   -0.83    0.52
 -14   0  -1    0.81    1.06
 -16   0  -1   67.75    3.71
  16   0   1   65.83    3.50
 -16   0  -1   68.21    2.79
 -16   0  -1   70.73    3.78
 -16   0  -1   64.77    3.92
  16   0   1   65.58    2.45
  18   0   1    0.72    1.25
 -18   0  -1    2.71    0.99
 -18   0  -1    2.03    1.33
 -18   0  -1    1.51    1.19
 -18   0  -1    2.57    1.57
 -20   0  -1   11.64    2.20
  20   0   1   10.43    1.84
 -20   0  -1   20.58    3.41
 -22   0  -1    1.02    2.11
 -22   0  -1    0.77    1.87
 -23  -1   1   -0.53    2.67
 -23  -1   1   -0.25    3.07
 -23  -1   1    2.67    2.47
 -23   1   1    2.23    2.85
 -23   1   1    0.65    2.60
  23   1  -1    1.87    1.97
 -23   1   1    0.37    2.33
 -21  -1   1    1.54    2.43
 -21  -1   1    4.48    2.38
 -21  -1   1    3.37    2.21
  21  -1  -1    4.01    1.51
  21  -1  -1    4.90    1.94
 -21   1   1   -0.55    2.34
 -21   1   1    1.54    1.90
 -21   1   1    2.09    2.30
  21   1  -1    4.49    1.71
  19  -1  -1   27.41    2.06
 -19  -1   1   21.72    3.76
  19  -1  -1   21.35    2.37
 -19  -1   1   24.72    3.36
 -19  -1   1   17.39    2.64
 -19   1   1   24.94    3.23
 -19   1   1   28.87    3.16
 -19   1   1   24.22    3.15
  19   1  -1   21.90    2.64
  17  -1  -1    0.64    0.98
 -17  -1   1   -0.96    1.47
 -17  -1   1    0.01    1.62
 -17  -1   1    0.68    1.32
  17  -1  -1    0.52    0.71
  17  -1  -1    0.68    0.95
 -17   1   1   -0.23    1.58
 -17   1   1   -0.61    1.09
  17   1  -1   -0.44    1.13
 -17   1   1   -0.64    1.49
  17   1  -1    0.43    0.90
  15  -1  -1   69.47    3.36
  15  -1  -1   67.56    2.97
 -15  -1   1   68.04    3.95
 -15  -1   1   66.03    3.91
  15  -1  -1   69.26    3.45
  15  -1  -1   66.05    2.70
 -15  -1   1   64.46    3.92
 -15   1   1   67.29    3.85
 -15   1   1   69.65    3.90
  15   1  -1   61.77    3.68
  15   1  -1   68.06    3.61
 -15   1   1   69.18    3.72
  15   1  -1   62.68    2.97
 -13  -1   1    1.44    1.19
  13  -1  -1    2.55    0.92
  13  -1  -1    1.20    0.50
  13  -1  -1    1.38    0.92
 -13  -1   1    1.08    1.34
  13  -1  -1    2.64    0.68
 -13  -1   1    2.32    1.08
  13   1  -1    2.31    1.11
 -13   1   1    2.14    0.89
 -13   1   1    1.01    1.16
  13   1  -1    2.07    0.88
  13   1  -1    1.18    1.18
 -13   1   1    2.75    1.36
  11  -1  -1  133.32    4.50
  11  -1  -1  135.01    4.86
  11  -1  -1  136.32    4.12
 -11  -1   1  133.55    5.29
 -11  -1   1  131.43    5.13
 -11  -1   1  130.41    5.09
  11  -1  -1  140.93    4.86
 -11   1   1  131.35    5.08
 -11   1   1  136.22    4.97
  11   1  -1  136.37    5.08
 -11   1   1  136.07    5.01
  11   1  -1  134.04    4.71
  11   1  -1  131.37    5.04
 -11   1   1  129.35    5.00
 -11   1   1  153.10    4.92
  -9  -1   1   18.88    1.67
  -9  -1   1   15.68    1.70
   9  -1  -1   19.28    1.17
   9  -1  -1   19.34    1.45
   9  -1  -1   18.51    0.81
   9  -1  -1   17.88    1.33
  -9  -1   1   18.07    1.80
  -9  -1   1   18.14    0.96
   9   1  -1   20.86    1.75
   9   1  -1   21.46    1.79
  -9   1   1   19.88    1.26
   9   1  -1   19.62    0.95
  -9   1   1   20.32    1.55
  -9   1   1   18.99    1.67
  -9   1   1   17.80    1.66
   9   1  -1   16.86    1.45
  -9   1   1   19.90    1.81
  -7  -1   1  352.70   10.91
   7  -1  -1  362.84   10.75
   7  -1  -1  326.10   10.24
   7  -1  -1  348.38   10.60
   7  -1  -1  349.13   10.22
   7  -1  -1  355.90   10.74
  -7  -1   1  345.61   10.75
  -7  -1   1  339.79   10.80
   7  -1  -1  363.41   10.72
  -7  -1   1  367.06   10.94
  -7  -1   1  369.28   10.41
  -7  -1   1  362.81   11.07
  -7   1   1  368.45   10.79
   7   1  -1  356.39   10.80
   7   1  -1  359.81   10.89
   7   1  -1  357.45   10.87
  -7   1   1  357.10   10.83
  -7   1   1  339.21   10.55
  -7   1   1  370.57   10.91
   7   1  -1  365.60   10.41
   7   1  -1  365.26   10.56
  -7   1   1  359.07   10.79
   5  -1  -1   62.49    1.94
  -5  -1   1   63.81    2.73
   5  -1  -1   60.14    2.27
  -5  -1   1   67.09    2.73
   5  -1  -1   73.82    2.79
   5  -1  -1   61.61    2.31
   5  -1  -1   60.87    2.36
  -5  -1   1   63.41    2.56
  -5  -1   1   66.88    2.34
  -5  -1   1   70.27    2.73
   5  -1  -1   55.70    2.33
  -5  -1   1   64.53    2.61
   5  -1  -1   66.64    2.36
  -5  -1   1   56.73    2.51
   5   1  -1   69.33    2.80
  -5   1   1   64.69    2.33
   5   1  -1   67.19    2.57
  -5   1   1   64.09    2.36
   5   1  -1   67.04    2.26
  -5   1   1   66.59    2.38
  -5   1   1   63.82    2.53
  -5   1   1   63.49    2.51
   5   1  -1   67.13    2.21
   5   1  -1   71.61    2.97
   5   1  -1   57.91    2.43
   5   1  -1   62.09    2.54
  -5   1   1   63.84    2.29
  -3  -1   1  402.21   11.94
  -3  -1   1  410.43   12.04
   3  -1  -1  393.25   11.89
   3  -1  -1  376.50   11.95
   3  -1  -1  390.37   11.88
  -3  -1   1  428.88   12.02
   3  -1  -1  404.92   11.99
  -3  -1   1  401.32   12.44
   3  -1  -1  393.03   11.87
  -3  -1   1  410.96   12.17
  -3  -1   1  465.75   12.27
   3  -1  -1  410.51   12.03
  -3  -1   1  423.96   12.10
   3   1  -1  400.59   12.37
  -3   1   1  391.14   11.95
  -3   1   1  401.72   11.91
   3   1  -1  431.25   12.00
  -3   1   1  377.17   11.95
  -3   1   1  397.82   12.00
   3   1  -1  433.31   12.02
   3   1  -1  420.06   12.16
   3   1  -1  434.43   12.08
  -3   1   1  381.18   11.88
   3   1  -1  429.00   12.04
   3   1  -1  434.16   12.24
  -3   1   1  398.73   11.71
  -3   1   1  409.05   11.96
   3   1  -1  412.37   11.91
  -1  -1   1   29.20    1.07
   1  -1  -1   28.90    1.21
  -1  -1   1   27.98    1.26
  -1  -1   1   28.67    1.14
  -1  -1   1   28.61    1.39
   1  -1  -1   29.64    1.15
   1  -1  -1   28.24    1.08
   1  -1  -1   28.10    1.10
   1  -1  -1   28.95    1.02
  -1  -1   1   32.56    1.17
   1   1  -1   32.28    1.17
   1   1  -1   25.21    1.38
  -1   1   1   28.49    1.11
   1   1  -1   33.41    1.39
  -1   1   1   29.65    1.22
  -1   1   1   27.72    1.14
  -1   1   1   29.42    1.14
  -1   1   1   28.03    1.10
   1   1  -1   31.00    1.18
   1   1  -1   33.17    1.15
   1   1  -1   24.69    1.27
  -1   1   1   29.21    1.01
   1   1  -1   31.17    1.15
   1   1  -1   30.78    1.15
  -1  -1  -1  468.01   13.04
  -1  -1  -1  454.71   13.04
   1  -1   1  429.88   13.21
  -1  -1  -1  472.38   13.09
   1  -1   1  447.25   13.03
  -1  -1  -1  465.39   13.05
  -1  -1  -1  477.38   13.27
  -1  -1  -1  483.46   13.07
   1  -1   1  475.51   12.97
   1  -1   1  402.13   13.06
   1  -1   1  451.96   12.93
   1  -1   1  424.01   12.97
   1  -1   1  431.74   12.99
  -1  -1  -1  469.37   13.05
  -1   1  -1  420.80   13.10
   1   1   1  464.13   13.05
   1   1   1  447.59   13.04
  -1   1  -1  437.51   12.98
  -1   1  -1  469.17   13.00
  -1   1  -1  471.73   13.04
  -1   1  -1  462.95   12.92
  -1   1  -1  450.17   13.09
  -1   1  -1  423.40   13.20
   1   1   1  455.02   13.05
  -1   1  -1  412.87   13.03
   1   1   1  457.06   13.06
  -1   1  -1  415.59   12.94
   1   1   1  468.01   13.09
   1   1   1  474.77   13.09
   1   1   1  465.73   13.04
  -1   1  -1  409.32   12.98
   1   1   1  444.84   12.97
   1   1   1  480.74   13.03
   3  -1   1   60.40    1.90
   3  -1   1   55.99    2.23
   3  -1   1   55.79    1.87
  -3  -1  -1   54.87    2.06
  -3  -1  -1   54.61    1.83
  -3  -1  -1   56.76    2.07
  -3  -1  -1   59.18    1.93
   3  -1   1   57.57    2.00
  -3  -1  -1   59.20    2.08
   3  -1   1   58.73    1.82
   3  -1   1   58.18    1.75
   3  -1   1   58.28    1.88
   3  -1   1   57.59    1.83
   3   1   1   57.89    1.75
   3   1   1   56.65    2.06
  -3   1  -1   59.05    1.81
  -3   1  -1   58.44    2.25
   3   1   1   57.62    1.99
   3   1   1   60.35    2.15
  -3   1  -1   57.11    1.88
  -3   1  -1   60.44    2.11
   3   1   1   54.67    2.08
  -3   1  -1   58.03    1.84
   3   1   1   60.20    2.00
  -3   1  -1   63.02    2.09
  -3   1  -1   57.17    1.88
  -3   1  -1   54.37    1.86
  -3   1  -1   55.04    1.85
   3   1   1   58.68    2.09
   3   1   1   59.37    2.11
  -5  -1  -1  329.34    9.93
  -5  -1  -1  321.27    9.78
  -5  -1  -1  325.89    9.79
   5  -1   1  329.72    9.72
   5  -1   1  321.05    9.42
   5  -1   1  309.22    9.59
   5  -1   1  331.46    9.50
  -5  -1  -1  321.71    9.61
   5  -1   1  331.81    9.60
   5  -1   1  322.97    9.54
  -5  -1  -1  332.35    9.76
  -5   1  -1  336.70    9.62
   5   1   1  331.31    9.59
  -5   1  -1  326.66    9.49
  -5   1  -1  320.71    9.57
   5   1   1  338.82    9.35
  -5   1  -1  327.00    9.42
  -5   1  -1  337.17    9.58
  -5   1  -1  308.97    9.58
   5   1   1  325.62    9.78
  -5   1  -1  337.24    9.62
   5   1   1  315.12    9.77
  -5   1  -1  320.84    9.82
   7  -1   1   30.00    1.12
   7  -1   1   29.84    1.26
   7  -1   1   31.45    1.62
  -7  -1  -1   26.51    1.55
   7  -1   1   29.69    1.23
   7  -1   1   32.36    1.53
  -7  -1  -1   27.81    1.57
  -7  -1  -1   28.27    1.69
  -7  -1  -1   29.20    1.37
  -7  -1  -1   31.01    1.54
   7   1   1   29.06    1.05
   7   1   1   25.20    1.72
   7   1   1   29.40    1.27
  -7   1  -1   27.73    1.42
  -7   1  -1   27.99    1.64
  -7   1  -1   29.63    1.43
  -7   1  -1   28.62    1.41
  -7   1  -1   29.61    1.21
   7   1   1   29.83    1.66
  -7   1  -1   30.33    1.37
   9  -1   1   81.18    3.14
   9  -1   1   84.95    3.00
  -9  -1  -1   87.53    2.89
  -9  -1  -1   84.59    3.37
  -9  -1  -1   84.88    3.36
  -9  -1  -1   85.21    3.31
  -9  -1  -1   87.30    3.06
   9  -1   1   86.95    2.78
   9   1   1   87.42    2.90
  -9   1  -1   84.79    3.78
   9   1   1   89.93    2.73
   9   1   1   86.48    2.95
  -9   1  -1   88.07    2.85
  -9   1  -1   83.82    3.43
   9   1   1   83.84    3.47
  -9   1  -1   84.32    3.19
  -9   1  -1   88.80    2.83
   9   1   1   86.92    3.40
 -11  -1  -1   35.18    1.43
  11  -1   1   32.97    2.56
 -11  -1  -1   34.88    2.17
 -11  -1  -1   33.45    2.66
 -11  -1  -1   33.53    2.08
 -11  -1  -1   34.00    1.65
  11  -1   1   33.96    1.40
 -11   1  -1   34.96    1.49
 -11   1  -1   33.06    1.28
 -11   1  -1   34.62    2.23
 -11   1  -1   32.93    1.93
  11   1   1   35.58    1.66
  11   1   1   33.18    1.40
  11   1   1   35.54    2.26
  11   1   1   36.57    2.48
 -11   1  -1   35.62    1.88
  11   1   1   34.99    1.53
 -11   1  -1   31.13    2.21
 -13  -1  -1   25.56    2.40
 -13  -1  -1   28.48    1.66
 -13  -1  -1   25.75    1.19
  13  -1   1   25.35    1.27
 -13  -1  -1   23.93    2.13
 -13  -1  -1   26.14    2.30
 -13   1  -1   26.97    1.88
  13   1   1   28.03    1.36
  13   1   1   24.57    2.52
 -13   1  -1   24.75    2.20
 -13   1  -1   26.12    1.35
  13   1   1   25.65    1.35
  13   1   1   27.06    2.66
 -13   1  -1   22.54    2.01
  13   1   1   22.92    1.39
 -13   1  -1   27.53    2.21
 -15  -1  -1    4.12    1.27
 -15  -1  -1    6.97    1.65
  15  -1   1    5.41    0.70
  15  -1   1    4.47    1.16
 -15  -1  -1    6.12    1.55
 -15   1  -1    8.49    1.61
  15   1   1    6.43    0.87
  15   1   1    5.62    1.56
 -15   1  -1    5.32    1.31
 -15   1  -1    6.81    1.29
 -15   1  -1    8.07    0.98
  15   1   1    1.99    1.60
 -17  -1  -1   10.00    1.86
 -17  -1  -1    7.03    1.11
  17  -1   1    7.61    1.35
 -17  -1  -1    7.86    1.65
 -17   1  -1    9.08    1.27
 -17   1  -1    6.49    1.46
 -17   1  -1    8.26    1.68
  17   1   1    6.88    1.71
 -17   1  -1   11.17    1.94
 -19  -1  -1   14.40    2.36
  19  -1   1   10.49    1.54
 -19  -1  -1   11.06    1.47
  19   1   1   11.60    2.08
 -19   1  -1   10.89    1.95
 -19   1  -1   15.44    2.65
 -21  -1  -1    4.35    1.98
 -21  -1  -1   -0.27    1.75
 -21  -1  -1    2.05    2.09
 -21   1  -1    1.42    1.94
 -21   1  -1    6.19    1.72
 -21   1  -1   -1.77    1.55
  21   1   1   -0.98    1.50
 -22  -2   1    9.00    3.15
 -22  -2   1    9.24    2.96
 -22  -2   1   10.48    2.99
 -22   2   1   11.05    3.05
  22   2  -1    9.31    2.23
 -22   2   1    8.45    2.84
 -22   2   1    7.31    2.44
  20  -2  -1    1.54    1.23
 -20  -2   1    1.32    2.25
  20  -2  -1    0.61    1.13
 -20  -2   1    0.90    2.04
 -20  -2   1    3.39    2.26
 -20   2   1    2.39    1.65
  20   2  -1    1.69    1.59
 -20   2   1    0.76    2.02
 -20   2   1    0.52    2.10
 -18  -2   1   28.45    3.47
  18  -2  -1   28.62    2.21
 -18  -2   1   24.25    3.17
  18  -2  -1   24.15    1.97
 -18  -2   1   24.07    3.57
 -18   2   1   24.92    3.05
  18   2  -1   22.48    2.89
 -18   2   1   21.35    3.56
  18   2  -1   22.99    3.53
 -18   2   1   24.30    2.73
 -16  -2   1    2.05    1.59
 -16  -2   1    0.14    1.48
  16  -2  -1   -0.11    0.96
 -16  -2   1    0.36    1.36
  16  -2  -1   -0.40    0.89
  16  -2  -1    0.56    0.65
 -16   2   1    0.39    1.43
  16   2  -1   -0.18    1.27
 -16   2   1   -0.38    1.58
 -16   2   1    0.61    1.05
  16   2  -1   -2.70    1.43
 -14  -2   1   69.98    3.84
  14  -2  -1   72.19    2.77
 -14  -2   1   71.31    4.07
 -14  -2   1   72.21    2.45
  14  -2  -1   72.16    3.30
  14  -2  -1   78.23    3.17
 -14  -2   1   65.57    4.32
  14  -2  -1   70.77    3.02
  14   2  -1   70.60    3.88
 -14   2   1   71.87    4.02
  14   2  -1   75.06    3.80
 -14   2   1   67.49    4.68
 -14   2   1   71.79    3.50
  14   2  -1   70.52    3.31
  12  -2  -1    0.48    0.57
 -12  -2   1    0.05    1.07
 -12  -2   1    0.40    0.52
 -12  -2   1    0.53    1.20
 -12  -2   1    0.32    0.99
  12  -2  -1    1.32    0.58
  12  -2  -1    0.30    0.57
  12  -2  -1    0.91    0.70
 -12   2   1   -1.57    0.86
 -12   2   1    0.87    0.71
  12   2  -1    1.33    0.87
  12   2  -1    2.20    1.16
  12   2  -1    0.83    1.11
 -12   2   1    1.28    1.15
 -10  -2   1   29.47    2.19
  10  -2  -1   29.34    1.63
 -10  -2   1   27.50    2.05
  10  -2  -1   30.78    1.58
 -10  -2   1   33.04    1.53
 -10  -2   1   29.14    2.18
  10  -2  -1   31.30    1.55
  10   2  -1   29.07    1.97
 -10   2   1   33.70    2.28
 -10   2   1   28.66    2.04
  10   2  -1   32.26    2.29
 -10   2   1   33.70    1.68
  10   2  -1   32.11    1.54
  10   2  -1   33.24    2.33
 -10   2   1   26.77    1.93
 -10   2   1   30.32    1.78
 -10   2   1   34.20    1.81
   8  -2  -1   55.96    2.18
  -8  -2   1   61.66    2.24
  -8  -2   1   56.44    2.87
   8  -2  -1   56.85    1.94
   8  -2  -1   54.94    2.25
  -8  -2   1   51.77    2.70
  -8  -2   1   50.87    2.64
   8  -2  -1   55.01    2.22
   8  -2  -1   56.02    2.26
   8   2  -1   58.24    2.73
  -8   2   1   56.71    2.12
   8   2  -1   56.17    2.20
  -8   2   1   56.52    2.36
  -8   2   1   54.18    2.19
   8   2  -1   62.00    2.89
  -8   2   1   57.48    2.44
  -8   2   1   56.59    2.57
   8   2  -1   62.36    2.86
  -8   2   1   60.02    2.69
   6  -2  -1   35.25    1.52
  -6  -2   1   30.06    1.83
   6  -2  -1   35.41    1.52
   6  -2  -1   33.78    1.35
  -6  -2   1   35.76    1.58
  -6  -2   1   36.95    2.18
   6  -2  -1   32.40    1.52
  -6  -2   1   30.64    1.85
   6  -2  -1   34.89    1.46
   6  -2  -1   34.59    1.42
   6   2  -1   33.58    1.73
  -6   2   1   34.02    1.53
  -6   2   1   34.66    1.53
  -6   2   1   33.54    1.29
   6   2  -1   36.33    1.96
  -6   2   1   35.44    1.50
   6   2  -1   34.19    1.54
   6   2  -1   35.56    1.97
  -6   2   1   34.28    1.81
  -6   2   1   36.47    1.75
   6   2  -1   36.68    1.97
   4  -2  -1   10.91    0.82
   4  -2  -1   10.91    0.77
   4  -2  -1   12.75    0.69
   4  -2  -1   11.60    0.62
  -4  -2   1   11.48    0.92
   4  -2  -1   12.96    1.03
  -4  -2   1   12.23    1.36
   4  -2  -1   10.15    0.73
  -4  -2   1   13.49    1.22
  -4  -2   1   11.74    1.32
  -4  -2   1   16.32    2.03
  -4   2   1   11.40    0.61
  -4   2   1   11.41    0.73
   4   2  -1   12.55    0.96
   4   2  -1   12.09    0.91
  -4   2   1   12.36    0.76
  -4   2   1   11.49    0.85
  -4   2   1   12.10    0.85
   4   2  -1    9.19    1.14
   4   2  -1    9.50    1.10
  -4   2   1   11.84    0.73
   4   2  -1   10.97    1.27
  -4   2   1   11.13    0.45
   4   2  -1    9.69    0.97
  -4   2   1   13.49    0.96
   2  -2  -1   31.83    1.18
  -2  -2   1   37.60    1.44
   2  -2  -1   32.28    1.32
  -2  -2   1   30.19    1.29
   2  -2  -1   34.91    1.40
  -2  -2   1   37.08    1.49
  -2  -2   1   37.84    2.03
   2  -2  -1   29.77    1.56
   2  -2  -1   31.46    1.26
   2  -2  -1   34.07    1.36
   2  -2  -1   31.06    1.33
  -2   2   1   33.74    1.34
  -2   2   1   33.65    1.16
   2   2  -1   37.48    2.51
  -2   2   1   34.02    1.29
   2   2  -1   31.26    1.51
   2   2  -1   36.28    1.66
  -2   2   1   32.45    1.35
   2   2  -1   38.04    2.06
  -2   2   1   33.92    1.29
   2   2  -1   30.60    1.76
   0  -2  -1  235.47    6.74
   0  -2  -1  228.55    6.68
   0  -2   1  222.77    6.44
   0  -2   1  230.33    6.93
   0  -2  -1  225.59    6.72
   0  -2   1  222.44    6.43
   0  -2   1  208.99    7.06
   0  -2  -1  226.06    6.72
   0  -2   1  210.59    6.67
   0  -2  -1  231.12    6.61
   0  -2  -1  215.85    6.87
   0  -2   1  224.35    6.78
   0   2   1  235.46    6.74
   0   2   1  231.92    6.68
   0   2   1  237.09    6.66
   0   2   1  228.46    6.72
   0   2  -1  219.71    6.47
   0   2  -1  236.28    6.88
   0   2  -1  223.44    6.48
   0   2  -1  229.66    6.70
   0   2   1  216.00    6.72
   0   2   1  228.44    6.58
   0   2   1  221.54    6.73
   0   2   1  228.44    6.87
   0   2  -1  215.90    6.57
   0   2  -1  230.63    6.69
  -2  -2  -1    4.84    0.64
  -2  -2  -1    5.53    0.47
  -2  -2  -1    5.55    0.59
   2  -2   1    5.60    0.52
  -2  -2  -1    4.79    0.63
   2  -2   1    5.04    0.52
  -2  -2  -1    6.23    0.39
   2  -2   1    6.16    1.04
   2  -2   1    5.48    0.80
  -2  -2  -1    6.20    0.69
  -2  -2  -1    4.95    0.62
  -2  -2  -1    4.90    0.66
   2   2   1    4.90    0.61
   2   2   1    5.22    0.62
  -2   2  -1    4.07    0.77
  -2   2  -1    5.52    0.83
  -2   2  -1    5.33    0.54
   2   2   1    3.96    0.68
   2   2   1    5.33    0.62
   2   2   1    5.86    0.66
  -2   2  -1    5.50    0.48
   2   2   1    5.29    0.47
   2   2   1    4.87    0.63
   2   2   1    5.22    0.64
  -4  -2  -1  347.58   10.16
  -4  -2  -1  347.12   10.30
  -4  -2  -1  361.21   10.29
   4  -2   1  329.31   10.42
   4  -2   1  336.16   10.15
  -4  -2  -1  348.37    9.95
  -4  -2  -1  339.96   10.27
  -4  -2  -1  346.20   10.36
  -4  -2  -1  362.80   10.07
   4  -2   1  314.78   10.18
   4  -2   1  333.59   10.22
  -4   2  -1  373.23   10.19
   4   2   1  319.99   10.24
  -4   2  -1  342.89    9.95
  -4   2  -1  324.18    9.88
  -4   2  -1  326.94    9.87
  -4   2  -1  343.58   10.22
   4   2   1  325.94   10.24
  -4   2  -1  357.89   10.02
  -4   2  -1  343.23    9.84
   4   2   1  354.08    9.95
   4   2   1  369.18   10.32
  -6  -2  -1    2.01    0.68
   6  -2   1    2.14    0.39
   6  -2   1    1.10    0.53
  -6  -2  -1    2.04    0.59
   6  -2   1    1.87    0.57
  -6  -2  -1    1.84    0.59
  -6  -2  -1    2.20    0.71
   6  -2   1    2.18    0.41
   6  -2   1    2.68    0.43
  -6  -2  -1    1.72    0.50
  -6   2  -1    2.48    0.47
   6   2   1    2.58    0.36
  -6   2  -1    1.96    0.32
  -6   2  -1    1.30    0.47
  -6   2  -1    2.15    0.36
  -6   2  -1    2.68    0.59
  -6   2  -1    2.49    0.49
  -6   2  -1    2.32    0.41
   6   2   1    2.13    0.71
   6   2   1    2.13    0.67
  -6   2  -1    2.48    0.70
  -6   2  -1    2.48    0.38
  -8  -2  -1  134.03    4.48
  -8  -2  -1  129.91    4.75
   8  -2   1  138.69    4.05
   8  -2   1  136.46    4.19
  -8  -2  -1  136.38    4.43
   8  -2   1  145.88    4.39
  -8  -2  -1  129.25    4.91
   8  -2   1  134.56    4.41
   8  -2   1  138.33    4.08
  -8  -2  -1  127.99    4.74
   8   2   1  138.06    4.15
  -8   2  -1  128.08    4.42
  -8   2  -1  135.69    4.15
   8   2   1  136.44    4.82
  -8   2  -1  139.60    4.27
  -8   2  -1  134.62    4.72
  -8   2  -1  131.13    4.38
   8   2   1  138.56    4.81
  -8   2  -1  139.81    4.48
 -10  -2  -1    0.85    0.75
  10  -2   1    0.99    0.56
  10  -2   1    0.29    0.37
  10  -2   1    1.21    0.40
 -10  -2  -1    0.04    0.60
 -10  -2  -1    0.39    0.38
 -10  -2  -1    0.68    0.70
 -10  -2  -1    0.40    0.88
  10  -2   1    0.62    0.34
  10  -2   1    0.13    0.62
 -10   2  -1    0.89    0.52
 -10   2  -1    0.21    0.53
 -10   2  -1    0.71    0.31
 -10   2  -1    0.65    0.51
  10   2   1    0.05    0.41
  10   2   1   -0.39    0.97
 -10   2  -1    1.05    0.53
  12  -2   1  118.01    3.90
 -12  -2  -1  117.67    4.24
  12  -2   1  126.25    4.37
  12  -2   1  120.16    3.89
 -12  -2  -1  116.98    5.00
 -12  -2  -1  111.02    4.67
 -12  -2  -1  116.76    3.94
  12  -2   1  122.31    3.95
  12   2   1  115.15    3.79
 -12   2  -1  118.41    3.77
 -12   2  -1  110.72    4.35
  12   2   1  114.44    4.24
 -12   2  -1  117.41    4.38
 -12   2  -1  107.96    5.17
 -12   2  -1  120.37    3.59
 -12   2  -1  120.13    4.35
  12   2   1  119.78    4.98
  12   2   1  120.31    4.80
 -14  -2  -1    1.64    1.23
 -14  -2  -1    2.11    1.20
 -14  -2  -1    1.33    1.15
 -14  -2  -1    2.49    0.88
 -14  -2  -1    2.70    0.59
  14  -2   1    2.84    0.72
  14  -2   1    3.03    0.61
 -14   2  -1    2.19    0.52
 -14   2  -1    1.81    0.93
  14   2   1    3.68    0.93
 -14   2  -1    2.29    1.37
  14   2   1    1.76    1.51
 -14   2  -1    2.00    1.03
  14   2   1    1.80    1.53
 -16  -2  -1   43.48    3.21
  16  -2   1   40.91    1.96
 -16  -2  -1   41.71    2.33
  16  -2   1   42.18    2.17
 -16  -2  -1   44.31    3.27
 -16  -2  -1   46.51    3.72
 -16   2  -1   46.29    2.99
 -16   2  -1   38.54    2.97
  16   2   1   41.57    3.40
 -16   2  -1   42.19    2.83
 -16   2  -1   43.88    1.82
  16   2   1   38.80    3.62
 -18  -2  -1    0.15    0.96
 -18  -2  -1    2.37    1.79
 -18  -2  -1   -0.61    1.19
 -18   2  -1    0.01    1.38
  18   2   1   -2.53    1.57
 -18   2  -1    1.06    1.25
 -20  -2  -1   10.81    2.16
 -20  -2  -1    6.84    2.06
 -20   2  -1    5.46    2.01
 -20   2  -1    7.27    1.94
  20   2   1    6.29    2.07
 -22  -2  -1    4.54    2.46
 -22  -2  -1   -1.66    2.07
 -22   2  -1    1.75    1.93
 -22   2  -1    5.24    2.13
 -22   2  -1   -0.01    2.19
 -23  -3   1   -4.65    3.19
 -23  -3   1    4.70    4.93
 -23  -3   1    3.62    4.58
 -23  -3   1    1.46    2.99
 -23   3   1    1.23    2.53
 -23   3   1   -1.61    2.42
  23   3  -1    3.84    2.23
 -23   3   1    3.62    3.06
  21  -3  -1    3.69    1.46
 -21  -3   1    2.64    2.57
  21   3  -1    4.84    2.19
 -21   3   1    1.57    2.30
 -21   3   1    2.06    1.94
 -19  -3   1   18.48    2.97
 -19  -3   1   19.70    2.99
  19  -3  -1   20.78    2.09
 -19  -3   1   16.58    2.71
  19   3  -1   22.17    3.36
 -19   3   1   18.11    2.72
 -19   3   1   20.65    2.83
  19   3  -1   15.51    2.85
 -19   3   1   20.51    3.28
 -17  -3   1    2.54    1.78
  17  -3  -1    2.77    0.98
 -17  -3   1    2.71    1.91
  17  -3  -1    3.20    1.00
 -17  -3   1    1.25    1.72
 -17   3   1    1.43    1.59
  17   3  -1    2.28    1.70
 -17   3   1    1.65    1.63
 -17   3   1    2.31    1.22
 -15  -3   1   86.40    4.67
 -15  -3   1   87.33    4.93
 -15  -3   1   81.36    4.43
 -15  -3   1   83.14    3.11
  15  -3  -1   83.40    3.57
  15  -3  -1   83.53    3.28
 -15   3   1   85.53    4.04
  15   3  -1   83.83    4.42
 -15   3   1   89.05    4.41
 -15   3   1   86.04    4.33
  15   3  -1   86.74    4.01
  15   3  -1   84.00    4.60
 -13  -3   1    5.17    1.60
  13  -3  -1    4.39    0.96
  13  -3  -1    5.83    1.09
  13  -3  -1    5.58    0.82
  13  -3  -1    5.23    0.85
 -13  -3   1    4.29    1.43
 -13  -3   1    4.47    0.89
 -13  -3   1    3.49    1.41
 -13   3   1    2.61    1.29
 -13   3   1    6.50    1.52
  13   3  -1    4.79    1.91
  13   3  -1    5.49    1.61
 -13   3   1    4.55    1.00
 -13   3   1    5.32    1.49
  13   3  -1    4.40    1.40
  11  -3  -1  138.43    4.66
 -11  -3   1  141.17    4.65
 -11  -3   1  139.56    5.68
  11  -3  -1  139.86    4.28
  11  -3  -1  143.00    4.80
 -11  -3   1  130.61    5.30
  11  -3  -1  143.49    4.73
 -11  -3   1  135.68    5.41
  11  -3  -1  131.54    4.51
  11  -3  -1  136.97    4.49
  11   3  -1  137.51    5.41
 -11   3   1  140.07    5.19
  11   3  -1  133.72    5.22
 -11   3   1  139.09    5.03
 -11   3   1  139.82    5.12
  11   3  -1  130.42    5.39
 -11   3   1  140.79    4.92
   9  -3  -1   -0.03    0.42
   9  -3  -1   -0.31    0.45
  -9  -3   1    0.27    0.96
   9  -3  -1    0.43    0.34
   9  -3  -1    0.16    0.44
  -9  -3   1    0.21    0.56
  -9  -3   1   -0.02    0.88
   9  -3  -1    0.77    0.46
   9  -3  -1    0.31    0.43
  -9  -3   1   -0.08    0.77
  -9   3   1   -0.35    0.43
  -9   3   1   -0.51    0.77
   9   3  -1    0.91    1.10
  -9   3   1    0.17    0.74
  -9   3   1    0.69    0.40
   9   3  -1    0.46    1.07
   9   3  -1   -0.30    1.65
  -9   3   1   -0.62    0.55
   7  -3  -1  346.23   10.47
  -7  -3   1  360.74   11.05
  -7  -3   1  373.28   10.81
   7  -3  -1  347.79   10.77
  -7  -3   1  357.43   11.07
  -7  -3   1  356.23   11.39
   7  -3  -1  354.48   10.61
  -7  -3   1  347.91   11.78
   7  -3  -1  377.77   10.54
   7  -3  -1  372.28   10.56
   7  -3  -1  355.54   10.43
   7  -3  -1  351.32   10.73
   7   3  -1  353.96   10.96
   7   3  -1  350.86   11.00
  -7   3   1  362.56   10.71
  -7   3   1  351.47   10.83
   7   3  -1  348.60   11.10
  -7   3   1  351.29   10.49
  -7   3   1  342.74   10.77
   7   3  -1  348.51   10.99
  -7   3   1  363.26   10.63
  -5  -3   1    0.54    0.52
   5  -3  -1   -0.13    0.26
   5  -3  -1    0.04    0.20
  -5  -3   1   -0.09    0.67
  -5  -3   1    1.39    1.34
   5  -3  -1   -0.61    0.43
  -5  -3   1   -0.54    0.75
   5  -3  -1    0.09    0.41
   5  -3  -1    0.13    0.26
  -5  -3   1    1.52    0.96
   5  -3  -1    0.01    0.31
   5  -3  -1    0.23    0.46
   5  -3  -1    0.13    0.42
  -5   3   1    0.53    0.79
   5   3  -1   -1.12    0.56
  -5   3   1    0.36    0.30
  -5   3   1    0.53    0.44
  -5   3   1   -0.19    0.49
  -5   3   1    0.48    0.38
  -5   3   1    0.29    0.17
  -5   3   1   -0.41    0.35
   5   3  -1   -1.16    0.62
   5   3  -1   -0.44    0.46
   3  -3  -1  458.63   14.36
  -3  -3   1  492.37   14.19
   3  -3  -1  490.64   14.10
  -3  -3   1  490.00   14.48
   3  -3  -1  454.68   14.06
   3  -3  -1  512.24   14.16
  -3  -3   1  488.91   14.32
  -3  -3   1  486.11   15.20
  -3  -3   1  471.31   14.68
   3  -3  -1  492.96   14.24
   3  -3  -1  486.19   14.49
  -3  -3   1  479.30   14.29
   3  -3  -1  505.69   14.34
  -3  -3   1  497.86   14.37
   3  -3  -1  471.58   14.22
  -3   3   1  520.65   14.23
  -3   3   1  499.62   14.19
  -3   3   1  507.29   14.04
   3   3  -1  478.92   14.27
   3   3  -1  489.34   14.32
  -3   3   1  484.07   14.25
  -3   3   1  495.77   14.03
  -3   3   1  484.22   14.25
   3   3  -1  485.37   14.31
  -1  -3   1   21.21    1.02
  -1  -3   1   16.43    1.49
  -1  -3   1   18.68    0.92
  -1  -3   1   18.19    0.99
   1  -3  -1   18.46    0.92
   1  -3  -1   19.67    0.96
   1  -3  -1   17.82    0.90
   1  -3  -1   19.69    0.83
   1  -3  -1   20.80    1.47
   1  -3  -1   18.80    0.98
   1  -3  -1   18.48    1.16
  -1  -3   1   18.46    1.22
   1   3  -1   18.67    0.97
  -1   3   1   19.01    0.94
   1   3  -1   17.91    0.92
  -1   3   1   19.57    0.94
  -1   3   1   19.31    0.62
  -1   3   1   19.07    0.96
   1   3  -1   19.47    0.99
   1   3  -1   20.57    1.39
  -1   3   1   19.28    0.69
  -1   3   1   18.25    0.90
   1   3  -1   18.77    0.83
  -1   3   1   17.93    0.94
   1   3  -1   19.48    0.90
  -1  -3  -1  327.68   10.89
   1  -3   1  345.84   11.11
  -1  -3  -1  364.02   10.92
   1  -3   1  378.08   10.76
  -1  -3  -1  365.72   10.71
  -1  -3  -1  365.24   10.68
   1  -3   1  361.47   10.93
  -1  -3  -1  369.25   10.70
   1  -3   1  372.35   10.67
  -1  -3  -1  358.93   10.73
  -1  -3  -1  384.39   10.75
   1   3   1  354.87   10.76
   1   3   1  393.41   10.67
   1   3   1  354.53   10.76
   1   3   1  377.84   10.77
  -1   3  -1  357.52   10.64
  -1   3  -1  347.54   10.40
  -1   3  -1  362.31   10.41
   3  -3   1   21.23    1.08
  -3  -3  -1   21.98    1.22
   3  -3   1   21.94    1.09
  -3  -3  -1   22.54    1.05
   3  -3   1   20.69    1.39
  -3  -3  -1   20.94    1.14
  -3  -3  -1   22.93    1.27
  -3  -3  -1   23.12    1.23
   3  -3   1   22.77    1.44
  -3  -3  -1   22.72    1.31
   3   3   1   21.61    1.21
   3   3   1   25.36    1.44
   3   3   1   21.28    1.06
   3   3   1   20.54    1.20
   3   3   1   22.31    1.21
   5  -3   1  403.29   12.39
  -5  -3  -1  396.16   12.21
  -5  -3  -1  412.00   12.09
  -5  -3  -1  407.02   12.35
   5  -3   1  415.82   11.96
  -5  -3  -1  418.06   12.21
  -5  -3  -1  402.25   12.22
  -5  -3  -1  412.18   11.86
   5  -3   1  386.39   12.15
   5  -3   1  396.53   12.02
  -5   3  -1  382.42   11.66
  -5   3  -1  407.10   12.07
  -5   3  -1  398.32   11.62
  -5   3  -1  404.97   11.76
   5   3   1  394.60   12.20
  -5   3  -1  410.87   11.74
  -5   3  -1  413.75   11.60
   5   3   1  414.60   12.25
   5   3   1  423.98   11.87
  -7  -3  -1   19.57    1.54
   7  -3   1   19.23    1.29
  -7  -3  -1   18.82    1.46
   7  -3   1   19.81    1.09
  -7  -3  -1   16.99    1.42
  -7  -3  -1   19.60    1.28
  -7  -3  -1   19.31    1.25
   7  -3   1   18.68    1.26
  -7   3  -1   20.17    0.93
  -7   3  -1   19.74    1.29
  -7   3  -1   20.00    0.98
  -7   3  -1   20.23    1.10
   7   3   1   21.91    1.25
  -7   3  -1   19.38    0.88
   7   3   1   19.38    1.50
  -7   3  -1   18.85    1.22
   7   3   1   17.94    2.04
  -7   3  -1   19.50    1.39
  -9  -3  -1   88.62    3.84
  -9  -3  -1   90.06    3.28
  -9  -3  -1   88.95    3.65
  -9  -3  -1   91.64    3.39
  -9  -3  -1   87.02    3.64
   9  -3   1   88.79    3.12
  -9   3  -1   87.98    3.13
  -9   3  -1   90.04    2.82
  -9   3  -1   84.23    3.17
   9   3   1   90.79    3.75
  -9   3  -1   91.83    2.85
  -9   3  -1   92.71    3.24
  -9   3  -1   90.10    2.75
  -9   3  -1   86.99    3.45
   9   3   1   92.01    3.71
 -11  -3  -1   63.68    3.28
 -11  -3  -1   63.85    3.35
 -11  -3  -1   67.70    2.66
  11  -3   1   67.82    2.54
 -11  -3  -1   63.09    3.16
 -11   3  -1   64.49    3.05
 -11   3  -1   57.06    2.70
 -11   3  -1   66.63    2.37
 -11   3  -1   66.68    2.19
 -11   3  -1   67.28    2.99
  11   3   1   62.65    3.43
 -11   3  -1   68.02    2.72
 -13  -3  -1   37.50    1.88
 -13  -3  -1   35.46    2.64
  13  -3   1   35.32    1.81
 -13  -3  -1   37.01    3.06
 -13  -3  -1   37.99    2.93
 -13  -3  -1   35.87    2.17
  13   3   1   40.17    2.92
 -13   3  -1   40.65    2.23
 -13   3  -1   38.63    1.48
 -13   3  -1   32.60    2.24
 -13   3  -1   37.54    2.46
  13   3   1   38.76    3.31
 -13   3  -1   38.57    2.38
  13   3   1   35.55    2.52
 -15  -3  -1    9.49    1.31
 -15  -3  -1    9.85    1.75
 -15  -3  -1    6.94    1.11
  15  -3   1    9.34    1.23
 -15  -3  -1    7.45    1.61
 -15  -3  -1   11.04    1.90
  15   3   1    8.24    2.12
  15   3   1    9.23    1.60
  15   3   1   10.89    2.25
 -15   3  -1    7.48    1.36
 -15   3  -1   10.10    1.51
 -15   3  -1   13.21    2.19
 -15   3  -1   11.10    0.82
 -17  -3  -1   12.41    1.51
 -17  -3  -1   18.18    2.73
 -17  -3  -1   17.34    2.72
 -17  -3  -1    7.51    1.76
  17  -3   1   11.33    1.59
  17   3   1   11.09    2.30
 -17   3  -1   10.61    1.70
  17   3   1   12.05    2.76
 -17   3  -1    9.75    1.73
 -19  -3  -1   12.49    2.43
  19   3   1    9.18    2.42
 -19   3  -1   11.78    2.18
 -19   3  -1    8.74    1.93
 -21  -3  -1    0.63    1.98
 -21   3  -1   -3.40    1.88
 -21   3  -1    4.02    1.88
 -21   3  -1    1.91    1.69
 -22  -4   1    7.33    3.40
 -22  -4   1    2.42    3.54
 -22  -4   1   11.19    5.56
 -22  -4   1    8.76    3.20
 -22   4   1    2.88    2.32
 -22   4   1    2.94    2.82
  22   4  -1    9.15    2.66
 -22   4   1    6.77    2.32
 -20  -4   1   10.40    4.39
 -20  -4   1   -0.06    2.69
 -20  -4   1    2.61    2.82
 -20  -4   1    8.81    2.82
  20  -4  -1    5.46    1.47
 -20   4   1    0.53    2.18
 -20   4   1    0.78    1.84
 -20   4   1    4.17    1.77
  20   4  -1   -0.31    3.78
  20   4  -1    3.03    2.30
 -18  -4   1   28.15    3.53
 -18  -4   1   21.52    3.03
 -18  -4   1   17.54    2.96
  18  -4  -1   26.24    2.20
 -18   4   1   23.89    2.68
 -18   4   1   18.08    3.08
  18   4  -1   22.14    3.36
  18   4  -1   18.19    2.94
 -18   4   1   20.64    3.06
 -16  -4   1   -1.55    0.81
  16  -4  -1    1.00    0.85
 -16  -4   1   -1.74    1.52
 -16  -4   1   -0.59    1.49
 -16  -4   1    1.17    1.65
  16   4  -1    1.09    1.91
 -16   4   1    0.15    0.99
  16   4  -1    1.68    1.40
 -16   4   1   -0.60    1.44
 -16   4   1    0.34    1.37
  16   4  -1    1.02    1.80
  14  -4  -1   65.92    3.07
 -14  -4   1   69.29    4.50
 -14  -4   1   65.96    3.03
  14  -4  -1   70.56    2.53
 -14  -4   1   65.06    3.91
 -14  -4   1   68.95    4.13
 -14   4   1   65.95    3.74
  14   4  -1   67.43    4.20
  14   4  -1   68.37    3.91
  14   4  -1   69.86    4.34
 -14   4   1   65.98    3.59
 -14   4   1   65.93    3.84
 -12  -4   1    6.43    1.59
  12  -4  -1    8.32    1.10
  12  -4  -1    7.13    0.92
 -12  -4   1    7.78    1.12
 -12  -4   1    6.83    1.77
  12  -4  -1    7.90    0.67
 -12  -4   1    6.90    1.52
  12  -4  -1    7.19    1.21
  12  -4  -1    9.39    1.48
 -12   4   1    8.25    1.26
  12   4  -1    7.06    1.91
 -12   4   1    9.80    1.55
 -12   4   1    7.82    1.36
  12   4  -1    7.95    1.77
  12   4  -1   10.90    2.05
 -12   4   1    7.94    1.43
 -10  -4   1   43.69    2.62
  10  -4  -1   40.71    1.46
  10  -4  -1   41.33    1.45
 -10  -4   1   43.37    3.26
  10  -4  -1   41.01    1.94
  10  -4  -1   39.73    2.12
 -10  -4   1   38.85    3.62
 -10  -4   1   39.97    2.67
 -10  -4   1   43.94    2.29
  10  -4  -1   42.11    1.85
 -10   4   1   45.78    1.91
  10   4  -1   43.52    2.84
 -10   4   1   43.64    2.00
  10   4  -1   40.67    2.81
 -10   4   1   40.02    2.24
 -10   4   1   40.10    2.36
 -10   4   1   42.86    2.21
  10   4  -1   40.71    2.85
   8  -4  -1   78.68    3.32
  -8  -4   1   73.89    3.80
   8  -4  -1   76.93    2.40
   8  -4  -1   75.62    2.95
   8  -4  -1   77.09    2.45
   8  -4  -1   77.41    2.68
  -8  -4   1   77.88    3.38
  -8  -4   1   79.76    3.15
  -8  -4   1   74.14    4.42
  -8  -4   1   75.43    3.68
   8  -4  -1   81.34    2.78
  -8   4   1   84.24    2.84
  -8   4   1   82.46    3.15
  -8   4   1   77.62    2.74
   8   4  -1   75.82    3.41
  -8   4   1   79.83    3.12
  -8   4   1   75.25    3.00
   6  -4  -1   52.48    1.70
  -6  -4   1   50.20    2.52
  -6  -4   1   55.84    2.47
   6  -4  -1   55.04    1.91
   6  -4  -1   50.22    2.19
   6  -4  -1   51.61    1.72
   6  -4  -1   53.77    2.28
  -6  -4   1   53.28    3.75
  -6  -4   1   57.03    3.25
   6  -4  -1   53.10    1.99
  -6  -4   1   50.03    2.53
  -6   4   1   53.14    1.68
  -6   4   1   54.30    2.30
  -6   4   1   53.56    1.81
   6   4  -1   49.22    2.47
  -6   4   1   55.39    2.08
   6   4  -1   50.33    2.49
  -6   4   1   51.63    2.15
  -6   4   1   55.31    2.22
   6   4  -1   52.99    2.37
  -4  -4   1   27.04    1.74
  -4  -4   1   28.41    2.38
   4  -4  -1   25.35    1.34
   4  -4  -1   26.44    1.16
   4  -4  -1   25.43    1.03
   4  -4  -1   25.23    1.53
  -4  -4   1   26.92    1.30
  -4  -4   1   25.89    1.72
  -4  -4   1   27.95    1.42
  -4  -4   1   29.23    1.62
  -4  -4   1   25.73    2.71
   4  -4  -1   25.41    1.40
   4  -4  -1   27.55    1.26
  -4   4   1   27.43    1.34
  -4   4   1   26.47    1.29
  -4   4   1   27.05    1.24
  -4   4   1   26.23    1.10
   4   4  -1   26.46    1.45
   4   4  -1   25.80    1.47
   4   4  -1   24.53    1.49
  -4   4   1   26.52    1.08
   2  -4  -1   77.85    2.74
   2  -4  -1   69.32    2.54
  -2  -4   1   73.94    3.02
  -2  -4   1   78.93    2.57
   2  -4  -1   74.95    2.56
   2  -4  -1   70.94    2.44
  -2  -4   1   74.34    2.74
  -2  -4   1   62.96    3.59
  -2  -4   1   71.19    2.54
  -2  -4   1   78.78    2.74
   2  -4  -1   71.80    2.87
  -2  -4   1   70.97    2.97
  -2  -4   1   73.92    2.34
   2  -4  -1   73.68    3.16
   2  -4  -1   75.05    2.51
  -2   4   1   71.85    2.57
  -2   4   1   73.97    2.25
   2   4  -1   74.54    2.61
  -2   4   1   73.26    2.55
   2   4  -1   74.73    2.60
   2   4  -1   68.07    2.67
  -2   4   1   72.59    2.58
   0  -4  -1  257.11    7.87
   0  -4   1  258.72    7.74
   0  -4  -1  265.36    7.78
   0  -4  -1  259.60    7.78
   0  -4   1  261.18    7.93
   0  -4   1  237.77    8.48
   0  -4  -1  257.63    8.60
   0  -4   1  256.83    8.19
   0  -4  -1  254.53    7.82
   0  -4  -1  250.11    8.11
   0  -4  -1  262.69    7.78
   0   4  -1  258.57    7.54
   0   4   1  274.42    7.86
   0   4   1  269.95    7.63
   0   4   1  260.55    7.85
   0   4   1  246.74    7.82
   0   4  -1  260.33    7.61
   0   4  -1  254.13    7.59
   0   4  -1  251.83    7.59
   2  -4   1    4.22    0.92
   2  -4   1    4.03    0.66
  -2  -4  -1    2.94    0.64
  -2  -4  -1    3.46    0.67
  -2  -4  -1    3.38    0.55
  -2  -4  -1    2.45    0.62
   2  -4   1    2.60    0.75
  -2  -4  -1    2.71    0.76
  -2  -4  -1    4.13    0.42
  -2  -4  -1    3.02    0.68
   2   4   1    2.60    0.55
   2   4   1    3.64    0.60
  -2   4  -1    3.00    0.29
   2   4   1    2.80    0.60
  -2   4  -1    3.05    0.35
   2   4   1    3.26    0.59
  -4  -4  -1  238.72    7.67
  -4  -4  -1  241.86    7.69
  -4  -4  -1  242.81    7.58
  -4  -4  -1  245.01    7.52
   4  -4   1  238.36    7.84
   4  -4   1  227.35    7.38
  -4  -4  -1  231.65    7.54
   4  -4   1  235.06    7.65
   4  -4   1  246.71    7.38
  -4  -4  -1  246.69    7.35
  -4   4  -1  241.85    7.37
   4   4   1  234.79    7.58
   4   4   1  247.47    7.60
   4   4   1  238.36    7.57
   6  -4   1   20.35    1.17
  -6  -4  -1   18.72    1.42
   6  -4   1   19.08    1.58
   6  -4   1   20.08    1.21
  -6  -4  -1   17.75    1.53
   6  -4   1   18.40    1.47
  -6  -4  -1   18.50    1.11
  -6  -4  -1   18.81    1.35
  -6  -4  -1   17.43    1.30
  -6  -4  -1   14.34    1.53
  -6   4  -1   18.18    0.75
  -6   4  -1   18.82    0.91
   6   4   1   18.98    1.41
  -6   4  -1   18.00    0.93
  -6   4  -1   18.47    1.00
  -6   4  -1   17.47    1.13
  -6   4  -1   18.44    0.79
   6   4   1   17.88    1.57
  -8  -4  -1  132.55    5.03
   8  -4   1  143.64    4.90
  -8  -4  -1  150.19    5.02
  -8  -4  -1  142.02    5.17
  -8  -4  -1  141.74    5.18
  -8  -4  -1  142.43    5.39
   8  -4   1  141.18    4.73
   8  -4   1  137.93    4.88
  -8   4  -1  136.76    4.55
   8   4   1  140.01    5.20
  -8   4  -1  147.32    4.91
  -8   4  -1  139.69    4.45
  -8   4  -1  146.98    4.61
   8   4   1  142.79    5.19
  -8   4  -1  143.74    4.34
  -8   4  -1  145.03    4.57
  10  -4   1    2.26    0.71
 -10  -4  -1    1.39    0.94
 -10  -4  -1    1.27    1.02
 -10  -4  -1    0.94    0.76
 -10  -4  -1    0.51    0.64
 -10  -4  -1    1.28    0.94
  10  -4   1    0.94    0.57
 -10   4  -1    0.89    0.64
  10   4   1    0.78    1.04
 -10   4  -1    1.51    0.57
 -10   4  -1    1.19    0.32
 -10   4  -1    1.44    0.51
 -10   4  -1    1.53    0.76
 -12  -4  -1   91.46    3.77
 -12  -4  -1   89.69    4.15
  12  -4   1   87.20    3.43
 -12  -4  -1   93.36    4.57
 -12  -4  -1   86.35    4.36
 -12   4  -1   86.88    3.65
 -12   4  -1   95.85    3.53
  12   4   1   92.43    4.40
 -12   4  -1   91.89    3.55
 -12   4  -1   88.19    4.17
 -14  -4  -1   -0.10    1.19
 -14  -4  -1    0.99    0.93
 -14  -4  -1    1.24    1.20
 -14  -4  -1    0.47    0.72
 -14  -4  -1    0.63    1.43
  14  -4   1   -0.24    0.71
  14   4   1   -0.03    1.51
  14   4   1    0.02    1.62
  14   4   1   -0.71    1.48
 -14   4  -1    0.33    0.85
 -14   4  -1    0.34    1.01
 -16  -4  -1   33.51    3.01
 -16  -4  -1   35.26    2.48
 -16  -4  -1   35.64    3.45
 -16  -4  -1   39.59    3.26
 -16   4  -1   35.31    2.85
 -16   4  -1   34.09    2.70
  16   4   1   31.68    3.78
  16   4   1   28.93    3.86
  16   4   1   35.46    4.13
 -18  -4  -1    1.38    1.70
 -18  -4  -1    1.95    1.32
 -18  -4  -1    2.21    1.71
 -18   4  -1    0.76    1.27
  18   4   1    0.83    2.22
 -18   4  -1   -0.46    1.49
 -20  -4  -1   11.80    2.39
 -20  -4  -1    5.20    2.54
 -20   4  -1    8.54    2.22
 -20   4  -1    8.66    1.92
 -20   4  -1    4.09    2.26
  20   4   1    2.12    3.49
 -21  -5   1   -1.15    3.12
 -21  -5   1    1.07    2.98
 -21  -5   1   -4.06    5.06
 -21  -5   1    2.63    2.87
  21  -5  -1    2.64    1.72
 -21   5   1    3.20    1.91
  21   5  -1   -3.97    2.38
 -19  -5   1    6.93    3.25
 -19  -5   1    8.98    2.72
 -19  -5   1    7.15    4.62
 -19  -5   1    9.56    2.78
  19  -5  -1   11.14    1.68
 -19   5   1    4.78    2.41
 -19   5   1    6.99    1.88
  19   5  -1    6.25    2.78
 -19   5   1    9.53    2.08
  19   5  -1    7.52    2.67
 -17  -5   1   -0.89    2.00
 -17  -5   1   -1.11    1.15
 -17  -5   1   -2.00    1.90
  17  -5  -1    0.78    1.01
 -17  -5   1    0.89    1.95
 -17  -5   1   -1.47    3.25
  17   5  -1    2.61    1.56
  17   5  -1   -0.38    1.94
 -17   5   1   -0.61    1.20
  17   5  -1   -1.96    1.98
 -17   5   1    0.02    1.13
 -15  -5   1   33.53    3.28
  15  -5  -1   32.95    2.30
 -15  -5   1   32.35    5.26
 -15  -5   1   31.57    2.44
 -15  -5   1   25.19    4.10
 -15  -5   1   30.01    4.30
 -15   5   1   32.48    2.33
 -15   5   1   27.51    2.54
  15   5  -1   31.46    3.62
  15   5  -1   38.42    3.81
 -15   5   1   31.33    3.05
  15   5  -1   37.25    3.30
 -13  -5   1    0.31    2.12
 -13  -5   1    3.44    1.58
  13  -5  -1   -0.04    0.88
 -13  -5   1    1.68    1.65
  13  -5  -1    0.80    0.78
 -13  -5   1    0.53    1.46
 -13  -5   1   -1.08    0.91
  13   5  -1    0.99    1.64
  13   5  -1   -1.32    1.58
 -13   5   1   -2.25    1.34
  13   5  -1    0.03    1.73
 -13   5   1    1.03    0.71
 -13   5   1    1.17    1.31
 -13   5   1    0.13    0.84
 -11  -5   1   49.98    4.74
 -11  -5   1   43.98    3.09
  11  -5  -1   45.02    2.44
  11  -5  -1   46.97    2.43
 -11  -5   1   50.21    3.18
 -11  -5   1   46.99    2.69
 -11  -5   1   50.39    4.03
 -11   5   1   45.42    2.46
 -11   5   1   45.98    2.69
  11   5  -1   46.09    3.32
  11   5  -1   43.18    3.33
  11   5  -1   46.21    3.36
 -11   5   1   46.19    2.17
  -9  -5   1    3.35    0.94
  -9  -5   1    4.90    1.66
   9  -5  -1    4.91    0.91
   9  -5  -1    4.47    0.91
  -9  -5   1    3.43    1.92
  -9  -5   1    6.17    1.29
  -9   5   1    4.14    0.76
   9   5  -1    4.01    1.26
  -9   5   1    4.21    0.94
  -9   5   1    4.19    0.81
   9   5  -1    4.50    1.70
   9   5  -1    2.66    1.26
  -9   5   1    4.22    0.77
   7  -5  -1  123.05    4.49
   7  -5  -1  126.57    4.58
  -7  -5   1  123.62    5.44
   7  -5  -1  124.34    4.23
  -7  -5   1  126.60    4.72
  -7  -5   1  128.02    4.74
  -7  -5   1  129.10    5.43
  -7  -5   1  126.29    6.27
  -7   5   1  123.76    4.31
  -7   5   1  130.65    4.36
  -7   5   1  129.82    3.81
  -7   5   1  130.57    3.89
   7   5  -1  124.53    4.76
  -7   5   1  129.41    4.26
  -7   5   1  119.80    4.55
   7   5  -1  126.56    4.62
   5  -5  -1    8.43    0.72
   5  -5  -1    8.49    0.92
  -5  -5   1    8.45    1.21
  -5  -5   1    9.00    1.00
  -5  -5   1    8.52    1.45
  -5  -5   1    8.18    1.54
   5  -5  -1    8.20    0.92
  -5  -5   1   10.09    1.48
   5  -5  -1    7.78    1.22
  -5  -5   1    7.95    1.98
   5   5  -1    8.87    1.00
  -5   5   1    9.19    0.86
  -5   5   1    7.65    0.85
  -5   5   1    8.98    0.68
   5   5  -1    7.49    1.09
   5   5  -1    8.86    1.12
  -3  -5   1  152.86    4.80
   3  -5  -1  136.63    4.98
  -3  -5   1  145.35    4.85
  -3  -5   1  145.12    4.70
   3  -5  -1  142.16    4.26
  -3  -5   1  138.61    4.56
   3  -5  -1  138.13    4.36
   3  -5  -1  149.56    4.47
  -3  -5   1  127.86    5.06
  -3  -5   1  139.01    6.01
  -3  -5   1  143.93    5.11
  -3  -5   1  140.62    4.40
   3  -5  -1  140.37    4.97
  -3   5   1  148.21    4.30
  -3   5   1  144.90    4.61
   3   5  -1  130.24    4.94
  -3   5   1  146.69    4.58
   3   5  -1  140.67    4.66
  -3   5   1  137.26    4.58
   3   5  -1  144.89    4.70
  -1  -5   1    0.08    0.65
  -1  -5   1    0.20    0.41
   1  -5  -1    0.08    0.40
   1  -5  -1    0.43    0.40
  -1  -5   1   -0.09    0.36
  -1  -5   1   -0.38    0.87
  -1  -5   1   -0.69    0.62
   1  -5  -1    0.00    0.40
   1  -5  -1   -0.17    0.52
   1  -5  -1    0.35    0.45
   1  -5  -1    0.33    0.50
   1  -5  -1   -0.29    1.00
  -1   5   1    0.12    0.31
  -1   5   1    0.33    0.38
   1   5  -1    0.19    0.56
  -1   5   1    0.01    0.23
   1   5  -1   -0.11    0.34
   1   5  -1    0.34    0.35
  -1   5   1    0.56    0.57
  -1  -5  -1  119.00    5.10
  -1  -5  -1  121.72    3.43
  -1  -5  -1  117.37    4.07
  -1  -5  -1  110.84    3.94
   1  -5   1  113.84    3.79
   1  -5   1  115.79    4.35
  -1  -5  -1  114.49    4.30
   1  -5   1  108.61    3.99
   1  -5   1  113.58    4.63
  -1  -5  -1  113.34    3.89
  -1  -5  -1  114.49    3.99
  -1   5  -1  111.33    3.58
  -1   5  -1  113.54    3.59
  -1   5  -1  117.43    3.59
   1   5   1  116.01    3.97
  -1   5  -1  118.11    3.55
   1   5   1  118.40    3.81
   1   5   1  109.37    3.94
   1   5   1  122.18    3.99
  -3  -5  -1    0.46    0.55
   3  -5   1    1.28    0.83
  -3  -5  -1    1.31    0.33
   3  -5   1    2.16    0.55
   3  -5   1    1.20    0.72
  -3  -5  -1    0.43    0.68
  -3  -5  -1    1.72    0.63
  -3  -5  -1    1.00    0.68
  -3  -5  -1    0.87    0.44
   3  -5   1    0.45    0.42
   3   5   1    0.61    0.49
   3   5   1    1.22    0.52
  -3   5  -1    1.01    0.20
   5  -5   1  128.04    4.88
  -5  -5  -1  129.34    4.39
  -5  -5  -1  129.41    4.64
   5  -5   1  126.00    4.38
   5  -5   1  131.34    4.83
  -5  -5  -1  131.77    4.78
  -5  -5  -1  130.04    4.60
  -5  -5  -1  132.21    4.87
  -5   5  -1  134.63    3.89
   5   5   1  131.86    4.77
   5   5   1  123.99    4.61
  -5   5  -1  131.96    3.90
  -5   5  -1  131.22    4.34
   7  -5   1    2.08    0.77
  -7  -5  -1    2.53    1.11
  -7  -5  -1    2.10    0.78
   7  -5   1    1.68    1.02
  -7  -5  -1    2.25    0.83
  -7  -5  -1    2.20    0.92
   7  -5   1    2.83    0.75
  -7  -5  -1    3.01    0.85
   7  -5   1    2.30    0.59
  -7  -5  -1    3.42    0.67
  -7   5  -1    3.02    0.58
   7   5   1    3.13    0.90
  -7   5  -1    3.10    0.59
  -7   5  -1    2.61    0.58
  -7   5  -1    2.97    0.44
  -7   5  -1    2.66    0.45
  -9  -5  -1   28.23    2.17
  -9  -5  -1   25.87    1.84
  -9  -5  -1   24.34    1.91
   9  -5   1   28.82    1.73
  -9  -5  -1   26.05    2.42
   9  -5   1   29.22    2.16
  -9  -5  -1   30.15    2.28
  -9   5  -1   26.69    1.16
   9   5   1   25.13    2.28
   9   5   1   26.74    2.33
  -9   5  -1   29.32    1.81
  -9   5  -1   27.23    1.53
  -9   5  -1   25.76    1.63
  -9   5  -1   27.66    1.34
 -11  -5  -1   21.04    1.91
  11  -5   1   19.31    1.93
  11  -5   1   23.49    1.80
 -11  -5  -1   20.28    2.55
 -11  -5  -1   20.59    2.23
 -11  -5  -1   18.32    3.02
 -11   5  -1   18.28    1.60
 -11   5  -1   24.62    1.40
 -11   5  -1   18.13    1.86
  11   5   1   20.11    2.53
  11   5   1   19.72    2.41
 -13  -5  -1   10.58    1.92
 -13  -5  -1   13.20    1.79
 -13  -5  -1   13.27    2.32
  13  -5   1   13.19    1.55
 -13  -5  -1   20.11    3.17
 -13  -5  -1   11.52    1.77
 -13   5  -1   13.33    1.71
 -13   5  -1   11.58    1.50
 -13   5  -1   11.55    1.56
  13   5   1   18.82    2.71
  13   5   1   15.65    2.17
  13   5   1   12.00    2.10
 -15  -5  -1    3.91    1.61
 -15  -5  -1    7.45    2.17
 -15  -5  -1    3.28    1.20
 -15  -5  -1    1.92    1.07
 -15  -5  -1    3.11    1.57
  15  -5   1    3.97    0.99
 -15   5  -1    1.17    1.38
  15   5   1    4.23    1.85
 -15   5  -1    4.00    1.12
  15   5   1    1.37    1.81
  15   5   1    0.13    1.89
 -17  -5  -1    6.69    1.99
 -17  -5  -1    4.38    2.10
 -17  -5  -1    3.20    1.43
  17  -5   1    4.84    1.12
 -17   5  -1    6.18    1.78
 -17   5  -1    5.01    1.36
 -17   5  -1    7.24    1.51
  17   5   1    0.84    2.40
  17   5   1    1.13    1.99
  17   5   1    0.76    2.47
 -19  -5  -1   10.38    2.27
 -19  -5  -1    4.29    2.43
 -19   5  -1    5.95    1.70
  19   5   1    2.24    2.83
 -19   5  -1    1.13    1.90
 -19   5  -1    6.81    2.55
 -21  -5  -1    6.00    2.26
 -20  -6   1    2.17    2.76
  20  -6  -1    2.06    1.76
 -20  -6   1   -2.39    5.35
 -20  -6   1   -5.51    2.98
  20   6  -1   -0.34    2.71
  20   6  -1   -4.76    2.82
 -20   6   1    2.62    1.69
 -20   6   1   -2.48    2.11
 -18  -6   1   12.24    3.40
 -18  -6   1   17.29    3.09
 -18  -6   1   16.86    5.10
  18  -6  -1   17.76    2.22
 -18  -6   1   16.07    4.44
 -18   6   1   10.96    2.31
  18   6  -1   13.06    3.07
  18   6  -1   11.71    3.00
 -18   6   1   17.31    2.66
 -16  -6   1    2.91    2.21
 -16  -6   1    3.83    3.45
  16  -6  -1    2.57    1.20
 -16  -6   1   -1.92    1.27
 -16  -6   1   -0.03    1.90
 -16  -6   1    0.69    2.43
  16   6  -1   -0.53    2.09
  16   6  -1    2.27    2.12
 -16   6   1    0.60    1.13
 -16   6   1   -0.22    1.42
 -16   6   1    0.33    1.16
  16   6  -1    1.89    2.30
  14  -6  -1   39.59    2.87
 -14  -6   1   40.42    2.84
  14  -6  -1   40.80    2.57
 -14  -6   1   36.19    5.50
 -14  -6   1   45.31    3.59
 -14  -6   1   41.28    4.29
 -14  -6   1   41.53    4.63
 -14   6   1   41.60    2.89
  14   6  -1   41.75    3.86
 -14   6   1   41.99    2.57
  14   6  -1   41.90    3.91
 -14   6   1   42.80    3.33
  14   6  -1   40.11    3.80
 -12  -6   1   10.15    1.86
 -12  -6   1    7.74    2.08
  12  -6  -1   10.71    1.52
  12  -6  -1    6.60    1.38
 -12  -6   1    7.42    2.82
 -12  -6   1    6.89    1.81
 -12  -6   1    7.42    1.41
  12   6  -1    7.60    1.99
 -12   6   1    4.57    1.27
 -12   6   1    7.60    1.33
  12   6  -1    6.22    1.79
  12   6  -1    7.32    2.22
 -12   6   1    7.92    1.17
 -12   6   1    6.76    1.12
 -10  -6   1   36.46    2.54
 -10  -6   1   34.53    2.80
  10  -6  -1   33.10    2.17
 -10  -6   1   34.54    2.88
 -10  -6   1   34.17    3.80
 -10  -6   1   34.05    4.71
  10   6  -1   35.09    2.92
 -10   6   1   33.51    1.91
 -10   6   1   31.38    1.89
 -10   6   1   34.03    2.09
  10   6  -1   33.65    2.90
  10   6  -1   32.75    2.80
   8  -6  -1   52.92    2.33
  -8  -6   1   56.81    3.03
  -8  -6   1   59.71    4.03
  -8  -6   1   56.63    3.03
   8  -6  -1   52.80    2.84
  -8  -6   1   53.44    3.15
  -8  -6   1   57.92    4.98
   8  -6  -1   53.14    2.65
  -8   6   1   52.90    1.80
   8   6  -1   51.87    3.10
   8   6  -1   51.00    3.02
  -8   6   1   53.63    2.43
  -8   6   1   50.81    2.35
  -8   6   1   52.13    2.30
  -6  -6   1   49.70    3.40
   6  -6  -1   44.98    2.58
  -6  -6   1   48.56    4.38
   6  -6  -1   45.69    2.20
   6  -6  -1   45.20    2.33
  -6  -6   1   44.22    2.60
  -6  -6   1   46.08    2.17
  -6  -6   1   46.44    2.61
  -6  -6   1   47.20    2.45
  -6  -6   1   40.89    2.39
   6   6  -1   47.29    2.50
  -6   6   1   49.42    2.03
  -6   6   1   47.75    2.06
  -6   6   1   45.96    2.07
   6   6  -1   50.39    2.36
   6   6  -1   50.07    2.52
  -4  -6   1   44.74    1.94
   4  -6  -1   44.40    2.49
  -4  -6   1   45.57    1.87
  -4  -6   1   41.19    2.69
  -4  -6   1   44.95    2.54
  -4  -6   1   47.83    2.28
  -4  -6   1   45.85    2.32
   4  -6  -1   47.33    2.52
  -4  -6   1   48.33    3.93
   4  -6  -1   48.32    2.39
   4   6  -1   48.33    2.13
   4   6  -1   46.86    2.17
  -4   6   1   43.22    2.06
  -4   6   1   45.53    1.97
  -4   6   1   48.75    1.76
   4   6  -1   42.66    2.47
  -4   6   1   44.09    2.47
   2  -6  -1   53.60    1.81
   2  -6  -1   51.02    1.97
  -2  -6   1   52.91    2.09
   2  -6  -1   55.68    2.10
  -2  -6   1   55.34    2.41
  -2  -6   1   49.46    3.47
   2  -6  -1   53.48    2.83
  -2  -6   1   48.38    2.72
  -2  -6   1   55.06    2.48
   2  -6  -1   52.68    2.42
   2  -6  -1   51.46    2.63
   2   6  -1   51.40    2.22
  -2   6   1   52.29    2.13
  -2   6   1   56.59    1.81
   2   6  -1   54.08    2.15
  -2   6   1   51.72    2.18
  -2   6   1   51.92    2.17
   2   6  -1   51.60    2.15
   0  -6  -1  109.12    3.97
   0  -6   1  104.51    3.99
   0  -6  -1  105.45    3.91
   0  -6   1  108.87    4.85
   0  -6   1  110.87    4.40
   0  -6  -1  110.09    3.66
   0  -6  -1  110.74    3.68
   0  -6  -1  113.33    3.78
   0  -6  -1  110.00    3.26
   0  -6  -1  109.78    4.38
   0  -6   1  109.32    3.69
   0  -6  -1  106.90    3.66
   0   6  -1  108.00    3.62
   0   6   1  109.50    3.86
   0   6   1  111.16    3.82
   0   6  -1  109.06    3.58
   0   6  -1  105.28    3.56
   0   6   1  106.62    3.84
   0   6   1  116.30    3.60
   2  -6   1   16.15    1.88
  -2  -6  -1   12.13    1.70
  -2  -6  -1   15.45    1.26
  -2  -6  -1   14.37    1.23
  -2  -6  -1   15.59    0.67
   2  -6   1   14.06    1.36
   2  -6   1   15.65    1.07
  -2  -6  -1   17.15    1.83
  -2  -6  -1   14.93    1.38
  -2   6  -1   14.57    0.81
  -2   6  -1   16.61    0.86
   2   6   1   15.22    1.20
  -2   6  -1   15.06    0.78
   2   6   1   14.06    1.30
   2   6   1   14.17    1.26
  -2   6  -1   14.71    0.79
   4  -6   1  190.17    6.70
  -4  -6  -1  180.87    5.59
  -4  -6  -1  183.38    6.39
  -4  -6  -1  183.19    6.50
   4  -6   1  164.85    6.43
  -4  -6  -1  188.65    6.14
  -4  -6  -1  205.93    7.03
  -4  -6  -1  181.88    6.25
   4  -6   1  184.48    5.99
  -4  -6  -1  189.24    7.74
  -4  -6  -1  190.15    6.64
  -4   6  -1  192.43    5.50
   4   6   1  191.89    6.30
   4   6   1  166.24    6.25
   4   6   1  185.74    6.29
  -4   6  -1  181.00    5.51
  -4   6  -1  192.18    5.52
  -4   6  -1  192.57    5.48
   6  -6   1   18.47    1.36
  -6  -6  -1   18.57    1.84
   6  -6   1   16.81    2.02
  -6  -6  -1   17.22    1.56
  -6  -6  -1   17.75    1.72
   6  -6   1   13.60    2.13
   6  -6   1   16.51    1.49
  -6  -6  -1   15.72    2.17
  -6  -6  -1   16.37    1.36
  -6   6  -1   18.13    1.17
  -6   6  -1   16.98    0.77
  -6   6  -1   17.01    0.83
   6   6   1   16.52    1.63
  -6   6  -1   13.69    1.01
  -6   6  -1   18.39    0.86
   6   6   1   15.10    1.66
  -8  -6  -1   68.68    3.40
  -8  -6  -1   61.46    3.05
   8  -6   1   67.72    2.98
  -8  -6  -1   67.72    2.89
   8  -6   1   70.92    3.01
  -8  -6  -1   67.87    3.31
   8  -6   1   64.63    3.61
  -8  -6  -1   66.41    3.29
  -8  -6  -1   68.00    3.78
   8  -6   1   63.15    3.32
  -8   6  -1   66.29    2.47
   8   6   1   63.98    3.33
  -8   6  -1   66.59    2.50
  -8   6  -1   65.97    2.72
  -8   6  -1   63.94    2.35
   8   6   1   63.18    3.31
  -8   6  -1   67.22    2.37
 -10  -6  -1    7.73    1.28
 -10  -6  -1    6.46    1.52
  10  -6   1    8.49    1.32
 -10  -6  -1    6.74    1.63
  10  -6   1    6.38    1.37
 -10  -6  -1    9.10    1.54
 -10  -6  -1    7.21    1.24
 -10   6  -1    9.77    1.08
 -10   6  -1    8.15    1.21
 -10   6  -1    7.08    1.12
 -10   6  -1    7.05    0.68
  10   6   1    6.43    1.36
 -10   6  -1    6.40    1.06
  10   6   1    6.17    1.52
 -12  -6  -1   67.44    3.39
 -12  -6  -1   63.22    3.87
  12  -6   1   71.31    3.22
 -12  -6  -1   64.35    4.27
  12  -6   1   65.19    3.00
 -12  -6  -1   63.96    3.29
 -12  -6  -1   70.67    4.40
  12   6   1   66.26    4.09
 -12   6  -1   62.15    2.88
 -12   6  -1   60.66    3.10
  12   6   1   65.99    4.03
 -12   6  -1   63.26    2.87
 -14  -6  -1    0.38    1.62
 -14  -6  -1   -0.55    1.15
  14  -6   1   -0.23    0.86
 -14  -6  -1   -0.08    1.45
 -14  -6  -1    1.62    1.01
 -14   6  -1   -0.82    1.05
 -14   6  -1    0.11    1.02
  14   6   1    0.43    1.66
 -14   6  -1    0.93    0.87
  14   6   1    2.19    1.54
  16  -6   1   22.64    2.22
 -16  -6  -1   30.59    3.23
 -16  -6  -1   21.41    2.23
 -16  -6  -1   20.68    3.15
  16   6   1   23.90    4.27
 -16   6  -1   20.49    2.55
  16   6   1   30.75    3.67
 -16   6  -1   25.53    2.45
  16   6   1   20.75    3.03
 -18  -6  -1   -3.56    2.37
  18   6   1   -4.78    2.54
 -18   6  -1    0.64    2.08
 -18   6  -1    2.38    1.38
  18   6   1   -0.56    2.70
 -19  -7   1    6.58    3.38
 -19  -7   1   11.03    3.26
  19  -7  -1   13.33    2.10
 -19  -7   1    3.29    5.88
  19   7  -1    7.10    3.31
 -19   7   1   11.31    1.92
 -17  -7   1   -1.17    4.40
 -17  -7   1    0.49    3.09
 -17  -7   1   -2.58    1.52
  17  -7  -1   -0.38    1.27
 -17  -7   1    0.21    2.33
  17   7  -1   -0.89    2.37
 -17   7   1    1.32    1.28
  17   7  -1   -3.10    2.36
  17   7  -1   -2.74    2.75
 -15  -7   1   26.53    5.10
 -15  -7   1   18.64    2.65
  15  -7  -1   25.61    2.37
 -15  -7   1   26.26    3.48
 -15  -7   1   21.30    3.45
  15   7  -1   22.90    3.95
  15   7  -1   23.25    3.19
 -15   7   1   23.73    2.18
 -15   7   1   19.69    2.52
  15   7  -1   22.22    3.40
 -13  -7   1    7.94    2.09
 -13  -7   1    6.24    2.54
 -13  -7   1    8.56    1.72
  13  -7  -1    8.97    1.47
  13  -7  -1    5.47    1.79
 -13  -7   1    8.76    3.27
 -13   7   1   10.53    1.53
  13   7  -1    9.59    2.62
  13   7  -1    8.62    2.13
  13   7  -1    8.55    2.25
 -13   7   1    8.16    1.45
  11  -7  -1   42.38    3.66
  11  -7  -1   47.16    2.74
 -11  -7   1   46.65    4.44
 -11  -7   1   46.78    3.21
 -11  -7   1   47.88    3.48
 -11  -7   1   47.09    3.49
 -11  -7   1   44.62    5.44
  11   7  -1   47.73    3.45
 -11   7   1   44.32    2.36
  11   7  -1   49.11    3.45
 -11   7   1   45.61    2.47
  11   7  -1   48.79    3.90
  -9  -7   1    1.58    2.53
   9  -7  -1    2.86    1.27
   9  -7  -1    2.49    0.96
  -9  -7   1    2.62    1.30
  -9  -7   1    3.96    2.01
   9  -7  -1    3.27    0.81
  -9  -7   1    2.92    1.49
  -9  -7   1    3.34    1.52
  -9  -7   1    4.14    1.50
  -9   7   1    3.71    0.83
  -9   7   1    4.09    0.79
   9   7  -1    3.05    1.52
   9   7  -1    3.53    1.38
   9   7  -1    2.60    1.29
  -9   7   1    3.94    0.85
  -7  -7   1  110.87    6.66
  -7  -7   1  110.44    4.79
   7  -7  -1  104.49    4.32
   7  -7  -1  110.58    4.20
   7  -7  -1  109.85    4.67
  -7  -7   1  111.65    5.33
  -7  -7   1  111.49    4.57
  -7  -7   1  111.38    4.09
  -7   7   1  104.88    3.97
  -7   7   1  110.42    3.97
   7   7  -1  110.24    4.57
  -7   7   1  110.90    3.97
   5  -7  -1    1.39    1.11
  -5  -7   1    3.17    2.13
  -5  -7   1    2.13    1.11
  -5  -7   1    1.72    0.67
   5  -7  -1    1.31    0.80
  -5  -7   1    0.88    1.17
  -5  -7   1    0.85    1.28
   5  -7  -1    2.73    0.94
  -5  -7   1    1.60    0.86
  -5  -7   1    1.06    1.19
   5   7  -1    2.97    1.04
   5   7  -1    1.58    0.81
  -5   7   1    2.45    0.61
  -5   7   1    2.09    0.59
   5   7  -1    1.93    0.69
  -5   7   1    2.74    0.67
   3  -7  -1  106.41    4.10
  -3  -7   1  105.41    5.60
  -3  -7   1  105.45    4.06
  -3  -7   1  106.33    4.11
  -3  -7   1  104.30    3.67
  -3  -7   1  105.74    4.53
   3  -7  -1  102.68    4.50
   3  -7  -1  103.97    4.50
   3   7  -1  107.40    3.98
   3   7  -1  101.73    3.79
  -3   7   1  104.62    3.44
   3   7  -1  111.75    3.96
  -3   7   1  107.97    3.81
  -3   7   1  102.30    3.76
  -1  -7   1   32.13    2.44
   1  -7  -1   36.94    1.81
  -1  -7   1   33.82    3.44
   1  -7  -1   32.71    2.43
   1  -7  -1   35.11    1.38
  -1  -7   1   34.18    1.64
  -1  -7   1   35.43    2.10
   1  -7  -1   37.07    2.14
   1   7  -1   31.83    1.74
   1   7  -1   34.91    1.66
  -1   7   1   34.24    1.75
  -1   7   1   32.87    1.78
  -1   7   1   32.93    1.80
   1   7  -1   34.00    1.72
  -1  -7  -1  118.16    4.15
   1  -7   1  123.26    4.62
  -1  -7  -1  128.95    4.62
  -1  -7  -1  125.31    4.35
  -1  -7  -1  125.89    6.21
  -1  -7  -1  118.53    4.90
   1  -7   1  121.61    6.27
  -1  -7  -1  120.52    4.58
  -1  -7  -1  125.20    4.37
   1  -7   1  120.74    5.13
   1  -7   1  126.68    4.19
  -1   7  -1  124.37    4.02
  -1   7  -1  119.54    4.03
  -1   7  -1  121.09    4.00
   1   7   1  122.64    4.38
   1   7   1  122.14    4.62
   1   7   1  117.55    4.42
  -3  -7  -1    1.87    1.07
  -3  -7  -1    3.15    0.87
  -3  -7  -1    3.35    1.01
  -3  -7  -1    4.00    0.50
  -3  -7  -1    3.33    2.19
   3  -7   1    4.25    0.82
  -3  -7  -1    4.55    1.06
   3  -7   1    3.53    1.29
   3  -7   1    3.50    0.95
  -3  -7  -1    3.17    1.28
   3  -7   1    3.47    1.34
  -3   7  -1    4.02    0.56
  -3   7  -1    3.27    0.56
   3   7   1    3.91    0.96
   3   7   1    3.38    0.87
  -3   7  -1    3.90    0.60
   3   7   1    3.95    0.88
   5  -7   1   96.42    4.48
  -5  -7  -1   92.77    3.14
  -5  -7  -1  104.87    6.16
  -5  -7  -1   93.86    3.99
  -5  -7  -1   94.93    3.80
   5  -7   1   95.73    3.88
   5  -7   1   96.80    4.58
  -5  -7  -1   88.15    4.73
  -5  -7  -1   96.79    5.10
  -5  -7  -1   97.80    4.07
   5  -7   1   98.99    3.66
  -5  -7  -1   97.55    4.36
   5   7   1   92.34    3.97
  -5   7  -1  100.68    3.10
  -5   7  -1   99.65    3.48
  -5   7  -1   99.13    3.09
   5   7   1   99.03    4.12
  -7  -7  -1   29.25    2.44
   7  -7   1   29.69    3.04
  -7  -7  -1   28.49    1.91
  -7  -7  -1   28.09    2.37
  -7  -7  -1   27.10    3.15
  -7  -7  -1   27.22    2.24
  -7  -7  -1   27.56    2.42
   7  -7   1   27.47    1.97
   7  -7   1   21.99    3.20
  -7  -7  -1   26.40    1.58
   7  -7   1   27.32    1.90
  -7  -7  -1   28.81    4.36
  -7   7  -1   28.73    1.49
  -7   7  -1   27.31    1.25
  -7   7  -1   25.40    1.52
   7   7   1   25.53    2.19
   7   7   1   28.00    2.29
  -7   7  -1   26.98    1.13
  -7   7  -1   25.05    1.30
   9  -7   1   36.47    2.78
  -9  -7  -1   35.52    3.26
  -9  -7  -1   42.72    3.06
  -9  -7  -1   37.00    2.57
   9  -7   1   33.91    3.34
   9  -7   1   36.48    2.26
  -9  -7  -1   37.73    4.76
  -9  -7  -1   38.54    2.66
  -9  -7  -1   37.70    2.88
  -9   7  -1   30.77    1.79
  -9   7  -1   36.76    1.55
  -9   7  -1   31.86    1.78
   9   7   1   35.07    2.69
  -9   7  -1   37.25    1.90
  -9   7  -1   36.78    1.57
   9   7   1   39.09    2.87
 -11  -7  -1   20.18    2.31
 -11  -7  -1   16.70    3.08
 -11  -7  -1   19.66    2.25
  11  -7   1   23.95    2.56
  11  -7   1   20.93    1.91
 -11  -7  -1   23.00    2.59
  11   7   1   20.35    2.70
  11   7   1   21.44    2.66
 -11   7  -1   19.56    1.32
 -11   7  -1   16.31    1.60
 -13  -7  -1   12.92    2.53
 -13  -7  -1   17.08    2.20
 -13  -7  -1   23.89    3.00
  13  -7   1   16.96    1.89
 -13   7  -1   15.39    1.91
 -13   7  -1   14.07    1.48
  13   7   1   23.17    3.20
 -15  -7  -1    2.85    2.33
 -15  -7  -1    9.85    2.18
  15  -7   1    6.24    1.39
 -15  -7  -1    5.54    1.42
 -15   7  -1    5.54    1.14
 -15   7  -1    5.30    1.31
  15   7   1    6.46    2.11
  15   7   1    3.79    2.24
  15   7   1    6.72    2.14
  17  -7   1    6.54    1.63
 -17  -7  -1    3.69    3.21
 -17  -7  -1    2.83    1.57
  17   7   1    4.20    2.60
  17   7   1    4.80    3.04
  17   7   1   -0.56    2.57
  18  -8  -1    5.30    3.34
 -18  -8   1    0.06    3.32
 -18  -8   1    1.85    2.87
 -18  -8   1    0.71    5.66
  18   8  -1   -0.07    3.03
  18   8  -1    6.34    3.07
 -16  -8   1   -0.61    4.46
 -16  -8   1   -2.63    2.70
  16  -8  -1    2.24    1.50
 -16  -8   1   -1.33    2.36
 -16   8   1   -0.21    1.62
  16   8  -1    0.89    2.47
  16   8  -1    0.75    2.78
 -14  -8   1   10.60    4.17
 -14  -8   1    9.77    2.05
 -14  -8   1   13.52    3.13
  14  -8  -1   14.68    2.18
 -14  -8   1   11.56    2.65
  14   8  -1   14.91    2.99
  14   8  -1   13.39    3.16
 -14   8   1   13.81    1.80
  14   8  -1   10.23    2.56
 -12  -8   1    0.24    2.11
  12  -8  -1   -1.63    1.48
 -12  -8   1    0.02    1.39
  12  -8  -1    2.57    1.13
 -12  -8   1    2.53    1.39
 -12  -8   1    1.69    3.13
 -12  -8   1    1.19    1.84
 -12   8   1    1.85    0.83
  12   8  -1   -1.92    2.13
 -12   8   1    0.12    0.94
  12   8  -1    2.34    1.70
  12   8  -1    2.62    1.85
 -10  -8   1    8.50    3.28
  10  -8  -1    8.13    1.39
  10  -8  -1    8.61    1.72
 -10  -8   1    8.32    1.95
 -10  -8   1    7.31    1.35
 -10  -8   1    6.62    1.73
 -10  -8   1    6.81    2.14
  10   8  -1    8.95    1.87
  10   8  -1    9.98    2.37
 -10   8   1    8.72    1.31
  10   8  -1    7.38    1.71
 -10   8   1    7.55    1.08
  -8  -8   1   13.72    2.01
   8  -8  -1   13.85    2.21
  -8  -8   1   15.80    1.99
   8  -8  -1   10.57    1.69
  -8  -8   1   18.56    2.98
  -8  -8   1   14.82    2.03
   8  -8  -1   12.75    1.64
  -8  -8   1    9.44    2.76
   8   8  -1   15.54    2.29
   8   8  -1   19.28    2.45
  -8   8   1   16.27    1.33
  -8   8   1   13.22    1.25
  -8   8   1   14.44    1.33
  -6  -8   1   12.08    1.29
  -6  -8   1    9.00    1.74
  -6  -8   1   10.43    2.81
   6  -8  -1    9.64    1.78
   6  -8  -1   10.15    1.65
  -6  -8   1    9.59    1.81
  -6  -8   1    9.15    1.46
  -6  -8   1    8.44    1.51
   6  -8  -1    9.42    1.42
   6   8  -1    8.05    1.32
  -6   8   1    9.99    1.09
   6   8  -1   10.87    1.64
  -6   8   1   10.08    1.14
  -6   8   1   10.11    1.18
   4  -8  -1    9.32    1.56
   4  -8  -1   10.18    2.02
   4  -8  -1   10.22    1.43
  -4  -8   1   11.27    2.55
  -4  -8   1    8.82    1.72
  -4  -8   1    9.33    1.11
  -4  -8   1   11.29    1.72
   4   8  -1   10.96    1.78
  -4   8   1    8.72    1.02
  -4   8   1    9.00    1.12
   4   8  -1   10.49    1.50
  -4   8   1   10.96    1.29
  -2  -8   1    9.12    2.38
   2  -8  -1    9.10    1.30
  -2  -8   1   11.64    1.12
  -2  -8   1    9.90    1.56
  -2  -8   1    9.02    1.75
   2  -8  -1   10.12    1.62
   2   8  -1   11.76    1.15
  -2   8   1    8.34    1.19
   2   8  -1    8.57    1.29
  -2   8   1   13.15    1.22
  -2   8   1    9.75    1.23
   2   8  -1   10.06    1.37
   0  -8   1   20.13    2.38
   0  -8  -1   18.62    3.47
   0  -8  -1   22.50    2.33
   0  -8  -1   19.26    1.72
   0  -8   1   20.68    1.40
   0  -8   1   18.94    3.09
   0  -8   1   20.06    1.87
   0   8  -1   22.21    1.43
   0   8  -1   18.42    1.41
   0   8  -1   22.58    1.44
   0   8   1   21.68    1.55
   0   8   1   22.70    1.61
   0   8   1   20.42    1.62
   2  -8   1    1.91    1.34
  -2  -8  -1    1.40    1.03
  -2  -8  -1    1.96    0.90
  -2  -8  -1    2.16    2.23
  -2  -8  -1    3.39    0.82
  -2  -8  -1    3.30    0.89
   2  -8   1    2.35    0.93
   2  -8   1    2.53    0.92
   2  -8   1    1.34    1.38
   2   8   1    1.82    1.77
   2   8   1    1.60    0.82
  -2   8  -1    2.62    0.50
  -2   8  -1    2.65    0.57
  -2   8  -1    2.39    0.57
  -4  -8  -1   54.90    3.21
   4  -8   1   53.81    2.83
  -4  -8  -1   59.19    3.05
   4  -8   1   58.10    3.67
   4  -8   1   56.81    2.58
  -4  -8  -1   57.06    5.35
  -4  -8  -1   55.27    2.79
  -4  -8  -1   55.10    1.91
   4  -8   1   54.38    3.67
  -4   8  -1   55.73    2.11
  -4   8  -1   57.71    2.63
  -4   8  -1   53.92    2.07
   4   8   1   58.34    3.08
  -4   8  -1   57.00    2.07
   4   8   1   51.21    2.77
   6  -8   1    4.19    1.28
  -6  -8  -1    2.71    1.81
  -6  -8  -1    3.44    2.72
   6  -8   1    3.80    1.65
   6  -8   1    2.35    0.92
  -6  -8  -1    3.03    0.99
  -6  -8  -1    4.12    0.63
   6  -8   1    3.95    1.00
  -6  -8  -1    1.93    1.21
  -6  -8  -1    4.41    1.32
  -6   8  -1    2.80    0.67
   6   8   1    2.69    1.10
   6   8   1    3.11    1.25
  -6   8  -1    3.24    0.52
  -6   8  -1    3.43    0.59
  -6   8  -1    4.02    0.59
  -8  -8  -1   16.27    1.72
  -8  -8  -1   12.30    2.28
   8  -8   1   11.99    1.72
   8  -8   1   15.71    2.27
  -8  -8  -1   15.67    3.63
  -8  -8  -1   12.48    1.26
  -8  -8  -1   14.27    2.11
   8  -8   1   12.76    2.20
   8   8   1   19.07    2.21
  -8   8  -1   14.16    0.82
  -8   8  -1   13.21    1.21
   8   8   1   19.25    2.39
  -8   8  -1   16.49    1.17
 -10  -8  -1    0.83    1.18
  10  -8   1    0.89    1.60
 -10  -8  -1   -0.21    2.83
 -10  -8  -1   -2.34    1.90
  10  -8   1    2.52    1.26
  10  -8   1    0.20    0.87
  10   8   1    3.66    1.68
 -10   8  -1    0.75    0.64
  10   8   1    1.15    1.33
 -10   8  -1    1.16    0.73
  12  -8   1   17.95    2.30
 -12  -8  -1   15.55    2.89
  12  -8   1   25.45    2.84
 -12  -8  -1   20.37    4.32
 -12  -8  -1   20.74    2.45
  12   8   1   18.90    2.75
 -12   8  -1   22.08    1.39
  12   8   1   28.32    3.22
 -14  -8  -1   -3.48    2.44
 -14  -8  -1    0.57    1.37
 -14  -8  -1    2.30    1.80
 -14  -8  -1   -0.79    3.69
  14  -8   1   -0.24    1.20
 -14   8  -1    0.23    0.71
  14   8   1    2.37    1.67
  14   8   1    2.03    1.91
  14   8   1    4.88    2.00
 -16  -8  -1    7.32    4.91
  16  -8   1    8.38    1.89
 -16  -8  -1    9.03    1.99
  16   8   1    4.80    2.85
  16   8   1    8.52    2.43
  16   8   1    6.87    2.80
  15  -9  -1   12.19    2.36
 -15  -9   1   12.89    4.95
 -15  -9   1   12.72    2.36
 -15  -9   1    6.12    2.91
  15   9  -1    4.93    2.85
 -15   9   1   13.29    1.96
  15   9  -1   10.58    4.43
 -13  -9   1    4.94    2.42
 -13  -9   1    5.52    4.01
 -13  -9   1    1.33    2.27
 -13  -9   1    2.19    1.97
  13  -9  -1    3.67    1.47
 -13  -9   1    6.70    1.63
  13   9  -1    5.37    2.34
 -13   9   1    4.89    1.11
  13   9  -1    4.33    3.12
  13   9  -1    2.08    2.16
  11  -9  -1   16.27    2.25
 -11  -9   1   28.78    3.93
 -11  -9   1   19.54    4.13
  11  -9  -1   16.52    2.48
 -11  -9   1   22.73    2.12
 -11  -9   1   14.57    2.48
 -11  -9   1   12.32    2.32
  11   9  -1   22.65    3.18
 -11   9   1   18.36    1.66
  11   9  -1   19.62    3.25
  11   9  -1   19.94    3.34
   9  -9  -1    2.79    1.09
  -9  -9   1   -0.04    1.67
  -9  -9   1    4.57    1.07
  -9  -9   1    5.51    2.88
   9  -9  -1    3.00    1.55
  -9  -9   1    1.16    1.59
  -9  -9   1    6.44    1.95
   9   9  -1    5.31    1.62
   9   9  -1    3.92    2.11
  -9   9   1    3.34    0.83
  -9   9   1    3.38    1.21
   9   9  -1    4.37    1.49
   7  -9  -1   35.18    2.56
   7  -9  -1   38.86    2.84
  -7  -9   1   37.61    2.81
   7  -9  -1   36.04    3.09
  -7  -9   1   40.41    4.86
  -7  -9   1   36.24    3.36
  -7   9   1   39.24    2.08
   7   9  -1   47.52    3.06
  -7   9   1   37.10    2.98
   5  -9  -1    2.04    0.93
  -5  -9   1    3.53    0.92
  -5  -9   1    2.00    1.57
  -5  -9   1    1.81    1.11
   5  -9  -1    1.66    1.21
   5  -9  -1    4.34    1.86
  -5  -9   1    5.90    2.48
  -5   9   1    2.28    0.69
   5   9  -1    2.08    1.03
  -3  -9   1   41.60    2.10
  -3  -9   1   41.51    2.75
   3  -9  -1   46.22    3.56
  -3  -9   1   46.40    4.86
   3  -9  -1   38.64    2.94
   3  -9  -1   37.63    2.48
  -3  -9   1   41.53    3.22
   3   9  -1   37.91    2.37
   3   9  -1   45.33    2.81
  -3   9   1   42.09    2.26
  -3   9   1   39.17    2.20
   1  -9  -1   12.39    1.95
  -1  -9   1   13.23    2.20
  -1  -9   1   16.08    1.48
   1  -9  -1   12.09    1.72
  -1  -9   1   15.31    3.11
  -1  -9   1   15.06    1.74
  -1   9   1   12.07    1.43
  -1   9   1   12.39    1.92
   1   9  -1   16.97    1.50
   1   9  -1   11.11    1.38
   1  -9   1   41.99    2.06
  -1  -9  -1   39.97    3.09
   1  -9   1   37.17    3.37
  -1  -9  -1   35.64    2.34
   1  -9   1   39.56    3.69
  -1  -9  -1   37.79    4.16
   1  -9   1   40.68    2.63
  -1   9  -1   41.66    1.99
  -1   9  -1   40.48    1.87
   1   9   1   38.78    2.45
  -1   9  -1   38.16    2.00
   1   9   1   35.13    2.27
  -3  -9  -1    4.64    1.45
  -3  -9  -1    7.28    1.21
   3  -9   1    7.32    1.78
  -3  -9  -1    4.76    1.22
   3  -9   1    5.84    1.19
   3  -9   1    3.89    1.09
   3  -9   1    3.06    1.54
  -3  -9  -1    5.69    2.40
   3   9   1    6.26    1.34
  -3   9  -1    5.15    0.83
  -3   9  -1    5.22    0.73
   3   9   1    4.17    1.04
  -3   9  -1    6.30    0.97
  -5  -9  -1   47.04    5.86
   5  -9   1   37.66    2.68
   5  -9   1   40.97    3.31
   5  -9   1   35.17    3.24
  -5  -9  -1   43.65    2.59
  -5  -9  -1   38.24    3.06
  -5  -9  -1   39.17    2.49
   5  -9   1   38.63    2.25
   5   9   1   42.53    2.79
   5   9   1   40.14    2.63
  -5   9  -1   38.25    1.67
  -5   9  -1   36.71    1.85
  -7  -9  -1   10.17    1.76
  -7  -9  -1    5.87    2.04
  -7  -9  -1    6.76    3.39
   7  -9   1    9.12    1.39
  -7  -9  -1    7.95    1.44
   7  -9   1    9.76    1.57
   7  -9   1   11.15    2.30
   7  -9   1    6.90    2.16
   7   9   1    8.62    1.66
  -7   9  -1    9.90    0.81
   9  -9   1   15.78    2.56
  -9  -9  -1   13.37    2.11
  -9  -9  -1    9.56    3.84
  -9  -9  -1   14.88    2.45
   9  -9   1   11.98    2.42
  -9  -9  -1    8.19    2.37
   9  -9   1   10.69    1.61
  -9   9  -1   14.25    0.85
   9   9   1   15.17    2.19
 -11  -9  -1    3.35    2.60
  11  -9   1    9.82    1.71
  11  -9   1   13.68    2.35
 -11  -9  -1    8.70    4.13
 -11  -9  -1    9.04    1.93
 -11   9  -1    9.94    0.83
  11   9   1    9.45    2.18
  13  -9   1   17.04    2.85
  13  -9   1    4.95    1.61
 -13  -9  -1    2.43    4.27
 -13   9  -1    9.74    1.05
 -15  -9  -1   10.03    2.37
  15   9   1    8.97    4.11
  15   9   1    6.21    2.67
  15   9   1   13.99    5.00
 -14 -10   1   16.42    4.70
 -14 -10   1    2.89    4.47
  14 -10  -1   15.62    2.31
  14  10  -1    8.24    3.74
  14  10  -1   10.74    2.97
  14  10  -1    9.09    3.13
 -14  10   1   16.96    1.92
 -12 -10   1    0.03    2.24
 -12 -10   1   11.78    3.58
  12 -10  -1    5.66    2.85
 -12  10   1    6.80    1.78
  12  10  -1   10.80    3.62
  12  10  -1    5.49    2.32
  12  10  -1    7.40    2.51
  10 -10  -1    9.02    2.42
 -10 -10   1   10.63    2.57
  10 -10  -1   10.07    1.78
 -10  10   1   12.16    1.49
  10  10  -1   20.08    3.30
  10  10  -1   15.66    3.38
   8 -10  -1   14.89    2.49
  -8 -10   1   17.53    2.97
   8 -10  -1   23.94    2.46
  -8  10   1   21.85    1.63
   8  10  -1   25.48    2.91
  -6 -10   1   16.87    2.17
  -6 -10   1   19.74    3.17
   6 -10  -1   20.57    2.34
   6 -10  -1   19.34    2.79
  -6  10   1   20.46    2.08
  -6  10   1   18.52    1.61
   4 -10  -1   13.99    2.06
  -4 -10   1   14.70    2.45
  -4 -10   1   18.14    2.36
   4 -10  -1   15.11    2.35
  -4 -10   1   18.98    1.80
  -4  10   1   16.76    2.20
   4  10  -1   12.79    2.05
  -4  10   1   16.63    1.59
  -2 -10   1   30.74    4.28
   2 -10  -1   21.76    2.94
  -2 -10   1   19.35    3.26
  -2 -10   1   25.04    2.52
  -2 -10   1   28.29    1.88
   2 -10  -1   22.42    2.31
  -2  10   1   23.79    1.85
  -2  10   1   26.55    2.08
   2  10  -1   22.88    2.06
   0 -10   1   49.33    4.51
   0 -10   1   38.05    3.76
   0 -10  -1   42.51    2.85
   0 -10  -1   33.18    3.08
   0 -10   1   42.59    2.35
   0 -10   1   39.23    2.75
   0  10   1   40.49    2.51
   0  10  -1   39.81    2.37
   0  10   1   45.22    2.72
   0  10  -1   44.03    2.37
  -2 -10  -1   14.88    2.00
   2 -10   1   21.60    3.42
   2 -10   1   10.71    2.32
  -2 -10  -1   10.09    2.02
   2 -10   1   14.28    1.94
   2  10   1   14.31    1.77
  -2  10  -1   14.44    1.45
   2  10   1   18.73    2.41
   4 -10   1   35.04    2.19
  -4 -10  -1   36.61    2.65
   4 -10   1   40.08    3.86
   4 -10   1   31.82    3.74
   4 -10   1   36.47    2.83
  -4 -10  -1   34.99    3.30
  -4  10  -1   34.55    1.81
   4  10   1   33.99    2.63
   4  10   1   44.76    3.07
  -6 -10  -1   16.81    2.79
   6 -10   1   11.07    2.55
   6 -10   1   16.66    2.32
  -6 -10  -1   15.72    2.14
  -6 -10  -1   12.89    3.83
   6 -10   1   14.96    2.98
  -6 -10  -1   16.43    2.44
   6  10   1   16.47    2.37
  -6  10  -1   14.71    1.17
  -6  10  -1   16.50    1.11
   8 -10   1   21.44    3.18
  -8 -10  -1   23.51    4.91
   8 -10   1   17.13    2.51
  -8 -10  -1   20.46    2.42
  -8 -10  -1   28.62    3.60
   8 -10   1   19.72    3.12
  -8 -10  -1   28.29    2.94
  -8 -10  -1   25.47    3.06
   8  10   1   22.49    2.86
  10 -10   1    8.04    1.84
 -10 -10  -1    0.90    2.55
 -10 -10  -1    1.45    4.37
 -10 -10  -1    6.86    1.98
  10 -10   1    4.06    2.48
  10 -10   1    6.30    1.91
  10  10   1    7.30    2.17
  12 -10   1   16.70    2.75
 -12 -10  -1    7.83    3.15
 -12 -10  -1   13.82    5.31
  12 -10   1   14.98    2.67
 -12 -10  -1   23.73    3.66
  11 -11  -1    7.27    2.06
 -11 -11   1    0.82    2.58
  11  11  -1    5.73    2.32
  11  11  -1    4.95    2.45
 -11  11   1    3.94    1.01
  11  11  -1    6.63    3.31
   9 -11  -1    2.27    1.59
   9  11  -1    3.31    1.85
   9  11  -1    7.11    2.95
   7 -11  -1    9.18    2.18
   7 -11  -1    9.23    2.28
  -7  11   1   10.17    1.60
   7  11  -1   18.49    4.00
   7  11  -1   11.24    2.11
   5 -11  -1    1.41    1.84
  -5 -11   1    1.34    1.62
   5 -11  -1    5.46    1.79
  -5 -11   1    1.15    2.24
  -5  11   1    4.25    0.97
   3 -11  -1   10.65    1.74
   3 -11  -1   10.23    2.29
  -3 -11   1   22.10    4.61
  -3 -11   1    9.99    2.64
  -3 -11   1   11.25    2.09
   3  11  -1   11.82    1.84
  -3  11   1   17.56    2.20
  -3  11   1   14.06    1.74
  -1 -11   1    9.20    3.06
   1 -11  -1    2.34    1.34
  -1 -11   1    4.20    1.61
  -1 -11   1    2.16    1.98
   1 -11  -1    1.01    1.75
  -1  11   1    7.38    1.50
   1  11  -1    2.53    1.13
  -1  11   1    4.05    1.11
   1 -11   1    8.96    1.69
  -1 -11  -1    8.88    1.79
   1 -11   1    7.00    2.46
   1 -11   1   16.40    3.45
  -1 -11  -1    7.90    2.16
   1  11   1    9.91    1.51
  -1  11  -1    9.39    1.41
  -3 -11  -1    2.62    1.31
   3 -11   1    2.17    2.33
   3 -11   1    3.74    1.44
  -3 -11  -1    0.50    1.63
   3 -11   1    6.68    2.36
   3  11   1    4.23    1.30
  -3  11  -1    4.71    1.01
   5 -11   1   16.56    2.43
  -5 -11  -1   13.81    2.05
  -5 -11  -1   14.86    3.77
   5 -11   1    7.51    2.82
   5 -11   1   21.34    4.30
   5  11   1   15.88    2.86
  -5  11  -1   14.47    1.42
  -7 -11  -1    3.25    1.90
  -7 -11  -1    8.70    3.59
  -9 -11  -1    4.82    4.29
   9 -11   1    3.76    1.74
   9 -11   1   -1.33    2.62
  -9 -11  -1    6.90    2.20
   9  11   1    3.16    1.89
 -11 -11  -1    0.17    1.99
  11 -11   1    5.16    2.81
  11 -11   1    6.13    1.98
  -8  12   1   12.24    1.79
   8  12  -1   10.98    3.86
   6 -12  -1    1.83    1.77
   6 -12  -1    1.34    2.44
  -6 -12   1    0.02    2.43
  -6  12   1    5.48    1.17
   6  12  -1   10.21    3.01
   6  12  -1    6.53    1.82
   4 -12  -1    2.32    2.15
   4 -12  -1    0.78    1.65
  -4 -12   1   -0.56    2.49
  -4 -12   1    4.43    1.82
  -4  12   1    2.24    1.08
  -2 -12   1    4.36    1.74
  -2 -12   1    4.37    2.91
   2 -12  -1    2.92    2.30
   2 -12  -1    6.63    1.87
  -2  12   1    6.11    1.31
   0 -12   1    4.98    2.87
   0 -12  -1    7.63    2.22
   0 -12  -1    8.22    1.85
   0 -12   1    6.73    2.03
   0  12   1   12.09    2.08
   2 -12   1   10.82    3.22
   4 -12   1   21.89    4.50
   6 -12   1    2.03    1.83
   6 -12   1    6.29    2.58
  -6 -12  -1    2.52    1.83
  -6 -12  -1    5.65    2.52
   6  12   1    2.82    1.64
 -24   0   2   -0.26    3.18
 -22   0   2   22.49    3.82
  22   0  -2   23.32    2.93
 -22   0   2   23.72    3.73
  22   0  -2   23.88    3.07
 -22   0   2   14.25    3.36
 -22   0   2   21.36    3.62
  20   0  -2    1.97    1.43
 -20   0   2    2.15    2.18
 -20   0   2   -1.36    2.04
 -20   0   2    2.37    3.46
 -18   0   2   43.66    4.14
  18   0  -2   48.12    3.32
  18   0  -2   46.77    3.22
 -18   0   2   44.72    4.05
  18   0  -2   48.81    5.65
 -18   0   2   43.94    3.98
 -16   0   2    1.19    1.76
  16   0  -2    2.58    1.02
  16   0  -2    1.85    1.16
 -16   0   2    4.76    1.96
 -16   0   2    2.58    1.42
  16   0  -2    2.36    1.36
 -14   0   2  205.89    7.80
  14   0  -2  199.84    7.23
  14   0  -2  199.68    6.92
 -14   0   2  204.39    7.66
  14   0  -2  207.12    7.29
 -14   0   2  202.87    7.69
  12   0  -2    1.02    0.72
  12   0  -2   -0.04    0.76
 -12   0   2    0.56    1.02
 -12   0   2    1.91    1.28
 -12   0   2    0.65    1.17
  12   0  -2    0.63    0.85
  10   0  -2  313.77   10.07
 -10   0   2  316.37   10.16
 -10   0   2  313.45   10.29
  10   0  -2  329.01    9.33
  10   0  -2  325.72   11.51
 -10   0   2  313.39   10.32
 -10   0   2  319.12   10.40
  10   0  -2  309.86    9.97
  -8   0   2    3.15    1.08
   8   0  -2    0.87    0.67
  -8   0   2    0.68    0.91
  -8   0   2    2.40    0.95
   8   0  -2    0.72    0.51
   8   0  -2    0.05    0.62
  -8   0   2    2.02    1.12
   8   0  -2    0.88    0.69
  -6   0   2  405.07   12.35
  -6   0   2  411.73   12.46
  -6   0   2  400.62   12.22
   6   0  -2  421.62   11.94
   6   0  -2  399.35   12.29
   6   0  -2  390.74   12.22
  -6   0   2  418.83   12.25
   6   0  -2  407.75   12.24
   4   0  -2   16.66    1.16
   4   0  -2   18.85    1.12
  -4   0   2   16.93    1.09
  -4   0   2   20.37    1.26
   4   0  -2   21.58    1.54
   4   0  -2   19.30    1.36
  -4   0   2   20.35    1.32
   4   0  -2   18.70    1.24
  -4   0   2   14.48    1.30
  -4   0   2   21.38    1.21
   4   0  -2   20.97    1.00
   4   0  -2   19.70    1.54
  -2   0   2  596.92   16.48
  -2   0   2  530.94   16.44
  -2   0   2  589.97   16.71
  -2   0   2  590.24   16.50
   2   0  -2  505.43   16.55
  -2   0   2  582.24   16.33
  -2   0   2  586.53   16.47
   2   0  -2  560.43   16.47
  -2   0   2  502.90   16.53
   2   0  -2  601.92   16.52
   2   0  -2  580.80   16.49
   2   0  -2  596.75   16.83
   2   0  -2  559.91   16.46
   2   0  -2  546.52   16.39
   0   0   2   11.91    1.09
   0   0  -2   13.57    0.81
   0   0   2   11.15    0.97
   0   0  -2   12.55    0.80
   0   0  -2   12.11    1.01
   0   0  -2   12.89    0.75
   0   0   2   12.36    0.82
   0   0  -2   13.23    0.78
   0   0   2   14.38    0.84
   0   0   2   14.34    0.80
   0   0  -2   12.18    0.81
   0   0   2   12.59    0.76
  -2   0  -2  182.39    5.86
   2   0   2  220.32    6.07
   2   0   2  193.27    5.86
  -2   0  -2  187.29    6.01
  -2   0  -2  183.55    5.88
   2   0   2  196.32    5.85
  -2   0  -2  201.19    5.90
   2   0   2  192.34    5.91
  -2   0  -2  203.26    5.90
  -2   0  -2  186.24    5.88
  -2   0  -2  194.59    5.84
  -2   0  -2  194.34    5.85
   2   0   2  187.07    5.84
   2   0   2  186.90    5.82
   4   0   2   54.82    2.13
  -4   0  -2   55.23    1.89
  -4   0  -2   53.69    2.02
   4   0   2   53.64    1.98
  -4   0  -2   55.19    2.23
  -4   0  -2   55.52    2.05
   4   0   2   55.25    1.93
   4   0   2   52.92    2.00
  -4   0  -2   52.18    1.95
   4   0   2   52.44    1.99
  -4   0  -2   52.81    2.01
  -6   0  -2  181.46    5.97
   6   0   2  173.99    5.66
  -6   0  -2  184.46    5.86
  -6   0  -2  178.91    5.55
  -6   0  -2  165.56    5.65
   6   0   2  185.48    5.71
  -6   0  -2  175.03    5.69
   6   0   2  184.82    5.70
   6   0   2  175.55    5.37
   8   0   2  113.77    4.07
  -8   0  -2  112.56    4.01
  -8   0  -2  113.44    4.70
  -8   0  -2  116.45    4.03
   8   0   2  114.51    4.09
   8   0   2  114.61    3.46
  -8   0  -2  114.52    3.81
 -10   0  -2   46.24    1.98
 -10   0  -2   47.32    2.32
 -10   0  -2   43.58    2.92
  10   0   2   47.21    2.46
 -12   0  -2   46.01    2.85
 -12   0  -2   39.68    2.41
 -12   0  -2   42.17    1.98
  12   0   2   35.70    3.19
 -12   0  -2   43.28    2.42
 -12   0  -2   41.12    3.37
  12   0   2   41.78    2.61
 -14   0  -2    6.24    0.79
 -14   0  -2    5.71    1.28
 -14   0  -2    7.26    1.12
 -14   0  -2    4.98    1.39
 -14   0  -2    5.92    1.34
  14   0   2    5.74    1.41
 -16   0  -2   43.21    3.36
 -16   0  -2   42.23    2.26
 -16   0  -2   48.89    3.37
  16   0   2   41.50    2.87
 -16   0  -2   45.42    3.15
 -18   0  -2    5.33    1.94
 -18   0  -2    6.03    1.89
  18   0   2    1.17    1.28
 -18   0  -2    1.90    1.42
 -18   0  -2    2.01    0.97
 -23  -1   2   -4.81    2.61
 -23  -1   2   -4.26    2.71
  23  -1  -2    0.01    1.88
 -23   1   2   -7.47    3.82
 -23   1   2   -4.50    2.74
 -21  -1   2   17.79    3.31
  21  -1  -2   21.02    2.49
 -21  -1   2   17.29    3.39
 -21  -1   2   22.42    3.90
 -21  -1   2   14.56    3.18
  21  -1  -2   19.30    2.69
 -21   1   2   14.89    2.94
 -21   1   2   22.04    3.43
 -21   1   2   21.09    3.27
  21   1  -2   20.59    2.96
 -19  -1   2   -1.38    1.93
 -19  -1   2   -1.16    2.11
 -19  -1   2    0.75    2.03
  19  -1  -2   -0.21    1.10
 -19  -1   2   -1.47    2.15
  19  -1  -2    1.97    1.29
 -19   1   2    0.55    2.08
  19   1  -2    1.34    1.46
 -19   1   2   -1.67    1.85
 -19   1   2   -1.45    1.65
  19   1  -2    2.57    1.42
  17  -1  -2   25.12    4.09
  17  -1  -2   20.35    2.21
 -17  -1   2   25.10    3.16
 -17  -1   2   20.92    3.55
  17  -1  -2   27.55    2.03
 -17  -1   2   27.22    3.43
  17   1  -2   26.46    3.01
  17   1  -2   25.66    2.41
  17   1  -2   25.32    2.41
 -17   1   2   24.50    3.05
 -17   1   2   23.83    3.25
 -17   1   2   26.17    3.42
  15  -1  -2   27.24    2.19
  15  -1  -2   22.84    2.30
 -15  -1   2   25.93    3.44
  15  -1  -2   24.33    1.85
 -15  -1   2   27.25    3.12
 -15  -1   2   27.39    3.19
  15   1  -2   24.49    2.40
 -15   1   2   24.41    2.89
 -15   1   2   28.18    3.18
  15   1  -2   25.99    2.33
  15   1  -2   28.14    2.63
 -15   1   2   26.82    3.11
  13  -1  -2   26.46    1.79
  13  -1  -2   26.12    1.29
 -13  -1   2   23.82    2.82
 -13  -1   2   27.98    2.87
  13  -1  -2   24.46    2.02
 -13  -1   2   26.33    2.97
  13   1  -2   27.15    1.26
  13   1  -2   25.06    2.04
 -13   1   2   27.61    2.46
 -13   1   2   26.40    2.80
  13   1  -2   28.97    2.57
  13   1  -2   27.23    2.23
 -13   1   2   27.79    2.76
  11  -1  -2   30.64    1.82
  11  -1  -2   33.86    2.03
 -11  -1   2   33.54    2.75
 -11  -1   2   33.51    2.61
 -11  -1   2   30.12    2.67
  11  -1  -2   30.15    1.22
  11  -1  -2   32.91    1.98
  11  -1  -2   31.85    1.34
 -11  -1   2   32.94    2.61
  11   1  -2   31.45    2.20
 -11   1   2   31.46    2.44
  11   1  -2   35.23    2.22
  11   1  -2   33.72    2.01
 -11   1   2   32.38    2.47
  11   1  -2   31.43    1.47
 -11   1   2   32.39    2.29
   9  -1  -2   77.03    2.49
  -9  -1   2   74.41    3.53
   9  -1  -2   75.47    3.02
  -9  -1   2   76.25    3.57
   9  -1  -2   74.50    2.48
   9  -1  -2   72.08    3.03
  -9  -1   2   81.87    3.84
  -9  -1   2   75.81    3.75
   9  -1  -2   78.51    3.09
   9   1  -2   76.82    3.25
  -9   1   2   70.04    3.16
   9   1  -2   76.43    3.25
  -9   1   2   76.84    3.36
  -9   1   2   74.54    2.99
   9   1  -2   74.86    2.68
  -9   1   2   75.11    3.45
  -9   1   2   75.20    3.34
   9   1  -2   67.79    3.10
  -7  -1   2  148.03    5.17
  -7  -1   2  140.87    5.33
   7  -1  -2  142.93    4.85
  -7  -1   2  148.18    5.45
   7  -1  -2  142.28    4.33
  -7  -1   2  149.09    5.24
   7  -1  -2  136.61    4.85
   7  -1  -2  142.22    4.82
   7   1  -2  146.19    4.63
  -7   1   2  147.93    4.66
  -7   1   2  149.46    5.00
  -7   1   2  138.27    4.97
   7   1  -2  125.89    4.94
  -7   1   2  145.57    5.09
   7   1  -2  151.68    5.03
  -7   1   2  143.55    5.04
   7   1  -2  146.92    4.99
   5  -1  -2   20.64    1.14
  -5  -1   2   17.36    1.80
  -5  -1   2   16.72    1.58
   5  -1  -2   20.61    1.17
   5  -1  -2   20.02    1.24
   5  -1  -2   19.97    1.33
   5  -1  -2   20.17    0.84
  -5  -1   2   20.76    1.46
  -5  -1   2   18.91    1.43
  -5   1   2   21.02    1.18
   5   1  -2   21.74    1.58
  -5   1   2   21.91    1.38
  -5   1   2   18.58    0.84
   5   1  -2   21.21    1.30
  -5   1   2   20.95    1.29
   5   1  -2   19.88    1.28
   5   1  -2   19.77    1.29
   5   1  -2   16.73    1.38
  -5   1   2   19.31    1.42
   5   1  -2   20.64    1.77
  -3  -1   2  328.84    9.51
  -3  -1   2  321.19    9.52
  -3  -1   2  320.90    9.51
  -3  -1   2  315.40    9.54
   3  -1  -2  312.19    9.25
   3  -1  -2  304.54    9.62
  -3  -1   2  322.22    9.55
   3  -1  -2  324.53    9.55
   3  -1  -2  313.94    9.49
  -3  -1   2  304.16    9.71
   3  -1  -2  317.16    9.50
   3  -1  -2  329.90    9.57
   3  -1  -2  307.02    9.26
   3  -1  -2  308.17    9.40
  -3   1   2  326.54    9.25
   3   1  -2  302.77    9.70
  -3   1   2  311.51    9.27
   3   1  -2  310.49    9.50
   3   1  -2  334.76    9.60
  -3   1   2  333.83    9.59
  -3   1   2  325.01    9.49
   3   1  -2  324.79    9.54
   3   1  -2  295.87    9.48
   3   1  -2  315.10    9.76
  -3   1   2  312.03    9.55
   3   1  -2  344.37    9.61
  -3   1   2  316.76    9.55
   1  -1  -2    3.77    0.49
   1  -1  -2    4.05    0.59
   1  -1  -2    5.35    0.50
  -1  -1   2    4.41    0.95
   1  -1  -2    3.92    0.60
  -1  -1   2    3.37    0.56
   1  -1  -2    3.71    0.60
  -1  -1   2    4.02    0.65
   1  -1  -2    3.78    0.67
   1  -1  -2    3.78    0.57
   1  -1  -2    5.03    0.63
  -1  -1   2    4.07    0.51
  -1   1   2    3.74    0.62
   1   1  -2    4.19    0.60
  -1   1   2    4.22    0.63
   1   1  -2    3.70    0.61
   1   1  -2    3.84    0.61
   1   1  -2    2.85    0.70
  -1   1   2    3.43    0.66
   1   1  -2    3.11    0.78
  -1   1   2    3.98    0.63
   1   1  -2    4.65    0.59
   1   1  -2    4.30    0.57
  -1   1   2    2.87    0.41
  -1   1   2    3.70    0.48
  -1   1   2    3.81    0.60
   1   1  -2    2.71    0.47
   1  -1   2  210.62    6.18
  -1  -1  -2  196.80    6.30
  -1  -1  -2  213.88    6.28
  -1  -1  -2  205.08    6.06
   1  -1   2  202.66    6.09
   1  -1   2  215.21    6.37
  -1  -1  -2  237.17    6.55
   1  -1   2  206.23    6.08
  -1  -1  -2  205.65    6.27
  -1  -1  -2  199.42    6.25
   1  -1   2  206.98    6.07
   1  -1   2  196.47    6.02
   1  -1   2  194.34    6.53
   1  -1   2  195.32    6.19
  -1  -1  -2  193.45    6.25
   1   1   2  214.82    6.27
  -1   1  -2  187.84    6.26
  -1   1  -2  201.88    6.35
   1   1   2  197.43    6.26
  -1   1  -2  206.55    6.07
  -1   1  -2  219.79    6.78
   1   1   2  212.58    6.22
  -1   1  -2  203.00    6.10
  -1   1  -2  199.10    6.11
   1   1   2  211.55    6.35
  -1   1  -2  208.31    6.10
  -1   1  -2  197.06    6.16
   1   1   2  208.68    6.26
   1   1   2  199.73    6.05
  -1   1  -2  195.30    6.11
   1   1   2  206.66    6.28
   3  -1   2    4.83    0.47
   3  -1   2    5.09    0.82
   3  -1   2    6.86    0.76
   3  -1   2    4.94    0.55
  -3  -1  -2    4.88    0.64
  -3  -1  -2    5.08    0.32
  -3  -1  -2    4.60    0.60
  -3  -1  -2    4.21    0.50
  -3  -1  -2    4.51    0.58
  -3  -1  -2    3.60    0.58
   3  -1   2    4.62    0.48
  -3  -1  -2    5.01    0.58
  -3  -1  -2    4.86    0.66
   3  -1   2    4.37    0.48
  -3   1  -2    5.01    0.52
  -3   1  -2    4.86    0.62
   3   1   2    4.76    0.61
  -3   1  -2    4.77    0.37
  -3   1  -2    6.04    0.90
  -3   1  -2    4.81    0.49
   3   1   2    4.83    0.63
  -3   1  -2    4.86    0.48
  -3   1  -2    4.82    0.53
  -3   1  -2    5.57    0.50
  -3   1  -2    4.36    0.46
   3   1   2    4.56    0.51
   3   1   2    4.40    0.63
   5  -1   2  330.28    9.94
   5  -1   2  332.25    9.63
   5  -1   2  352.46    9.91
  -5  -1  -2  317.19   10.11
  -5  -1  -2  343.31   10.34
  -5  -1  -2  363.72   10.18
  -5  -1  -2  334.83   10.14
  -5  -1  -2  334.32    9.97
   5  -1   2  328.42    9.76
   5  -1   2  344.05    9.78
   5  -1   2  321.46   10.03
  -5   1  -2  325.28    9.87
   5   1   2  345.54   10.00
  -5   1  -2  335.21   10.27
   5   1   2  324.79   10.10
  -5   1  -2  331.93    9.91
  -5   1  -2  339.64    9.94
  -5   1  -2  333.72    9.62
   5   1   2  334.27    9.96
   5   1   2  338.48   10.12
  -5   1  -2  322.71    9.70
  -5   1  -2  319.97    9.91
   7  -1   2   53.38    1.92
   7  -1   2   51.43    1.65
  -7  -1  -2   54.18    2.52
   7  -1   2   54.98    2.13
  -7  -1  -2   49.59    2.05
  -7  -1  -2   52.51    2.28
   7  -1   2   54.09    2.09
  -7  -1  -2   49.49    2.26
   7  -1   2   49.19    2.19
  -7  -1  -2   53.85    2.26
   7   1   2   52.26    2.00
   7   1   2   53.10    2.29
  -7   1  -2   49.70    2.05
  -7   1  -2   46.87    2.06
   7   1   2   47.02    2.22
  -7   1  -2   51.53    2.41
  -7   1  -2   52.24    1.97
  -7   1  -2   51.61    2.07
   9  -1   2  178.26    5.76
  -9  -1  -2  177.94    6.21
  -9  -1  -2  183.66    6.20
  -9  -1  -2  189.51    6.58
  -9  -1  -2  183.12    6.27
  -9  -1  -2  182.50    5.93
   9  -1   2  190.94    6.04
   9  -1   2  187.05    5.40
   9  -1   2  182.65    5.92
   9   1   2  186.00    6.72
  -9   1  -2  186.91    6.32
   9   1   2  191.03    6.25
  -9   1  -2  184.66    6.04
   9   1   2  189.19    5.73
  -9   1  -2  169.38    6.00
  -9   1  -2  186.83    6.48
  -9   1  -2  187.38    5.78
 -11  -1  -2    4.01    1.09
 -11  -1  -2    4.19    1.15
  11  -1   2    3.79    0.93
  11  -1   2    3.89    0.46
 -11  -1  -2    6.01    0.89
 -11  -1  -2    4.10    0.99
  11  -1   2    3.53    1.13
 -11   1  -2    3.85    0.85
  11   1   2    4.31    0.81
  11   1   2    4.54    0.73
 -11   1  -2    4.83    1.10
  11   1   2    5.91    1.19
 -11   1  -2    5.11    0.85
 -11   1  -2    5.52    0.72
  11   1   2    5.31    1.47
 -13  -1  -2   50.39    2.90
 -13  -1  -2   48.53    2.96
  13  -1   2   46.01    2.64
 -13  -1  -2   47.65    2.58
  13  -1   2   48.92    3.20
 -13  -1  -2   49.80    3.20
 -13  -1  -2   50.25    2.06
 -13   1  -2   45.58    2.72
 -13   1  -2   48.70    2.95
 -13   1  -2   51.37    2.96
  13   1   2   54.78    4.79
  13   1   2   47.83    3.20
  15  -1   2   -0.44    0.93
 -15  -1  -2    1.10    0.49
 -15  -1  -2    1.84    1.24
 -15  -1  -2   -0.94    0.71
 -15  -1  -2    1.13    1.27
 -15  -1  -2    2.37    1.30
  15   1   2   -1.05    1.38
 -15   1  -2   -0.21    0.63
 -15   1  -2    1.30    1.07
 -15   1  -2    0.77    1.06
 -15   1  -2    0.62    1.07
 -17  -1  -2   29.19    2.09
 -17  -1  -2   31.49    3.22
 -17  -1  -2   38.99    3.55
 -17  -1  -2   32.71    3.13
  17  -1   2   25.84    2.27
  17   1   2   25.26    2.88
 -17   1  -2   29.78    3.06
 -17   1  -2   30.33    3.07
 -17   1  -2   30.93    1.93
 -19  -1  -2    3.84    2.27
 -19  -1  -2    4.46    2.13
 -19  -1  -2   -0.67    1.50
 -19  -1  -2   -0.47    1.03
  19   1   2   -1.52    1.51
 -19   1  -2    1.22    1.53
 -21   1  -2   20.63    3.60
  22  -2  -2   21.50    2.64
 -22  -2   2    7.80    3.21
 -22  -2   2    7.72    3.38
  22  -2  -2   13.61    2.04
 -22  -2   2   16.36    4.51
 -22  -2   2   14.24    3.52
 -22   2   2   12.01    3.32
 -22   2   2   19.03    3.41
  22   2  -2   12.09    2.87
 -22   2   2    6.43    2.82
 -20  -2   2   -3.40    1.97
  20  -2  -2    0.77    1.19
 -20  -2   2    0.52    2.38
  20  -2  -2    1.94    1.29
 -20  -2   2   -2.62    2.90
 -20  -2   2   -2.38    2.32
 -20   2   2   -1.70    2.07
  20   2  -2    0.25    1.45
 -18  -2   2   29.65    4.59
 -18  -2   2   26.72    4.04
  18  -2  -2   30.66    2.36
  18  -2  -2   30.71    2.40
  18  -2  -2   29.98    2.25
 -18  -2   2   26.56    3.72
 -18  -2   2   31.04    3.99
  18   2  -2   28.18    2.83
 -18   2   2   27.90    3.43
 -18   2   2   28.87    3.22
  18   2  -2   27.37    3.65
  18   2  -2   34.01    2.86
 -18   2   2   27.63    3.52
 -16  -2   2    3.16    1.88
  16  -2  -2    2.11    0.93
  16  -2  -2    1.20    0.98
 -16  -2   2    0.56    1.61
  16  -2  -2    1.23    0.89
 -16  -2   2   -0.94    1.84
 -16  -2   2    1.27    1.93
 -16   2   2    1.12    1.30
 -16   2   2   -0.28    1.51
 -16   2   2    0.81    1.63
  16   2  -2    2.71    1.83
  16   2  -2    2.02    1.30
  16   2  -2    1.28    1.67
  14  -2  -2  113.34    4.34
  14  -2  -2  113.22    4.44
  14  -2  -2  116.91    4.68
 -14  -2   2  117.62    5.99
 -14  -2   2  114.76    5.41
 -14  -2   2  109.93    5.29
 -14  -2   2  116.18    5.67
  14   2  -2  113.64    4.31
 -14   2   2  113.89    5.12
  14   2  -2  115.84    4.95
  14   2  -2  116.17    4.73
  14   2  -2  110.73    4.98
 -14   2   2  118.71    5.21
 -14   2   2  115.97    4.96
  12  -2  -2   10.93    1.43
  12  -2  -2   12.15    1.32
 -12  -2   2   13.22    1.00
 -12  -2   2   10.36    1.64
 -12  -2   2   18.30    2.78
 -12  -2   2   11.11    1.83
  12  -2  -2   12.78    1.51
  12  -2  -2   12.21    1.28
 -12  -2   2   11.51    2.11
  12   2  -2   14.64    1.96
 -12   2   2   11.23    1.61
 -12   2   2   14.24    2.09
 -12   2   2   11.89    1.80
  12   2  -2   12.41    1.82
 -12   2   2   12.01    1.83
 -10  -2   2  196.97    7.44
  10  -2  -2  197.09    6.51
  10  -2  -2  189.95    5.97
 -10  -2   2  201.70    7.05
  10  -2  -2  201.36    7.13
 -10  -2   2  194.33    6.20
  10  -2  -2  194.05    6.52
 -10  -2   2  196.65    7.31
 -10  -2   2  198.54    7.00
 -10   2   2  199.06    6.66
 -10   2   2  190.97    6.77
  10   2  -2  195.45    7.37
  10   2  -2  197.66    6.82
 -10   2   2  200.37    6.66
  10   2  -2  199.26    6.85
 -10   2   2  199.50    6.89
   8  -2  -2    2.19    0.59
  -8  -2   2    4.26    1.65
   8  -2  -2    2.32    0.70
   8  -2  -2    2.44    0.35
  -8  -2   2    2.82    0.72
  -8  -2   2    3.39    1.32
  -8  -2   2    6.33    1.57
  -8  -2   2    3.25    1.21
   8  -2  -2    1.90    0.62
   8   2  -2    3.00    1.02
  -8   2   2    1.88    0.72
  -8   2   2    3.35    0.87
   8   2  -2    3.48    0.92
   8   2  -2    1.38    1.10
  -8   2   2    2.04    0.92
  -8   2   2    2.52    0.36
  -8   2   2    1.77    0.62
  -6  -2   2  174.25    5.96
   6  -2  -2  175.66    5.13
  -6  -2   2  176.41    6.38
   6  -2  -2  178.20    5.51
  -6  -2   2  173.43    6.47
  -6  -2   2  170.87    5.62
   6  -2  -2  175.94    5.59
   6  -2  -2  170.51    5.55
  -6  -2   2  187.64    6.05
   6  -2  -2  170.93    5.74
   6   2  -2  180.01    5.82
  -6   2   2  164.18    5.69
   6   2  -2  168.63    5.97
   6   2  -2  170.51    5.78
   6   2  -2  176.46    5.83
  -6   2   2  173.16    5.62
  -6   2   2  177.61    5.80
  -6   2   2  170.55    5.55
   4  -2  -2    4.76    0.44
  -4  -2   2    4.44    0.77
  -4  -2   2    2.65    0.77
  -4  -2   2    3.20    0.99
  -4  -2   2    3.41    0.72
   4  -2  -2    4.28    0.66
   4  -2  -2    5.49    0.69
   4  -2  -2    4.05    0.74
   4  -2  -2    4.27    0.60
   4  -2  -2    4.15    0.62
  -4  -2   2    3.69    0.72
   4   2  -2    4.17    1.05
   4   2  -2    5.95    0.96
  -4   2   2    4.30    0.66
   4   2  -2    4.55    0.85
   4   2  -2    6.65    0.96
  -4   2   2    2.62    0.50
  -4   2   2    4.61    0.69
  -4   2   2    4.13    0.43
  -2  -2   2  250.37    7.95
   2  -2  -2  254.38    8.01
  -2  -2   2  235.54    7.65
  -2  -2   2  240.84    7.77
   2  -2  -2  263.11    7.78
   2  -2  -2  278.40    8.04
  -2  -2   2  251.01    7.64
   2  -2  -2  259.62    7.80
   2  -2  -2  255.40    7.80
  -2  -2   2  250.78    8.25
   2  -2  -2  259.19    7.63
  -2   2   2  272.18    7.63
   2   2  -2  264.90    7.83
  -2   2   2  255.31    7.85
  -2   2   2  255.78    7.54
   2   2  -2  237.19    7.75
   2   2  -2  267.42    7.79
  -2   2   2  273.46    7.83
   2   2  -2  283.44    7.83
   2   2  -2  258.07    8.12
   0  -2  -2   26.01    1.36
   0  -2  -2   25.85    1.26
   0  -2   2   24.90    1.43
   0  -2  -2   25.15    1.23
   0  -2  -2   25.76    1.12
   0  -2   2   25.08    1.51
   0  -2   2   25.72    1.20
   0  -2  -2   26.62    1.10
   0  -2  -2   26.04    1.23
   0  -2  -2   25.23    1.15
   0  -2   2   25.27    1.53
   0  -2   2   26.36    0.97
   0  -2  -2   27.37    0.94
   0   2  -2   25.66    1.15
   0   2   2   27.16    1.26
   0   2  -2   27.41    1.10
   0   2  -2   27.52    1.10
   0   2  -2   25.99    1.54
   0   2   2   26.01    0.91
   0   2   2   25.56    1.26
   0   2  -2   26.68    1.03
   0   2  -2   26.77    1.06
   2  -2   2   96.22    2.73
  -2  -2  -2   97.04    2.88
  -2  -2  -2   89.31    3.24
  -2  -2  -2   93.67    3.23
   2  -2   2   97.35    3.21
  -2  -2  -2   93.97    2.91
   2  -2   2   87.67    3.25
  -2  -2  -2   93.80    3.22
   2  -2   2   91.26    2.99
   2  -2   2   90.27    3.11
  -2  -2  -2   94.06    3.21
  -2  -2  -2   90.94    3.09
   2  -2   2   85.28    3.46
  -2  -2  -2   95.11    3.19
  -2   2  -2   93.87    2.87
  -2   2  -2   96.53    2.84
  -2   2  -2   93.21    2.86
  -2   2  -2   92.19    2.96
  -2   2  -2   92.53    2.87
   2   2   2   92.26    3.20
   2   2   2   95.53    2.93
   2   2   2   92.45    2.87
  -2   2  -2   84.49    3.20
   2   2   2   88.86    3.18
   2   2   2   91.44    3.21
  -2   2  -2   90.96    3.03
  -4  -2  -2   30.32    1.57
   4  -2   2   29.69    1.84
  -4  -2  -2   31.07    1.69
   4  -2   2   31.53    1.28
  -4  -2  -2   29.35    1.50
   4  -2   2   28.88    1.45
  -4  -2  -2   30.90    1.60
  -4  -2  -2   31.77    1.14
  -4  -2  -2   31.26    1.33
   4  -2   2   33.24    1.19
  -4   2  -2   29.41    1.59
  -4   2  -2   30.96    1.19
  -4   2  -2   32.24    1.36
   4   2   2   30.89    1.61
  -4   2  -2   29.83    1.22
  -4   2  -2   28.65    1.42
  -4   2  -2   31.67    1.23
   4   2   2   32.27    1.17
  -4   2  -2   31.79    1.27
  -4   2  -2   31.80    1.24
   4   2   2   29.61    1.61
  -6  -2  -2   40.14    2.02
   6  -2   2   43.97    1.93
  -6  -2  -2   45.70    1.94
   6  -2   2   45.36    1.64
  -6  -2  -2   41.45    2.03
   6  -2   2   42.58    1.69
  -6  -2  -2   45.02    2.24
  -6   2  -2   43.68    1.69
  -6   2  -2   44.34    1.54
   6   2   2   43.26    2.06
   6   2   2   43.74    1.44
  -6   2  -2   44.68    2.08
  -6   2  -2   42.42    1.66
  -6   2  -2   43.94    1.71
  -6   2  -2   39.75    1.65
   6   2   2   39.88    2.08
  -6   2  -2   45.99    1.57
  -8  -2  -2   24.27    1.66
   8  -2   2   23.81    1.50
  -8  -2  -2   23.02    1.67
  -8  -2  -2   24.42    1.82
   8  -2   2   20.30    1.44
   8  -2   2   23.44    1.07
  -8   2  -2   23.41    1.32
   8   2   2   24.55    1.70
  -8   2  -2   24.07    1.16
   8   2   2   25.04    1.66
  -8   2  -2   25.19    1.29
   8   2   2   24.35    0.86
  -8   2  -2   25.35    1.29
  10  -2   2   29.42    1.26
 -10  -2  -2   26.69    2.07
  10  -2   2   29.08    1.12
 -10  -2  -2   27.96    2.03
 -10  -2  -2   28.87    1.98
  10  -2   2   29.60    1.14
 -10  -2  -2   28.97    1.76
  10   2   2   26.27    2.24
  10   2   2   29.81    2.08
 -10   2  -2   31.33    3.07
 -10   2  -2   28.08    1.62
 -10   2  -2   27.25    1.64
 -10   2  -2   29.06    1.36
 -10   2  -2   27.97    1.61
 -12  -2  -2   28.79    1.87
 -12  -2  -2   28.67    2.38
 -12  -2  -2   27.25    2.29
  12  -2   2   28.71    1.31
  12  -2   2   28.50    1.32
 -12  -2  -2   29.24    1.62
  12  -2   2   28.14    1.31
 -12  -2  -2   27.98    2.39
 -12   2  -2   25.57    1.97
 -12   2  -2   31.50    2.36
 -12   2  -2   30.52    1.47
  12   2   2   26.86    2.68
 -12   2  -2   33.08    1.84
  14  -2   2    1.04    0.55
  14  -2   2    0.75    0.49
 -14  -2  -2    1.34    1.15
 -14  -2  -2    0.14    0.55
 -14  -2  -2    1.07    0.82
 -14  -2  -2    1.04    1.29
 -14  -2  -2    0.62    1.17
  14   2   2    0.31    1.53
 -14   2  -2    0.04    0.59
 -14   2  -2    2.03    1.09
 -14   2  -2    1.05    0.95
  14   2   2    2.43    1.37
 -14   2  -2    1.66    0.89
  14   2   2   -0.97    0.94
 -16  -2  -2   32.63    3.48
 -16  -2  -2   26.44    1.98
 -16  -2  -2   24.02    2.96
 -16  -2  -2   29.06    2.90
  16   2   2   18.73    3.00
 -16   2  -2   31.96    2.66
 -16   2  -2   25.89    1.57
 -16   2  -2   29.45    2.57
 -16   2  -2   26.06    2.76
 -18  -2  -2    6.96    2.45
 -18  -2  -2    3.98    1.98
 -18  -2  -2    0.32    1.52
 -18   2  -2    4.03    1.30
 -20  -2  -2    7.16    2.25
 -20  -2  -2   19.25    4.85
 -20  -2  -2    6.18    1.50
 -20   2  -2    9.27    2.01
 -20   2  -2    6.06    2.02
  20   2   2    3.44    2.14
 -23  -3   2   -7.86    4.82
 -23  -3   2   -6.20    3.13
 -23  -3   2   -5.09    2.98
  23   3  -2    0.41    2.15
 -23   3   2   -0.42    2.32
 -21  -3   2   25.40    5.66
  21  -3  -2   26.05    2.75
 -21  -3   2   20.75    3.90
 -21  -3   2   27.74    5.45
  21   3  -2   23.27    3.61
 -21   3   2   20.50    3.47
 -21   3   2   27.33    4.19
  19  -3  -2    3.43    1.27
  19  -3  -2    5.59    1.31
 -19  -3   2    2.61    3.33
 -19  -3   2    1.52    2.53
 -19  -3   2    4.74    2.71
 -19  -3   2    6.24    2.61
  19   3  -2    1.09    2.13
 -19   3   2    5.65    2.35
 -19   3   2   -0.09    1.73
  19   3  -2    3.56    1.86
 -19   3   2    3.53    1.87
  17  -3  -2   19.63    1.93
 -17  -3   2   16.47    2.71
  17  -3  -2   18.43    1.88
 -17  -3   2   15.77    2.81
  17  -3  -2   18.18    1.90
 -17  -3   2   19.19    3.51
 -17  -3   2   16.80    2.70
  17   3  -2   25.37    2.50
 -17   3   2   16.75    2.80
  17   3  -2   22.64    2.92
  17   3  -2   19.88    2.73
 -17   3   2   16.41    2.66
 -17   3   2   19.47    2.78
 -15  -3   2   31.81    4.57
 -15  -3   2   33.66    1.63
  15  -3  -2   28.58    1.98
  15  -3  -2   30.25    2.32
  15  -3  -2   28.42    2.08
 -15  -3   2   30.04    3.90
 -15  -3   2   32.58    3.40
 -15   3   2   24.17    2.87
 -15   3   2   32.25    2.85
 -15   3   2   29.80    3.13
  15   3  -2   28.23    2.82
  15   3  -2   33.98    2.83
  13  -3  -2   62.07    2.14
 -13  -3   2   61.61    2.58
  13  -3  -2   63.61    2.95
 -13  -3   2   60.01    4.92
  13  -3  -2   64.61    2.91
 -13  -3   2   64.34    4.15
 -13  -3   2   61.99    3.86
 -13  -3   2   62.49    3.88
  13  -3  -2   62.34    2.76
  13   3  -2   64.52    3.53
 -13   3   2   65.32    3.43
  13   3  -2   61.08    3.45
 -13   3   2   52.88    3.33
 -13   3   2   62.94    3.22
  13   3  -2   59.69    3.62
 -13   3   2   63.27    2.45
 -13   3   2   58.94    4.24
  11  -3  -2   58.42    2.63
 -11  -3   2   61.56    4.36
 -11  -3   2   60.29    2.60
  11  -3  -2   60.08    2.77
  11  -3  -2   62.27    2.56
 -11  -3   2   60.21    3.51
  11  -3  -2   61.76    2.77
 -11  -3   2   58.74    3.43
 -11  -3   2   63.59    4.04
  11  -3  -2   60.79    2.32
  11   3  -2   61.32    3.22
 -11   3   2   61.42    2.87
 -11   3   2   62.38    2.12
  11   3  -2   63.77    3.30
  11   3  -2   60.41    3.34
 -11   3   2   59.30    3.01
 -11   3   2   57.85    2.91
  -9  -3   2   72.51    3.53
   9  -3  -2   67.88    2.89
   9  -3  -2   76.88    2.89
   9  -3  -2   72.11    2.70
  -9  -3   2   75.50    3.56
  -9  -3   2   73.52    3.04
  -9  -3   2   71.24    4.11
   9  -3  -2   75.28    3.06
   9  -3  -2   73.61    2.79
   9   3  -2   71.06    3.50
  -9   3   2   70.44    3.16
   9   3  -2   76.54    3.51
  -9   3   2   75.75    3.01
  -9   3   2   74.97    2.98
   9   3  -2   74.32    3.35
  -9   3   2   71.76    3.10
  -7  -3   2  173.07    6.14
   7  -3  -2  172.66    5.56
   7  -3  -2  166.49    5.58
   7  -3  -2  176.51    5.63
  -7  -3   2  174.57    6.16
   7  -3  -2  171.82    5.88
  -7  -3   2  176.41    5.92
  -7  -3   2  179.71    6.73
  -7  -3   2  173.61    6.96
   7  -3  -2  170.48    5.11
   7  -3  -2  175.10    5.40
   7   3  -2  174.72    5.92
   7   3  -2  181.74    6.09
   7   3  -2  176.49    6.29
  -7   3   2  173.05    5.82
   7   3  -2  175.96    5.99
  -7   3   2  170.86    5.49
  -7   3   2  181.70    5.75
  -7   3   2  175.67    5.88
   5  -3  -2    2.56    0.59
   5  -3  -2    1.84    0.47
   5  -3  -2    2.28    0.35
  -5  -3   2    1.18    1.28
   5  -3  -2    2.11    0.38
  -5  -3   2    0.75    0.99
   5  -3  -2    2.45    0.55
  -5  -3   2    3.06    1.01
   5  -3  -2    2.36    0.70
  -5  -3   2    4.85    0.99
  -5   3   2    2.16    0.58
  -5   3   2    2.21    0.68
   5   3  -2    1.76    0.72
  -5   3   2    2.36    0.35
  -5   3   2    3.14    0.67
   5   3  -2    3.54    0.94
   5   3  -2    2.89    0.94
   5   3  -2    3.98    1.39
   3  -3  -2  334.99   10.05
   3  -3  -2  344.78   10.02
   3  -3  -2  334.27    9.82
   3  -3  -2  332.68    9.68
   3  -3  -2  319.06   10.29
  -3  -3   2  327.36   10.34
   3  -3  -2  338.37   10.02
  -3  -3   2  344.80    9.96
  -3  -3   2  355.64   10.15
  -3  -3   2  334.74    9.84
  -3  -3   2  309.85   10.04
  -3  -3   2  334.19   10.86
  -3   3   2  332.27   10.11
  -3   3   2  344.24    9.79
   3   3  -2  329.34   10.07
   3   3  -2  322.19   10.44
   3   3  -2  337.29   10.09
  -3   3   2  352.00   10.07
  -3   3   2  328.06   10.10
   3   3  -2  333.85   10.03
   1  -3  -2   33.69    1.56
   1  -3  -2   34.45    1.51
  -1  -3   2   35.44    1.28
   1  -3  -2   33.64    1.74
   1  -3  -2   35.20    1.33
  -1  -3   2   37.08    1.64
  -1  -3   2   35.54    2.06
  -1  -3   2   29.44    1.93
  -1  -3   2   33.51    1.52
   1  -3  -2   34.13    1.54
   1  -3  -2   35.15    1.48
  -1   3   2   34.93    1.56
   1   3  -2   37.01    2.14
   1   3  -2   38.38    1.52
   1   3  -2   35.91    1.53
  -1   3   2   34.93    1.62
   1   3  -2   37.75    1.52
  -1   3   2   33.71    1.60
  -1  -3  -2  281.65    8.24
  -1  -3  -2  280.74    8.27
  -1  -3  -2  274.86    8.16
   1  -3   2  265.38    8.54
  -1  -3  -2  274.93    8.36
  -1  -3  -2  275.72    8.57
  -1  -3  -2  278.39    7.83
   1  -3   2  275.59    8.25
   1  -3   2  272.60    8.28
  -1  -3  -2  248.30    8.32
   1  -3   2  270.51    8.84
  -1   3  -2  271.02    7.87
   1   3   2  264.24    8.36
  -1   3  -2  278.19    7.96
  -1   3  -2  267.10    8.54
   1   3   2  265.18    8.38
  -1   3  -2  271.69    7.90
   1   3   2  289.83    8.39
   1   3   2  284.43    8.19
  -1   3  -2  259.32    7.96
  -3  -3  -2    3.17    0.45
  -3  -3  -2    3.22    0.70
  -3  -3  -2    3.36    0.69
  -3  -3  -2    3.82    0.55
   3  -3   2    2.94    0.88
   3  -3   2    3.23    0.78
   3  -3   2    2.89    0.54
  -3  -3  -2    3.48    0.72
   3  -3   2    3.21    0.55
  -3  -3  -2    3.27    0.67
   3   3   2    3.85    0.74
  -3   3  -2    3.23    0.36
   3   3   2    2.53    0.48
   3   3   2    3.23    0.67
  -3   3  -2    3.22    0.55
  -3   3  -2    2.94    0.34
  -3   3  -2    4.41    1.01
  -5  -3  -2  312.68    9.69
  -5  -3  -2  305.97    9.69
   5  -3   2  306.67    9.53
   5  -3   2  313.69    9.33
   5  -3   2  298.82    9.60
  -5  -3  -2  315.27    9.53
   5  -3   2  309.87   10.06
  -5  -3  -2  312.76    9.78
  -5  -3  -2  313.94    9.18
  -5   3  -2  309.79    9.43
   5   3   2  316.40    9.74
  -5   3  -2  315.07    9.29
  -5   3  -2  318.75    9.08
   5   3   2  313.59    9.71
  -5   3  -2  315.93    9.12
   5   3   2  319.41    9.20
  -5   3  -2  309.91    9.06
  -5   3  -2  300.99    9.09
  -5   3  -2  314.99    9.68
  -7  -3  -2   -0.28    0.58
   7  -3   2   -0.49    0.50
  -7  -3  -2   -0.67    0.28
  -7  -3  -2    0.70    0.63
  -7  -3  -2   -0.04    0.59
   7  -3   2   -0.06    0.33
  -7  -3  -2    0.02    0.62
  -7   3  -2    0.09    0.31
  -7   3  -2    0.92    0.40
   7   3   2    0.01    0.55
  -7   3  -2    0.03    0.31
  -7   3  -2    0.02    0.36
  -7   3  -2   -0.13    0.26
   7   3   2    0.07    0.61
  -7   3  -2    0.03    0.39
   7   3   2    0.18    0.36
   9  -3   2  189.14    6.40
  -9  -3  -2  187.12    6.89
  -9  -3  -2  187.40    6.58
  -9  -3  -2  189.15    6.28
  -9  -3  -2  193.70    6.99
   9  -3   2  191.61    5.91
  -9   3  -2  190.06    6.00
  -9   3  -2  189.41    6.00
   9   3   2  195.14    6.62
   9   3   2  185.87    6.60
  -9   3  -2  194.58    5.87
  -9   3  -2  194.68    6.57
  -9   3  -2  174.61    6.02
   9   3   2  189.20    5.74
 -11  -3  -2    2.78    1.08
 -11  -3  -2    4.30    1.26
 -11  -3  -2    3.31    0.98
 -11  -3  -2    3.36    1.17
  11  -3   2    3.60    0.65
 -11  -3  -2    4.35    0.84
  11   3   2    5.46    0.72
 -11   3  -2    2.78    0.80
  11   3   2    4.60    1.24
 -11   3  -2    3.91    0.81
  11   3   2    4.59    1.36
 -11   3  -2    4.01    0.59
 -11   3  -2    5.81    0.98
 -11   3  -2    4.02    1.02
 -13  -3  -2   54.73    2.74
 -13  -3  -2   55.74    3.54
 -13  -3  -2   52.39    2.57
 -13  -3  -2   54.69    3.52
  13  -3   2   54.38    2.21
 -13  -3  -2   51.95    3.25
 -13   3  -2   53.94    2.11
 -13   3  -2   58.05    2.81
 -13   3  -2   57.89    3.14
 -13   3  -2   48.12    2.59
 -13   3  -2   52.09    3.07
  13   3   2   54.12    3.53
 -15  -3  -2    5.29    1.54
 -15  -3  -2    2.81    1.49
 -15  -3  -2    5.42    1.16
  15  -3   2    4.34    0.93
 -15  -3  -2    5.03    1.77
 -15  -3  -2    5.12    0.96
  15   3   2    6.51    1.83
 -15   3  -2    4.46    0.78
 -15   3  -2    3.74    1.19
 -15   3  -2    3.10    1.04
  15   3   2    5.73    2.00
 -17  -3  -2   27.09    3.08
 -17  -3  -2   29.32    2.26
  17   3   2   23.53    3.65
 -17   3  -2   30.65    2.96
 -17   3  -2   30.48    2.56
 -19  -3  -2   -0.19    1.24
 -19  -3  -2    6.19    2.45
  19   3   2   -3.70    1.98
 -19   3  -2   -2.11    1.40
 -21  -3  -2    3.89    2.34
 -21  -3  -2    2.85    1.73
  21   3   2   -0.54    2.33
 -21   3  -2    4.04    2.08
 -21   3  -2    4.41    2.11
 -22  -4   2   11.01    3.64
 -22  -4   2    3.18    3.64
 -22  -4   2    7.45    9.83
 -22  -4   2    4.79    3.67
  22   4  -2   11.82    2.73
 -22   4   2    5.53    2.90
 -20  -4   2   -4.25    3.95
 -20  -4   2   -3.56    2.82
 -20  -4   2   -0.54    2.72
 -20  -4   2   -5.24    2.59
  20  -4  -2    1.91    1.35
 -20   4   2   -2.23    2.10
  20   4  -2   -3.84    2.35
 -20   4   2   -2.00    1.53
  20   4  -2   -0.52    1.86
 -18  -4   2   26.64    5.48
  18  -4  -2   28.37    2.41
 -18  -4   2   26.94    4.13
 -18  -4   2   25.43    3.92
 -18  -4   2   26.65    4.68
  18   4  -2   29.94    3.56
  18   4  -2   22.21    3.62
 -18   4   2   18.92    3.08
 -18   4   2   19.37    3.38
 -18   4   2   26.42    2.99
 -16  -4   2    4.26    2.15
  16  -4  -2    6.47    1.23
  16  -4  -2    6.53    1.17
 -16  -4   2    4.72    2.16
 -16  -4   2    7.32    2.28
 -16  -4   2    7.79    3.07
  16   4  -2    9.08    1.83
  16   4  -2    5.29    2.13
 -16   4   2    7.58    1.65
 -16   4   2    4.58    2.03
 -16   4   2    6.04    1.84
  16   4  -2    5.62    1.95
 -14  -4   2   84.41    5.14
 -14  -4   2   90.32    3.58
  14  -4  -2   88.25    3.11
  14  -4  -2   87.18    3.30
 -14  -4   2   87.64    4.78
 -14  -4   2   96.31    6.12
  14  -4  -2   82.50    4.05
  14  -4  -2   90.82    3.83
 -14  -4   2   95.89    6.94
  14   4  -2   89.79    4.68
  14   4  -2   86.81    4.56
 -14   4   2   90.61    4.38
  14   4  -2   86.97    4.38
 -14   4   2   84.91    4.10
 -14   4   2   83.85    3.97
 -12  -4   2    4.18    1.77
  12  -4  -2    1.76    0.77
  12  -4  -2    2.43    0.64
 -12  -4   2    1.07    1.04
  12  -4  -2    3.79    1.04
  12  -4  -2    2.85    0.91
 -12  -4   2    3.32    1.59
  12  -4  -2    1.05    0.67
 -12  -4   2    2.05    1.62
 -12  -4   2    2.41    2.26
  12   4  -2    3.24    1.54
 -12   4   2    2.40    1.22
 -12   4   2    0.25    1.06
  12   4  -2    2.95    1.57
  12   4  -2    4.61    2.24
 -12   4   2    2.69    1.01
 -12   4   2    1.94    1.00
 -10  -4   2  169.39    7.20
  10  -4  -2  176.42    5.79
 -10  -4   2  179.68    7.69
  10  -4  -2  182.43    5.82
  10  -4  -2  176.29    5.62
 -10  -4   2  172.81    6.53
 -10  -4   2  174.90    7.10
  10  -4  -2  170.99    6.12
  10  -4  -2  171.18    6.00
 -10  -4   2  186.17    6.17
  10   4  -2  183.71    6.63
  10   4  -2  176.52    6.78
 -10   4   2  173.28    6.17
 -10   4   2  173.91    5.78
 -10   4   2  169.82    6.07
  10   4  -2  168.58    6.41
 -10   4   2  179.12    6.02
  -8  -4   2    4.81    1.62
   8  -4  -2    4.21    0.72
  -8  -4   2    3.52    1.22
   8  -4  -2    4.74    0.70
  -8  -4   2    3.75    1.71
   8  -4  -2    3.82    0.62
  -8  -4   2    4.63    1.08
   8  -4  -2    4.02    0.74
   8  -4  -2    4.43    0.96
   8  -4  -2    2.83    0.71
  -8   4   2    3.90    0.78
  -8   4   2    4.06    0.89
   8   4  -2    5.06    1.33
   8   4  -2    4.50    1.23
  -8   4   2    4.02    1.00
  -8   4   2    5.03    0.80
   8   4  -2    3.96    1.55
   8   4  -2    7.23    1.26
   6  -4  -2  175.84    5.96
   6  -4  -2  175.10    5.75
   6  -4  -2  171.18    6.04
  -6  -4   2  177.77    6.00
  -6  -4   2  170.99    6.51
   6  -4  -2  171.06    5.42
   6  -4  -2  165.68    5.18
   6  -4  -2  170.88    5.73
  -6  -4   2  159.11    5.77
  -6  -4   2  176.30    5.99
   6   4  -2  171.00    5.87
  -6   4   2  174.62    5.13
  -6   4   2  176.15    5.85
   6   4  -2  171.04    5.79
  -6   4   2  174.88    5.74
   4  -4  -2    6.73    0.74
  -4  -4   2    5.62    1.48
  -4  -4   2   10.73    1.72
  -4  -4   2    7.37    1.29
   4  -4  -2    6.76    0.83
  -4  -4   2    4.06    1.16
   4  -4  -2    6.15    0.93
   4  -4  -2    6.53    0.67
  -4  -4   2    8.11    1.08
   4  -4  -2    6.88    1.27
  -4  -4   2    5.14    0.79
  -4  -4   2    6.01    0.75
   4  -4  -2    6.18    0.97
   4  -4  -2    6.31    0.90
  -4   4   2    7.23    0.82
   4   4  -2   10.18    1.53
  -4   4   2    6.86    0.91
  -4   4   2    8.60    0.81
  -4   4   2    5.93    0.83
   4   4  -2    6.00    0.97
  -4   4   2    7.01    0.51
   4   4  -2    8.12    1.48
   4   4  -2    6.23    0.99
   2  -4  -2  216.19    6.78
  -2  -4   2  217.14    6.84
   2  -4  -2  185.83    7.00
   2  -4  -2  216.26    7.02
   2  -4  -2  218.79    6.62
  -2  -4   2  227.30    6.56
  -2  -4   2  206.61    7.60
   2  -4  -2  221.55    7.17
  -2  -4   2  205.32    6.70
   2  -4  -2  212.95    6.69
  -2  -4   2  222.52    7.20
   2   4  -2  226.31    6.71
   2   4  -2  213.39    6.62
   2   4  -2  216.65    7.29
   2   4  -2  218.98    6.72
  -2   4   2  212.51    6.80
  -2   4   2  212.44    6.79
  -2   4   2  229.21    6.80
   0  -4  -2    1.05    0.46
   0  -4  -2    0.93    0.51
   0  -4  -2   -0.01    0.56
   0  -4  -2    1.02    0.41
   0  -4   2    0.63    0.74
   0  -4  -2    0.80    0.51
   0  -4   2    1.37    0.95
   0  -4   2    1.35    0.58
   0  -4   2    1.06    0.50
   0  -4  -2    1.32    0.50
   0   4  -2    0.82    0.49
   0   4  -2    0.76    1.00
   0   4   2    0.95    0.50
   0   4  -2    1.50    0.48
   0   4  -2    2.43    0.59
   0   4   2    1.01    0.46
   0   4  -2    0.84    0.37
   0   4   2    1.36    0.31
   0   4   2    0.90    0.44
  -2  -4  -2  130.52    4.28
   2  -4   2  127.21    4.74
  -2  -4  -2  124.96    4.25
  -2  -4  -2  125.43    4.35
  -2  -4  -2  122.71    4.50
  -2  -4  -2  129.22    4.12
   2  -4   2  119.90    4.82
  -2  -4  -2  124.14    4.34
   2  -4   2  127.74    4.23
   2  -4   2  124.99    4.23
   2   4   2  122.26    4.36
   2   4   2  124.10    4.35
  -2   4  -2  123.83    3.77
  -2   4  -2  133.04    3.77
  -2   4  -2  126.41    4.57
   2   4   2  124.21    4.32
  -4  -4  -2   60.69    3.06
   4  -4   2   67.40    2.51
  -4  -4  -2   65.00    2.15
   4  -4   2   63.81    2.55
   4  -4   2   65.56    2.93
  -4  -4  -2   65.37    2.71
   4  -4   2   61.03    2.99
  -4  -4  -2   65.44    2.36
  -4  -4  -2   66.57    2.77
  -4  -4  -2   67.39    2.86
  -4   4  -2   68.62    2.42
   4   4   2   57.30    2.79
  -4   4  -2   64.07    1.96
   4   4   2   62.98    2.71
  -4   4  -2   65.01    2.78
   6  -4   2   44.59    2.07
  -6  -4  -2   42.89    2.27
  -6  -4  -2   45.03    1.75
  -6  -4  -2   46.49    2.31
   6  -4   2   44.68    1.92
  -6  -4  -2   43.26    2.07
  -6  -4  -2   44.69    2.36
   6  -4   2   44.25    2.30
  -6   4  -2   39.68    1.50
  -6   4  -2   44.55    1.75
  -6   4  -2   38.39    1.52
  -6   4  -2   37.71    2.11
  -6   4  -2   41.63    1.51
   6   4   2   42.38    2.28
  -6   4  -2   43.72    2.08
  -6   4  -2   49.12    1.59
   6   4   2   41.53    2.19
  -8  -4  -2   23.26    2.13
  -8  -4  -2   23.11    1.70
   8  -4   2   21.50    1.65
  -8  -4  -2   24.26    1.72
  -8  -4  -2   24.07    1.86
  -8  -4  -2   24.35    1.88
   8  -4   2   23.72    1.38
   8  -4   2   24.18    1.69
   8   4   2   23.86    1.88
  -8   4  -2   23.24    1.24
  -8   4  -2   24.02    1.12
  -8   4  -2   25.17    1.17
  -8   4  -2   23.85    1.69
   8   4   2   22.00    1.88
  -8   4  -2   25.62    1.20
  -8   4  -2   22.12    1.47
  -8   4  -2   22.98    1.18
  10  -4   2   41.18    1.94
 -10  -4  -2   42.66    2.30
 -10  -4  -2   44.02    2.79
  10  -4   2   40.28    2.33
 -10  -4  -2   39.57    2.62
 -10  -4  -2   41.00    2.37
 -10  -4  -2   39.33    2.84
 -10   4  -2   42.59    1.83
 -10   4  -2   40.75    1.86
 -10   4  -2   41.38    1.68
 -10   4  -2   37.16    1.89
  10   4   2   35.85    2.60
  12  -4   2   35.54    1.85
 -12  -4  -2   35.85    2.29
 -12  -4  -2   32.16    2.61
 -12  -4  -2   37.62    3.06
 -12  -4  -2   34.84    2.94
 -12  -4  -2   35.32    2.12
 -12   4  -2   35.85    1.92
 -12   4  -2   35.85    1.73
  12   4   2   31.53    2.85
 -12   4  -2   32.64    2.28
 -12   4  -2   34.65    1.81
 -12   4  -2   29.94    1.87
  12   4   2   33.33    2.83
  14  -4   2    1.62    0.79
 -14  -4  -2    2.63    1.67
 -14  -4  -2    2.05    1.36
 -14  -4  -2    1.71    1.30
 -14  -4  -2    1.57    1.03
 -14   4  -2    1.99    0.55
  14   4   2    4.80    1.84
  14   4   2    2.50    1.66
 -14   4  -2    2.84    1.06
 -14   4  -2    2.09    0.93
  14   4   2    4.16    1.31
 -16  -4  -2   19.29    2.11
 -16  -4  -2   22.64    2.86
 -16  -4  -2   25.88    3.03
 -16   4  -2   22.98    2.50
 -16   4  -2   24.98    2.27
  16   4   2   17.92    2.85
  16   4   2   22.59    3.77
  16   4   2   25.70    3.66
 -18  -4  -2    0.98    1.84
 -18  -4  -2   -0.61    1.28
 -18   4  -2    0.95    1.43
  18   4   2   -1.53    2.31
 -18   4  -2    2.31    1.47
 -20  -4  -2    3.93    2.33
 -20  -4  -2    3.88    1.76
 -20   4  -2    6.06    1.95
 -20   4  -2    4.12    1.99
  21  -5  -2   11.74    2.09
 -21  -5   2   14.68    7.22
 -21  -5   2    3.88    3.17
 -21  -5   2    8.06    3.47
  21   5  -2    2.11    3.16
 -21   5   2    5.24    2.56
 -21   5   2   10.98    2.34
  21   5  -2   11.20    2.76
 -19  -5   2   -3.19    2.88
  19  -5  -2    0.06    1.36
 -19  -5   2   -1.39    4.22
 -19  -5   2    0.48    2.56
  19   5  -2   -0.39    2.06
 -19   5   2   -0.89    1.76
 -19   5   2    0.15    1.51
 -17  -5   2    5.39    2.60
  17  -5  -2    9.02    1.53
 -17  -5   2    6.78    3.80
 -17  -5   2    8.68    1.82
 -17  -5   2    6.55    2.50
 -17  -5   2    3.54    2.64
 -17   5   2    6.14    1.59
  17   5  -2   10.75    2.09
 -17   5   2    6.79    1.84
 -17   5   2    3.67    1.85
  17   5  -2    6.10    2.16
  17   5  -2    7.74    2.30
 -15  -5   2   10.08    2.37
 -15  -5   2   10.28    2.52
 -15  -5   2    9.76    2.50
  15  -5  -2   10.00    1.45
 -15  -5   2   15.47    3.61
  15   5  -2   10.34    2.09
  15   5  -2   10.80    2.26
 -15   5   2    7.20    1.53
 -15   5   2    8.91    1.55
 -15   5   2   11.90    1.87
  15   5  -2    7.42    2.03
  13  -5  -2   15.12    1.77
 -13  -5   2   18.77    3.12
 -13  -5   2   15.89    2.46
  13  -5  -2   17.38    1.04
 -13  -5   2   16.73    2.44
 -13  -5   2   18.53    3.42
  13  -5  -2   14.83    1.63
 -13  -5   2   16.13    2.74
  13   5  -2   17.19    2.83
 -13   5   2   11.22    1.89
  13   5  -2   16.92    2.95
 -13   5   2   15.37    1.84
  13   5  -2   16.81    2.41
 -11  -5   2   14.10    2.22
 -11  -5   2   15.41    2.55
  11  -5  -2   11.99    1.47
  11  -5  -2   13.98    0.98
  11  -5  -2   16.74    1.69
 -11  -5   2   14.30    2.07
  11  -5  -2   15.39    1.18
 -11  -5   2   14.45    3.01
 -11  -5   2   17.47    2.76
  11  -5  -2   14.27    1.53
 -11   5   2   15.22    1.69
 -11   5   2   12.02    1.52
 -11   5   2   16.04    1.83
  11   5  -2   15.25    2.57
  11   5  -2   15.92    2.94
  11   5  -2   15.23    2.15
 -11   5   2   13.03    2.08
   9  -5  -2   21.07    1.77
  -9  -5   2   21.10    2.56
   9  -5  -2   21.46    1.68
   9  -5  -2   20.44    1.11
   9  -5  -2   20.85    1.61
  -9  -5   2   20.65    2.26
  -9  -5   2   18.73    2.41
  -9  -5   2   20.54    3.35
   9  -5  -2   21.67    1.43
  -9  -5   2   20.07    3.67
   9  -5  -2   22.02    1.80
   9   5  -2   21.45    2.86
  -9   5   2   18.42    1.53
   9   5  -2   21.92    2.76
  -9   5   2   19.04    1.51
  -9   5   2   24.01    0.97
  -9   5   2   18.91    1.67
   9   5  -2   22.91    2.54
  -7  -5   2   47.30    2.74
  -7  -5   2   43.08    3.81
   7  -5  -2   51.09    2.04
   7  -5  -2   46.16    1.82
   7  -5  -2   43.73    2.28
   7  -5  -2   44.79    1.61
  -7  -5   2   40.04    2.32
  -7  -5   2   48.12    2.74
   7  -5  -2   43.67    2.32
  -7  -5   2   43.76    3.12
   7  -5  -2   44.74    1.97
  -7   5   2   44.29    2.24
   7   5  -2   51.39    4.12
   7   5  -2   48.64    2.39
  -7   5   2   46.30    1.61
  -7   5   2   44.18    2.19
  -7   5   2   48.19    2.13
   5  -5  -2    3.40    0.83
  -5  -5   2    4.80    0.85
  -5  -5   2    3.83    0.78
   5  -5  -2    3.76    0.64
   5  -5  -2    3.14    0.54
  -5  -5   2    1.96    1.01
   5  -5  -2    3.30    0.70
   5  -5  -2    3.71    0.58
  -5  -5   2    3.37    1.14
  -5  -5   2    4.39    1.65
   5  -5  -2    1.55    0.96
  -5  -5   2    3.27    0.87
   5  -5  -2    4.13    0.71
  -5   5   2    2.86    0.67
   5   5  -2    3.33    0.90
  -5   5   2    3.63    0.70
  -5   5   2    3.80    0.52
  -5   5   2    3.53    0.71
   5   5  -2    3.48    1.06
   5   5  -2    3.06    1.28
   5   5  -2    4.58    0.79
   3  -5  -2  104.52    3.97
  -3  -5   2   97.91    4.78
  -3  -5   2   98.83    3.76
  -3  -5   2  100.13    3.12
   3  -5  -2  104.82    3.74
  -3  -5   2   97.65    3.63
  -3  -5   2  108.33    3.62
   3  -5  -2  100.97    3.48
   3  -5  -2   99.87    3.49
  -3  -5   2  106.99    4.27
  -3  -5   2  103.81    3.15
   3   5  -2  100.58    3.65
   3   5  -2  104.07    3.61
  -3   5   2  104.96    3.63
  -3   5   2  102.92    3.70
   3   5  -2  100.54    3.70
  -3   5   2   99.91    3.66
   3   5  -2   98.79    4.23
   1  -5  -2    1.35    0.54
  -1  -5   2    0.55    0.46
  -1  -5   2    1.31    1.06
  -1  -5   2    0.37    0.50
   1  -5  -2    0.07    0.55
   1  -5  -2    0.66    0.49
  -1  -5   2    0.72    0.97
   1  -5  -2    0.05    0.56
   1  -5  -2    0.61    0.48
   1  -5  -2   -0.19    0.43
   1  -5  -2    0.27    1.01
   1   5  -2   -0.29    0.81
  -1   5   2    0.55    0.44
   1   5  -2    0.33    0.39
   1   5  -2    0.35    0.61
  -1   5   2    0.35    0.42
  -1   5   2    1.07    0.47
   1   5  -2    0.56    0.41
  -1  -5  -2   70.68    3.14
   1  -5   2   70.48    3.32
  -1  -5  -2   69.96    2.70
  -1  -5  -2   68.77    2.77
  -1  -5  -2   72.33    2.68
   1  -5   2   70.05    2.70
  -1  -5  -2   72.29    2.80
  -1  -5  -2   70.90    2.81
   1   5   2   66.67    2.81
  -1   5  -2   68.85    2.31
   1   5   2   68.24    2.85
  -1   5  -2   70.69    2.40
   1   5   2   74.45    2.84
  -1   5  -2   70.27    2.39
  -1   5  -2   65.75    3.16
   1   5   2   69.59    2.50
   3  -5   2    0.31    0.46
  -3  -5  -2   -0.85    0.61
  -3  -5  -2    0.60    0.53
   3  -5   2    0.62    1.06
  -3  -5  -2    0.20    0.19
  -3  -5  -2    0.44    0.37
  -3  -5  -2   -0.30    0.63
  -3  -5  -2    0.79    0.60
   3  -5   2    0.09    0.72
  -3  -5  -2    0.55    0.63
  -3   5  -2    0.71    0.83
   3   5   2    0.29    0.52
   3   5   2    0.45    0.55
  -5  -5  -2  112.28    4.32
  -5  -5  -2  113.60    4.38
  -5  -5  -2  111.47    4.29
  -5  -5  -2  111.84    4.25
  -5  -5  -2  106.50    4.25
   5  -5   2  112.69    4.68
   5  -5   2  116.53    4.46
   5  -5   2  109.76    4.47
   5  -5   2  113.89    4.07
  -5  -5  -2  112.23    3.56
  -5  -5  -2  116.12    3.96
  -5   5  -2  115.97    4.29
   5   5   2  102.65    4.46
  -5   5  -2  114.27    4.09
  -5   5  -2  113.66    3.83
   5   5   2  112.12    4.29
  -7  -5  -2    5.85    1.24
   7  -5   2    6.02    1.23
  -7  -5  -2    6.50    1.16
   7  -5   2    6.78    1.39
  -7  -5  -2    6.00    1.34
   7  -5   2    4.82    0.84
  -7  -5  -2    5.20    1.09
  -7  -5  -2    5.79    0.88
   7  -5   2    7.81    1.16
  -7   5  -2    6.36    0.53
  -7   5  -2    5.33    0.76
   7   5   2    5.98    1.16
   7   5   2    5.35    1.09
  -7   5  -2    7.33    0.48
  -7   5  -2    6.52    1.25
  -7   5  -2    4.35    0.61
  -9  -5  -2   74.41    3.83
   9  -5   2   75.39    3.03
  -9  -5  -2   69.10    3.53
  -9  -5  -2   74.88    3.39
   9  -5   2   75.32    3.26
   9  -5   2   74.30    3.42
  -9  -5  -2   74.56    3.34
  -9  -5  -2   72.84    3.64
  -9   5  -2   75.38    2.61
   9   5   2   71.17    3.60
  -9   5  -2   69.58    2.53
  -9   5  -2   66.36    2.60
   9   5   2   70.04    4.07
  -9   5  -2   71.56    3.24
  -9   5  -2   73.87    2.56
  -9   5  -2   73.78    3.10
 -11  -5  -2    0.33    1.04
  11  -5   2    0.92    0.81
 -11  -5  -2    2.76    1.24
 -11  -5  -2    0.92    0.88
 -11  -5  -2    1.17    1.44
 -11  -5  -2    1.05    0.99
 -11   5  -2    0.49    0.73
  11   5   2    1.87    1.38
 -11   5  -2    1.21    0.69
  11   5   2   -0.22    1.16
 -11   5  -2    0.67    0.43
 -11   5  -2    2.54    0.62
 -11   5  -2    1.11    0.51
 -13  -5  -2   29.74    3.45
  13  -5   2   18.72    2.15
 -13  -5  -2   21.46    2.73
 -13  -5  -2   20.62    1.93
 -13  -5  -2   22.13    2.09
 -13  -5  -2   21.09    2.80
 -13   5  -2   18.59    1.76
 -13   5  -2   20.45    1.13
  13   5   2   25.25    2.85
  13   5   2   22.39    3.10
 -13   5  -2   18.43    1.99
  15  -5   2    2.64    1.08
 -15  -5  -2    1.81    2.04
 -15  -5  -2    0.42    1.48
 -15  -5  -2    2.96    1.65
 -15  -5  -2    0.81    1.15
 -15  -5  -2    1.11    0.96
  15   5   2    0.35    1.82
  15   5   2    6.12    1.73
  15   5   2    5.37    1.62
 -15   5  -2    1.98    1.12
 -15   5  -2    1.36    1.09
 -17  -5  -2   10.83    2.30
 -17  -5  -2   15.44    2.05
  17   5   2    9.46    2.92
 -17   5  -2   13.82    2.00
 -17   5  -2   13.39    1.98
 -19  -5  -2   -3.04    2.47
 -19  -5  -2   -1.34    1.81
 -19   5  -2   -0.82    1.53
  19   5   2   -4.73    2.51
 -19   5  -2   -2.82    1.69
 -20  -6   2   -2.75    3.21
 -20  -6   2   -8.38    4.96
 -20  -6   2   -1.18    3.01
  20  -6  -2    1.90    1.64
 -20   6   2    0.10    1.52
  20   6  -2   -1.31    2.47
 -18  -6   2   15.99    3.41
 -18  -6   2   23.30    5.75
  18  -6  -2   17.16    2.39
 -18  -6   2   17.60    3.35
 -18   6   2   15.16    2.53
  18   6  -2   15.40    3.01
  18   6  -2   15.33    3.18
 -18   6   2   16.00    2.66
 -16  -6   2    3.33    1.40
  16  -6  -2    6.81    1.45
 -16  -6   2    2.79    2.71
 -16  -6   2    6.70    3.79
 -16  -6   2    1.11    3.05
 -16  -6   2    3.08    2.31
  16   6  -2    1.42    2.19
  16   6  -2    5.13    2.08
 -16   6   2    5.10    1.40
 -16   6   2    4.12    1.55
  16   6  -2    3.20    2.23
 -14  -6   2   61.11    3.62
  14  -6  -2   66.93    3.72
 -14  -6   2   61.97    4.62
  14  -6  -2   61.25    3.22
 -14  -6   2   62.41    6.22
 -14  -6   2   65.71    4.44
 -14  -6   2   66.81    5.48
  14   6  -2   59.66    4.36
  14   6  -2   64.46    4.58
  14   6  -2   62.50    4.40
 -14   6   2   60.00    3.42
 -14   6   2   59.88    3.26
 -12  -6   2    1.65    2.57
  12  -6  -2    1.02    1.18
  12  -6  -2    1.22    0.94
 -12  -6   2    1.14    1.82
 -12  -6   2   -1.55    1.65
 -12  -6   2    1.57    1.33
 -12  -6   2    0.90    1.73
 -12   6   2    1.77    0.86
  12   6  -2    2.34    1.99
  12   6  -2    1.55    1.75
 -12   6   2    0.63    1.03
  12   6  -2    0.78    1.71
 -10  -6   2  100.65    4.80
 -10  -6   2  101.15    4.56
  10  -6  -2   97.57    4.10
 -10  -6   2  100.58    4.79
 -10  -6   2   98.20    6.33
  10  -6  -2   99.13    4.18
 -10  -6   2   95.13    5.48
 -10   6   2  102.64    3.98
  10   6  -2  104.37    5.27
  10   6  -2  101.43    4.77
 -10   6   2  105.41    4.56
 -10   6   2  100.86    4.04
  10   6  -2  101.53    4.98
  -8  -6   2    8.05    2.38
   8  -6  -2    8.97    1.36
  -8  -6   2    7.93    1.68
  -8  -6   2    9.00    1.63
   8  -6  -2    7.49    1.28
  -8  -6   2    7.04    1.83
  -8  -6   2    7.71    1.67
   8  -6  -2    8.46    1.26
  -8   6   2    7.88    1.26
   8   6  -2    8.60    1.72
  -8   6   2    8.58    0.73
   8   6  -2    8.93    1.36
  -8   6   2    9.07    1.14
  -8   6   2    8.17    1.25
   8   6  -2    7.43    2.06
   8   6  -2    7.84    1.64
   6  -6  -2  105.99    4.13
   6  -6  -2  105.85    4.34
  -6  -6   2  104.47    4.36
   6  -6  -2  106.35    3.44
   6  -6  -2  105.67    3.69
  -6  -6   2  110.81    4.65
  -6  -6   2  100.41    5.63
  -6  -6   2  104.53    4.02
   6  -6  -2  108.64    3.73
   6  -6  -2  114.44    3.62
  -6  -6   2  107.10    4.08
  -6   6   2  105.86    3.98
   6   6  -2  106.69    4.39
  -6   6   2  112.88    3.95
   6   6  -2  107.38    4.98
  -6   6   2  101.89    3.95
   6   6  -2  107.60    4.10
   4  -6  -2    8.43    1.09
   4  -6  -2   12.04    1.09
  -4  -6   2   10.90    0.72
  -4  -6   2   11.55    1.36
   4  -6  -2    6.89    1.26
   4  -6  -2   11.30    1.34
   4  -6  -2    9.78    1.15
  -4  -6   2   10.41    0.84
  -4  -6   2   10.24    2.05
   4  -6  -2   10.35    1.53
  -4  -6   2   11.75    1.86
  -4  -6   2   10.49    1.26
   4  -6  -2    9.57    0.91
  -4   6   2   10.00    1.13
   4   6  -2   11.49    1.31
  -4   6   2   10.68    0.57
   4   6  -2    9.39    1.48
   4   6  -2   12.01    2.23
   4   6  -2   11.82    1.12
  -4   6   2   10.17    1.12
  -4   6   2   10.21    1.07
  -2  -6   2  151.61    5.79
  -2  -6   2  148.00    5.27
   2  -6  -2  149.17    4.92
  -2  -6   2  143.21    4.98
   2  -6  -2  154.67    5.88
   2  -6  -2  152.76    5.03
   2  -6  -2  144.14    4.98
  -2   6   2  146.70    5.13
   2   6  -2  152.64    4.93
  -2   6   2  149.99    5.07
  -2   6   2  150.64    5.15
   2   6  -2  147.96    4.88
   0  -6  -2    9.02    1.49
   0  -6   2    7.36    1.53
   0  -6   2    6.44    1.49
   0  -6  -2    7.87    1.14
   0  -6  -2    8.72    1.08
   0  -6  -2    8.88    1.14
   0  -6   2    7.84    0.97
   0  -6  -2    8.49    1.02
   0  -6   2    8.46    1.38
   0  -6  -2    7.26    1.31
   0  -6  -2    7.52    1.75
   0   6  -2    9.08    0.76
   0   6   2    8.26    1.05
   0   6  -2    9.27    0.73
   0   6   2    7.49    1.10
   0   6   2    8.38    0.73
   0   6   2    8.87    1.71
   0   6  -2    6.29    0.95
  -2  -6  -2   72.71    3.01
   2  -6   2   71.78    3.73
  -2  -6  -2   67.28    2.95
  -2  -6  -2   68.21    2.93
   2  -6   2   71.31    3.65
  -2  -6  -2   60.10    3.67
  -2  -6  -2   71.34    2.85
   2  -6   2   73.43    2.81
  -2  -6  -2   67.62    3.25
  -2   6  -2   74.65    2.33
   2   6   2   72.15    2.99
  -2   6  -2   69.01    2.34
  -2   6  -2   68.63    2.25
   2   6   2   68.44    3.00
  -2   6  -2   63.33    2.34
   2   6   2   70.89    3.02
  -4  -6  -2   31.64    2.11
   4  -6   2   32.76    1.86
  -4  -6  -2   32.89    1.78
  -4  -6  -2   32.53    1.98
   4  -6   2   34.34    2.07
   4  -6   2   30.57    3.39
  -4  -6  -2   33.34    1.16
  -4  -6  -2   34.40    2.12
   4  -6   2   30.22    2.99
  -4  -6  -2   32.96    2.19
  -4   6  -2   35.46    3.58
   4   6   2   32.76    2.10
   4   6   2   30.80    2.05
   6  -6   2   45.63    2.38
  -6  -6  -2   48.17    2.79
  -6  -6  -2   47.86    2.60
  -6  -6  -2   48.78    2.22
  -6  -6  -2   48.60    2.74
  -6  -6  -2   45.65    1.91
   6  -6   2   47.54    2.45
  -6  -6  -2   48.48    2.67
   6  -6   2   47.54    3.07
  -6  -6  -2   45.73    2.66
   6  -6   2   45.53    3.79
   6   6   2   43.84    2.70
   6   6   2   43.59    2.60
  -6   6  -2   48.44    2.07
  -6   6  -2   47.60    2.78
   8  -6   2   34.57    2.15
  -8  -6  -2   30.83    2.44
  -8  -6  -2   33.49    1.88
  -8  -6  -2   32.07    2.52
   8  -6   2   34.77    3.22
  -8  -6  -2   31.62    2.58
   8  -6   2   30.72    2.03
   8  -6   2   32.13    2.62
  -8  -6  -2   31.69    2.32
  -8  -6  -2   29.96    2.09
  -8   6  -2   30.77    1.76
   8   6   2   30.01    2.47
  -8   6  -2   34.53    1.55
  -8   6  -2   31.39    1.94
   8   6   2   31.54    2.44
  -8   6  -2   34.73    2.45
  -8   6  -2   28.65    1.39
  10  -6   2   25.44    2.04
 -10  -6  -2   25.05    2.16
 -10  -6  -2   25.13    2.15
 -10  -6  -2   27.98    2.68
 -10  -6  -2   26.33    3.16
 -10  -6  -2   24.90    2.47
  10  -6   2   26.79    1.90
 -10   6  -2   26.22    1.21
 -10   6  -2   20.37    1.61
  10   6   2   23.53    2.48
 -10   6  -2   18.60    2.11
 -10   6  -2   23.45    1.93
  10   6   2   24.29    2.56
 -10   6  -2   23.82    1.27
 -12  -6  -2   21.66    2.82
  12  -6   2   20.02    1.79
 -12  -6  -2   17.66    2.13
 -12  -6  -2   20.88    1.99
 -12  -6  -2   19.00    2.71
 -12   6  -2   16.92    1.08
 -12   6  -2   21.50    1.25
 -12   6  -2   20.03    1.86
  12   6   2   17.61    2.69
 -12   6  -2   14.44    1.81
  12   6   2   23.74    2.86
 -14  -6  -2    4.59    1.21
 -14  -6  -2    6.78    2.03
 -14  -6  -2    7.28    2.33
 -14  -6  -2    2.87    1.72
  14  -6   2    6.20    1.22
 -14  -6  -2    6.05    1.36
 -14   6  -2    4.84    1.21
  14   6   2    6.36    1.98
 -16  -6  -2   20.13    2.51
 -16  -6  -2   12.43    2.37
 -16  -6  -2   15.19    2.27
 -16   6  -2   15.45    2.39
  16   6   2   14.74    2.88
 -16   6  -2   11.29    1.94
  16   6   2   18.46    3.05
 -18  -6  -2    1.62    2.06
 -18  -6  -2    0.78    1.68
  18   6   2   -3.82    2.80
 -18   6  -2   -3.01    1.55
 -18   6  -2    1.56    1.49
 -19  -7   2    2.84    5.47
 -19  -7   2   -0.63    2.97
  19  -7  -2    3.17    1.83
 -19  -7   2   -0.24    3.13
  19   7  -2   -3.79    2.87
 -19   7   2    2.57    1.62
 -19   7   2   -0.90    1.91
  19   7  -2   -2.31    2.66
 -17  -7   2   15.31    3.18
  17  -7  -2   15.81    2.19
 -17  -7   2   19.11    5.26
 -17  -7   2   13.33    2.01
 -17  -7   2    9.44    3.37
  17   7  -2   14.02    2.74
 -17   7   2    9.65    2.16
  17   7  -2   10.58    3.04
 -17   7   2   13.45    1.95
  17   7  -2    9.64    2.92
 -15  -7   2   14.61    2.23
 -15  -7   2   17.46    3.28
 -15  -7   2   17.14    2.89
 -15  -7   2   21.56    4.72
  15   7  -2   14.92    2.88
  15   7  -2   13.63    2.77
  15   7  -2   14.46    2.90
 -15   7   2   15.32    2.35
 -15   7   2   17.44    2.07
 -13  -7   2   16.29    3.66
 -13  -7   2   13.92    2.12
 -13  -7   2   12.22    2.53
 -13  -7   2   15.20    2.57
  13  -7  -2   15.49    2.43
  13  -7  -2   15.57    1.82
  13   7  -2   16.41    2.76
  13   7  -2   18.47    3.18
  13   7  -2   14.22    2.56
 -13   7   2   15.26    2.06
 -13   7   2   16.98    1.87
 -11  -7   2   22.35    2.86
 -11  -7   2   24.84    3.24
 -11  -7   2   28.08    4.60
  11  -7  -2   21.57    2.05
  11  -7  -2   24.00    2.41
 -11  -7   2   19.42    3.00
 -11  -7   2   19.18    2.21
  11   7  -2   21.04    3.60
  11   7  -2   20.54    2.62
  11   7  -2   22.78    3.18
 -11   7   2   22.23    1.89
 -11   7   2   19.01    1.96
   9  -7  -2   40.46    2.78
   9  -7  -2   41.82    2.54
  -9  -7   2   39.54    2.56
  -9  -7   2   45.55    3.31
  -9  -7   2   41.21    3.27
  -9  -7   2   42.36    3.76
  -9  -7   2   40.59    4.58
   9   7  -2   40.15    3.39
  -9   7   2   42.54    2.34
  -9   7   2   42.41    2.34
   9   7  -2   41.83    3.17
   9   7  -2   40.23    3.87
   7  -7  -2   58.12    3.17
  -7  -7   2   53.18    4.53
  -7  -7   2   55.52    2.86
  -7  -7   2   56.05    2.88
  -7  -7   2   57.50    3.84
  -7  -7   2   61.42    3.67
  -7  -7   2   41.62    5.09
   7  -7  -2   58.85    2.45
   7  -7  -2   55.33    2.87
   7   7  -2   54.64    4.01
   7   7  -2   59.48    3.29
  -7   7   2   58.62    2.63
  -7   7   2   56.31    2.65
   7   7  -2   56.73    3.36
  -5  -7   2    6.75    1.19
   5  -7  -2    8.07    1.21
  -5  -7   2    6.04    2.09
  -5  -7   2    8.65    0.86
  -5  -7   2    7.76    1.75
   5  -7  -2    8.12    1.42
   5  -7  -2    5.66    1.33
  -5  -7   2    4.59    1.48
  -5  -7   2    7.19    1.08
   5  -7  -2    7.84    1.23
  -5  -7   2    7.18    0.96
   5   7  -2    6.34    1.27
   5   7  -2    8.89    1.76
  -5   7   2    9.51    0.67
   5   7  -2    9.62    2.13
  -5   7   2    7.49    1.03
  -5   7   2    8.41    1.28
  -5   7   2    7.45    1.14
   3  -7  -2  101.94    4.03
  -3  -7   2  105.89    4.80
   3  -7  -2  105.17    3.71
   3  -7  -2  103.86    3.49
   3  -7  -2  101.24    4.36
   3  -7  -2   96.95    4.34
  -3  -7   2   99.15    3.73
   3  -7  -2  101.06    3.81
   3  -7  -2   99.58    3.83
  -3  -7   2  103.46    4.18
  -3  -7   2   93.93    5.42
  -3   7   2  101.24    3.80
  -3   7   2   97.28    3.84
   3   7  -2   99.04    3.91
   3   7  -2  103.42    3.80
   3   7  -2  100.23    3.75
   3   7  -2   98.38    4.89
  -1  -7   2   10.47    1.46
   1  -7  -2   11.81    1.68
  -1  -7   2   14.62    2.24
   1  -7  -2   12.18    1.27
  -1  -7   2   11.71    1.22
  -1  -7   2   11.10    2.11
   1  -7  -2   10.95    2.10
   1  -7  -2   12.77    1.59
   1  -7  -2   13.15    1.46
   1  -7  -2   11.46    1.52
   1   7  -2   10.04    1.31
   1   7  -2   13.16    1.03
  -1   7   2   12.23    1.26
  -1   7   2   10.46    1.28
  -1   7   2   13.08    1.38
   1   7  -2   13.47    1.18
   1  -7   2   66.70    4.04
   1  -7   2   68.48    3.14
  -1  -7  -2   68.20    4.85
  -1  -7  -2   66.38    3.48
  -1  -7  -2   70.13    3.05
  -1  -7  -2   66.75    3.08
  -1  -7  -2   65.45    2.95
   1  -7   2   70.10    2.87
  -1  -7  -2   65.48    3.09
   1  -7   2   67.42    3.79
  -1  -7  -2   69.30    3.02
  -1   7  -2   69.90    2.42
   1   7   2   61.35    2.97
   1   7   2   65.45    3.90
  -1   7  -2   68.49    2.38
  -3  -7  -2   25.77    2.83
  -3  -7  -2   23.02    1.71
  -3  -7  -2   21.88    2.22
  -3  -7  -2   21.47    1.94
  -3  -7  -2   24.29    4.10
  -3  -7  -2   21.07    2.19
   3  -7   2   20.75    2.57
  -3  -7  -2   21.86    1.96
   3  -7   2   23.96    1.92
   3  -7   2   24.01    2.93
   3   7   2   22.61    1.83
  -3   7  -2   21.09    1.14
  -3   7  -2   23.47    0.96
  -3   7  -2   26.41    1.06
   3   7   2   23.17    1.94
  -5  -7  -2   93.87    4.34
   5  -7   2   96.66    3.81
  -5  -7  -2   99.79    4.17
   5  -7   2   96.80    3.96
   5  -7   2   92.47    4.66
  -5  -7  -2  100.31    3.80
   5  -7   2   95.96    4.89
  -5  -7  -2   94.06    3.99
  -5  -7  -2   90.71    4.32
  -5  -7  -2   95.49    4.11
   5   7   2   88.44    4.02
  -5   7  -2  108.11    5.03
   5   7   2   96.37    4.18
  -7  -7  -2    0.61    0.94
   7  -7   2   -0.67    1.34
  -7  -7  -2    0.06    1.13
  -7  -7  -2   -0.87    1.10
   7  -7   2    0.13    0.83
  -7  -7  -2    0.97    1.15
  -7  -7  -2    0.35    0.68
   7  -7   2    0.28    1.05
   7  -7   2   -0.11    0.78
  -7  -7  -2   -0.41    0.87
  -7   7  -2    2.91    1.31
  -7   7  -2    0.31    0.58
   7   7   2    0.87    1.01
  -7   7  -2   -0.70    0.52
   7   7   2   -0.06    0.92
  -9  -7  -2   58.06    2.81
  -9  -7  -2   55.28    4.27
   9  -7   2   58.46    3.64
   9  -7   2   57.19    2.93
   9  -7   2   57.49    3.42
  -9  -7  -2   58.26    3.53
  -9  -7  -2   54.66    3.05
   9  -7   2   58.64    3.03
  -9  -7  -2   56.42    3.28
  -9  -7  -2   57.07    3.70
  -9   7  -2   57.84    3.37
   9   7   2   54.51    3.40
  -9   7  -2   58.37    2.33
   9   7   2   58.10    3.46
 -11  -7  -2    6.88    1.87
  11  -7   2   10.98    1.48
 -11  -7  -2   12.14    1.94
 -11  -7  -2   11.66    2.09
 -11  -7  -2   12.58    1.77
 -11   7  -2    9.62    1.02
 -11   7  -2    8.12    1.80
 -11   7  -2   10.12    1.49
  11   7   2   13.39    2.20
 -11   7  -2   13.81    0.96
  11   7   2   11.13    1.92
 -11   7  -2   10.02    1.05
  13  -7   2   19.53    2.10
 -13  -7  -2   16.68    2.29
 -13  -7  -2   14.49    2.46
 -13  -7  -2   16.87    2.39
  13   7   2   16.42    2.69
  13   7   2   22.11    3.07
 -13   7  -2   18.58    2.02
 -13   7  -2   15.88    1.50
  15  -7   2    1.45    1.30
 -15  -7  -2    1.83    2.15
 -15  -7  -2    1.61    1.45
 -15  -7  -2    6.55    2.39
 -15  -7  -2    3.70    1.42
  15   7   2    7.71    3.75
 -17  -7  -2   13.05    2.36
 -17  -7  -2    8.94    2.98
 -17   7  -2   11.30    2.81
 -17   7  -2    8.52    1.62
  17   7   2    7.96    3.16
 -18  -8   2    6.14    4.58
 -18  -8   2    1.47    3.12
  18  -8  -2    5.38    1.90
 -18  -8   2    6.30    3.20
  18   8  -2    4.23    2.98
 -18   8   2    5.04    1.60
 -16  -8   2   -1.17    1.96
 -16  -8   2    0.64    4.12
 -16  -8   2    0.58    2.77
 -16  -8   2   -4.68    2.45
 -16  -8   2   -0.77    1.80
  16  -8  -2    0.22    1.53
  16   8  -2   -3.31    2.28
 -16   8   2    1.49    1.55
  16   8  -2   -0.30    2.56
 -16   8   2   -1.19    2.44
 -14  -8   2   25.70    4.30
  14  -8  -2   23.84    2.57
 -14  -8   2   18.36    2.55
 -14  -8   2   17.68    2.71
  14  -8  -2   19.23    2.41
 -14  -8   2   22.10    4.30
 -14  -8   2   19.58    3.02
 -14   8   2   21.78    2.38
 -14   8   2   20.66    2.14
  14   8  -2   21.83    3.24
  14   8  -2   19.13    3.15
  14   8  -2   14.82    3.33
 -12  -8   2    2.04    2.62
  12  -8  -2    0.05    1.29
  12  -8  -2    1.13    1.13
 -12  -8   2   -0.43    1.17
 -12  -8   2   -1.72    1.59
 -12  -8   2   -2.42    1.84
 -12  -8   2    0.74    1.82
 -12   8   2    0.83    0.95
  12   8  -2   -0.03    1.99
  12   8  -2   -0.90    2.38
 -12   8   2    0.45    1.03
  12   8  -2   -0.05    1.91
 -10  -8   2   18.63    2.80
  10  -8  -2   28.57    2.67
 -10  -8   2   26.11    2.19
 -10  -8   2   36.71    3.85
  10  -8  -2   24.65    2.15
 -10  -8   2   29.34    4.55
 -10  -8   2   26.45    3.18
  10   8  -2   24.84    3.16
  10   8  -2   25.86    4.07
 -10   8   2   26.41    2.01
  10   8  -2   27.92    3.46
  -8  -8   2   -0.55    1.14
   8  -8  -2    0.35    0.82
  -8  -8   2    0.17    1.65
   8  -8  -2    0.19    1.16
  -8  -8   2    4.98    1.74
  -8  -8   2    1.14    0.90
  -8  -8   2    3.17    2.43
   8  -8  -2    1.51    0.71
  -8   8   2    0.92    0.73
   8   8  -2    1.03    1.59
   8   8  -2    1.59    1.31
   8   8  -2    0.32    2.13
  -8   8   2   -0.44    0.76
  -6  -8   2   25.28    3.09
  -6  -8   2   27.41    3.91
   6  -8  -2   26.07    1.96
   6  -8  -2   22.47    2.02
   6  -8  -2   25.11    2.40
  -6  -8   2   22.28    1.40
  -6  -8   2   27.65    2.10
   6   8  -2   25.89    2.51
   6   8  -2   26.13    3.40
  -6   8   2   25.36    1.85
   6   8  -2   26.45    2.38
  -6   8   2   23.17    1.73
   4  -8  -2    0.93    1.18
  -4  -8   2    2.97    2.13
   4  -8  -2    2.78    1.06
   4  -8  -2    1.35    0.87
  -4  -8   2    2.41    1.71
  -4  -8   2    0.38    0.93
  -4   8   2    1.38    0.66
  -4   8   2    2.35    0.87
   4   8  -2    1.48    1.69
   4   8  -2    2.50    0.95
   4   8  -2    1.47    1.00
  -2  -8   2   38.19    3.14
  -2  -8   2   34.51    2.41
   2  -8  -2   46.77    3.28
  -2  -8   2   36.84    2.43
   2  -8  -2   37.66    2.26
   2  -8  -2   36.39    2.85
   2  -8  -2   38.89    1.80
  -2  -8   2   34.92    3.81
   2   8  -2   43.34    2.17
   2   8  -2   35.83    2.17
   2   8  -2   36.66    3.35
  -2   8   2   37.80    2.19
   2   8  -2   38.12    1.87
   0  -8  -2    2.24    0.79
   0  -8  -2    1.16    0.85
   0  -8   2    1.98    1.55
   0  -8  -2    0.62    1.16
   0  -8  -2    1.12    0.97
   0  -8   2    0.73    0.82
   0  -8  -2    1.24    2.06
   0  -8   2    0.03    1.40
   0   8   2    0.93    0.69
   0   8  -2    1.29    0.47
   0   8   2    0.65    0.82
   0   8  -2    2.49    0.61
   0   8  -2    1.15    0.74
  -2  -8  -2   14.15    2.08
  -2  -8  -2   17.12    1.65
   2  -8   2   14.96    1.54
  -2  -8  -2   13.60    2.94
  -2  -8  -2   16.33    1.85
   2  -8   2   14.75    2.56
  -2  -8  -2   12.78    2.11
  -2  -8  -2   15.26    2.21
   2  -8   2   14.29    1.77
   2  -8   2   15.57    2.36
   2   8   2   14.82    1.63
   2   8   2   15.28    1.82
  -2   8  -2   15.72    1.15
  -2   8  -2   15.48    0.89
  -4  -8  -2    6.71    1.11
   4  -8   2    4.80    1.95
  -4  -8  -2    5.57    1.39
  -4  -8  -2    5.38    1.26
   4  -8   2    4.91    1.20
   4  -8   2    7.21    1.72
  -4  -8  -2    5.47    2.68
  -4  -8  -2    9.21    1.50
   4  -8   2    8.44    1.24
   4   8   2    5.51    1.15
   4   8   2    5.74    1.28
  -6  -8  -2   12.34    2.12
   6  -8   2   15.63    2.38
   6  -8   2    9.95    2.13
   6  -8   2   11.58    1.70
  -6  -8  -2   14.47    1.85
  -6  -8  -2    9.01    2.00
   6  -8   2   13.12    1.63
  -6  -8  -2   16.11    2.31
  -6  -8  -2   11.47    1.48
  -6  -8  -2   13.63    3.20
   6   8   2   15.29    2.26
  -6   8  -2   14.64    1.54
  -6   8  -2   13.45    1.60
   6   8   2   11.61    1.84
  -8  -8  -2    7.85    1.88
  -8  -8  -2   14.17    2.48
   8  -8   2   11.29    1.76
   8  -8   2   10.48    1.91
   8  -8   2   10.81    1.70
  -8  -8  -2   10.20    3.29
  -8  -8  -2   10.46    1.72
  -8  -8  -2   10.43    1.79
   8  -8   2    8.89    1.98
  -8  -8  -2   10.39    1.38
  -8   8  -2   10.48    1.27
  -8   8  -2    7.79    1.66
   8   8   2   11.24    1.97
   8   8   2   10.72    1.80
  10  -8   2    6.45    1.69
 -10  -8  -2    5.67    2.00
  10  -8   2    7.74    1.43
  10  -8   2   10.55    1.83
 -10  -8  -2    7.58    1.60
 -10  -8  -2   11.72    2.09
 -10  -8  -2    8.33    1.71
  10   8   2    9.73    2.12
 -10   8  -2    0.99    3.51
  10   8   2    6.30    1.67
 -10   8  -2    5.96    1.08
 -12  -8  -2    0.35    1.98
 -12  -8  -2    5.70    1.52
  12  -8   2    5.49    1.38
 -12  -8  -2   10.21    2.27
 -12  -8  -2    3.90    1.69
  12   8   2    5.01    2.15
  12   8   2   11.45    2.38
 -12   8  -2    2.92    1.04
 -14  -8  -2    0.78    1.75
 -14  -8  -2    7.24    2.58
 -14  -8  -2    1.52    1.46
 -14  -8  -2   -1.36    2.27
  14  -8   2    4.72    1.57
  14   8   2    5.72    2.10
 -14   8  -2    1.14    0.68
  16   8   2   23.41    4.02
  16   8   2    5.77    2.70
  16   8   2   21.95    3.86
 -15  -9   2   14.30    3.99
  15  -9  -2    7.42    1.91
 -15  -9   2    8.72    2.13
 -15  -9   2    2.05    2.89
 -15  -9   2    2.37    2.20
 -15  -9   2    9.28    3.33
  15   9  -2    3.45    2.74
  15   9  -2    7.17    3.93
 -15   9   2    5.69    1.42
  15   9  -2    3.83    2.78
 -13  -9   2    8.12    2.37
 -13  -9   2   12.93    1.99
 -13  -9   2   13.13    3.69
  13  -9  -2    9.56    1.76
  13  -9  -2    6.61    2.16
  13   9  -2    5.80    2.58
  13   9  -2    6.94    3.28
 -13   9   2   10.23    1.56
  13   9  -2    4.17    2.57
  11  -9  -2    9.44    1.98
 -11  -9   2    5.97    2.17
  11  -9  -2   13.98    2.02
 -11  -9   2   14.80    2.12
 -11  -9   2    9.15    1.99
  11   9  -2    8.63    2.39
  11   9  -2    8.69    3.24
 -11   9   2    8.90    1.35
  11   9  -2    8.48    2.40
  -9  -9   2   13.37    2.41
   9  -9  -2   16.56    1.96
   9  -9  -2   14.63    2.11
  -9  -9   2   26.24    4.60
  -9  -9   2   18.96    1.95
  -9   9   2   15.65    1.95
   9   9  -2   19.90    2.84
   9   9  -2   14.04    2.35
  -9   9   2   16.54    1.70
   9   9  -2   18.65    3.32
  -7  -9   2   32.25    4.80
   7  -9  -2   30.41    3.60
   7  -9  -2   21.88    2.23
   7  -9  -2   17.76    2.50
  -7  -9   2   21.67    3.37
  -7  -9   2   24.09    1.92
  -7   9   2   21.05    2.00
   7   9  -2   27.26    2.51
   7   9  -2   21.79    3.40
   7   9  -2   22.75    2.89
  -7   9   2   20.18    1.75
   5  -9  -2    2.32    1.11
  -5  -9   2    2.55    0.99
  -5  -9   2    2.88    1.91
   5  -9  -2    3.70    1.41
  -5  -9   2    6.28    2.71
  -5  -9   2    5.91    1.38
   5   9  -2    4.93    2.23
  -5   9   2    3.76    0.93
   5   9  -2    5.03    1.46
   5   9  -2    7.46    1.36
  -5   9   2    5.15    1.19
   3  -9  -2   34.58    2.43
  -3  -9   2   35.25    2.71
  -3  -9   2   30.28    3.56
  -3  -9   2   35.36    4.21
   3  -9  -2   34.13    2.98
  -3  -9   2   37.04    2.11
  -3   9   2   32.88    2.33
   3   9  -2   39.19    3.86
   3   9  -2   34.96    2.42
  -3   9   2   36.21    2.20
  -1  -9   2    8.81    2.29
   1  -9  -2   10.48    1.62
   1  -9  -2    9.49    1.72
  -1  -9   2    9.63    1.29
  -1  -9   2    7.74    1.52
  -1  -9   2   12.31    2.55
  -1   9   2   10.60    1.62
   1   9  -2   11.26    2.45
   1   9  -2   11.06    1.51
  -1   9   2    8.14    1.25
  -1  -9  -2   26.70    2.72
   1  -9   2   26.17    2.19
  -1  -9  -2   25.00    3.98
  -1  -9  -2   28.62    2.17
   1  -9   2   25.85    1.85
   1  -9   2   23.49    3.45
   1  -9   2   30.58    3.72
  -1   9  -2   25.79    1.38
   1   9   2   25.34    2.05
   1   9   2   26.67    2.26
  -1   9  -2   27.11    1.67
  -3  -9  -2    6.55    1.30
  -3  -9  -2    7.28    1.57
   3  -9   2    8.90    2.08
   3  -9   2    8.09    2.36
  -3  -9  -2    7.48    2.95
   3  -9   2    7.80    1.46
   3  -9   2    9.50    1.32
  -3  -9  -2    6.01    1.64
   3   9   2    9.24    1.41
  -3   9  -2    8.86    0.80
   3   9   2    9.75    1.90
  -5  -9  -2   31.21    2.94
   5  -9   2   31.85    3.83
  -5  -9  -2   33.56    5.56
   5  -9   2   36.66    3.46
   5  -9   2   32.41    2.20
   5  -9   2   27.43    2.45
  -5  -9  -2   32.63    2.28
  -5  -9  -2   29.73    2.72
   5   9   2   37.11    2.86
   5   9   2   33.13    2.58
  -5   9  -2   34.31    2.01
  -7  -9  -2    0.06    1.36
   7  -9   2    0.97    1.11
  -7  -9  -2   -2.31    1.77
   7  -9   2    0.19    1.02
   7  -9   2   -0.66    1.32
  -7  -9  -2    1.00    1.04
  -7  -9  -2   -2.35    3.12
   7  -9   2    0.20    1.82
  -7  -9  -2    0.90    1.34
  -7   9  -2    0.94    0.82
   7   9   2    2.05    1.30
  -7   9  -2    0.75    0.91
   7   9   2    3.03    1.68
   9  -9   2   23.01    2.35
  -9  -9  -2   25.25    4.96
   9  -9   2   23.31    2.44
   9  -9   2   24.01    3.18
  -9  -9  -2   15.07    2.80
   9  -9   2   20.40    3.31
  -9  -9  -2   20.43    2.83
  -9  -9  -2   20.31    2.24
  -9  -9  -2   22.61    2.70
   9   9   2   24.90    3.08
  -9   9  -2   28.84    3.66
   9   9   2   29.40    3.51
 -11  -9  -2    3.35    1.60
 -11  -9  -2    3.66    4.22
 -11  -9  -2   -1.25    2.54
  11  -9   2    8.52    1.93
  11  -9   2    4.61    1.52
  11   9   2    4.88    2.08
  11   9   2    8.58    2.41
 -13  -9  -2   -1.09    2.96
 -13  -9  -2    1.30    4.62
  13  -9   2    7.87    1.87
 -13  -9  -2    4.82    1.91
  13   9   2    6.23    2.73
 -14 -10   2   18.05    3.95
 -14 -10   2    9.81    2.88
  14 -10  -2   13.95    2.34
  14  10  -2    7.41    3.00
  14  10  -2    9.45    4.03
 -14  10   2   18.53    2.28
  12 -10  -2    2.16    2.19
 -12 -10   2    1.98    2.30
  12 -10  -2    4.18    1.71
 -12 -10   2    3.33    1.61
 -12  10   2    3.85    1.15
  12  10  -2    0.71    2.41
  12  10  -2   -0.63    2.26
  12  10  -2   -0.66    3.32
  10 -10  -2   26.27    2.55
 -10 -10   2   27.08    2.45
  10 -10  -2   24.55    3.45
 -10 -10   2   24.97    3.41
  10  10  -2   24.01    4.10
  10  10  -2   22.81    3.68
 -10  10   2   26.09    2.09
  10  10  -2   27.35    4.62
   8 -10  -2   15.43    2.30
  -8 -10   2   11.66    1.64
  -8 -10   2   19.13    4.28
  -8 -10   2    5.85    2.41
   8 -10  -2   12.70    2.23
  -8  10   2   10.66    1.59
   8  10  -2   11.41    2.37
   8  10  -2   17.47    3.76
  -8  10   2   13.77    1.91
   8  10  -2   10.55    1.97
  -6 -10   2   27.84    2.09
  -6 -10   2   22.17    3.37
   6 -10  -2   29.40    2.57
   6 -10  -2   22.89    3.03
   6  10  -2   30.03    4.56
  -6  10   2   26.32    2.27
   6  10  -2   24.14    3.03
  -6  10   2   24.65    2.03
   4 -10  -2   12.55    2.22
  -4 -10   2   16.96    3.64
  -4 -10   2   16.08    1.77
  -4 -10   2   11.76    2.59
  -4 -10   2   11.76    1.91
   4 -10  -2   11.80    1.85
   4  10  -2   15.33    2.29
  -4  10   2   14.90    1.99
  -4  10   2    9.72    1.68
   4  10  -2   18.22    3.44
  -2 -10   2   34.93    2.96
  -2 -10   2   39.03    4.55
   2 -10  -2   36.00    3.30
  -2 -10   2   36.67    4.10
  -2 -10   2   39.45    2.25
   2 -10  -2   33.58    2.55
   2  10  -2   45.22    4.31
   2  10  -2   39.63    2.56
  -2  10   2   37.41    2.60
  -2  10   2   33.32    2.38
   0 -10   2    8.39    1.59
   0 -10   2   10.18    1.59
   0 -10   2    8.55    2.33
   0 -10  -2    7.60    1.70
   0 -10   2   14.50    3.13
   0 -10  -2    8.63    1.42
   0  10   2   14.92    2.18
   0  10  -2   12.85    1.62
   0  10   2   10.01    1.71
   2 -10   2   26.42    2.67
   2 -10   2   25.97    3.96
  -2 -10  -2   28.47    2.84
   2 -10   2   26.29    2.04
  -2 -10  -2   23.81    2.31
   2 -10   2   28.97    3.99
   2  10   2   25.50    2.39
   2  10   2   28.25    2.58
  -2  10  -2   25.73    1.75
   4 -10   2   20.78    2.45
   4 -10   2   23.08    2.06
  -4 -10  -2   18.02    3.84
  -4 -10  -2   19.52    2.20
  -4 -10  -2   21.03    2.88
   4 -10   2   18.78    3.27
   4 -10   2   20.18    3.15
  -4  10  -2   19.56    1.07
   4  10   2   18.95    2.29
  -4  10  -2   16.34    1.35
   4  10   2   24.94    2.96
   6 -10   2   12.50    1.86
  -6 -10  -2   14.77    4.31
   6 -10   2   11.36    2.74
  -6 -10  -2   14.40    2.05
   6 -10   2   18.49    3.33
   6 -10   2   15.71    2.05
  -6 -10  -2   12.94    2.17
   6  10   2   15.22    2.44
   6  10   2   21.35    3.15
  -6  10  -2   12.91    1.51
   8 -10   2   12.68    2.50
   8 -10   2   11.12    1.93
   8 -10   2   10.49    1.90
   8 -10   2   10.02    2.58
  -8 -10  -2    9.06    4.65
  -8 -10  -2    9.56    1.73
  -8 -10  -2   10.09    2.22
  -8  10  -2   17.69    3.04
   8  10   2   10.67    1.99
 -10 -10  -2    4.96    2.88
 -10 -10  -2    6.44    5.59
  10 -10   2   13.81    2.62
  10 -10   2   12.66    2.52
  10 -10   2   11.31    2.12
  11 -11  -2    3.59    1.80
 -11 -11   2    0.38    2.66
  11 -11  -2   -1.98    2.49
  11  11  -2   -5.29    3.59
  11  11  -2    0.83    2.54
 -11  11   2    3.76    1.17
   9 -11  -2    7.86    1.90
  -9 -11   2    0.83    2.57
   9 -11  -2    2.10    2.12
  -9  11   2    4.14    1.16
   9  11  -2    1.01    2.36
   9  11  -2    0.90    2.17
   9  11  -2    0.38    3.95
   7 -11  -2    8.20    1.85
   7 -11  -2    6.40    2.23
  -7 -11   2    5.69    2.76
  -7 -11   2   13.93    5.51
  -7  11   2    6.41    1.36
   7  11  -2    5.81    2.41
   7  11  -2    8.30    3.66
  -5 -11   2    9.72    3.71
  -5 -11   2   -2.67    3.35
   5 -11  -2    1.69    1.82
  -5  11   2    1.82    1.08
  -5  11   2    3.81    1.32
   5  11  -2    1.55    2.38
   5  11  -2    3.81    5.18
   3 -11  -2    8.53    2.20
  -3 -11   2    9.60    3.02
  -3 -11   2   18.62    4.18
  -3 -11   2    8.69    2.04
   3 -11  -2    8.68    1.88
   3  11  -2   16.71    3.67
   3  11  -2   11.00    1.80
  -3  11   2   15.45    2.36
  -3  11   2   13.60    1.98
  -1 -11   2    6.26    3.23
   1 -11  -2    4.43    1.98
   1 -11  -2    4.01    1.47
  -1 -11   2    3.35    1.65
  -1 -11   2    1.09    2.47
  -1  11   2    3.15    1.20
   1  11  -2    4.84    1.40
  -1  11   2    5.56    1.52
  -1 -11  -2    6.81    1.56
  -1 -11  -2    7.88    1.97
   1 -11   2    8.42    1.96
   1 -11   2   14.98    3.27
   1 -11   2   12.17    1.62
   1 -11   2    4.87    2.65
   1  11   2    8.54    1.52
  -1  11  -2    5.27    1.30
   1  11   2   11.12    2.01
   3 -11   2    6.55    2.70
   3 -11   2    3.00    1.70
   3 -11   2    3.29    1.34
   3 -11   2    1.18    2.59
  -3  11  -2    9.46    2.97
   3  11   2    2.77    1.86
  -5 -11  -2    6.56    1.68
   5 -11   2   15.97    2.29
  -5 -11  -2    7.80    3.74
  -5 -11  -2   12.46    2.40
   5 -11   2   12.46    2.77
   5 -11   2    8.83    3.06
   5  11   2    9.49    1.86
  -7 -11  -2   -0.40    1.58
   7 -11   2    2.78    2.27
  -7 -11  -2   -0.14    1.83
   7 -11   2    0.57    1.60
  -7 -11  -2    9.12    6.54
   7 -11   2    0.07    2.51
  -7  11  -2    7.82    3.15
   7  11   2    4.94    1.76
   9 -11   2    9.46    2.72
  -9 -11  -2    4.10    2.19
  -9 -11  -2    3.34    1.91
   9 -11   2    8.25    1.97
  -9 -11  -2    5.51    4.99
   9  11   2    7.25    2.03
  -6 -12   2   -2.08    2.79
   6 -12  -2    4.17    2.24
   6 -12  -2    8.17    2.09
   6  12  -2    2.92    3.84
   6  12  -2    1.95    2.17
  -6  12   2    5.96    1.24
  -4 -12   2   -3.92    2.68
   4 -12  -2    0.05    1.67
   4 -12  -2   -0.01    1.98
   4  12  -2    3.24    3.83
  -4  12   2    4.00    1.24
   4  12  -2   -0.91    1.80
   2 -12  -2    5.19    2.29
  -2 -12   2    6.34    2.23
  -2 -12   2    6.04    3.19
   2 -12  -2    8.56    1.93
  -2  12   2    6.17    1.42
   2  12  -2    3.61    1.75
   0 -12  -2   -0.53    1.64
   0 -12   2    1.78    1.75
   0 -12   2    1.77    2.95
   0 -12  -2    3.25    1.69
   0  12   2    3.73    1.25
   0  12  -2   10.18    3.89
   2 -12   2   12.48    4.27
  -2  12  -2   18.29    4.45
  -4 -12  -2    6.39    1.88
   4 -12   2    1.87    3.08
  -4 -12  -2    4.14    2.33
   4 -12   2   10.98    3.34
   4 -12   2    2.27    2.03
   4  12   2    6.86    1.66
 -22   0   3    4.98    2.46
  22   0  -3    8.61    2.05
 -22   0   3    1.00    2.85
 -20   0   3    2.30    2.46
  20   0  -3    8.76    1.73
 -20   0   3    4.52    2.34
  20   0  -3    7.35    1.82
 -20   0   3    4.94    2.77
 -20   0   3    4.37    2.26
  18   0  -3   21.49    2.85
 -18   0   3   21.04    3.12
 -18   0   3   21.02    3.44
 -18   0   3   18.95    4.38
  18   0  -3   21.14    2.30
 -18   0   3   19.39    2.93
  18   0  -3   18.99    2.44
 -16   0   3   35.05    3.75
 -16   0   3   35.40    3.82
  16   0  -3   37.22    2.86
 -16   0   3   37.55    3.54
  16   0  -3   33.57    3.06
  16   0  -3   36.05    2.67
 -16   0   3   39.65    3.55
  14   0  -3   63.92    3.27
  14   0  -3   61.31    2.32
  14   0  -3   63.43    3.37
 -14   0   3   62.41    3.98
 -14   0   3   62.64    3.66
 -14   0   3   66.67    4.30
 -14   0   3   62.12    3.87
  14   0  -3   59.41    3.32
 -12   0   3   12.47    2.14
  12   0  -3   14.57    1.75
  12   0  -3   14.01    1.71
 -12   0   3   17.24    2.46
 -12   0   3   18.14    2.89
  12   0  -3   14.70    1.70
 -12   0   3   13.88    2.27
 -10   0   3  304.80    9.97
 -10   0   3  304.92   10.12
  10   0  -3  310.58    9.90
  10   0  -3  300.81   10.53
 -10   0   3  295.62    9.99
 -10   0   3  299.08    9.68
  10   0  -3  311.66    9.83
   8   0  -3   28.22    1.77
  -8   0   3   27.50    1.95
   8   0  -3   27.26    1.79
   8   0  -3   27.51    1.79
  -8   0   3   25.89    1.69
   8   0  -3   27.44    1.33
  -8   0   3   24.69    2.20
  -8   0   3   27.73    2.02
  -6   0   3  287.40    8.86
  -6   0   3  279.76    8.79
  -6   0   3  264.74    8.51
   6   0  -3  269.53    8.29
   6   0  -3  279.78    8.71
   6   0  -3  282.10    8.75
   6   0  -3  270.47    8.87
  -4   0   3   12.13    1.09
   4   0  -3   10.86    0.82
   4   0  -3    9.96    1.15
   4   0  -3   10.79    1.13
   4   0  -3   10.60    1.20
   4   0  -3    9.95    0.95
  -4   0   3    9.68    0.95
  -4   0   3   12.24    1.05
  -4   0   3   10.24    1.38
   4   0  -3   10.67    1.04
   2   0  -3  611.14   16.74
   2   0  -3  558.64   16.70
   2   0  -3  535.19   16.85
  -2   0   3  577.59   16.85
  -2   0   3  557.92   16.54
   2   0  -3  567.40   16.53
   2   0  -3  557.41   16.69
  -2   0   3  576.64   16.68
  -2   0   3  566.62   16.65
   0   0  -3    1.12    0.41
   0   0   3    1.03    0.41
   0   0  -3    0.71    0.38
   0   0   3    0.52    0.38
   0   0  -3    0.71    0.52
   0   0   3    1.08    0.42
   0   0  -3    0.48    0.38
   0   0  -3    0.61    0.41
   0   0   3    1.17    0.56
  -2   0  -3  438.66   13.28
   2   0   3  443.81   13.23
  -2   0  -3  466.61   13.31
   2   0   3  448.14   13.20
  -2   0  -3  440.29   13.35
  -2   0  -3  450.97   13.24
  -2   0  -3  452.93   13.50
  -2   0  -3  445.98   13.29
   4   0   3    2.75    0.69
  -4   0  -3    2.08    0.52
   4   0   3    3.60    0.62
  -4   0  -3    2.30    0.50
   4   0   3    2.91    0.59
  -4   0  -3    2.26    0.28
  -4   0  -3    1.95    0.53
  -4   0  -3    2.50    0.57
  -4   0  -3    2.14    0.53
   4   0   3    2.03    0.56
  -4   0  -3    2.12    0.59
  -6   0  -3  127.02    4.41
  -6   0  -3  133.36    4.43
   6   0   3  133.37    4.40
  -6   0  -3  132.24    4.77
  -6   0  -3  124.94    4.28
   6   0   3  131.30    4.25
  -6   0  -3  129.44    4.14
  -6   0  -3  123.85    4.57
   6   0   3  123.23    4.31
   6   0   3  127.31    4.37
   8   0   3    0.31    0.68
  -8   0  -3    1.12    0.57
  -8   0  -3    1.12    0.56
   8   0   3    0.89    0.67
  -8   0  -3    0.63    0.56
   8   0   3    0.75    0.64
 -10   0  -3  155.86    5.49
 -10   0  -3  148.77    5.53
 -10   0  -3  152.88    5.91
 -10   0  -3  158.04    5.57
 -10   0  -3  156.84    5.26
  10   0   3  156.61    5.54
 -12   0  -3    1.18    0.86
 -12   0  -3    2.05    0.84
 -12   0  -3    1.47    1.10
 -12   0  -3    1.62    0.99
  12   0   3    2.94    1.16
  12   0   3    3.59    1.48
 -14   0  -3   29.76    2.62
 -14   0  -3   26.60    2.48
 -14   0  -3   27.89    1.87
  14   0   3   23.93    2.46
 -14   0  -3   28.73    2.74
 -16   0  -3    7.87    1.20
 -16   0  -3    4.53    1.42
 -16   0  -3    7.68    1.76
  16   0   3    5.00    1.50
 -16   0  -3    8.52    1.84
  18   0   3    3.68    1.59
 -18   0  -3   11.17    2.49
 -18   0  -3    4.07    1.61
 -18   0  -3    5.65    1.27
 -20   0  -3   37.55    6.67
 -23  -1   3   -2.18    2.89
 -23  -1   3   -1.28    3.05
  23  -1  -3   -1.08    1.77
  23  -1  -3   -0.63    1.78
  23   1  -3    0.45    1.84
 -23   1   3   -4.22    2.73
 -23   1   3   -2.22    2.38
 -21  -1   3   22.35    3.63
 -21  -1   3   19.21    3.23
 -21  -1   3   20.23    3.71
 -21  -1   3   16.23    3.28
  21  -1  -3   23.85    2.97
 -21   1   3   23.12    3.60
 -21   1   3   18.38    3.21
 -21   1   3   26.12    4.11
  19  -1  -3    1.24    1.28
 -19  -1   3   -1.53    1.96
  19  -1  -3    2.61    1.36
 -19  -1   3   -2.09    2.15
 -19  -1   3    1.22    2.30
 -19  -1   3   -1.78    2.12
 -19   1   3   -3.63    1.89
 -19   1   3   -1.14    1.70
  19   1  -3   -0.07    2.03
  19   1  -3    1.88    1.39
 -19   1   3    2.41    1.90
 -19   1   3   -0.41    2.21
  19   1  -3    1.12    1.43
 -17  -1   3   65.23    4.97
  17  -1  -3   65.99    3.67
 -17  -1   3   68.58    5.16
  17  -1  -3   71.56    3.97
 -17  -1   3   65.67    4.65
  17  -1  -3   68.27    4.08
 -17  -1   3   70.76    4.91
 -17   1   3   69.33    4.31
  17   1  -3   74.43    4.15
 -17   1   3   67.75    4.59
 -17   1   3   66.45    3.92
  17   1  -3   71.93    3.96
  17   1  -3   69.32    3.74
 -17   1   3   62.63    4.54
 -15  -1   3   -0.41    1.64
  15  -1  -3    1.04    1.10
  15  -1  -3    2.93    1.21
  15  -1  -3   -1.05    0.85
  15  -1  -3    0.81    0.51
 -15  -1   3   -1.89    1.67
 -15  -1   3    1.74    1.81
 -15  -1   3    1.09    1.86
  15   1  -3    0.95    1.16
  15   1  -3   -0.33    1.20
 -15   1   3   -1.21    1.09
 -15   1   3    2.33    1.60
 -15   1   3    0.46    1.34
  15   1  -3   -0.15    1.00
 -15   1   3    0.41    1.70
  13  -1  -3  102.03    4.26
  13  -1  -3  103.89    4.37
 -13  -1   3  101.79    4.97
  13  -1  -3  105.24    3.38
 -13  -1   3  103.62    4.86
 -13  -1   3  100.81    4.96
 -13  -1   3  107.33    5.25
  13  -1  -3  101.12    4.32
 -13   1   3  102.28    4.90
 -13   1   3  102.61    4.16
 -13   1   3  102.68    4.82
 -13   1   3   97.88    4.64
  13   1  -3  104.82    4.46
  13   1  -3  102.36    4.46
  13   1  -3   99.58    4.44
  11  -1  -3    3.11    0.68
 -11  -1   3    0.83    1.03
  11  -1  -3    0.91    0.77
 -11  -1   3    1.60    1.17
 -11  -1   3    2.75    1.59
  11  -1  -3    1.09    0.73
 -11  -1   3    1.14    1.50
  11  -1  -3    1.27    0.84
  11  -1  -3    1.34    0.43
  11   1  -3    1.28    0.90
 -11   1   3    2.51    0.70
 -11   1   3    2.54    1.13
  11   1  -3    1.45    0.92
  11   1  -3    1.99    0.99
 -11   1   3    1.28    1.13
 -11   1   3    1.06    0.88
   9  -1  -3  222.82    7.33
   9  -1  -3  217.43    7.11
  -9  -1   3  204.08    7.99
   9  -1  -3  215.31    6.44
  -9  -1   3  213.31    7.33
  -9  -1   3  209.01    7.35
  -9  -1   3  217.18    7.40
   9  -1  -3  213.97    7.23
  -9   1   3  217.31    7.28
  -9   1   3  216.70    6.63
   9   1  -3  218.61    7.22
   9   1  -3  187.87    7.21
   9   1  -3  207.71    7.19
  -9   1   3  220.33    7.28
  -7  -1   3    0.07    0.74
   7  -1  -3    0.37    0.53
   7  -1  -3    0.27    0.69
   7  -1  -3    0.15    0.33
   7  -1  -3    0.18    0.58
  -7  -1   3    0.51    0.81
  -7   1   3    0.03    0.30
  -7   1   3    0.12    0.72
  -7   1   3    0.09    0.54
   7   1  -3    0.58    0.63
   7   1  -3    0.76    0.66
   5  -1  -3  268.68    8.36
  -5  -1   3  279.94    8.42
   5  -1  -3  258.65    8.04
   5  -1  -3  263.07    8.32
   5  -1  -3  256.03    8.51
  -5  -1   3  250.99    8.46
  -5  -1   3  284.80    8.49
   5  -1  -3  263.54    7.96
  -5  -1   3  279.61    8.47
   5   1  -3  261.83    8.62
  -5   1   3  266.76    8.44
   5   1  -3  267.00    8.41
  -5   1   3  261.46    8.01
  -5   1   3  258.71    8.39
   5   1  -3  286.57    8.55
   5   1  -3  261.27    8.37
   3  -1  -3   43.16    1.71
   3  -1  -3   44.68    1.93
  -3  -1   3   44.22    1.91
  -3  -1   3   41.60    2.12
  -3  -1   3   43.11    1.85
   3  -1  -3   45.55    1.84
   3  -1  -3   46.83    1.96
  -3  -1   3   44.98    1.93
   3  -1  -3   43.94    2.10
   3   1  -3   46.90    2.02
  -3   1   3   39.98    1.93
  -3   1   3   44.58    1.87
   3   1  -3   45.08    1.94
  -3   1   3   44.83    1.99
   3   1  -3   43.51    2.16
  -3   1   3   44.10    1.76
   3   1  -3   44.72    1.95
   1  -1  -3   31.45    1.62
   1  -1  -3   30.13    1.50
  -1  -1   3   30.98    1.42
  -1  -1   3   29.34    1.72
   1  -1  -3   32.49    1.69
   1  -1  -3   32.13    1.55
  -1  -1   3   30.82    1.39
  -1  -1   3   32.85    1.48
   1  -1  -3   30.87    1.51
   1  -1  -3   30.01    1.36
   1  -1  -3   32.18    1.38
  -1  -1   3   30.93    1.35
   1   1  -3   31.86    1.45
   1   1  -3   28.22    1.67
  -1   1   3   29.27    1.50
   1   1  -3   30.07    1.41
   1   1  -3   30.89    1.46
   1   1  -3   31.38    1.46
  -1   1   3   30.46    1.28
  -1  -1  -3   35.08    1.59
   1  -1   3   36.10    2.04
   1  -1   3   36.55    1.60
  -1  -1  -3   33.46    1.65
   1  -1   3   33.05    1.42
   1  -1   3   36.93    1.52
  -1  -1  -3   34.20    1.68
  -1  -1  -3   33.44    1.65
  -1  -1  -3   36.06    1.78
  -1  -1  -3   34.23    1.69
  -1   1  -3   35.94    1.52
   1   1   3   32.68    1.68
   1   1   3   35.32    1.44
  -1   1  -3   36.22    1.75
  -1   1  -3   34.86    1.54
  -1   1  -3   36.09    1.55
   1   1   3   36.72    1.70
  -3  -1  -3   64.60    2.64
   3  -1   3   64.22    2.30
  -3  -1  -3   64.66    2.46
  -3  -1  -3   63.00    2.53
  -3  -1  -3   63.50    2.51
   3  -1   3   61.27    2.41
   3  -1   3   65.90    2.61
  -3  -1  -3   67.36    2.57
  -3  -1  -3   64.29    2.06
   3  -1   3   64.78    2.27
  -3  -1  -3   64.64    2.54
   3  -1   3   58.29    2.26
  -3   1  -3   61.47    2.63
   3   1   3   63.38    2.31
   3   1   3   62.29    2.48
  -3   1  -3   64.79    2.36
  -3   1  -3   63.79    2.11
  -3   1  -3   61.43    2.35
  -3   1  -3   64.83    2.40
  -3   1  -3   66.34    2.37
   3   1   3   64.03    2.53
  -3   1  -3   63.01    2.44
   5  -1   3   40.14    1.70
   5  -1   3   48.46    1.95
   5  -1   3   42.20    1.93
  -5  -1  -3   41.30    1.84
   5  -1   3   43.99    1.77
  -5  -1  -3   45.41    2.06
  -5  -1  -3   41.84    1.98
  -5  -1  -3   42.82    1.86
  -5  -1  -3   41.29    2.12
  -5  -1  -3   41.23    1.97
   5  -1   3   44.86    1.73
  -5   1  -3   42.49    1.82
   5   1   3   41.39    1.79
   5   1   3   43.17    1.99
  -5   1  -3   44.87    1.85
  -5   1  -3   39.00    2.07
  -5   1  -3   40.53    1.82
  -5   1  -3   42.97    1.43
   5   1   3   40.61    1.98
  -5   1  -3   42.68    1.81
  -5   1  -3   43.10    1.73
  -7  -1  -3   10.74    1.35
   7  -1   3    9.77    0.92
  -7  -1  -3    9.44    1.07
  -7  -1  -3   10.24    0.96
   7  -1   3   11.19    1.17
   7  -1   3    8.57    1.06
   7  -1   3    9.16    1.05
  -7  -1  -3   11.80    1.22
  -7   1  -3    9.12    0.93
  -7   1  -3   11.10    0.74
  -7   1  -3    9.36    0.94
  -7   1  -3    8.42    0.91
   7   1   3    9.33    1.14
   7   1   3   10.47    1.04
  -7   1  -3   11.25    0.97
  -7   1  -3   10.79    1.33
   9  -1   3   81.42    3.13
  -9  -1  -3   76.92    3.48
  -9  -1  -3   77.19    3.41
   9  -1   3   78.47    2.94
   9  -1   3   78.47    3.32
  -9  -1  -3   80.93    3.74
   9  -1   3   84.45    3.18
  -9  -1  -3   83.38    3.22
  -9   1  -3   81.29    3.02
  -9   1  -3   76.58    3.20
   9   1   3   80.42    3.44
   9   1   3   84.98    3.43
   9   1   3   79.96    2.98
  -9   1  -3   82.18    3.21
  -9   1  -3   82.22    3.20
  -9   1  -3   79.93    3.61
  11  -1   3    0.50    1.13
 -11  -1  -3    0.55    0.89
 -11  -1  -3    0.67    0.79
 -11  -1  -3    1.62    1.07
 -11  -1  -3    1.53    0.98
  11  -1   3    1.45    0.94
  11   1   3    2.83    0.94
 -11   1  -3    1.89    0.73
  11   1   3   -0.73    1.07
 -11   1  -3   -0.49    0.82
 -11   1  -3    2.31    0.76
 -11   1  -3    1.08    0.76
  11   1   3    0.74    1.23
 -11   1  -3    0.39    0.83
 -13  -1  -3   35.31    2.90
 -13  -1  -3   33.83    2.08
 -13  -1  -3   32.69    2.59
 -13  -1  -3   33.43    2.62
  13   1   3   38.66    2.66
  13   1   3   31.99    2.84
 -13   1  -3   31.28    2.75
 -13   1  -3   33.50    1.91
 -13   1  -3   33.21    2.36
 -13   1  -3   33.17    2.35
 -15  -1  -3    3.91    1.63
  15  -1   3    2.14    1.07
 -15  -1  -3    2.94    1.42
 -15  -1  -3    4.02    1.51
 -15  -1  -3    3.04    0.77
 -15  -1  -3    5.54    1.11
 -15   1  -3    5.68    1.01
 -15   1  -3    3.54    1.31
 -15   1  -3    4.88    1.50
  15   1   3    2.43    1.59
 -15   1  -3    5.39    1.48
 -17  -1  -3   17.75    2.96
 -17  -1  -3   19.93    3.10
 -17  -1  -3   13.86    1.84
 -17   1  -3   22.76    3.15
 -17   1  -3   11.74    2.13
 -17   1  -3   14.99    1.65
  17   1   3   12.91    2.12
 -19  -1  -3   10.58    2.70
 -19  -1  -3   16.13    6.16
 -19   1  -3    8.13    2.11
 -19   1  -3    7.19    2.52
 -22  -2   3   -1.22    2.72
 -22  -2   3   -2.07    2.91
 -22  -2   3   -0.72    3.23
  22  -2  -3    3.45    1.79
  22  -2  -3    1.56    1.64
 -22  -2   3   -1.99    3.13
  22   2  -3    5.27    2.15
 -22   2   3   -1.01    3.07
 -22   2   3    3.65    3.02
 -22   2   3   -3.27    2.43
 -20  -2   3    3.29    2.75
 -20  -2   3    5.05    2.98
 -20  -2   3    0.93    2.66
  20  -2  -3    7.44    1.58
 -20  -2   3    1.37    2.46
  20  -2  -3    3.64    1.46
  20   2  -3    8.12    1.99
 -20   2   3    2.68    2.29
 -20   2   3    3.19    2.00
  20   2  -3    3.46    1.80
 -20   2   3    0.21    2.27
  20   2  -3    3.57    2.07
  18  -2  -3    9.16    1.51
  18  -2  -3    8.76    1.57
 -18  -2   3    7.03    2.72
 -18  -2   3    6.39    2.52
 -18  -2   3    7.90    2.52
 -18  -2   3    5.98    2.52
  18  -2  -3    7.58    1.62
 -18   2   3    3.45    2.02
  18   2  -3    9.22    1.83
 -18   2   3    8.50    2.29
  18   2  -3    9.71    1.93
 -18   2   3    6.92    1.81
  18   2  -3    5.95    1.93
 -16  -2   3   11.99    2.58
  16  -2  -3   16.13    2.26
 -16  -2   3   10.88    2.32
  16  -2  -3   10.98    2.03
  16  -2  -3   13.55    1.87
 -16  -2   3   10.31    2.35
 -16  -2   3   11.16    2.60
  16  -2  -3   14.30    1.85
 -16   2   3    9.90    1.84
  16   2  -3   13.46    2.24
 -16   2   3   11.50    2.09
  16   2  -3   13.78    2.42
 -16   2   3   10.05    1.82
 -16   2   3   12.66    2.24
  14  -2  -3   35.46    2.36
  14  -2  -3   34.52    2.49
 -14  -2   3   35.70    3.41
 -14  -2   3   37.44    3.80
  14  -2  -3   36.50    1.55
  14  -2  -3   35.48    2.46
 -14  -2   3   42.88    3.59
  14  -2  -3   35.79    1.27
  14   2  -3   33.79    2.92
  14   2  -3   37.39    2.75
  14   2  -3   35.12    2.97
 -14   2   3   35.90    2.88
 -14   2   3   36.84    3.20
 -14   2   3   37.13    2.01
 -14   2   3   33.91    2.99
  12  -2  -3    5.19    0.54
  12  -2  -3    5.07    1.00
 -12  -2   3    9.03    2.16
 -12  -2   3    6.52    1.92
  12  -2  -3    4.40    1.22
  12  -2  -3    4.86    0.97
 -12  -2   3    6.21    1.69
 -12  -2   3    5.95    1.77
  12  -2  -3    5.45    1.13
 -12   2   3    4.75    1.37
  12   2  -3    4.43    1.34
 -12   2   3    6.00    1.48
 -12   2   3    3.89    1.25
  12   2  -3    4.21    1.30
  12   2  -3    5.21    1.19
  10  -2  -3  144.97    4.62
 -10  -2   3  143.71    5.71
 -10  -2   3  143.86    5.94
 -10  -2   3  138.27    6.36
  10  -2  -3  149.52    5.28
  10  -2  -3  141.13    5.29
 -10  -2   3  147.33    5.61
  10  -2  -3  147.41    5.17
 -10   2   3  146.59    5.25
  10   2  -3  149.81    5.48
  10   2  -3  145.97    5.42
 -10   2   3  140.31    5.36
  10   2  -3  135.79    5.41
 -10   2   3  142.27    5.43
  -8  -2   3   -1.42    1.09
  -8  -2   3    0.68    0.96
   8  -2  -3    0.44    0.72
   8  -2  -3    0.22    0.53
  -8  -2   3    0.65    0.83
   8  -2  -3    0.13    0.50
   8  -2  -3    0.59    0.33
  -8  -2   3    0.21    1.01
   8   2  -3    0.67    0.86
  -8   2   3    0.31    0.61
  -8   2   3   -0.09    0.52
  -8   2   3    0.54    0.75
   8   2  -3    0.47    0.76
   8   2  -3    0.49    1.01
   6  -2  -3  171.17    5.64
  -6  -2   3  161.86    6.19
  -6  -2   3  166.50    5.83
   6  -2  -3  177.74    5.69
  -6  -2   3  162.34    5.63
   6  -2  -3  165.21    5.85
  -6  -2   3  163.77    6.26
  -6  -2   3  179.07    5.89
   6  -2  -3  171.25    5.19
  -6   2   3  169.70    5.76
  -6   2   3  166.22    5.80
   6   2  -3  164.75    6.06
   6   2  -3  166.20    5.75
  -6   2   3  173.67    5.71
   6   2  -3  171.96    5.78
   6   2  -3  183.57    6.00
   4  -2  -3    0.06    0.30
   4  -2  -3   -0.31    0.33
  -4  -2   3    0.48    0.59
   4  -2  -3    0.74    0.55
   4  -2  -3   -0.37    0.42
  -4  -2   3   -0.18    0.64
   4  -2  -3   -0.01    0.57
  -4  -2   3    0.20    0.53
   4  -2  -3   -0.19    0.43
  -4   2   3    0.21    0.51
   4   2  -3    0.10    0.52
  -4   2   3    0.43    0.55
   4   2  -3   -1.39    0.86
  -4   2   3    0.01    0.53
   4   2  -3   -0.20    0.67
   4   2  -3    0.14    0.50
   2  -2  -3  285.49    8.78
   2  -2  -3  292.52    8.57
  -2  -2   3  278.28    8.51
  -2  -2   3  280.88    8.73
  -2  -2   3  278.35    9.21
   2  -2  -3  274.55    8.78
   2  -2  -3  291.05    8.65
   2  -2  -3  296.92    8.70
   2  -2  -3  287.06    9.03
  -2  -2   3  306.58    8.63
   2   2  -3  284.95    8.72
   2   2  -3  260.77    9.02
  -2   2   3  277.78    8.81
   2   2  -3  284.02    8.71
   2   2  -3  279.58    8.69
  -2   2   3  275.99    8.82
   2   2  -3  317.45    8.79
  -2   2   3  281.46    8.48
   0  -2  -3   28.61    1.38
   0  -2  -3   26.50    1.65
   0  -2  -3   28.20    1.30
   0  -2   3   29.58    1.31
   0  -2   3   25.22    1.78
   0  -2  -3   26.53    1.51
   0  -2   3   29.50    1.23
   0  -2  -3   28.15    1.20
   0  -2   3   24.45    1.37
   0  -2   3   25.95    1.09
   0  -2  -3   27.07    1.52
   0  -2  -3   27.99    1.40
   0   2  -3   27.96    1.31
   0   2   3   27.09    1.17
   0   2   3   28.21    1.54
   0   2  -3   26.77    1.34
   0   2  -3   28.48    1.37
   0   2   3   27.01    1.54
   0   2  -3   29.08    1.42
   0   2  -3   26.46    1.73
   2  -2   3  232.95    7.37
  -2  -2  -3  235.69    7.48
  -2  -2  -3  236.82    7.09
  -2  -2  -3  238.86    7.34
  -2  -2  -3  235.61    7.47
   2  -2   3  244.04    7.03
   2  -2   3  226.88    7.92
  -2  -2  -3  241.67    7.50
  -2  -2  -3  239.30    7.06
  -2  -2  -3  239.97    7.56
  -2   2  -3  241.13    7.16
   2   2   3  239.08    7.09
  -2   2  -3  239.13    7.30
   2   2   3  252.43    7.84
   2   2   3  232.68    7.48
  -2   2  -3  219.68    7.41
  -2   2  -3  227.12    7.14
  -2   2  -3  236.61    7.16
   4  -2   3    8.84    1.31
  -4  -2  -3   10.36    1.12
  -4  -2  -3    9.67    1.03
  -4  -2  -3    9.39    0.57
   4  -2   3   10.63    0.73
   4  -2   3   10.19    0.94
  -4  -2  -3   11.01    0.95
  -4  -2  -3    9.67    1.04
   4  -2   3    7.48    1.21
  -4  -2  -3    9.82    0.97
  -4   2  -3    8.29    0.84
  -4   2  -3   10.24    0.69
   4   2   3    9.87    0.76
  -4   2  -3    9.45    0.73
   4   2   3    8.62    1.24
   4   2   3    8.93    1.03
  -4   2  -3    9.39    0.74
  -4   2  -3    9.27    0.89
  -4   2  -3    8.13    1.06
   6  -2   3   83.02    3.23
  -6  -2  -3   77.80    3.29
  -6  -2  -3   76.24    3.27
  -6  -2  -3   82.89    3.14
  -6  -2  -3   87.01    2.51
  -6  -2  -3   85.42    3.51
  -6   2  -3   84.95    2.98
  -6   2  -3   84.02    2.95
   6   2   3   85.26    3.31
  -6   2  -3   84.71    2.84
   6   2   3   82.43    3.30
  -6   2  -3   80.11    2.95
  -6   2  -3   88.38    2.71
  -6   2  -3   82.51    3.44
  -8  -2  -3    0.61    0.70
  -8  -2  -3    0.02    1.30
  -8  -2  -3    0.80    0.72
   8  -2   3   -0.93    0.75
   8  -2   3    0.15    0.65
  -8   2  -3    0.25    0.28
  -8   2  -3    0.61    0.47
  -8   2  -3   -0.04    0.43
  -8   2  -3    0.45    0.46
  -8   2  -3    0.57    0.75
   8   2   3   -0.11    0.64
  -8   2  -3   -0.01    0.39
 -10  -2  -3   85.69    3.33
  10  -2   3   71.43    3.22
  10  -2   3   79.59    3.41
 -10  -2  -3   78.87    3.61
 -10  -2  -3   79.03    3.64
 -10  -2  -3   75.85    3.79
  10   2   3   80.86    3.60
 -10   2  -3   81.32    3.13
 -10   2  -3   72.16    3.14
  10   2   3   74.25    3.62
 -10   2  -3   78.78    2.97
 -10   2  -3   78.34    3.15
 -10   2  -3   79.41    3.72
 -12  -2  -3    0.67    0.84
 -12  -2  -3    0.09    0.97
 -12  -2  -3   -0.44    0.91
 -12  -2  -3   -0.22    1.02
 -12   2  -3    1.31    0.63
 -12   2  -3    0.43    0.90
  12   2   3    0.71    1.24
 -12   2  -3   -0.02    0.74
 -12   2  -3    0.08    0.73
  12   2   3   -0.17    1.17
 -14  -2  -3   24.05    1.88
 -14  -2  -3   22.16    2.51
 -14  -2  -3   25.74    2.84
 -14  -2  -3   22.96    1.65
 -14  -2  -3   21.51    2.47
 -14   2  -3   20.23    1.65
 -14   2  -3   23.20    2.46
 -14   2  -3   24.90    2.44
  14   2   3   18.86    2.86
 -14   2  -3   18.99    2.20
 -16  -2  -3    3.54    1.49
 -16  -2  -3    3.87    1.17
 -16  -2  -3    3.18    1.80
 -16  -2  -3    5.92    2.12
 -16   2  -3    4.84    1.43
 -16   2  -3    4.15    1.03
 -16   2  -3    6.99    1.59
  16   2   3    2.89    1.87
 -16   2  -3    1.44    1.24
 -18  -2  -3    4.62    2.03
 -18  -2  -3    8.84    2.33
 -18  -2  -3    8.25    2.65
 -18   2  -3    8.60    2.23
 -20  -2  -3    4.49    1.53
 -20  -2  -3    0.88    2.05
  20   2   3   -4.33    2.05
 -20   2  -3   -0.05    1.71
 -23  -3   3   -6.38    3.20
 -23  -3   3   -3.72    4.31
 -23  -3   3   -4.22    3.11
  23  -3  -3    0.79    1.98
 -23   3   3    1.38    2.32
 -23   3   3   -0.52    2.46
  23   3  -3    5.48    2.30
 -21  -3   3   21.40    3.92
 -21  -3   3   18.20    4.43
 -21  -3   3   26.23    4.94
  21  -3  -3   25.76    2.76
  21  -3  -3   25.55    2.74
 -21   3   3   21.78    3.20
 -21   3   3   14.13    2.83
 -21   3   3   16.07    2.89
  19  -3  -3   -0.07    1.11
  19  -3  -3    0.68    1.15
 -19  -3   3    0.67    2.49
 -19  -3   3   -0.48    2.78
  19  -3  -3    1.94    1.35
 -19  -3   3   -3.89    2.31
  19   3  -3   -1.85    1.77
  19   3  -3   -0.49    1.40
  19   3  -3    1.83    1.88
 -19   3   3   -0.73    1.50
 -19   3   3   -0.10    1.78
  17  -3  -3   91.67    3.99
 -17  -3   3   89.52    6.32
  17  -3  -3   90.13    4.24
 -17  -3   3   87.43    5.41
  17  -3  -3   86.01    4.10
 -17  -3   3   92.26    5.47
 -17  -3   3   93.05    5.71
 -17   3   3   81.42    4.64
  17   3  -3   94.18    4.69
 -17   3   3   85.16    4.66
  17   3  -3   86.93    4.88
 -17   3   3   89.54    4.86
  17   3  -3   88.35    4.70
 -15  -3   3    3.68    2.32
 -15  -3   3    2.40    2.04
  15  -3  -3    4.42    1.15
 -15  -3   3    3.62    2.00
 -15  -3   3    4.63    2.26
  15  -3  -3    5.71    1.98
  15  -3  -3    5.03    1.14
 -15   3   3    4.73    1.54
 -15   3   3    3.36    1.51
 -15   3   3    4.08    1.49
  15   3  -3    4.03    1.62
  15   3  -3    6.63    1.77
  15   3  -3    3.58    1.44
 -13  -3   3   80.52    5.31
  13  -3  -3   74.47    3.60
 -13  -3   3   79.89    4.45
 -13  -3   3   82.66    5.38
 -13  -3   3   74.32    3.05
  13  -3  -3   73.86    3.41
  13  -3  -3   75.04    3.43
  13  -3  -3   80.73    2.93
 -13  -3   3   72.43    4.27
  13  -3  -3   76.61    3.39
  13   3  -3   75.70    4.01
  13   3  -3   76.11    4.08
 -13   3   3   75.41    3.76
 -13   3   3   77.22    4.01
 -13   3   3   73.11    3.78
  13   3  -3   77.29    3.93
 -11  -3   3   12.55    1.92
  11  -3  -3   11.42    1.36
  11  -3  -3   10.49    1.50
  11  -3  -3   10.92    1.35
  11  -3  -3   11.28    1.36
 -11  -3   3    8.77    1.89
 -11  -3   3   10.12    2.05
  11  -3  -3   11.99    1.19
 -11  -3   3   12.79    2.02
 -11  -3   3    9.92    1.34
 -11   3   3   11.18    1.64
 -11   3   3   11.58    1.64
  11   3  -3   11.49    1.90
 -11   3   3   11.76    1.64
 -11   3   3    8.62    1.43
  11   3  -3   13.10    2.14
  11   3  -3    9.05    1.71
  -9  -3   3  296.35   10.62
   9  -3  -3  325.01   10.49
  -9  -3   3  285.40   10.99
  -9  -3   3  307.64   10.07
  -9  -3   3  291.44    9.97
   9  -3  -3  343.46   10.59
   9  -3  -3  296.11    9.76
  -9  -3   3  300.88    9.63
   9  -3  -3  303.10    8.88
   9  -3  -3  296.33    9.58
   9   3  -3  303.85    9.91
  -9   3   3  299.90    9.36
   9   3  -3  309.83    9.93
  -9   3   3  302.90    9.88
  -9   3   3  312.19    9.74
   9   3  -3  300.16   10.17
  -9   3   3  302.73    9.86
   7  -3  -3    9.96    1.15
   7  -3  -3   10.91    1.29
  -7  -3   3   13.05    1.61
  -7  -3   3    9.45    1.44
   7  -3  -3   11.72    1.16
  -7  -3   3    9.55    1.69
  -7  -3   3   11.21    1.55
   7  -3  -3   11.25    1.20
   7  -3  -3   11.73    0.76
   7  -3  -3   10.20    1.04
  -7   3   3   10.56    1.29
   7   3  -3   10.09    1.80
   7   3  -3   11.41    1.46
  -7   3   3    8.74    1.19
   7   3  -3   12.34    1.52
  -7   3   3   11.25    0.76
   5  -3  -3  238.83    7.09
  -5  -3   3  237.42    7.44
  -5  -3   3  235.24    7.34
   5  -3  -3  232.08    6.92
   5  -3  -3  218.11    7.57
   5  -3  -3  229.29    7.27
  -5  -3   3  215.05    8.02
   5  -3  -3  232.30    7.31
  -5  -3   3  230.67    7.44
  -5  -3   3  212.13    7.62
   5  -3  -3  225.32    6.66
   5  -3  -3  233.11    7.31
  -5   3   3  235.29    7.34
   5   3  -3  234.54    7.41
  -5   3   3  223.83    7.41
   5   3  -3  221.57    7.77
   5   3  -3  238.21    7.49
   5   3  -3  228.43    7.42
  -5   3   3  228.53    7.40
   3  -3  -3   86.75    3.43
  -3  -3   3   86.28    3.91
  -3  -3   3   84.24    2.97
  -3  -3   3   87.79    3.65
   3  -3  -3   88.68    3.22
   3  -3  -3   86.09    3.54
  -3  -3   3   89.55    3.47
  -3  -3   3   91.97    3.17
   3  -3  -3   91.92    3.29
   3  -3  -3   91.02    3.06
  -3  -3   3   84.48    3.03
  -3   3   3   86.30    3.35
  -3   3   3   96.68    3.38
   3   3  -3   87.11    3.81
  -3   3   3   88.47    2.85
  -3   3   3   86.37    3.34
   3   3  -3   86.45    3.26
   3   3  -3   95.42    3.32
   3   3  -3   91.72    3.39
   1  -3  -3   70.17    2.87
  -1  -3   3   71.19    2.78
   1  -3  -3   77.52    3.23
   1  -3  -3   74.37    3.11
  -1  -3   3   76.13    2.47
   1  -3  -3   76.80    2.70
  -1  -3   3   75.59    2.26
  -1  -3   3   75.24    2.27
  -1  -3   3   73.26    3.14
   1  -3  -3   75.45    2.71
   1  -3  -3   72.08    2.89
  -1  -3   3   71.35    3.35
  -1   3   3   74.54    2.33
   1   3  -3   74.52    2.70
   1   3  -3   71.25    3.20
  -1   3   3   68.69    2.85
   1   3  -3   79.72    2.75
   1   3  -3   72.30    2.67
  -1   3   3   73.34    2.90
  -1  -3  -3   72.52    2.33
  -1  -3  -3   71.90    2.86
  -1  -3  -3   70.97    2.85
  -1  -3  -3   73.73    3.05
   1  -3   3   66.23    3.00
   1  -3   3   73.41    2.22
  -1  -3  -3   71.45    2.69
  -1  -3  -3   72.21    2.56
   1  -3   3   69.90    3.30
  -1  -3  -3   72.02    2.73
   1  -3   3   69.89    2.75
  -1   3  -3   74.16    2.50
  -1   3  -3   70.56    3.06
   1   3   3   74.78    2.32
  -1   3  -3   72.13    2.73
  -1   3  -3   74.28    2.51
  -1   3  -3   75.79    2.53
   1   3   3   68.62    3.02
  -3  -3  -3  130.81    4.64
  -3  -3  -3  132.03    4.71
  -3  -3  -3  131.33    4.59
  -3  -3  -3  132.90    4.16
  -3  -3  -3  130.68    4.10
   3   3   3  134.55    4.11
  -3   3  -3  127.47    4.57
  -3   3  -3  132.38    4.11
  -3   3  -3  129.20    4.37
  -3   3  -3  132.87    4.12
  -3   3  -3  130.18    4.12
  -3   3  -3  132.49    4.12
   3   3   3  129.79    4.62
   5  -3   3   61.71    2.58
  -5  -3  -3   61.11    2.08
  -5  -3  -3   60.81    2.71
  -5  -3  -3   58.57    2.56
  -5  -3  -3   61.52    2.74
  -5  -3  -3   61.22    2.80
   5  -3   3   62.61    3.17
   5  -3   3   64.51    2.33
  -5   3  -3   60.00    2.15
  -5   3  -3   59.10    2.39
  -5   3  -3   60.07    2.36
  -5   3  -3   61.20    2.18
   5   3   3   57.84    2.67
  -5   3  -3   57.82    2.68
   5   3   3   61.25    2.69
  -5   3  -3   59.88    2.17
   7  -3   3    9.47    1.17
  -7  -3  -3    7.06    1.19
  -7  -3  -3    7.88    1.34
  -7  -3  -3    8.55    1.26
   7  -3   3    7.54    0.86
  -7  -3  -3    8.50    0.62
  -7  -3  -3    8.31    1.12
  -7   3  -3    6.41    1.21
  -7   3  -3    8.18    0.78
  -7   3  -3    8.93    1.30
  -7   3  -3    7.29    0.76
   7   3   3    7.80    1.18
   7   3   3    7.80    1.33
  -7   3  -3    9.07    0.89
  -9  -3  -3   92.06    4.05
  -9  -3  -3   93.08    3.66
   9  -3   3   91.42    3.77
   9  -3   3   93.42    3.18
  -9  -3  -3   88.89    4.12
   9   3   3   94.47    4.00
  -9   3  -3   90.11    3.32
  -9   3  -3   89.20    3.39
  -9   3  -3   91.98    4.02
   9   3   3   92.32    4.03
  -9   3  -3   95.49    3.37
  11  -3   3    3.96    1.18
 -11  -3  -3    2.95    1.10
 -11  -3  -3    4.66    1.26
  11  -3   3    3.39    0.65
 -11  -3  -3    4.41    0.96
 -11  -3  -3    3.47    1.03
 -11  -3  -3    4.09    1.29
  11   3   3    2.33    1.29
  11   3   3    2.73    1.17
 -11   3  -3    3.57    1.03
 -11   3  -3    4.26    0.89
 -11   3  -3    3.85    0.77
 -11   3  -3    3.95    0.72
 -13  -3  -3   31.28    2.74
 -13  -3  -3   36.67    3.09
 -13  -3  -3   31.48    2.17
 -13  -3  -3   32.66    2.99
 -13   3  -3   30.26    2.61
  13   3   3   27.80    3.29
 -13   3  -3   32.56    2.25
  13   3   3   31.37    2.85
 -13   3  -3   37.58    2.28
 -13   3  -3   34.53    1.81
 -15  -3  -3    3.58    1.14
 -15  -3  -3    2.95    1.37
 -15  -3  -3    2.99    1.65
 -15  -3  -3    2.37    1.06
 -15  -3  -3    3.66    1.90
  15   3   3    1.73    1.87
 -15   3  -3    3.32    1.04
 -15   3  -3    4.94    1.28
 -15   3  -3    4.47    1.27
 -15   3  -3    2.95    1.30
 -17  -3  -3   28.46    4.22
 -17  -3  -3   20.25    3.15
 -17  -3  -3   19.10    2.99
 -17  -3  -3   19.15    2.20
 -17   3  -3   18.52    2.76
  17   3   3   13.88    2.69
 -19  -3  -3   -0.76    1.94
 -19  -3  -3    0.40    1.37
 -19  -3  -3   23.31    7.07
 -19  -3  -3    7.23    2.70
  22  -4  -3    4.13    1.91
 -22  -4   3   -0.56    3.35
 -22  -4   3   -1.36    3.26
 -22  -4   3    5.49    4.94
  22   4  -3    1.76    2.21
 -22   4   3    2.83    2.13
 -20  -4   3    4.29    3.41
 -20  -4   3    6.21    3.09
  20  -4  -3    7.57    1.78
 -20  -4   3   10.73    4.48
 -20  -4   3    1.46    2.99
 -20   4   3    7.08    2.33
 -20   4   3    6.61    2.10
 -20   4   3    1.32    2.00
  20   4  -3    7.29    3.33
  20   4  -3    4.05    2.42
 -18  -4   3    6.25    2.81
  18  -4  -3    8.77    1.67
 -18  -4   3    9.42    3.08
  18  -4  -3    8.49    1.35
 -18  -4   3   12.52    3.85
 -18  -4   3    5.58    2.77
  18  -4  -3    7.92    1.56
 -18   4   3    5.12    1.70
  18   4  -3    3.15    2.04
 -18   4   3    5.42    1.82
 -18   4   3    5.77    2.00
  18   4  -3    7.14    2.05
 -16  -4   3   14.18    3.44
  16  -4  -3   12.61    1.61
  16  -4  -3   10.56    2.04
  16  -4  -3   13.89    1.93
 -16  -4   3   14.44    2.73
 -16  -4   3   12.60    2.91
 -16   4   3    9.19    1.80
 -16   4   3   10.93    1.74
  16   4  -3   12.50    2.26
  16   4  -3   14.08    2.26
  16   4  -3   18.32    2.87
  14  -4  -3   45.72    2.20
  14  -4  -3   45.81    2.75
 -14  -4   3   43.91    3.77
 -14  -4   3   45.95    2.44
  14  -4  -3   45.19    2.88
  14  -4  -3   44.00    2.55
 -14  -4   3   48.21    5.14
 -14  -4   3   45.53    4.54
 -14  -4   3   41.00    3.79
  14   4  -3   45.65    3.43
  14   4  -3   45.72    3.29
 -14   4   3   47.13    3.16
 -14   4   3   42.58    2.89
 -14   4   3   42.34    2.91
  14   4  -3   48.92    3.42
 -12  -4   3   19.20    1.88
 -12  -4   3   17.90    3.12
  12  -4  -3   17.91    1.69
 -12  -4   3   14.80    2.75
  12  -4  -3   18.70    1.59
  12  -4  -3   18.60    1.57
  12  -4  -3   18.89    1.85
 -12  -4   3   24.73    3.12
 -12  -4   3   19.16    2.80
 -12   4   3   18.16    1.98
 -12   4   3   16.55    2.21
 -12   4   3   21.49    1.77
  12   4  -3   17.90    2.49
  12   4  -3   18.78    2.45
  12   4  -3   18.76    2.54
  10  -4  -3  114.79    4.15
  10  -4  -3  115.93    4.81
 -10  -4   3  115.11    4.45
  10  -4  -3  111.33    3.41
 -10  -4   3  114.06    5.00
 -10  -4   3  115.32    5.42
  10  -4  -3  111.45    4.63
 -10  -4   3  113.13    4.94
  10  -4  -3  115.48    4.41
 -10  -4   3  117.94    5.90
  10  -4  -3  115.12    4.23
 -10   4   3  115.39    4.63
 -10   4   3  112.97    4.43
  10   4  -3  116.09    4.80
  10   4  -3  113.54    4.82
  10   4  -3  111.70    5.09
 -10   4   3  112.61    4.51
  -8  -4   3    2.60    1.07
  -8  -4   3    1.44    1.17
   8  -4  -3    2.25    0.77
   8  -4  -3    2.50    0.91
  -8  -4   3    3.71    1.14
  -8  -4   3    2.56    1.09
  -8  -4   3    2.47    1.00
  -8  -4   3    1.10    1.39
   8  -4  -3    1.82    0.77
   8  -4  -3    2.25    0.63
   8  -4  -3    3.10    0.46
   8  -4  -3    2.02    0.70
   8  -4  -3    1.78    0.50
   8   4  -3    2.02    1.44
  -8   4   3    1.51    1.16
  -8   4   3    1.79    0.70
  -8   4   3    2.14    0.42
  -8   4   3    3.64    0.93
   8   4  -3    3.49    1.09
   6  -4  -3  160.99    5.98
  -6  -4   3  168.43    5.71
  -6  -4   3  167.53    5.97
   6  -4  -3  173.07    5.61
  -6  -4   3  155.79    6.66
  -6  -4   3  168.75    5.83
  -6  -4   3  170.50    5.85
   6  -4  -3  168.51    5.07
   6  -4  -3  165.28    5.20
   6  -4  -3  165.89    5.54
   6  -4  -3  166.35    5.67
  -6   4   3  153.75    5.71
   6   4  -3  178.45    6.18
   6   4  -3  167.02    5.80
  -6   4   3  164.10    5.75
  -6   4   3  174.50    5.71
   6   4  -3  176.35    5.79
  -4  -4   3    6.90    1.18
   4  -4  -3    8.32    1.18
  -4  -4   3    9.13    1.59
  -4  -4   3   10.09    0.90
   4  -4  -3   10.02    1.03
   4  -4  -3    9.92    0.91
   4  -4  -3    9.85    0.92
   4  -4  -3    8.74    0.97
   4  -4  -3    9.94    1.05
   4  -4  -3   10.25    0.62
  -4  -4   3   10.26    1.12
  -4  -4   3   12.62    0.90
   4   4  -3   11.00    1.28
   4   4  -3   10.42    1.84
  -4   4   3   10.96    1.15
  -4   4   3    8.09    1.04
   4   4  -3   10.44    1.31
   4   4  -3   10.29    1.34
   2  -4  -3  257.81    7.79
  -2  -4   3  258.91    8.49
  -2  -4   3  256.73    7.54
   2  -4  -3  248.99    7.95
   2  -4  -3  251.76    7.96
   2  -4  -3  248.76    7.86
  -2  -4   3  247.92    8.92
  -2  -4   3  242.33    7.90
   2  -4  -3  249.44    8.42
   2  -4  -3  256.19    7.56
   2   4  -3  242.76    8.42
  -2   4   3  243.08    8.03
  -2   4   3  254.57    8.00
  -2   4   3  247.08    8.05
  -2   4   3  255.32    7.27
   2   4  -3  258.57    7.82
   2   4  -3  263.73    7.93
   0  -4  -3    0.52    0.39
   0  -4   3    0.25    0.54
   0  -4  -3    1.04    0.53
   0  -4  -3   -0.11    0.74
   0  -4   3    1.16    0.85
   0  -4  -3    0.92    0.57
   0  -4  -3    0.68    0.61
   0  -4  -3    0.28    0.37
   0  -4   3    0.33    0.94
   0   4  -3    0.56    0.44
   0   4  -3    0.04    0.46
   0   4   3    0.75    0.48
   0   4   3   -0.23    0.46
   0   4  -3    0.68    1.07
   0   4  -3    0.66    0.41
  -2  -4  -3  189.93    6.38
   2  -4   3  173.76    6.89
   2  -4   3  194.46    6.25
   2  -4   3  191.53    6.26
  -2  -4  -3  195.85    6.26
  -2  -4  -3  190.90    6.38
   2  -4   3  187.29    6.62
  -2  -4  -3  188.05    6.01
  -2  -4  -3  195.12    6.25
  -2  -4  -3  194.96    5.64
  -2   4  -3  196.53    5.81
  -2   4  -3  194.01    6.19
   2   4   3  196.36    6.65
  -2   4  -3  189.54    5.80
  -2   4  -3  192.61    5.73
  -2   4  -3  193.65    5.80
   2   4   3  183.34    6.39
  -2   4  -3  195.22    6.58
   4  -4   3    0.40    0.53
  -4  -4  -3    0.44    0.34
  -4  -4  -3    0.10    0.69
   4  -4   3    0.63    0.72
  -4  -4  -3    0.28    0.57
  -4  -4  -3   -0.01    0.41
   4  -4   3    0.58    0.81
  -4  -4  -3    0.13    0.63
   4  -4   3   -0.04    0.50
  -4  -4  -3   -0.11    0.54
  -4   4  -3    0.71    0.33
  -4   4  -3    0.01    0.25
   4   4   3    0.65    0.56
  -4   4  -3   -0.36    0.73
  -4   4  -3    0.17    0.26
   4   4   3    0.85    0.68
  -4   4  -3    0.07    0.28
  -4   4  -3    0.58    0.47
   6  -4   3   93.63    3.70
  -6  -4  -3   92.80    3.66
   6  -4   3   96.10    3.44
  -6  -4  -3   96.50    3.18
  -6  -4  -3   95.21    3.97
  -6  -4  -3   92.95    3.87
   6  -4   3   95.04    4.42
  -6  -4  -3   93.12    3.87
  -6   4  -3   94.26    3.83
  -6   4  -3   93.02    3.07
   6   4   3   91.19    3.91
  -6   4  -3   95.62    3.11
   6   4   3   96.89    3.91
  -6   4  -3   94.92    3.54
  -6   4  -3   91.24    3.10
  -6   4  -3   95.23    3.37
  -8  -4  -3    3.80    0.94
  -8  -4  -3    1.72    1.01
  -8  -4  -3    3.48    1.10
  -8  -4  -3    5.40    1.31
   8  -4   3    2.77    0.71
  -8  -4  -3    3.22    0.56
  -8  -4  -3    3.33    1.06
   8  -4   3    2.45    0.89
  -8   4  -3    3.58    0.57
  -8   4  -3    3.62    0.67
   8   4   3    3.66    1.19
  -8   4  -3    3.46    0.89
   8   4   3    2.76    1.02
  -8   4  -3    3.61    0.59
  -8   4  -3    5.29    0.99
 -10  -4  -3   59.19    2.94
 -10  -4  -3   57.15    3.30
 -10  -4  -3   54.03    2.78
  10  -4   3   56.91    2.93
 -10  -4  -3   59.26    3.43
  10  -4   3   58.26    2.43
 -10  -4  -3   59.67    3.49
 -10   4  -3   57.24    2.37
  10   4   3   59.17    3.70
  10   4   3   59.32    3.32
 -10   4  -3   54.16    2.43
 -10   4  -3   61.29    3.12
 -10   4  -3   58.81    2.40
 -10   4  -3   58.75    2.34
 -12  -4  -3    1.13    0.98
  12  -4   3    0.22    0.66
 -12  -4  -3    0.34    0.77
 -12  -4  -3    0.31    1.24
 -12  -4  -3   -0.39    0.96
 -12  -4  -3    1.06    1.16
 -12   4  -3   -0.49    0.54
 -12   4  -3    0.58    0.66
 -12   4  -3    0.56    0.72
  12   4   3    1.49    1.32
  12   4   3    0.29    1.38
 -12   4  -3    0.51    0.85
 -14  -4  -3   22.55    2.81
 -14  -4  -3   30.08    3.58
 -14  -4  -3   21.76    2.99
 -14  -4  -3   21.44    2.16
 -14  -4  -3   24.32    2.06
 -14   4  -3   22.55    1.53
 -14   4  -3   24.74    2.44
  14   4   3   21.18    3.00
  14   4   3   24.64    2.83
 -14   4  -3   27.77    2.88
 -14   4  -3   23.83    2.16
 -16  -4  -3    7.35    1.22
 -16  -4  -3    7.15    1.46
 -16  -4  -3    9.43    2.74
 -16  -4  -3    5.71    1.98
 -16  -4  -3    7.16    2.28
 -16   4  -3    3.31    1.49
  16   4   3    3.80    2.34
 -18  -4  -3   10.92    3.40
 -18  -4  -3    1.82    1.51
 -18  -4  -3    2.56    1.84
 -18  -4  -3    8.41    2.63
 -18   4  -3    5.11    1.84
  18   4   3    0.93    3.44
 -21  -5   3    4.82    3.39
  21  -5  -3   14.68    2.29
 -21  -5   3    6.11    3.40
  21   5  -3   11.13    2.72
 -21   5   3    6.20    2.62
 -21   5   3   14.60    2.43
  19  -5  -3   -0.08    1.37
 -19  -5   3    2.86    4.06
 -19  -5   3   -0.06    2.90
  19   5  -3   -0.63    1.98
  19   5  -3   -1.25    2.13
 -19   5   3   -1.41    1.72
 -17  -5   3   34.51    4.32
 -17  -5   3   34.05    5.69
  17  -5  -3   39.05    2.99
 -17  -5   3   45.11    2.64
 -17  -5   3   28.57    3.73
 -17  -5   3   36.03    5.05
  17  -5  -3   39.06    2.81
 -17   5   3   39.50    4.28
 -17   5   3   34.21    3.08
 -17   5   3   37.65    3.39
  17   5  -3   38.33    3.74
  17   5  -3   28.88    3.88
  17   5  -3   45.45    3.64
 -15  -5   3    1.06    2.16
  15  -5  -3    0.63    0.92
  15  -5  -3    0.14    0.85
 -15  -5   3    2.48    1.05
 -15  -5   3   -1.64    1.98
  15  -5  -3    1.44    1.15
 -15  -5   3    1.19    2.65
  15   5  -3   -1.30    1.56
  15   5  -3    1.75    1.70
 -15   5   3   -0.58    1.15
  15   5  -3    0.38    1.59
 -15   5   3   -0.63    1.02
 -13  -5   3   32.30    3.31
  13  -5  -3   27.75    2.31
  13  -5  -3   26.39    1.73
 -13  -5   3   26.16    4.43
 -13  -5   3   25.64    2.32
 -13  -5   3   19.28    3.21
 -13  -5   3   24.89    3.47
  13  -5  -3   26.98    1.98
  13  -5  -3   27.45    2.24
  13   5  -3   25.70    2.97
  13   5  -3   28.81    3.07
  13   5  -3   25.62    2.95
 -13   5   3   26.15    2.27
 -13   5   3   30.73    2.46
  11  -5  -3    0.43    1.01
 -11  -5   3   -1.97    1.45
 -11  -5   3    0.34    1.52
 -11  -5   3    1.61    1.17
  11  -5  -3    1.82    1.14
  11  -5  -3    0.60    0.91
 -11  -5   3   -0.55    1.76
  11  -5  -3    1.56    0.96
 -11  -5   3    0.98    1.67
  11   5  -3    2.57    1.44
 -11   5   3   -0.48    1.11
  11   5  -3    0.62    1.28
  11   5  -3    1.10    1.73
 -11   5   3    2.75    0.92
   9  -5  -3  103.00    3.82
  -9  -5   3  102.57    4.57
   9  -5  -3  108.05    4.57
   9  -5  -3  107.71    4.17
  -9  -5   3  113.69    4.63
  -9  -5   3  104.32    5.65
  -9  -5   3  102.85    4.43
  -9  -5   3   99.94    4.59
   9  -5  -3  106.92    4.23
  -9  -5   3   99.77    5.01
   9  -5  -3  104.19    3.33
   9   5  -3  107.07    5.15
  -9   5   3  100.97    4.20
  -9   5   3  104.29    4.56
   9   5  -3  103.99    4.62
  -9   5   3  100.83    3.39
  -9   5   3  109.37    4.19
   9   5  -3  102.87    4.59
   7  -5  -3    0.54    0.59
  -7  -5   3    0.92    0.89
  -7  -5   3    1.74    1.52
   7  -5  -3    0.31    0.94
   7  -5  -3    0.27    0.77
   7  -5  -3   -0.10    0.52
  -7  -5   3   -0.51    1.19
   7  -5  -3   -0.06    0.43
  -7  -5   3   -0.37    1.26
   7  -5  -3    0.15    0.59
   7   5  -3    0.81    1.65
   7   5  -3    1.13    1.02
   7   5  -3    1.80    0.72
   7   5  -3    0.58    1.07
  -7   5   3    0.43    0.64
  -7   5   3    0.46    0.74
  -7   5   3    0.48    0.68
   5  -5  -3   73.49    2.62
  -5  -5   3   73.34    2.76
  -5  -5   3   77.27    3.14
   5  -5  -3   74.38    2.90
  -5  -5   3   67.20    4.15
   5  -5  -3   73.09    2.70
  -5  -5   3   69.83    2.62
  -5  -5   3   77.74    3.16
   5  -5  -3   71.80    3.29
   5  -5  -3   71.92    3.09
  -5   5   3   65.37    3.42
   5   5  -3   75.05    3.20
  -5   5   3   79.75    3.16
  -5   5   3   72.74    2.38
   5   5  -3   69.89    4.02
   5   5  -3   77.33    3.00
   5   5  -3   77.97    3.28
  -3  -5   3   12.54    2.33
   3  -5  -3   14.44    1.46
   3  -5  -3   15.53    1.54
  -3  -5   3   16.79    2.35
   3  -5  -3   16.67    1.32
  -3  -5   3   15.29    1.28
   3  -5  -3   13.55    1.27
   3  -5  -3   16.88    1.21
   3  -5  -3   13.71    1.93
   3  -5  -3   11.34    1.72
  -3  -5   3   16.58    1.15
  -3   5   3   14.63    1.40
   3   5  -3   16.60    1.52
  -3   5   3   15.99    1.37
   3   5  -3   18.93    1.31
   3   5  -3   15.38    1.44
   3   5  -3   16.45    2.46
  -3   5   3   16.64    1.66
   1  -5  -3   12.91    1.16
   1  -5  -3   12.95    1.12
  -1  -5   3   11.96    1.82
  -1  -5   3   13.11    1.15
   1  -5  -3   13.02    1.51
   1  -5  -3   12.44    1.04
  -1  -5   3   12.34    1.96
   1  -5  -3   11.23    1.17
   1   5  -3   12.91    1.20
  -1   5   3   12.15    1.23
   1   5  -3   15.00    2.31
   1   5  -3   14.12    1.18
  -1   5   3   12.18    1.24
   1   5  -3   11.70    1.16
   1  -5   3   14.24    1.39
   1  -5   3   14.65    1.25
  -1  -5  -3   14.15    1.35
  -1  -5  -3   14.44    1.26
   1  -5   3   13.67    2.04
  -1  -5  -3   13.10    1.36
  -1  -5  -3   13.80    1.19
  -1  -5  -3   12.52    1.83
  -1  -5  -3   13.58    1.32
   1  -5   3   13.52    2.19
  -1   5  -3   14.29    1.11
  -1   5  -3   13.98    1.02
   1   5   3   13.77    1.40
  -1   5  -3   14.05    0.93
   1   5   3   12.90    1.32
   3  -5   3   33.72    1.96
  -3  -5  -3   33.04    1.63
   3  -5   3   31.90    2.55
  -3  -5  -3   34.96    1.14
  -3  -5  -3   34.96    2.06
  -3  -5  -3   32.35    1.93
  -3  -5  -3   33.27    2.27
   3  -5   3   32.24    2.80
  -3  -5  -3   31.06    2.07
  -3  -5  -3   31.20    1.99
  -3   5  -3   32.31    1.77
  -3   5  -3   35.08    1.34
   3   5   3   33.23    2.15
   3   5   3   30.55    2.00
  -3   5  -3   33.00    2.56
  -3   5  -3   33.16    1.24
  -3   5  -3   34.68    1.27
  -5  -5  -3   14.20    1.72
  -5  -5  -3   14.25    1.64
  -5  -5  -3   12.51    1.07
  -5  -5  -3   13.31    0.96
  -5  -5  -3   12.27    1.39
   5  -5   3   13.68    1.45
   5  -5   3   13.75    2.08
  -5  -5  -3   14.57    1.75
   5  -5   3   13.45    1.45
  -5  -5  -3   14.60    1.67
  -5   5  -3   12.45    1.94
   5   5   3   13.63    1.65
  -5   5  -3   13.97    0.74
  -5   5  -3   14.83    0.76
  -5   5  -3   13.98    1.15
  -5   5  -3   15.18    1.51
  -5   5  -3   13.01    0.73
   5   5   3   12.58    1.59
  -7  -5  -3    1.40    1.03
   7  -5   3    1.86    0.80
   7  -5   3    1.79    1.08
   7  -5   3    2.01    0.89
  -7  -5  -3    1.93    1.04
  -7  -5  -3    2.02    0.55
  -7  -5  -3    1.55    0.94
  -7  -5  -3    1.45    1.05
  -7  -5  -3    2.52    1.05
  -7   5  -3    1.86    0.40
  -7   5  -3    0.70    0.55
  -7   5  -3    1.50    0.37
   7   5   3    1.99    1.03
   7   5   3    2.15    1.12
  -7   5  -3    2.12    0.94
  -7   5  -3    1.58    0.75
  -7   5  -3    1.67    0.46
   9  -5   3   33.62    2.27
  -9  -5  -3   37.22    2.42
  -9  -5  -3   40.00    2.99
   9  -5   3   36.30    2.03
  -9  -5  -3   35.66    2.43
  -9  -5  -3   35.65    2.66
  -9  -5  -3   36.06    2.79
  -9   5  -3   37.26    2.34
  -9   5  -3   36.40    1.60
   9   5   3   31.42    2.69
  -9   5  -3   38.16    1.58
  -9   5  -3   31.82    1.61
   9   5   3   36.57    2.96
 -11  -5  -3    0.38    0.83
 -11  -5  -3    0.14    1.23
  11  -5   3    1.48    0.83
 -11  -5  -3    1.17    1.34
  11  -5   3   -0.18    0.91
 -11  -5  -3    0.94    1.23
 -11  -5  -3    0.93    1.07
  11   5   3   -0.70    1.24
 -11   5  -3   -0.22    0.77
 -11   5  -3    0.18    0.58
 -11   5  -3   -0.37    0.52
 -11   5  -3    0.15    0.50
 -11   5  -3    1.52    0.61
  11   5   3    2.46    1.39
 -13  -5  -3   13.70    2.00
 -13  -5  -3   13.13    1.84
  13  -5   3   11.37    1.82
 -13  -5  -3   14.03    2.16
 -13  -5  -3   12.63    2.14
 -13  -5  -3   15.80    2.47
  13   5   3   14.77    2.34
 -13   5  -3   14.19    1.24
 -13   5  -3   18.68    1.64
 -13   5  -3   15.14    1.59
  13   5   3   16.57    2.74
 -13   5  -3   12.52    1.97
 -15  -5  -3    1.35    1.55
 -15  -5  -3    2.33    1.90
 -15  -5  -3    0.19    1.03
 -15  -5  -3    1.97    1.30
 -15  -5  -3    2.93    2.30
 -15   5  -3    2.96    1.31
  15   5   3    2.87    1.83
 -17  -5  -3   10.09    1.89
 -17  -5  -3    6.20    2.31
 -17   5  -3    8.93    1.69
  17   5   3    5.10    3.46
 -17   5  -3    5.92    1.75
 -20  -6   3   -1.01    3.09
 -20  -6   3    6.59    3.10
 -20  -6   3    6.15    4.28
 -20   6   3    5.15    1.93
 -20   6   3    3.64    2.16
  20   6  -3   -0.56    2.73
  20   6  -3    1.39    2.55
  18  -6  -3    9.78    1.86
 -18  -6   3   16.38    4.16
 -18  -6   3    8.23    3.31
 -18  -6   3    3.48    2.96
 -18   6   3    7.69    1.82
 -18   6   3   10.38    2.18
  18   6  -3    3.53    2.41
  18   6  -3    9.91    2.75
 -16  -6   3   13.94    2.97
  16  -6  -3   21.42    2.35
 -16  -6   3   14.03    2.89
 -16  -6   3   22.01    2.23
 -16  -6   3   18.16    3.97
 -16   6   3   15.67    2.39
  16   6  -3   16.50    2.76
 -16   6   3   15.39    2.23
  16   6  -3   12.37    2.56
 -14  -6   3   28.46    2.55
  14  -6  -3   27.83    2.35
 -14  -6   3   22.24    3.55
 -14  -6   3   32.10    4.05
 -14  -6   3   31.85    4.79
  14  -6  -3   24.63    2.37
  14   6  -3   26.94    3.28
  14   6  -3   25.17    3.24
  14   6  -3   24.45    3.43
 -14   6   3   27.54    2.40
 -14   6   3   25.65    2.56
  12  -6  -3   11.63    1.65
 -12  -6   3   10.39    2.07
  12  -6  -3   12.29    1.19
 -12  -6   3   14.18    2.22
 -12  -6   3   11.05    2.68
 -12  -6   3    9.03    2.31
 -12  -6   3   15.00    2.16
  12  -6  -3   12.60    1.81
 -12  -6   3   10.61    2.05
 -12   6   3   14.94    1.95
  12   6  -3   11.48    2.13
 -12   6   3   11.59    1.76
  12   6  -3   15.01    2.67
  12   6  -3    8.32    1.93
 -10  -6   3   84.96    4.51
 -10  -6   3   89.93    4.26
 -10  -6   3   90.85    4.38
  10  -6  -3   89.01    4.24
  10  -6  -3   91.31    3.98
 -10  -6   3   88.96    4.86
  10  -6  -3   90.02    3.31
 -10  -6   3   89.55    4.13
 -10  -6   3   87.99    5.61
  10   6  -3   90.53    4.47
 -10   6   3   89.45    3.95
  10   6  -3   84.99    4.37
 -10   6   3   85.03    3.85
  10   6  -3   87.82    5.01
   8  -6  -3   11.14    1.18
   8  -6  -3   11.25    1.43
  -8  -6   3   10.67    1.86
  -8  -6   3   10.42    2.35
   8  -6  -3   10.55    1.52
  -8  -6   3   11.33    2.11
  -8  -6   3   11.94    1.92
   8  -6  -3   12.54    1.10
   8  -6  -3   12.02    1.44
  -8  -6   3    8.19    1.39
   8   6  -3   12.71    1.88
  -8   6   3   12.72    1.65
  -8   6   3   13.57    1.62
   8   6  -3   10.50    1.70
  -8   6   3   12.37    1.50
   8   6  -3   15.47    2.88
   6  -6  -3   93.38    3.44
  -6  -6   3   88.00    3.23
  -6  -6   3   82.49    3.34
  -6  -6   3   89.95    5.34
  -6  -6   3   92.66    3.82
   6  -6  -3   89.46    4.00
  -6  -6   3   87.07    4.37
   6  -6  -3   93.64    3.81
   6  -6  -3   93.34    3.31
   6  -6  -3   89.08    3.06
  -6  -6   3   93.11    3.87
  -6   6   3   96.60    3.72
   6   6  -3   86.37    3.94
  -6   6   3   90.10    4.04
  -6   6   3   89.56    2.94
   6   6  -3   91.14    4.24
   6   6  -3   97.10    5.08
  -6   6   3   92.64    3.77
   6   6  -3   98.10    3.73
   4  -6  -3   14.41    1.36
  -4  -6   3   13.35    2.61
   4  -6  -3   15.27    1.46
  -4  -6   3   15.05    1.50
   4  -6  -3   16.00    1.36
   4  -6  -3   14.58    1.74
  -4  -6   3   18.88    2.70
   4  -6  -3   18.08    1.84
  -4   6   3   14.78    1.47
   4   6  -3   17.30    2.54
   4   6  -3   19.01    1.42
  -4   6   3   16.07    1.61
   4   6  -3   18.27    1.87
   4   6  -3   15.97    1.82
  -4   6   3   14.53    1.56
  -2  -6   3  148.12    6.01
   2  -6  -3  130.24    6.49
   2  -6  -3  150.01    5.07
   2  -6  -3  143.12    5.17
  -2  -6   3  143.00    6.42
   2  -6  -3  153.94    5.22
   2  -6  -3  147.15    5.12
   2  -6  -3  148.25    5.69
  -2   6   3  150.56    5.25
   2   6  -3  159.21    5.60
   2   6  -3  144.39    4.99
  -2   6   3  134.06    5.21
   2   6  -3  151.19    6.21
  -2   6   3  151.39    5.37
   2   6  -3  150.38    5.07
   0  -6  -3    0.87    0.55
   0  -6   3    1.92    1.43
   0  -6  -3    1.54    0.75
   0  -6  -3    1.26    0.83
   0  -6  -3    1.37    0.85
   0  -6   3    0.74    1.05
   0  -6   3    0.52    0.88
   0  -6  -3    0.77    0.91
   0   6  -3    1.37    0.77
   0   6   3    1.84    0.81
   0   6   3    1.30    0.86
   0   6  -3    1.62    1.79
   0   6  -3    1.27    0.67
  -2  -6  -3  134.70    4.70
  -2  -6  -3  133.40    5.31
  -2  -6  -3  131.13    4.93
   2  -6   3  129.86    4.76
  -2  -6  -3  134.45    4.84
   2  -6   3  124.78    5.38
  -2  -6  -3  129.89    4.72
  -2  -6  -3  128.91    4.93
   2  -6   3  125.31    5.72
   2  -6   3  133.74    4.91
  -2   6  -3  138.33    4.18
   2   6   3  126.03    4.96
   2   6   3  128.34    4.98
  -2   6  -3  139.24    5.65
  -2   6  -3  140.14    4.35
  -2   6  -3  128.90    4.16
  -4  -6  -3    4.58    1.17
  -4  -6  -3    5.90    1.24
  -4  -6  -3    5.78    1.22
  -4  -6  -3    3.41    1.24
   4  -6   3    5.08    0.99
  -4  -6  -3    3.83    1.12
   4  -6   3    4.98    1.40
   4  -6   3    4.66    1.05
   4  -6   3    3.81    1.50
  -4  -6  -3    7.72    1.14
  -4   6  -3    4.63    0.99
  -4   6  -3    5.10    1.73
   4   6   3    4.83    1.19
   4   6   3    5.50    1.22
  -6  -6  -3   48.35    2.94
   6  -6   3   50.27    2.58
   6  -6   3   47.06    3.32
  -6  -6  -3   48.01    2.20
   6  -6   3   50.46    2.61
  -6  -6  -3   46.38    2.85
  -6  -6  -3   49.13    2.74
   6  -6   3   46.16    3.13
  -6  -6  -3   45.87    2.92
   6   6   3   49.92    2.97
  -6   6  -3   47.02    2.61
  -6   6  -3   50.47    2.28
  -6   6  -3   44.71    4.26
   6   6   3   48.83    2.89
  -8  -6  -3    4.13    1.12
   8  -6   3    4.02    1.11
  -8  -6  -3    3.86    1.01
  -8  -6  -3    4.00    1.43
   8  -6   3    4.04    1.42
   8  -6   3    3.81    1.28
  -8  -6  -3    3.08    1.20
   8  -6   3    3.37    1.07
  -8  -6  -3    2.43    1.22
  -8  -6  -3    3.38    1.06
  -8   6  -3    4.21    0.64
   8   6   3    3.02    1.20
  -8   6  -3    2.86    0.84
  -8   6  -3    3.57    0.77
   8   6   3    3.35    1.23
  -8   6  -3    4.18    0.75
 -10  -6  -3   50.61    3.48
 -10  -6  -3   51.09    3.40
 -10  -6  -3   48.84    2.98
  10  -6   3   50.04    2.61
  10  -6   3   45.69    2.86
 -10  -6  -3   52.74    3.89
 -10  -6  -3   45.20    2.92
  10   6   3   50.10    3.37
 -10   6  -3   52.01    2.82
 -10   6  -3   50.35    2.00
  10   6   3   49.33    3.32
 -10   6  -3   48.67    2.17
 -12  -6  -3    3.64    1.82
  12  -6   3    1.50    1.00
 -12  -6  -3    1.05    1.39
 -12  -6  -3    1.75    1.28
 -12  -6  -3    3.22    1.15
 -12  -6  -3    4.22    1.71
  12   6   3   -0.39    1.51
 -12   6  -3    1.67    0.97
 -12   6  -3    1.11    0.65
  12   6   3    5.12    1.72
 -14  -6  -3   11.20    2.28
 -14  -6  -3   17.28    2.36
 -14  -6  -3   12.27    2.53
 -14  -6  -3   12.87    2.11
 -14   6  -3    9.86    1.67
  14   6   3    7.54    2.52
 -14   6  -3   11.21    1.78
  14   6   3   12.89    2.39
 -16  -6  -3   12.83    2.82
 -16  -6  -3    5.66    2.84
 -16  -6  -3    3.19    1.42
  16   6   3    6.35    2.47
 -16   6  -3    2.21    1.79
 -16   6  -3    2.09    1.45
 -19  -7   3    9.08    3.67
  19  -7  -3    2.76    1.75
 -19  -7   3    1.31    2.51
 -19   7   3    1.57    1.53
  19   7  -3   -4.79    2.83
  19   7  -3   -1.11    2.53
 -19   7   3   -1.45    1.90
 -17  -7   3   20.86    3.47
 -17  -7   3   32.38    5.78
  17  -7  -3   19.66    2.85
 -17   7   3   19.34    3.11
  17   7  -3   30.93    5.86
  17   7  -3   16.96    3.12
 -15  -7   3    3.71    2.30
 -15  -7   3    4.30    1.88
 -15  -7   3    6.59    2.41
  15  -7  -3    5.81    1.52
 -15  -7   3    9.75    3.20
 -15  -7   3    5.53    1.64
 -15   7   3    4.22    1.34
  15   7  -3    0.71    2.18
  15   7  -3    2.86    2.14
 -15   7   3    5.35    1.69
  15   7  -3    8.03    2.38
 -13  -7   3   44.76    4.95
 -13  -7   3   44.70    4.36
 -13  -7   3   35.57    3.42
 -13  -7   3   38.52    3.27
  13  -7  -3   40.77    2.85
 -13  -7   3   35.92    3.04
  13  -7  -3   40.32    2.94
 -13   7   3   36.80    2.69
  13   7  -3   41.53    4.15
  13   7  -3   38.01    3.86
  13   7  -3   36.53    3.63
 -13   7   3   38.85    2.87
  11  -7  -3   11.35    1.65
 -11  -7   3    8.13    1.64
 -11  -7   3   12.09    2.99
 -11  -7   3   18.70    3.40
  11  -7  -3    8.39    1.53
 -11  -7   3   11.18    2.03
 -11  -7   3    9.42    1.81
  11   7  -3   10.98    2.10
  11   7  -3    8.99    2.04
 -11   7   3    8.56    1.37
 -11   7   3   10.02    1.75
  11   7  -3    9.58    2.49
  -9  -7   3   62.54    3.37
  -9  -7   3   66.91    4.17
   9  -7  -3   65.10    3.34
  -9  -7   3   65.54    5.01
   9  -7  -3   69.31    2.48
   9  -7  -3   65.94    3.60
  -9  -7   3   56.32    4.72
  -9   7   3   68.35    3.29
  -9   7   3   69.08    3.27
   9   7  -3   69.45    4.93
   9   7  -3   70.27    4.27
   9   7  -3   68.80    3.84
   7  -7  -3    8.40    1.47
   7  -7  -3    9.72    1.11
  -7  -7   3   13.45    2.75
  -7  -7   3   11.50    2.12
  -7  -7   3    9.73    1.44
   7  -7  -3   10.72    0.93
   7  -7  -3   10.16    1.54
   7  -7  -3    9.53    1.12
  -7  -7   3    9.80    1.33
  -7   7   3   11.95    1.47
   7   7  -3   11.20    1.85
   7   7  -3    9.78    2.50
   7   7  -3   13.22    1.98
  -7   7   3   10.42    1.66
   5  -7  -3   93.22    3.78
  -5  -7   3   83.29    5.26
   5  -7  -3   85.67    3.75
  -5  -7   3   84.17    3.59
   5  -7  -3   88.93    3.49
  -5  -7   3   90.47    4.79
   5  -7  -3   83.30    4.02
   5  -7  -3   83.84    3.29
   5   7  -3   85.50    4.08
  -5   7   3   85.63    3.79
   5   7  -3   83.82    3.88
   5   7  -3   87.69    5.01
  -5   7   3   83.40    3.64
   5   7  -3   89.18    3.57
   3  -7  -3   32.24    2.08
   3  -7  -3   36.07    2.08
   3  -7  -3   37.88    2.89
   3  -7  -3   37.08    2.67
  -3  -7   3   32.21    3.44
   3  -7  -3   37.39    2.15
  -3  -7   3   35.94    2.14
  -3  -7   3   38.30    3.56
   3   7  -3   38.28    1.95
   3   7  -3   37.68    2.64
  -3   7   3   33.66    2.17
   3   7  -3   39.82    3.74
   3   7  -3   36.44    2.35
  -3   7   3   37.27    2.65
  -1  -7   3   28.46    3.01
  -1  -7   3   34.29    2.43
  -1  -7   3   30.20    3.19
   1  -7  -3   30.81    2.84
   1  -7  -3   31.49    2.23
   1  -7  -3   31.08    2.43
   1  -7  -3   27.58    1.61
   1  -7  -3   33.95    2.14
   1  -7  -3   34.23    2.07
  -1  -7   3   32.61    1.99
   1   7  -3   36.35    3.64
   1   7  -3   35.02    2.02
  -1   7   3   33.06    2.12
   1   7  -3   32.70    1.67
   1   7  -3   32.75    1.98
  -1   7   3   31.35    2.22
  -1  -7  -3   33.39    4.00
  -1  -7  -3   27.47    2.01
  -1  -7  -3   34.48    2.28
   1  -7   3   31.08    3.22
  -1  -7  -3   32.57    2.21
   1  -7   3   31.89    2.30
  -1  -7  -3   31.92    2.18
  -1  -7  -3   29.37    1.91
   1  -7   3   32.09    3.15
  -1  -7  -3   29.71    2.39
   1  -7   3   32.43    2.00
   1   7   3   32.28    2.26
  -1   7  -3   28.58    1.68
  -1   7  -3   31.51    3.36
  -1   7  -3   31.63    1.43
   1   7   3   31.12    2.16
  -1   7  -3   31.79    1.64
   3  -7   3   34.89    3.20
  -3  -7  -3   36.86    2.58
   3  -7   3   34.55    2.11
  -3  -7  -3   36.53    2.45
  -3  -7  -3   35.42    2.40
   3  -7   3   35.44    2.38
  -3  -7  -3   37.46    2.04
   3  -7   3   32.67    3.12
  -3  -7  -3   33.38    2.34
  -3  -7  -3   35.73    2.48
   3   7   3   34.80    2.39
  -3   7  -3   39.05    3.42
   3   7   3   36.20    2.53
  -3   7  -3   35.66    1.34
  -5  -7  -3   26.38    2.38
  -5  -7  -3   25.16    2.39
  -5  -7  -3   22.32    1.96
   5  -7   3   22.50    1.98
  -5  -7  -3   23.67    1.69
   5  -7   3   25.95    2.74
  -5  -7  -3   22.51    2.27
  -5  -7  -3   20.51    2.10
   5  -7   3   22.82    1.87
   5  -7   3   25.27    2.79
  -5   7  -3   23.14    2.02
   5   7   3   22.55    2.15
  -5   7  -3   25.54    1.71
  -5   7  -3   20.92    3.26
   5   7   3   23.54    2.21
   7  -7   3   15.65    1.78
  -7  -7  -3   13.36    2.22
   7  -7   3   16.44    1.79
   7  -7   3   17.25    2.43
  -7  -7  -3   19.67    1.65
  -7  -7  -3   14.91    1.84
  -7  -7  -3   16.89    2.09
   7  -7   3   15.07    2.67
  -7  -7  -3   19.81    2.97
  -7  -7  -3   17.04    2.37
   7   7   3   17.11    2.17
  -7   7  -3   13.88    2.12
  -7   7  -3   17.27    1.71
  -7   7  -3   16.39    1.47
   7   7   3   14.92    2.21
  -9  -7  -3   35.07    3.42
   9  -7   3   30.12    2.21
  -9  -7  -3   32.31    3.05
  -9  -7  -3   29.11    2.84
  -9  -7  -3   29.88    2.14
  -9  -7  -3   29.76    2.56
   9  -7   3   31.76    3.21
   9  -7   3   38.99    2.81
  -9  -7  -3   30.27    2.55
   9  -7   3   30.19    2.34
   9   7   3   33.60    2.96
  -9   7  -3   31.53    1.84
   9   7   3   32.56    2.88
  -9   7  -3   30.36    2.19
  -9   7  -3   38.08    3.73
  11  -7   3    1.31    1.25
 -11  -7  -3    1.93    1.32
 -11  -7  -3    4.05    1.87
 -11  -7  -3    1.29    1.13
  11  -7   3    3.00    1.19
 -11  -7  -3   -0.29    1.58
 -11  -7  -3    0.87    1.41
  11   7   3    4.13    1.77
  11   7   3    2.88    1.63
 -11   7  -3   -0.10    0.90
 -13  -7  -3   12.63    1.91
 -13  -7  -3   18.57    3.20
 -13  -7  -3   10.27    1.80
 -13  -7  -3   13.49    2.37
  13  -7   3   11.28    1.69
 -13   7  -3    8.76    1.30
 -13   7  -3   10.02    1.60
  13   7   3   11.28    2.50
 -15  -7  -3    3.78    1.80
 -15  -7  -3    2.08    3.57
 -15  -7  -3    3.21    1.56
 -15   7  -3    4.04    1.52
 -18  -8   3    7.75    2.70
 -18  -8   3    0.34    2.41
  18  -8  -3    5.18    1.88
 -18  -8   3   -3.01    2.70
 -18   8   3    5.12    2.09
 -18   8   3    3.92    1.69
 -16  -8   3   12.93    2.87
 -16  -8   3    5.99    1.77
 -16  -8   3    1.60    2.41
 -16  -8   3    5.31    2.04
  16   8  -3    6.11    2.43
  16   8  -3    4.16    2.79
 -16   8   3    8.71    2.74
 -16   8   3    6.76    1.62
  16   8  -3    4.61    4.65
  14  -8  -3    5.57    1.79
 -14  -8   3   12.72    2.92
 -14  -8   3    5.44    1.91
 -14  -8   3    7.21    1.82
 -14  -8   3    3.23    2.04
  14  -8  -3    6.14    1.73
 -14  -8   3   12.45    3.30
  14   8  -3    0.90    2.29
  14   8  -3    7.29    2.84
 -14   8   3    6.11    1.48
  14   8  -3    4.27    2.38
 -14   8   3    8.12    1.62
  12  -8  -3    2.20    1.22
 -12  -8   3    8.39    3.18
 -12  -8   3    2.64    1.42
  12  -8  -3    1.92    1.42
 -12  -8   3   -0.15    1.52
 -12  -8   3    6.61    2.32
 -12  -8   3    2.22    1.81
  12   8  -3    1.84    1.87
 -12   8   3    2.54    1.23
  12   8  -3    0.78    1.98
 -12   8   3    2.71    1.10
  12   8  -3    1.20    2.68
  10  -8  -3   30.55    2.53
 -10  -8   3   25.65    2.44
 -10  -8   3   34.61    4.66
 -10  -8   3   24.32    3.38
 -10  -8   3   28.60    2.41
  10  -8  -3   25.16    2.72
  10   8  -3   25.45    3.12
  10   8  -3   28.70    4.38
  10   8  -3   25.87    3.63
 -10   8   3   28.45    2.29
  -8  -8   3    2.73    1.40
   8  -8  -3    2.27    1.05
  -8  -8   3    1.52    1.91
   8  -8  -3    1.94    1.24
  -8  -8   3    3.67    1.15
  -8  -8   3    6.19    2.46
  -8   8   3    3.99    0.99
  -8   8   3    4.17    1.12
   8   8  -3    1.76    1.63
   8   8  -3    3.52    1.83
   8   8  -3    1.53    2.40
   6  -8  -3   21.27    1.38
   6  -8  -3   19.98    1.86
  -6  -8   3   21.78    1.92
   6  -8  -3   18.88    2.36
  -6  -8   3   19.64    3.29
   6  -8  -3   26.72    1.89
  -6  -8   3   20.96    3.88
   6   8  -3   17.84    2.55
  -6   8   3   21.59    1.89
   6   8  -3   18.48    2.85
  -6   8   3   23.01    1.96
   6   8  -3   22.11    3.53
  -4  -8   3    1.97    0.94
   4  -8  -3    2.68    1.00
   4  -8  -3    1.65    0.95
  -4  -8   3    3.64    1.97
   4  -8  -3    2.15    1.21
  -4  -8   3   -0.31    1.76
   4  -8  -3    2.35    0.91
  -4   8   3    2.08    0.91
   4   8  -3    0.12    2.04
   4   8  -3    1.01    1.24
   4   8  -3    2.79    1.39
  -4   8   3    1.73    0.75
  -2  -8   3   40.59    2.79
   2  -8  -3   36.50    2.88
   2  -8  -3   37.70    2.37
  -2  -8   3   36.64    2.22
   2  -8  -3   36.59    2.34
  -2  -8   3   37.16    3.83
   2  -8  -3   39.93    3.41
  -2  -8   3   36.95    3.47
   2  -8  -3   38.02    2.31
  -2   8   3   41.13    2.50
   2   8  -3   38.62    2.56
   2   8  -3   37.73    4.08
  -2   8   3   38.82    2.37
   2   8  -3   38.34    1.94
   2   8  -3   38.36    2.29
   0  -8   3    0.79    1.45
   0  -8   3   -0.29    0.79
   0  -8  -3   -0.72    1.20
   0  -8  -3    0.49    0.70
   0  -8  -3   -0.53    0.88
   0  -8   3   -0.87    1.74
   0  -8   3    0.10    1.03
   0  -8  -3   -1.51    1.97
   0  -8  -3    2.10    0.85
   0  -8  -3   -0.04    0.92
   0   8   3   -0.06    0.83
   0   8  -3   -0.23    0.78
   0   8  -3    1.43    0.79
   0   8  -3    0.55    0.44
   0   8  -3   -0.42    2.14
   0   8   3    0.04    0.76
   2  -8   3   36.65    2.58
  -2  -8  -3   39.74    2.53
   2  -8   3   34.53    3.53
  -2  -8  -3   35.48    2.59
  -2  -8  -3   39.96    2.25
  -2  -8  -3   33.97    2.83
  -2  -8  -3   29.55    2.66
  -2  -8  -3   35.02    4.80
   2  -8   3   36.49    3.45
   2  -8   3   36.29    2.22
  -2   8  -3   33.95    1.63
   2   8   3   35.76    2.44
  -2   8  -3   38.71    1.86
  -2   8  -3   36.14    3.88
   2   8   3   39.66    2.63
  -4  -8  -3   -0.09    0.77
  -4  -8  -3    0.27    1.25
   4  -8   3    0.60    1.51
  -4  -8  -3   -0.46    2.21
  -4  -8  -3    0.41    1.00
   4  -8   3    2.08    1.46
  -4  -8  -3    1.81    1.25
   4  -8   3    0.82    1.01
  -4  -8  -3   -0.41    0.92
   4  -8   3    2.56    0.99
   4   8   3    1.60    1.11
   4   8   3    1.33    0.99
  -4   8  -3    1.25    0.82
  -4   8  -3   -0.02    1.95
   6  -8   3   10.35    2.02
  -6  -8  -3   15.60    2.16
   6  -8   3   11.76    2.14
  -6  -8  -3   13.59    2.19
   6  -8   3   11.88    1.77
  -6  -8  -3    9.33    1.54
  -6  -8  -3    7.95    1.71
   6  -8   3   10.37    1.52
  -6  -8  -3   13.01    1.55
  -6   8  -3    9.32    1.22
   6   8   3   13.95    2.14
  -6   8  -3   10.84    2.53
   6   8   3    8.51    1.59
   8  -8   3    0.90    1.12
  -8  -8  -3    0.27    1.06
  -8  -8  -3    1.80    1.62
   8  -8   3    1.54    1.42
   8  -8   3    1.32    1.51
  -8  -8  -3    0.10    0.88
  -8  -8  -3   -0.91    1.23
   8  -8   3    0.54    1.11
  -8  -8  -3   -2.04    1.27
  -8   8  -3    0.40    0.76
   8   8   3    1.67    1.57
  -8   8  -3    0.47    0.88
   8   8   3    2.18    1.35
  -8   8  -3   -3.07    1.61
 -10  -8  -3   14.27    2.45
 -10  -8  -3   19.56    2.57
 -10  -8  -3   17.39    2.45
  10  -8   3   18.01    2.32
 -10  -8  -3   23.52    2.98
  10  -8   3   18.93    2.29
  10   8   3   18.94    3.07
  10   8   3   27.43    3.49
 -10   8  -3   21.01    2.05
 -10   8  -3   17.12    1.63
 -12  -8  -3   -1.83    1.22
  12  -8   3    0.28    1.36
 -12  -8  -3    2.27    2.23
 -12  -8  -3    0.40    1.94
 -12   8  -3    0.44    1.09
  12   8   3    0.08    1.95
 -14  -8  -3    4.08    2.85
 -14  -8  -3    3.63    1.95
 -15  -9   3    4.12    1.97
 -15  -9   3    4.70    2.13
  15  -9  -3    5.16    1.76
  15   9  -3    5.88    3.08
  15   9  -3   -0.67    2.49
 -15   9   3    2.19    1.39
 -15   9   3    4.03    1.98
  13  -9  -3   13.85    3.22
 -13  -9   3   11.13    2.17
 -13  -9   3   22.51    6.03
  13  -9  -3    9.78    2.17
 -13  -9   3   12.05    2.47
  13   9  -3   12.91    4.07
  13   9  -3   11.08    3.06
  13   9  -3    8.91    2.65
 -11  -9   3    8.12    1.78
 -11  -9   3   13.04    3.52
  11  -9  -3    6.61    1.55
  11  -9  -3    6.78    1.78
 -11  -9   3    5.06    2.30
  11   9  -3    2.39    2.25
 -11   9   3    8.03    1.60
  11   9  -3    3.49    2.20
 -11   9   3    6.67    1.33
  11   9  -3    4.37    2.78
  -9  -9   3   34.98    2.81
  -9  -9   3   39.32    5.16
  -9  -9   3   24.24    3.84
   9  -9  -3   31.82    2.56
   9  -9  -3   32.96    3.07
   9   9  -3   30.49    3.98
   9   9  -3   28.10    3.45
  -9   9   3   29.53    2.59
  -9   9   3   33.24    2.42
   9   9  -3   25.11    4.27
   7  -9  -3    2.94    1.55
  -7  -9   3    2.09    1.91
   7  -9  -3    5.78    1.37
  -7  -9   3   12.69    3.37
  -7  -9   3    7.02    1.33
  -7   9   3    4.42    1.09
   7   9  -3    4.65    2.69
   7   9  -3    4.07    1.88
   7   9  -3    4.37    1.80
  -7   9   3    5.68    1.26
  -5  -9   3   28.10    3.47
  -5  -9   3   33.32    2.19
   5  -9  -3   32.58    3.01
  -5  -9   3   36.24    4.60
   5  -9  -3   29.66    2.43
   5   9  -3   28.77    2.81
   5   9  -3   28.47    3.02
  -5   9   3   33.45    2.43
   5   9  -3   25.42    4.48
  -5   9   3   30.70    2.24
   3  -9  -3   14.52    2.21
   3  -9  -3   16.72    1.80
  -3  -9   3   15.16    2.57
  -3  -9   3   17.85    1.77
  -3  -9   3   18.31    3.80
   3  -9  -3   15.40    2.04
   3  -9  -3   20.23    1.97
   3   9  -3   17.02    3.53
  -3   9   3   18.89    2.07
  -3   9   3   14.04    1.79
   3   9  -3   13.44    2.32
   3   9  -3   15.82    2.04
  -1  -9   3    8.49    2.45
  -1  -9   3   13.28    1.67
   1  -9  -3   10.17    1.51
   1  -9  -3   11.38    1.63
   1  -9  -3   12.28    2.05
  -1  -9   3   13.48    2.80
  -1  -9   3   12.33    1.84
   1   9  -3   11.38    1.60
  -1   9   3   13.52    1.89
   1   9  -3   13.91    3.33
   1   9  -3   11.09    1.78
  -1   9   3   11.82    1.77
   1  -9   3   16.13    2.97
  -1  -9  -3   19.64    2.22
  -1  -9  -3   12.43    2.04
   1  -9   3   11.66    2.58
  -1  -9  -3   10.92    2.89
   1  -9   3   15.52    2.22
  -1  -9  -3   14.27    2.03
   1  -9   3   12.83    1.69
  -1  -9  -3   12.98    1.79
   1   9   3   17.90    2.27
  -1   9  -3   18.38    3.42
   1   9   3   13.27    1.93
  -3  -9  -3   21.70    2.59
  -3  -9  -3   20.61    1.90
   3  -9   3   17.95    2.74
   3  -9   3   15.84    1.87
  -3  -9  -3   17.38    3.66
   3  -9   3   17.91    3.24
  -3  -9  -3   16.89    2.54
  -3  -9  -3   17.14    2.28
   3  -9   3   16.46    2.27
  -3   9  -3   23.04    3.56
   3   9   3   24.54    2.40
   3   9   3   21.21    2.17
  -5  -9  -3    8.68    1.74
   5  -9   3   11.03    1.59
   5  -9   3    9.47    2.21
  -5  -9  -3    8.30    1.81
   5  -9   3   11.23    2.31
   5  -9   3    8.76    1.72
  -5  -9  -3    9.51    1.40
  -5  -9  -3   10.86    3.69
  -5  -9  -3   11.79    1.95
   5   9   3   13.82    2.17
  -5   9  -3   11.80    1.61
  -5   9  -3   13.43    1.67
   5   9   3   12.82    2.21
  -5   9  -3    9.76    2.85
   7  -9   3    5.84    1.46
   7  -9   3    7.07    2.10
  -7  -9  -3    5.47    1.57
  -7  -9  -3    5.24    1.67
  -7  -9  -3    5.25    3.71
  -7  -9  -3    4.16    1.18
  -7  -9  -3    8.08    2.07
   7  -9   3    6.30    2.15
   7  -9   3    5.73    1.50
  -7  -9  -3    2.40    2.00
  -7   9  -3    7.03    1.18
  -7   9  -3    6.88    1.11
  -7   9  -3    1.53    2.38
   7   9   3   10.44    2.16
   7   9   3    6.64    1.65
   9  -9   3   14.30    2.62
  -9  -9  -3   15.16    2.30
  -9  -9  -3   14.35    4.40
  -9  -9  -3   12.10    2.25
   9  -9   3   15.60    2.45
  -9  -9  -3   10.73    1.69
   9  -9   3   11.22    1.85
  -9   9  -3    7.71    3.93
  -9   9  -3   11.74    2.00
   9   9   3   13.42    2.27
 -11  -9  -3    7.70    2.57
 -11  -9  -3    2.51    1.73
 -11  -9  -3    3.57    1.93
 -11  -9  -3    8.45    4.63
  11  -9   3    1.22    1.55
 -11  -9  -3   -1.91    2.27
  11   9   3    2.04    2.10
  13  -9   3    6.44    2.03
 -13  -9  -3   -0.99    2.98
 -13  -9  -3    8.33    2.25
 -13  -9  -3    3.13    2.03
  13   9   3    2.18    3.54
  14 -10  -3    8.18    2.12
 -14 -10   3    8.88    2.68
 -14 -10   3   13.26    2.31
  14  10  -3    5.92    3.01
  14  10  -3    1.94    2.91
 -14  10   3   10.47    1.78
  14  10  -3   10.02    3.62
  12 -10  -3    7.40    2.40
 -12 -10   3   15.12    2.33
  12 -10  -3   10.52    2.08
 -12  10   3   13.35    2.27
  12  10  -3    8.11    2.70
  12  10  -3    7.38    3.89
  10 -10  -3   21.60    2.87
  10 -10  -3   18.07    2.69
 -10 -10   3   19.96    3.31
 -10 -10   3   23.32    2.63
  10  10  -3   17.36    4.88
 -10  10   3   21.89    2.73
 -10  10   3   21.33    2.56
  10  10  -3   15.38    2.96
  10  10  -3   17.91    3.09
  -8 -10   3    8.54    2.84
  -8 -10   3   10.60    1.72
   8 -10  -3    8.92    1.80
   8 -10  -3   10.19    2.12
  -8  10   3   10.50    1.81
   8  10  -3    6.48    2.31
  -8  10   3   13.23    2.34
   8  10  -3    7.22    3.25
   8  10  -3    5.37    2.27
  -6 -10   3   29.29    2.38
  -6 -10   3   29.99    5.02
   6 -10  -3   29.27    2.67
   6 -10  -3   30.68    3.33
  -6 -10   3   28.85    4.28
   6  10  -3   24.98    3.45
  -6  10   3   29.50    2.38
  -6  10   3   27.66    2.70
   6  10  -3   32.90    4.91
  -4 -10   3   13.47    2.86
   4 -10  -3   13.58    2.28
  -4 -10   3   22.95    4.53
   4 -10  -3   16.44    2.11
  -4 -10   3   16.00    2.03
   4  10  -3   15.23    2.16
   4  10  -3   13.37    3.56
  -4  10   3   14.82    1.97
   4  10  -3   10.48    2.05
  -4  10   3   17.61    2.39
   2 -10  -3   35.53    3.45
  -2 -10   3   31.90    2.39
  -2 -10   3   28.21    3.09
   2 -10  -3   34.27    2.67
  -2 -10   3   34.26    4.44
  -2 -10   3   39.61    4.78
   2  10  -3   28.88    5.32
   2  10  -3   28.71    2.62
  -2  10   3   29.71    2.56
  -2  10   3   38.06    2.93
   0 -10   3    7.50    2.85
   0 -10   3    8.31    1.42
   0 -10   3    7.30    1.64
   0 -10   3    8.51    2.72
   0 -10  -3    7.57    2.10
   0 -10  -3    6.72    1.48
   0  10  -3    6.59    1.27
   0  10   3   11.22    1.95
   0  10   3    7.45    1.47
   0  10  -3    3.03    3.38
  -2 -10  -3   28.73    2.85
   2 -10   3   34.37    4.47
   2 -10   3   31.22    4.16
  -2 -10  -3   31.84    2.48
  -2 -10  -3   27.46    4.12
  -2 -10  -3   31.58    3.38
   2 -10   3   30.28    2.72
   2 -10   3   30.45    2.35
  -2  10  -3   31.84    4.72
   2  10   3   28.52    2.67
  -2  10  -3   23.85    1.63
   2  10   3   34.79    2.98
  -2  10  -3   31.24    1.42
   4 -10   3    8.43    1.61
   4 -10   3    7.75    2.43
  -4 -10  -3    4.67    1.67
   4 -10   3    5.12    2.50
   4 -10   3    5.54    1.63
  -4 -10  -3    6.70    1.50
  -4 -10  -3    5.10    1.70
  -4 -10  -3    9.70    3.90
  -4  10  -3    6.45    1.36
   4  10   3   11.06    2.23
  -4  10  -3    6.26    1.18
  -4  10  -3    6.70    3.32
   4  10   3    6.26    1.57
   6 -10   3   18.60    3.75
  -6 -10  -3   18.35    2.96
  -6 -10  -3   13.53    1.84
   6 -10   3   13.10    2.06
   6 -10   3   15.05    2.28
   6 -10   3   15.30    2.77
  -6 -10  -3   10.67    4.55
  -6 -10  -3   16.07    2.40
  -6  10  -3   15.75    1.89
  -6  10  -3   14.24    3.64
   6  10   3   15.28    2.31
   8 -10   3   10.04    2.37
   8 -10   3    7.15    1.84
   8 -10   3    4.30    1.74
   8 -10   3    9.37    2.75
  -8 -10  -3    4.44    1.92
  -8 -10  -3    4.94    2.06
  -8 -10  -3    7.69    5.05
   8  10   3    9.29    2.32
   8  10   3   15.49    3.52
  10 -10   3   16.00    2.96
  10 -10   3    9.12    2.24
 -10 -10  -3   10.04    2.21
 -10 -10  -3    8.12    5.61
 -10 -10  -3    1.13    3.47
 -10 -10  -3    7.38    2.17
  10  10   3   12.97    2.58
  11 -11  -3    2.73    1.82
 -11 -11   3   -0.07    2.67
 -11  11   3    2.37    1.33
  11  11  -3    2.31    3.89
   9 -11  -3   11.39    2.18
   9 -11  -3    8.94    2.98
  -9 -11   3    9.71    2.83
  -9 -11   3   14.17    2.31
   9  11  -3   10.19    4.11
   9  11  -3    8.07    2.72
   9  11  -3    3.68    2.66
  -9  11   3   10.56    1.63
  -7 -11   3   -2.70    2.49
   7 -11  -3    1.97    2.30
   7 -11  -3    1.82    1.42
  -7 -11   3    1.97    1.56
   7  11  -3    2.39    3.81
  -7  11   3    2.39    1.65
   7  11  -3    0.25    2.02
  -7  11   3    2.03    1.19
  -5 -11   3   10.85    3.15
   5 -11  -3    5.76    2.55
   5 -11  -3    6.47    1.76
  -5 -11   3   12.27    1.80
  -5  11   3    7.88    1.86
   5  11  -3    8.29    4.49
  -5  11   3   10.00    1.73
   5  11  -3    3.67    1.94
  -3 -11   3   10.15    3.98
  -3 -11   3    3.50    2.89
  -3 -11   3    5.78    1.47
  -3  11   3    4.94    1.41
  -3  11   3    7.97    1.86
   3  11  -3    0.24    6.18
   3  11  -3    3.23    1.92
  -1 -11   3    6.00    1.48
  -1 -11   3    1.71    3.13
   1 -11  -3    4.16    1.48
   1 -11  -3    2.51    2.45
  -1 -11   3    3.77    2.24
  -1  11   3    8.78    2.02
   1  11  -3    0.20    4.18
  -1  11   3    4.35    1.45
   1 -11   3   10.06    3.36
   1 -11   3    2.94    1.50
  -1 -11  -3    4.27    2.02
   1 -11   3    1.96    2.19
   1 -11   3   -0.19    4.22
  -1 -11  -3    6.01    1.62
   1  11   3    8.30    2.11
  -1  11  -3   -3.53    3.82
   1  11   3    4.95    1.35
  -3 -11  -3    5.03    2.49
   3 -11   3    7.15    1.97
  -3 -11  -3    6.94    1.71
   3 -11   3    8.74    3.18
   3 -11   3   12.91    3.31
   3 -11   3    4.47    1.58
  -3 -11  -3   11.28    3.56
   3  11   3    2.53    1.37
  -3  11  -3    3.52    3.86
  -5 -11  -3    1.97    1.58
   5 -11   3    3.46    1.74
   5 -11   3    2.60    1.70
   5 -11   3    3.32    2.47
  -5 -11  -3    2.28    4.09
   5 -11   3    6.25    2.81
  -5 -11  -3    1.64    1.69
  -5  11  -3    4.74    1.39
   5  11   3    3.42    1.49
   7 -11   3    3.93    3.42
  -7 -11  -3   -7.11    4.37
   7 -11   3    3.67    2.45
  -7 -11  -3   -0.49    1.89
  -7 -11  -3   -0.89    1.49
   7 -11   3    0.42    1.88
   7 -11   3    2.20    1.78
   4 -12  -3    5.43    1.98
  -4 -12   3    0.13    3.02
   4 -12  -3    3.78    2.35
  -4  12   3    4.50    1.45
   4  12  -3   -4.62    4.41
  -4  12   3    3.02    1.89
   2 -12  -3    6.42    2.25
  -2 -12   3    6.58    3.29
   2 -12  -3    6.84    1.97
   2  12  -3   -0.98    4.88
   2  12  -3    2.84    1.65
  -2  12   3    6.39    1.57
   0 -12   3    2.59    2.57
   0 -12  -3    2.68    1.79
   0 -12  -3    4.26    2.34
   0 -12   3   -2.28    2.01
   0 -12   3    4.87    3.56
   0  12  -3   -3.93    4.55
   0  12   3    3.19    1.38
   2 -12   3    4.14    2.01
  -2 -12  -3    7.99    2.00
  -2 -12  -3    3.97    2.27
   2 -12   3    7.61    3.05
   2  12   3    6.33    1.66
  -2  12  -3    5.77    4.87
 -22   0   4   -3.85    2.26
  22   0  -4    1.71    1.89
 -22   0   4    3.76    2.50
 -22   0   4   -2.44    2.19
 -20   0   4   35.84    4.35
  20   0  -4   29.02    3.00
  20   0  -4   33.43    3.29
 -20   0   4   34.61    4.17
 -20   0   4   32.06    4.14
  18   0  -4    1.24    1.28
 -18   0   4    2.42    1.79
 -18   0   4    0.71    1.73
 -18   0   4    1.28    1.80
  18   0  -4    0.38    1.63
  18   0  -4    0.22    1.32
  16   0  -4   73.39    3.10
  16   0  -4   69.53    3.91
 -16   0   4   73.45    4.56
  16   0  -4   62.88    3.78
 -16   0   4   86.15    3.74
  16   0  -4   74.83    4.64
 -16   0   4   71.97    4.39
 -16   0   4   70.61    4.34
 -14   0   4    1.57    1.45
  14   0  -4    1.37    1.28
 -14   0   4    2.88    1.48
 -14   0   4    3.71    0.99
  14   0  -4    1.14    1.06
 -14   0   4    1.86    1.45
  14   0  -4    1.36    1.10
  14   0  -4    1.82    0.70
  12   0  -4  142.70    5.67
 -12   0   4  131.95    5.66
 -12   0   4  128.65    5.62
 -12   0   4  137.94    5.85
  12   0  -4  138.21    5.50
  12   0  -4  141.06    4.67
  12   0  -4  144.57    5.51
 -12   0   4  147.23    5.24
  10   0  -4   34.45    2.44
 -10   0   4   30.76    2.30
 -10   0   4   34.21    2.49
  10   0  -4   33.50    2.22
 -10   0   4   29.06    2.40
  10   0  -4   34.00    2.20
 -10   0   4   30.88    1.83
  10   0  -4   32.34    1.61
   8   0  -4  100.40    4.01
   8   0  -4  101.61    4.03
   8   0  -4  100.85    4.27
  -8   0   4   98.08    4.15
  -8   0   4   98.51    3.75
   8   0  -4  103.12    3.53
  -8   0   4  105.05    4.19
   6   0  -4  137.23    5.48
  -6   0   4  135.34    4.77
   6   0  -4  135.70    4.45
  -6   0   4  129.73    4.84
  -6   0   4  131.34    4.66
   6   0  -4  131.74    4.81
  -4   0   4  183.67    5.88
   4   0  -4  179.91    6.05
  -4   0   4  188.51    6.06
   4   0  -4  177.62    6.02
   4   0  -4  177.33    5.75
   4   0  -4  180.86    6.32
  -4   0   4  170.39    5.98
  -4   0   4  182.87    6.08
  -2   0   4   78.51    3.22
  -2   0   4   77.46    2.96
   2   0  -4   76.66    3.00
   2   0  -4   75.97    2.99
   2   0  -4   79.83    3.02
   2   0  -4   74.68    2.82
  -2   0   4   72.11    2.78
  -2   0   4   75.12    2.92
   2   0  -4   74.55    3.24
   0   0  -4   50.28    2.24
   0   0  -4   54.57    2.25
   0   0   4   51.99    2.21
   0   0  -4   50.12    2.43
   0   0  -4   52.78    2.26
   0   0   4   50.28    2.10
   0   0   4   51.77    2.18
   0   0  -4   50.34    2.16
   2   0   4  275.40    8.49
   2   0   4  288.26    8.57
   2   0   4  271.26    8.45
  -2   0  -4  301.12    8.65
  -2   0  -4  283.00    8.73
  -2   0  -4  249.82    8.93
  -2   0  -4  277.11    8.60
  -2   0  -4  248.84    9.09
  -4   0  -4    5.98    0.60
  -4   0  -4    6.18    0.94
   4   0   4    7.24    0.96
  -4   0  -4    7.28    1.07
  -4   0  -4    7.03    0.90
  -4   0  -4    6.89    0.87
  -4   0  -4    6.81    0.91
  -4   0  -4    8.92    1.01
   6   0   4  123.00    4.35
   6   0   4  116.30    4.23
  -6   0  -4  121.37    4.79
  -6   0  -4  120.29    4.75
  -6   0  -4  124.94    4.18
  -6   0  -4  131.55    4.54
  -6   0  -4  118.62    4.42
  -6   0  -4  116.50    4.59
   6   0   4  121.55    4.35
  -8   0  -4    9.44    0.92
  -8   0  -4   10.34    1.66
  -8   0  -4   12.32    1.46
   8   0   4    9.39    1.26
  -8   0  -4   10.44    1.44
   8   0   4   11.08    1.40
  -8   0  -4    9.28    1.15
  -8   0  -4    8.76    1.24
   8   0   4   10.04    1.44
  10   0   4   47.70    2.71
 -10   0  -4   46.64    2.66
 -10   0  -4   45.25    2.35
 -10   0  -4   44.78    2.57
 -10   0  -4   48.54    3.01
  12   0   4   -1.01    1.27
 -12   0  -4    0.58    0.93
 -12   0  -4    0.20    0.96
 -12   0  -4    0.54    0.80
 -12   0  -4    1.05    0.99
 -14   0  -4   53.52    2.71
 -14   0  -4   53.32    3.50
 -14   0  -4   53.16    3.75
 -14   0  -4   52.50    3.27
  14   0   4   46.37    3.12
 -16   0  -4    1.64    1.64
 -16   0  -4    2.03    1.94
 -16   0  -4    1.30    1.10
 -16   0  -4   -1.68    1.32
 -18   0  -4    8.04    1.57
 -18   0  -4    7.86    2.18
 -18   0  -4   11.98    2.42
 -23  -1   4    6.90    2.92
 -23  -1   4   -0.04    2.82
  23  -1  -4    5.63    2.25
 -23  -1   4    5.01    2.94
 -23   1   4    8.66    2.96
  23   1  -4    4.73    2.10
  21  -1  -4    6.22    1.71
 -21  -1   4    4.69    2.65
  21  -1  -4    4.22    1.80
 -21  -1   4    0.06    3.90
  21  -1  -4    4.73    1.95
 -21  -1   4    5.43    2.66
 -21   1   4    4.81    2.60
  21   1  -4    5.64    1.95
 -21   1   4    3.23    2.14
 -21   1   4    5.23    2.24
  21   1  -4    5.71    2.03
  19  -1  -4    2.82    1.57
 -19  -1   4    1.17    1.98
 -19  -1   4    0.57    1.78
 -19  -1   4    2.41    2.24
  19  -1  -4    0.64    1.34
 -19   1   4   -0.04    1.63
  19   1  -4    0.31    1.36
  19   1  -4    2.35    1.59
 -19   1   4    1.74    2.01
  19   1  -4    1.63    1.76
 -19   1   4    2.90    1.89
 -17  -1   4   43.40    3.85
 -17  -1   4   48.49    3.90
  17  -1  -4   45.11    3.10
 -17  -1   4   48.89    4.22
  17  -1  -4   46.53    3.14
  17  -1  -4   42.60    3.42
  17   1  -4   43.14    3.42
  17   1  -4   44.57    3.29
 -17   1   4   43.03    3.60
 -17   1   4   53.09    3.83
 -17   1   4   42.14    3.63
  17   1  -4   43.54    3.63
  15  -1  -4   -0.10    1.17
  15  -1  -4    1.38    1.21
  15  -1  -4    0.62    1.03
 -15  -1   4   -0.15    1.36
 -15  -1   4    2.47    1.30
 -15  -1   4    0.41    1.58
 -15  -1   4    0.78    1.57
  15  -1  -4    0.60    0.60
  15   1  -4   -0.35    1.28
  15   1  -4   -0.79    1.08
 -15   1   4    1.19    1.30
 -15   1   4   -1.11    1.25
 -15   1   4    0.52    1.43
  15   1  -4    0.62    1.29
  13  -1  -4   76.72    3.68
 -13  -1   4   70.85    4.36
 -13  -1   4   76.39    3.94
  13  -1  -4   78.98    2.79
 -13  -1   4   69.63    4.01
 -13  -1   4   76.42    4.12
  13  -1  -4   76.73    3.82
  13  -1  -4   74.37    3.64
 -13   1   4   68.57    3.87
 -13   1   4   71.74    4.78
 -13   1   4   73.19    3.93
  13   1  -4   70.12    3.74
  13   1  -4   76.45    3.97
  13   1  -4   77.47    3.85
 -13   1   4   78.49    3.01
  11  -1  -4    0.85    0.87
 -11  -1   4    2.48    1.17
 -11  -1   4    2.34    1.26
  11  -1  -4    1.44    0.94
  11  -1  -4    2.61    0.65
 -11  -1   4    2.51    1.08
 -11  -1   4    1.12    1.23
 -11   1   4    2.45    1.04
 -11   1   4    2.31    1.13
  11   1  -4    1.74    1.06
 -11   1   4    1.43    1.00
  11   1  -4    1.16    0.92
 -11   1   4    2.35    0.54
  11   1  -4    1.41    0.97
  -9  -1   4  170.62    6.14
  -9  -1   4  166.98    6.28
  -9  -1   4  166.74    6.04
   9  -1  -4  172.73    5.33
   9  -1  -4  164.88    5.95
   9  -1  -4  171.88    6.25
   9   1  -4  167.22    5.53
   9   1  -4  163.13    6.05
  -9   1   4  155.88    7.54
  -9   1   4  165.84    5.37
  -9   1   4  173.62    6.17
   9   1  -4  163.11    6.29
   7  -1  -4    6.08    1.06
   7  -1  -4    5.56    1.19
   7  -1  -4    7.94    1.14
  -7  -1   4    5.30    1.12
   7  -1  -4    6.36    0.76
  -7  -1   4    5.78    1.02
  -7  -1   4    6.68    1.20
   7  -1  -4    6.62    1.11
  -7  -1   4    7.22    1.20
  -7   1   4    5.82    1.08
   7   1  -4    6.50    1.13
   7   1  -4    5.23    1.24
  -7   1   4    5.98    1.01
  -7   1   4    6.27    0.78
   7   1  -4    6.81    0.95
   7   1  -4    6.79    1.12
   5  -1  -4  374.99   10.36
  -5  -1   4  306.59   10.37
  -5  -1   4  330.42   10.20
  -5  -1   4  328.10   10.11
   5  -1  -4  324.24   10.17
  -5  -1   4  319.01   10.12
   5  -1  -4  312.26    9.73
  -5   1   4  322.94    9.96
   5   1  -4  317.07   10.15
  -5   1   4  323.14   10.22
   5   1  -4  350.89   10.31
  -5   1   4  291.24   10.48
  -5   1   4  319.53    9.92
   5   1  -4  319.06    9.88
   5   1  -4  318.06   10.17
  -3  -1   4    1.15    0.53
  -3  -1   4    0.56    0.52
   3  -1  -4    0.85    0.56
  -3  -1   4    0.69    0.55
   3  -1  -4    0.34    0.49
  -3  -1   4    0.01    0.52
   3  -1  -4    0.44    0.74
   3  -1  -4    0.12    0.41
   3   1  -4    0.33    0.54
   3   1  -4    0.48    0.51
   3   1  -4   -0.35    0.51
  -3   1   4    0.70    0.58
  -3   1   4    0.04    0.40
   3   1  -4    0.06    0.68
  -3   1   4    0.86    0.53
   3   1  -4    0.27    0.51
   1  -1  -4  258.27    8.16
   1  -1  -4  259.71    8.42
  -1  -1   4  251.04    8.02
   1  -1  -4  265.45    8.20
  -1  -1   4  263.44    8.62
  -1  -1   4  240.63    8.00
   1  -1  -4  263.95    8.01
  -1  -1   4  256.72    7.95
   1   1  -4  269.66    8.14
   1   1  -4  250.94    8.38
  -1   1   4  258.87    7.88
   1   1  -4  272.39    8.12
   1   1  -4  249.29    8.06
  -1   1   4  249.09    8.13
  -1   1   4  260.11    8.18
   1  -1   4    0.52    0.47
   1  -1   4    1.07    0.42
   1  -1   4    1.39    0.71
  -1  -1  -4    0.70    0.47
  -1  -1  -4    0.70    0.49
  -1  -1  -4    0.41    0.61
  -1  -1  -4    0.36    0.46
   1   1   4    0.95    0.51
  -1   1  -4    1.06    0.62
  -1   1  -4    0.72    0.52
  -1   1  -4    0.47    0.39
  -1   1  -4    0.68    0.45
   1   1   4    0.74    0.41
  -1   1  -4    0.06    0.55
   1   1   4    0.45    0.45
  -3  -1  -4  143.96    4.33
  -3  -1  -4  148.85    5.34
   3  -1   4  142.46    4.65
  -3  -1  -4  131.04    5.30
   3  -1   4  136.75    4.75
  -3  -1  -4  138.95    4.74
  -3  -1  -4  143.48    4.91
  -3  -1  -4  145.21    4.92
   3  -1   4  138.83    4.59
   3  -1   4  137.93    4.52
  -3   1  -4  136.83    4.71
   3   1   4  136.12    4.83
  -3   1  -4  139.86    4.73
  -3   1  -4  141.76    4.84
  -3   1  -4  143.46    4.72
   3   1   4  139.83    4.83
  -3   1  -4  137.35    4.70
   3   1   4  140.22    4.62
  -3   1  -4  133.96    5.04
   5  -1   4    1.48    0.57
  -5  -1  -4    0.81    0.69
   5  -1   4    1.72    0.69
   5  -1   4    0.65    0.60
  -5  -1  -4    0.53    0.58
  -5  -1  -4    0.21    0.54
   5  -1   4    1.24    0.52
  -5  -1  -4    0.94    0.21
  -5  -1  -4    0.49    0.62
  -5  -1  -4    0.98    0.54
   5   1   4    0.83    0.66
  -5   1  -4    0.78    0.57
  -5   1  -4    1.68    0.53
   5   1   4    1.47    0.69
  -5   1  -4    0.38    0.48
  -5   1  -4    1.07    0.31
   5   1   4    0.90    0.60
  -5   1  -4    0.30    0.49
  -7  -1  -4   84.80    3.33
   7  -1   4   79.41    3.33
   7  -1   4   81.59    3.33
   7  -1   4   80.64    3.15
  -7  -1  -4   79.88    3.46
  -7  -1  -4   82.37    3.76
  -7  -1  -4   83.21    3.16
   7  -1   4   83.62    3.09
   7   1   4   82.18    3.30
  -7   1  -4   84.45    3.31
  -7   1  -4   86.38    3.30
  -7   1  -4   84.57    2.95
   7   1   4   80.60    3.46
  -7   1  -4   82.93    3.75
  -7   1  -4   77.90    3.26
   7   1   4   87.16    3.46
   9  -1   4    5.23    1.10
   9  -1   4    5.03    1.09
  -9  -1  -4    4.39    1.14
   9  -1   4    3.61    1.19
  -9  -1  -4    3.30    1.07
  -9  -1  -4    4.30    0.97
   9  -1   4    4.92    0.94
  -9  -1  -4    4.49    0.95
  -9   1  -4    4.64    0.94
  -9   1  -4    5.84    1.06
  -9   1  -4    5.78    0.99
   9   1   4    5.40    1.16
  -9   1  -4    4.13    1.07
   9   1   4    4.95    1.19
  -9   1  -4    2.72    0.75
  11  -1   4   14.78    1.71
 -11  -1  -4   14.98    2.18
 -11  -1  -4   17.17    1.65
 -11  -1  -4   16.84    2.00
 -11  -1  -4   17.51    2.10
  11   1   4   19.00    2.06
 -11   1  -4   16.63    1.45
  11   1   4   13.95    2.19
 -11   1  -4   17.28    2.10
 -11   1  -4   15.72    1.72
 -11   1  -4   14.94    1.78
  13  -1   4    3.36    1.22
 -13  -1  -4    4.10    1.30
 -13  -1  -4    4.13    1.47
 -13  -1  -4    5.38    1.46
 -13  -1  -4    4.78    1.13
 -13   1  -4    3.88    1.20
 -13   1  -4    2.86    1.22
 -13   1  -4    5.57    1.02
  13   1   4    2.93    1.56
 -13   1  -4    6.49    1.36
 -15  -1  -4    6.45    2.02
 -15  -1  -4    5.64    1.28
 -15  -1  -4    5.52    1.82
 -15  -1  -4    2.82    1.52
 -15   1  -4    5.50    1.18
 -15   1  -4    3.15    1.52
 -15   1  -4    6.51    1.67
 -15   1  -4    5.58    1.64
 -17  -1  -4    4.69    2.50
 -17  -1  -4    5.07    2.28
 -17  -1  -4    3.65    1.32
 -17   1  -4    2.53    1.21
 -17   1  -4    6.17    2.04
 -17   1  -4    1.36    1.86
 -19  -1  -4    9.09    2.86
 -19  -1  -4    1.85    2.04
 -19  -1  -4    3.65    1.56
 -19   1  -4    0.02    1.92
 -22  -2   4    0.10    2.52
 -22  -2   4   -1.85    2.71
  22  -2  -4    0.07    1.63
  22  -2  -4   -0.22    1.81
 -22   2   4   -1.70    2.08
  22   2  -4    3.72    2.00
  22   2  -4   -1.85    1.67
 -22   2   4   -1.89    2.21
 -22   2   4    3.66    2.07
 -20  -2   4   13.80    3.05
  20  -2  -4   18.17    2.81
  20  -2  -4   19.35    2.64
  20  -2  -4   23.72    2.83
 -20  -2   4   17.05    3.23
 -20  -2   4   21.87    3.45
  20   2  -4   22.31    3.21
  20   2  -4   16.42    2.53
 -20   2   4   17.25    2.66
  20   2  -4   23.22    3.14
 -20   2   4   25.34    3.45
 -20   2   4   18.01    2.88
  18  -2  -4    0.85    1.24
  18  -2  -4   -0.86    1.14
  18  -2  -4    1.37    1.37
 -18  -2   4   -0.96    1.96
 -18  -2   4   -2.13    1.75
 -18  -2   4   -1.80    1.67
 -18   2   4   -0.52    1.34
  18   2  -4   -2.83    1.31
  18   2  -4   -1.19    1.36
 -18   2   4    0.57    1.42
 -18   2   4    0.93    1.70
  18   2  -4    2.01    1.68
  16  -2  -4   48.02    3.31
 -16  -2   4   42.02    3.76
 -16  -2   4   43.80    3.72
  16  -2  -4   51.45    3.13
 -16  -2   4   46.48    4.26
  16  -2  -4   47.18    3.10
 -16  -2   4   57.78    4.10
 -16   2   4   45.00    3.39
 -16   2   4   50.07    3.58
  16   2  -4   48.00    3.46
  16   2  -4   49.10    3.45
  16   2  -4   46.28    3.24
 -16   2   4   46.03    3.34
  14  -2  -4    1.14    0.98
  14  -2  -4    2.75    1.06
  14  -2  -4    0.54    1.15
 -14  -2   4    3.14    1.65
  14  -2  -4    1.90    0.57
 -14  -2   4    1.04    1.53
 -14  -2   4    1.98    1.58
 -14  -2   4    0.70    1.62
  14   2  -4    2.37    1.18
  14   2  -4    0.28    1.23
  14   2  -4    0.24    1.40
 -14   2   4    1.71    1.36
 -14   2   4   -0.23    1.01
 -12  -2   4   61.73    3.66
 -12  -2   4   60.85    4.12
  12  -2  -4   64.11    2.32
 -12  -2   4   63.90    3.68
 -12  -2   4   61.95    3.84
  12  -2  -4   68.64    3.55
  12  -2  -4   62.91    3.18
  12  -2  -4   63.16    3.19
  12   2  -4   63.52    3.47
 -12   2   4   63.69    3.52
 -12   2   4   64.02    3.48
  12   2  -4   65.82    3.75
 -12   2   4   64.48    3.37
  10  -2  -4   14.67    1.60
 -10  -2   4   16.45    2.10
 -10  -2   4   15.11    2.61
 -10  -2   4   19.71    2.06
  10  -2  -4   14.96    1.00
  10  -2  -4   14.92    1.56
 -10  -2   4   14.41    2.43
  10   2  -4   14.79    2.07
 -10   2   4   14.79    1.87
  10   2  -4   13.60    1.80
 -10   2   4   15.15    1.92
  10   2  -4   13.55    1.75
   8  -2  -4   48.80    2.50
   8  -2  -4   52.09    2.81
  -8  -2   4   52.62    2.84
  -8  -2   4   48.60    2.88
  -8  -2   4   48.93    2.72
   8  -2  -4   52.31    2.00
  -8  -2   4   52.20    2.92
   8  -2  -4   48.14    2.51
   8   2  -4   52.06    2.66
   8   2  -4   49.84    2.92
   8   2  -4   50.23    2.64
  -8   2   4   52.07    2.82
  -6  -2   4   29.71    1.89
   6  -2  -4   28.44    2.02
  -6  -2   4   28.83    1.91
   6  -2  -4   32.33    1.43
  -6  -2   4   27.40    2.11
   6  -2  -4   29.77    1.78
   6  -2  -4   29.22    1.41
  -6  -2   4   28.96    1.85
   6  -2  -4   29.65    1.79
  -6   2   4   28.17    1.83
   6   2  -4   29.16    1.90
   6   2  -4   27.04    2.21
  -6   2   4   29.45    1.88
   6   2  -4   27.20    2.05
   6   2  -4   28.85    1.88
  -4  -2   4   60.35    2.97
   4  -2  -4   64.05    2.54
  -4  -2   4   64.78    2.60
   4  -2  -4   63.60    2.79
   4  -2  -4   65.42    3.10
   4  -2  -4   65.89    2.48
   4  -2  -4   66.23    2.78
  -4  -2   4   65.54    2.84
  -4  -2   4   61.58    3.11
  -4   2   4   65.24    2.44
   4   2  -4   68.04    2.88
  -4   2   4   69.94    3.37
  -4   2   4   64.74    2.83
   4   2  -4   61.49    2.74
   2  -2  -4   34.55    2.11
   2  -2  -4   36.90    1.71
  -2  -2   4   36.66    2.06
   2  -2  -4   39.55    1.97
  -2  -2   4   43.86    2.42
  -2  -2   4   36.72    1.64
  -2  -2   4   35.26    2.26
   2   2  -4   42.97    1.93
  -2   2   4   36.12    1.54
   2   2  -4   39.78    1.87
   2   2  -4   38.25    2.27
  -2   2   4   37.41    1.95
   0  -2  -4   12.47    1.08
   0  -2   4   11.30    1.12
   0  -2  -4   14.42    0.97
   0  -2  -4   13.63    1.18
   0  -2  -4   13.69    1.28
   0  -2   4   13.14    0.84
   0  -2  -4   13.60    1.47
   0  -2   4   13.66    0.96
   0  -2  -4   14.01    1.34
   0  -2   4   15.58    1.76
   0   2   4   13.34    1.48
   0   2  -4   14.36    1.37
   0   2  -4   13.53    1.27
   0   2  -4   12.50    1.06
   0   2   4   13.90    0.85
   0   2   4   13.82    1.21
   0   2  -4   13.83    1.04
   0   2  -4   12.82    1.02
   2  -2   4  149.46    4.61
   2  -2   4  139.89    5.60
   2  -2   4  140.18    4.92
   2  -2   4  136.86    4.41
  -2  -2  -4  149.24    4.92
   2  -2   4  149.41    4.53
  -2  -2  -4  146.18    5.09
  -2  -2  -4  147.20    4.56
  -2  -2  -4  146.00    5.17
  -2  -2  -4  144.32    5.06
   2   2   4  145.88    5.05
  -2   2  -4  141.98    4.76
  -2   2  -4  145.14    4.76
  -2   2  -4  144.69    4.88
  -2   2  -4  143.67    4.77
   2   2   4  146.23    4.64
  -2   2  -4  143.01    5.07
   2   2   4  141.77    5.04
   4  -2   4    0.82    0.46
   4  -2   4    0.93    0.41
  -4  -2  -4   -0.37    0.24
  -4  -2  -4    1.03    0.93
  -4  -2  -4   -0.06    0.48
  -4  -2  -4   -0.06    0.58
  -4  -2  -4    0.14    0.50
   4  -2   4   -0.55    0.37
   4  -2   4    0.38    0.58
  -4  -2  -4    0.49    0.60
  -4   2  -4   -0.15    0.35
   4   2   4   -0.81    0.55
   4   2   4    0.26    0.51
   4   2   4   -0.17    0.40
  -4   2  -4    0.04    0.35
  -4   2  -4    0.15    0.45
  -4   2  -4    0.41    0.54
  -4   2  -4   -0.37    0.67
  -4   2  -4    0.61    0.52
   6  -2   4   55.89    2.31
   6  -2   4   58.66    2.68
  -6  -2  -4   57.80    2.63
  -6  -2  -4   57.36    2.79
  -6  -2  -4   50.35    3.15
  -6  -2  -4   60.79    1.82
  -6  -2  -4   59.70    3.03
  -6  -2  -4   57.83    2.58
   6   2   4   57.45    2.83
   6   2   4   58.91    2.75
  -6   2  -4   55.23    2.30
  -6   2  -4   57.07    2.39
  -6   2  -4   58.29    2.45
  -6   2  -4   57.44    2.03
  -6   2  -4   57.11    2.38
  -6   2  -4   58.11    2.49
  -6   2  -4   53.73    2.87
  -8  -2  -4    0.35    0.75
   8  -2   4    0.44    0.72
  -8  -2  -4    1.24    0.96
  -8  -2  -4    1.21    0.83
  -8  -2  -4    0.39    0.86
  -8   2  -4    0.70    0.62
   8   2   4    0.59    1.00
  -8   2  -4    0.89    0.53
  -8   2  -4    1.33    0.46
  -8   2  -4    1.44    0.63
   8   2   4    0.83    0.89
  -8   2  -4    1.53    0.65
  -8   2  -4    0.78    0.71
  -8   2  -4    0.43    0.71
 -10  -2  -4   34.66    2.45
 -10  -2  -4   32.53    2.72
 -10  -2  -4   35.73    2.62
  10  -2   4   34.32    2.26
 -10  -2  -4   34.80    2.24
 -10   2  -4   36.23    2.64
 -10   2  -4   32.72    1.86
 -10   2  -4   33.89    2.08
  10   2   4   34.32    2.46
 -10   2  -4   31.06    2.09
  10   2   4   36.81    3.46
 -12  -2  -4    1.52    1.16
 -12  -2  -4    0.43    1.01
 -12  -2  -4    0.53    0.92
 -12  -2  -4    0.41    1.21
  12   2   4    3.47    1.36
 -12   2  -4    0.81    0.90
 -12   2  -4    1.21    0.97
 -12   2  -4    1.81    0.77
 -12   2  -4    1.02    1.04
 -14  -2  -4   31.19    3.32
 -14  -2  -4   34.75    3.18
 -14  -2  -4   30.37    2.97
 -14  -2  -4   30.97    2.34
 -14   2  -4   31.43    2.93
  14   2   4   26.30    3.22
 -14   2  -4   33.22    2.76
 -14   2  -4   31.37    2.61
 -14   2  -4   32.98    2.03
 -16  -2  -4    3.24    2.13
 -16  -2  -4   -0.66    1.13
 -16  -2  -4    0.14    1.57
 -16  -2  -4    0.64    1.83
 -16   2  -4   -0.90    0.95
 -16   2  -4    3.19    1.71
  16   2   4   -2.75    1.86
 -16   2  -4    3.52    1.52
 -16   2  -4   -0.39    1.31
 -18  -2  -4   16.34    3.44
 -18  -2  -4   13.05    2.89
 -18   2  -4   24.88    3.67
 -18   2  -4   22.70    3.62
  21  -3  -4    7.18    1.82
 -21  -3   4    8.17    3.04
 -21  -3   4    0.87    2.56
 -21  -3   4    3.46    2.97
  21  -3  -4    8.10    1.90
  21   3  -4    4.96    2.38
  21   3  -4   12.38    2.70
  21   3  -4    9.87    2.34
 -21   3   4    8.03    2.50
 -19  -3   4    5.66    2.60
 -19  -3   4    0.59    2.14
 -19  -3   4    4.52    2.36
  19  -3  -4    4.88    1.49
  19  -3  -4    6.72    1.84
  19  -3  -4    6.94    1.56
  19   3  -4    2.65    1.73
 -19   3   4    3.31    1.89
 -19   3   4    3.59    1.88
  19   3  -4    7.09    2.22
  19   3  -4    4.86    1.98
 -17  -3   4   45.35    4.43
  17  -3  -4   42.11    3.13
  17  -3  -4   42.06    3.01
 -17  -3   4   38.20    3.75
 -17  -3   4   39.59    3.91
  17  -3  -4   42.71    2.89
 -17  -3   4   53.67    4.55
 -17   3   4   37.61    3.54
 -17   3   4   45.00    3.48
  17   3  -4   43.99    3.54
  17   3  -4   42.29    3.34
  17   3  -4   50.21    3.75
  15  -3  -4    3.29    1.16
 -15  -3   4    1.31    1.66
  15  -3  -4    3.39    0.95
  15  -3  -4    3.76    1.37
 -15  -3   4    5.58    1.92
 -15  -3   4    5.03    1.93
 -15  -3   4    1.82    1.61
  15  -3  -4    2.66    1.10
  15   3  -4    2.36    1.41
 -15   3   4    2.33    1.38
  15   3  -4    4.36    1.42
  15   3  -4    3.19    1.81
 -15   3   4    2.00    1.52
  13  -3  -4  112.00    4.84
  13  -3  -4  111.10    3.57
 -13  -3   4  114.12    5.49
 -13  -3   4  111.74    5.16
  13  -3  -4  111.52    4.53
  13  -3  -4  109.75    4.61
  13  -3  -4  110.19    4.56
 -13  -3   4  107.71    5.44
 -13  -3   4  111.80    5.99
  13   3  -4  104.09    4.85
 -13   3   4  109.71    4.92
  13   3  -4  107.77    4.95
 -13   3   4  113.81    5.00
  13   3  -4  111.35    5.06
 -11  -3   4   10.48    2.05
  11  -3  -4    9.73    0.82
  11  -3  -4    8.91    1.50
  11  -3  -4    7.84    1.32
 -11  -3   4    6.35    1.66
  11  -3  -4   10.18    1.55
  11  -3  -4   10.29    1.78
 -11  -3   4   12.13    2.12
 -11  -3   4    8.94    1.75
  11   3  -4   10.62    1.84
  11   3  -4   11.37    1.73
 -11   3   4   11.10    1.79
  11   3  -4    9.62    1.89
 -11   3   4    9.76    1.58
   9  -3  -4  127.09    5.16
   9  -3  -4  129.42    4.15
   9  -3  -4  126.20    4.82
  -9  -3   4  132.95    5.12
  -9  -3   4  129.41    5.73
   9  -3  -4  126.38    4.84
  -9  -3   4  127.58    5.13
   9  -3  -4  128.73    4.82
   9   3  -4  127.94    5.40
   9   3  -4  128.78    5.07
  -9   3   4  130.87    5.12
   7  -3  -4    2.89    0.55
   7  -3  -4    3.39    0.85
  -7  -3   4    3.09    1.08
  -7  -3   4    1.74    1.04
   7  -3  -4    2.20    0.77
  -7  -3   4    2.10    0.87
   7  -3  -4    2.40    1.16
  -7   3   4    3.07    0.96
   7   3  -4    2.73    0.89
  -7   3   4    2.23    0.91
   7   3  -4    0.54    0.98
   7   3  -4    3.04    1.00
   7   3  -4    2.00    1.21
   5  -3  -4  382.00   12.01
   5  -3  -4  411.62   12.28
  -5  -3   4  382.99   12.33
   5  -3  -4  400.80   12.34
   5  -3  -4  409.97   11.92
  -5  -3   4  406.69   12.29
  -5  -3   4  395.68   13.03
  -5  -3   4  398.88   12.13
   5  -3  -4  409.21   12.75
   5  -3  -4  407.78   12.36
   5   3  -4  381.46   12.33
  -5   3   4  400.05   11.91
  -5   3   4  384.98   12.41
   5   3  -4  414.30   12.40
   5   3  -4  379.50   12.74
   5   3  -4  422.77   12.54
  -3  -3   4    2.73    0.98
  -3  -3   4    3.25    0.92
  -3  -3   4    3.82    0.70
   3  -3  -4    3.84    0.99
   3  -3  -4    2.73    0.71
  -3  -3   4    2.83    0.53
   3  -3  -4    3.54    0.76
  -3  -3   4    3.72    0.89
   3  -3  -4    2.97    0.70
   3  -3  -4    2.40    0.68
  -3   3   4    2.10    0.66
   3   3  -4    3.63    0.85
   3   3  -4    2.73    1.03
  -3   3   4    3.46    0.50
   3   3  -4    2.83    0.72
   3   3  -4    2.63    0.73
   3   3  -4    3.61    0.75
  -3   3   4    3.41    0.76
   1  -3  -4  230.50    7.10
  -1  -3   4  205.37    6.70
  -1  -3   4  226.93    8.05
   1  -3  -4  231.78    7.42
  -1  -3   4  219.81    6.71
   1  -3  -4  227.69    7.15
  -1  -3   4  226.06    7.30
  -1  -3   4  234.05    6.90
   1  -3  -4  226.56    7.37
   1  -3  -4  219.19    7.62
   1   3  -4  238.93    7.20
  -1   3   4  229.52    6.77
   1   3  -4  232.99    7.20
   1   3  -4  223.46    7.23
  -1   3   4  224.40    7.41
   1   3  -4  229.56    7.17
  -1   3   4  214.99    7.40
   1   3  -4  214.02    7.64
  -1  -3  -4   14.90    0.97
  -1  -3  -4   15.47    1.44
  -1  -3  -4   14.49    1.31
  -1  -3  -4   15.49    1.27
   1  -3   4   12.84    1.22
   1  -3   4   13.77    1.63
  -1  -3  -4   13.40    1.31
  -1  -3  -4   14.95    1.26
   1  -3   4   15.77    0.90
   1   3   4   13.14    0.81
   1   3   4   16.33    1.39
  -1   3  -4   14.95    1.24
  -1   3  -4   15.39    1.06
  -1   3  -4   14.80    1.45
   1   3   4   15.16    1.33
  -1   3  -4   14.86    1.04
   3  -3   4  138.89    5.22
  -3  -3  -4  147.02    5.31
  -3  -3  -4  142.47    5.56
   3  -3   4  153.52    6.30
  -3  -3  -4  154.69    5.44
  -3  -3  -4  154.17    4.72
  -3  -3  -4  141.16    5.52
  -3   3  -4  154.28    5.27
   3   3   4  150.84    4.72
   3   3   4  152.33    5.32
  -3   3  -4  141.19    5.09
   3   3   4  139.00    5.93
  -3   3  -4  152.13    5.08
  -3   3  -4  151.34    4.83
  -3   3  -4  150.61    4.83
  -5  -3  -4    2.64    0.85
   5  -3   4    1.94    0.99
  -5  -3  -4    1.77    0.76
  -5  -3  -4    2.09    0.39
  -5  -3  -4    3.27    1.01
   5  -3   4    2.44    0.82
  -5  -3  -4    1.73    0.78
  -5   3  -4    2.36    0.53
  -5   3  -4    2.37    0.68
  -5   3  -4    3.13    0.72
  -5   3  -4    2.56    0.53
   5   3   4    2.70    0.86
   5   3   4    2.47    0.85
  -5   3  -4    2.05    0.56
  -5   3  -4    3.35    0.88
  -7  -3  -4  108.85    4.20
   7  -3   4  105.19    4.22
  -7  -3  -4  106.78    4.60
  -7  -3  -4  103.68    4.41
  -7  -3  -4  110.91    3.28
  -7  -3  -4  110.98    4.50
   7   3   4  101.44    4.35
  -7   3  -4  107.52    3.74
   7   3   4  109.46    4.38
  -7   3  -4  104.35    4.44
  -7   3  -4  103.34    4.30
  -7   3  -4  108.36    3.80
  -7   3  -4  107.99    3.79
  -7   3  -4  106.68    3.83
  -9  -3  -4    8.42    1.47
  -9  -3  -4    7.81    1.19
  -9  -3  -4    8.67    1.51
  -9  -3  -4    9.81    1.79
   9  -3   4    9.79    1.50
  -9   3  -4    8.34    1.23
   9   3   4   10.33    1.73
   9   3   4    7.16    1.51
  -9   3  -4   12.77    1.63
  -9   3  -4    9.53    1.32
  -9   3  -4    9.29    1.12
  -9   3  -4    9.64    1.52
  -9   3  -4   11.17    0.69
 -11  -3  -4   13.83    1.76
 -11  -3  -4   13.76    2.08
  11  -3   4   13.45    1.78
 -11  -3  -4   12.68    1.91
 -11  -3  -4   14.11    2.10
 -11   3  -4   14.81    1.55
 -11   3  -4   16.35    1.38
 -11   3  -4   15.44    1.65
 -11   3  -4   13.64    2.01
  11   3   4   13.69    2.18
  11   3   4   16.02    2.40
 -13  -3  -4    7.62    1.45
 -13  -3  -4   11.37    2.09
 -13  -3  -4    7.53    1.79
 -13  -3  -4    8.26    1.81
 -13  -3  -4    7.64    1.30
 -13   3  -4    8.45    1.65
  13   3   4   14.32    2.53
 -13   3  -4    9.27    1.34
 -13   3  -4    9.64    1.51
 -13   3  -4   10.92    1.79
 -15  -3  -4   10.53    2.29
 -15  -3  -4    6.87    1.98
 -15  -3  -4    7.80    1.44
 -15  -3  -4    6.63    1.28
 -15   3  -4   12.54    1.94
  15   3   4    8.41    2.17
 -15   3  -4    7.58    1.86
 -15   3  -4    7.92    1.18
 -15   3  -4   11.56    1.81
 -17  -3  -4    9.73    3.25
 -17  -3  -4    8.93    2.67
 -17   3  -4    3.15    2.49
  22  -4  -4    0.81    1.81
 -22   4   4   -1.06    2.34
 -20  -4   4   16.06    4.89
  20  -4  -4   17.97    2.52
 -20  -4   4   14.23    2.94
 -20  -4   4   18.78    5.46
  20  -4  -4   19.70    2.70
  20   4  -4   15.45    2.82
 -20   4   4   13.03    4.10
 -20   4   4   17.47    2.98
  20   4  -4   15.24    2.70
 -18  -4   4   -1.80    2.97
  18  -4  -4    2.55    1.44
 -18  -4   4    1.11    1.92
 -18  -4   4    0.20    2.21
  18  -4  -4    2.53    1.26
  18  -4  -4    2.98    1.58
  18   4  -4   -1.16    1.74
 -18   4   4    3.27    1.84
  18   4  -4    1.71    1.68
  16  -4  -4   42.54    2.66
 -16  -4   4   51.07    4.48
  16  -4  -4   41.99    2.92
 -16  -4   4   40.84    3.67
 -16  -4   4   39.12    4.67
  16  -4  -4   42.67    3.14
 -16   4   4   41.16    3.33
  16   4  -4   53.61    3.67
  16   4  -4   43.96    3.63
  16   4  -4   44.03    3.37
 -16   4   4   43.90    3.49
  14  -4  -4    0.22    1.21
 -14  -4   4   -0.23    1.51
 -14  -4   4   -2.28    1.57
  14  -4  -4    0.17    0.95
  14  -4  -4   -0.37    0.83
 -14  -4   4    0.87    1.65
  14  -4  -4   -0.11    0.89
 -14  -4   4    0.28    1.64
  14   4  -4    0.31    1.25
 -14   4   4   -1.74    1.14
 -14   4   4   -0.07    1.00
  14   4  -4   -0.56    1.40
  14   4  -4    0.80    1.45
 -12  -4   4   53.49    3.45
  12  -4  -4   56.26    1.95
 -12  -4   4   53.69    3.82
 -12  -4   4   56.23    2.94
  12  -4  -4   58.08    3.39
  12  -4  -4   59.04    2.92
 -12  -4   4   58.38    4.38
  12  -4  -4   56.79    3.07
 -12  -4   4   51.86    3.55
  12  -4  -4   57.32    3.06
  12   4  -4   59.02    3.52
  12   4  -4   55.42    3.37
 -12   4   4   57.79    3.31
  12   4  -4   58.64    3.80
 -12   4   4   57.96    3.21
  10  -4  -4   35.98    2.61
 -10  -4   4   33.29    2.69
 -10  -4   4   33.35    3.09
  10  -4  -4   34.77    1.51
  10  -4  -4   36.39    2.32
 -10  -4   4   34.94    2.43
 -10  -4   4   36.82    2.76
 -10  -4   4   33.06    3.54
  10  -4  -4   36.56    2.20
  10  -4  -4   35.27    2.27
 -10  -4   4   35.84    2.58
  10   4  -4   32.81    3.06
  10   4  -4   38.04    2.71
  10   4  -4   37.94    2.68
 -10   4   4   35.44    2.58
 -10   4   4   34.83    2.46
  -8  -4   4   62.62    4.03
  -8  -4   4   65.45    3.32
   8  -4  -4   65.66    3.00
   8  -4  -4   63.68    3.33
   8  -4  -4   58.93    3.10
   8  -4  -4   64.38    2.97
  -8  -4   4   56.57    3.17
  -8  -4   4   69.37    3.26
   8  -4  -4   65.74    2.76
   8  -4  -4   67.19    2.44
  -8  -4   4   64.13    3.30
   8   4  -4   61.55    3.74
  -8   4   4   66.48    3.23
  -8   4   4   65.73    3.21
   8   4  -4   77.99    3.38
   8   4  -4   65.78    3.26
   8   4  -4   63.61    4.70
   6  -4  -4   28.86    1.84
   6  -4  -4   21.21    1.94
   6  -4  -4   28.56    2.10
  -6  -4   4   25.30    2.54
  -6  -4   4   28.96    1.73
   6  -4  -4   28.95    1.88
  -6  -4   4   25.97    2.66
  -6  -4   4   29.48    2.01
   6  -4  -4   28.00    1.83
   6  -4  -4   27.44    1.46
  -6   4   4   28.93    1.50
   6   4  -4   27.94    2.15
  -6   4   4   26.40    2.20
   6   4  -4   26.05    2.59
   6   4  -4   29.61    1.97
   4  -4  -4   66.72    3.28
  -4  -4   4   57.21    4.58
   4  -4  -4   67.38    2.47
   4  -4  -4   68.21    2.62
   4  -4  -4   69.07    2.86
  -4  -4   4   69.60    2.53
  -4  -4   4   71.55    2.78
   4  -4  -4   74.35    2.62
  -4  -4   4   68.35    2.49
   4  -4  -4   67.30    2.98
   4  -4  -4   68.34    2.64
   4  -4  -4   63.03    2.89
  -4  -4   4   59.02    3.63
  -4   4   4   66.31    3.04
   4   4  -4   69.13    3.13
   4   4  -4   68.01    2.97
   4   4  -4   69.91    2.93
  -4   4   4   69.00    3.10
  -4   4   4   66.92    2.32
   2  -4  -4   57.50    2.68
   2  -4  -4   57.94    2.29
   2  -4  -4   57.24    2.42
   2  -4  -4   57.58    2.45
  -2  -4   4   46.96    3.35
  -2  -4   4   59.54    2.17
   2  -4  -4   55.53    2.59
   2   4  -4   57.22    3.20
   2   4  -4   59.18    2.61
   2   4  -4   57.68    2.47
  -2   4   4   57.86    1.91
  -2   4   4   56.66    2.72
  -2   4   4   56.60    2.76
   0  -4  -4   28.28    1.68
   0  -4  -4   28.07    2.04
   0  -4   4   28.42    2.24
   0  -4  -4   29.48    1.54
   0  -4  -4   28.18    1.63
   0  -4  -4   26.90    1.79
   0  -4   4   26.58    2.48
   0  -4   4   28.31    1.94
   0   4   4   27.56    2.35
   0   4  -4   26.68    2.02
   0   4  -4   27.21    2.19
   0   4  -4   29.42    1.58
   0   4   4   29.25    1.10
   0   4  -4   28.30    1.52
  -2  -4  -4  131.25    4.81
   2  -4   4  126.19    4.66
  -2  -4  -4  127.78    4.58
   2  -4   4  124.21    5.45
  -2  -4  -4  130.62    4.84
  -2  -4  -4  130.41    4.05
  -2  -4  -4  131.32    4.68
  -2  -4  -4  130.12    4.31
  -2   4  -4  132.02    4.26
  -2   4  -4  128.98    4.93
  -2   4  -4  119.95    4.87
  -2   4  -4  130.04    4.25
   2   4   4  128.77    4.87
  -2   4  -4  123.57    4.31
   2   4   4  128.35    4.85
   2   4   4  129.94    4.01
  -4  -4  -4    4.08    0.98
  -4  -4  -4    4.48    1.09
  -4  -4  -4    3.38    0.91
   4  -4   4    4.47    1.33
   4  -4   4    3.17    0.84
  -4  -4  -4    4.79    0.64
  -4  -4  -4    3.02    0.91
  -4   4  -4    4.50    0.73
   4   4   4    2.75    0.99
  -4   4  -4    5.42    1.12
   4   4   4    4.71    0.98
  -4   4  -4    3.66    0.59
  -4   4  -4    4.40    0.77
  -6  -4  -4   45.68    2.76
  -6  -4  -4   47.28    2.52
  -6  -4  -4   49.35    1.89
  -6  -4  -4   52.48    2.95
   6  -4   4   43.07    3.20
  -6  -4  -4   49.12    2.91
  -6   4  -4   47.94    1.97
  -6   4  -4   48.71    2.00
  -6   4  -4   51.79    2.82
   6   4   4   47.83    2.88
  -6   4  -4   47.78    2.28
  -6   4  -4   47.11    2.02
  -6   4  -4   48.88    2.35
  -8  -4  -4    4.34    1.34
   8  -4   4    5.34    1.19
  -8  -4  -4    4.21    1.04
  -8  -4  -4    3.82    1.10
  -8  -4  -4    5.50    1.30
  -8  -4  -4    4.47    0.55
  -8   4  -4    4.83    0.90
   8   4   4    3.56    1.69
  -8   4  -4    5.01    0.76
   8   4   4    3.87    1.28
  -8   4  -4    3.83    0.68
  -8   4  -4    4.89    0.78
  -8   4  -4    2.47    0.92
  -8   4  -4    4.39    0.70
  10  -4   4   35.10    2.47
 -10  -4  -4   38.20    2.85
 -10  -4  -4   39.10    2.98
 -10  -4  -4   38.16    3.04
 -10  -4  -4   40.37    2.54
 -10   4  -4   35.97    2.65
 -10   4  -4   36.18    1.94
  10   4   4   39.67    2.97
 -10   4  -4   32.61    2.00
  10   4   4   39.77    2.87
 -10   4  -4   38.19    1.97
 -10   4  -4   34.53    1.90
 -12  -4  -4    0.35    1.26
 -12  -4  -4   -0.59    1.27
 -12  -4  -4   -1.06    0.84
 -12  -4  -4   -1.15    0.87
  12  -4   4   -0.96    0.99
 -12  -4  -4    2.75    1.41
  12   4   4    3.14    1.43
  12   4   4   -0.75    1.68
 -12   4  -4   -0.39    0.67
 -12   4  -4   -0.22    0.83
 -12   4  -4    0.49    0.86
 -12   4  -4   -0.44    0.99
 -14  -4  -4   31.67    4.07
 -14  -4  -4   20.21    2.34
 -14  -4  -4   24.45    3.14
 -14  -4  -4   24.13    2.39
 -14  -4  -4   25.29    3.28
 -14   4  -4   24.19    1.79
 -14   4  -4   23.63    2.59
  14   4   4   33.32    3.37
 -14   4  -4   24.63    2.74
 -14   4  -4   30.94    2.52
 -16  -4  -4    3.67    3.20
 -16  -4  -4   -0.73    1.44
 -16  -4  -4   -0.30    3.22
 -16  -4  -4    6.45    2.84
 -16   4  -4    5.23    1.92
 -16   4  -4   -1.76    1.42
  16   4   4    0.69    2.18
 -18  -4  -4   42.97    5.90
 -18  -4  -4   25.92    4.36
 -21  -5   4    9.07    2.79
 -21   5   4    2.57    2.29
  19  -5  -4    1.98    1.77
  19  -5  -4    1.21    1.53
 -19  -5   4    3.56    2.58
 -19  -5   4    0.04    2.43
  19   5  -4   -1.19    2.14
 -19   5   4   -0.45    1.78
  19   5  -4    0.46    2.13
  17  -5  -4   19.31    2.66
 -17  -5   4   27.67    4.05
  17  -5  -4   15.86    2.02
  17  -5  -4   20.49    2.49
 -17  -5   4   17.59    2.82
  17   5  -4   16.57    2.57
 -17   5   4   13.98    2.20
  17   5  -4   16.29    2.55
 -17   5   4   17.48    2.57
  15  -5  -4   -0.74    1.31
 -15  -5   4    2.47    2.21
 -15  -5   4    0.71    1.70
  15  -5  -4   -0.61    0.89
  15  -5  -4   -0.25    0.91
 -15  -5   4    2.10    1.93
  15   5  -4    4.61    1.87
 -15   5   4    1.73    1.15
  15   5  -4    0.29    1.49
  15   5  -4   -0.82    1.58
 -15   5   4    0.40    1.23
 -13  -5   4   41.52    3.91
  13  -5  -4   40.17    3.01
 -13  -5   4   39.84    2.61
 -13  -5   4   33.83    2.99
  13  -5  -4   34.02    2.56
  13  -5  -4   40.21    2.33
 -13  -5   4   34.72    3.37
  13  -5  -4   40.52    2.68
 -13  -5   4   33.85    3.04
 -13  -5   4   45.04    4.23
  13   5  -4   39.56    3.14
  13   5  -4   36.91    3.22
  13   5  -4   42.51    3.58
 -13   5   4   35.37    2.74
 -13   5   4   40.37    2.84
  11  -5  -4   -0.46    1.44
  11  -5  -4    0.20    0.76
 -11  -5   4    1.94    1.32
 -11  -5   4    1.78    1.15
  11  -5  -4    1.32    0.95
 -11  -5   4   -0.39    1.25
  11  -5  -4    0.58    0.53
  11  -5  -4   -0.19    1.07
 -11  -5   4    0.75    1.33
  11  -5  -4    1.40    1.14
 -11  -5   4    1.19    1.81
 -11  -5   4    1.03    1.48
 -11   5   4    1.14    1.02
  11   5  -4    1.32    1.67
 -11   5   4    0.51    0.87
  11   5  -4    0.36    1.27
  11   5  -4    1.20    1.30
   9  -5  -4   46.46    2.54
  -9  -5   4   42.59    3.90
  -9  -5   4   47.94    4.27
   9  -5  -4   49.48    2.53
  -9  -5   4   48.61    3.05
   9  -5  -4   47.03    2.59
   9  -5  -4   46.11    3.04
  -9  -5   4   46.43    3.10
   9  -5  -4   46.22    1.93
  -9  -5   4   44.61    2.88
   9  -5  -4   45.70    2.81
   9   5  -4   42.73    3.30
   9   5  -4   46.39    2.97
   9   5  -4   44.64    3.03
  -9   5   4   41.26    2.66
  -9   5   4   44.72    2.71
   7  -5  -4    0.29    0.72
   7  -5  -4    1.08    0.62
  -7  -5   4   -0.02    0.94
   7  -5  -4    0.87    1.15
  -7  -5   4    0.25    1.05
   7  -5  -4    0.85    0.43
   7  -5  -4    0.84    0.32
   7  -5  -4    0.89    0.72
  -7  -5   4    0.96    0.80
  -7  -5   4    0.72    1.37
   7  -5  -4    0.30    0.79
   7   5  -4   -0.33    1.55
   7   5  -4    1.37    1.25
  -7   5   4    0.79    0.86
   7   5  -4    0.81    1.02
  -7   5   4    0.02    0.76
  -5  -5   4  147.83    5.77
   5  -5  -4  149.25    5.35
   5  -5  -4  144.18    5.28
   5  -5  -4  149.79    5.06
   5  -5  -4  150.41    4.53
  -5  -5   4  152.94    5.16
  -5  -5   4  142.34    5.40
   5  -5  -4  148.23    4.75
   5  -5  -4  152.56    4.99
   5  -5  -4  147.29    5.84
   5  -5  -4  146.92    5.28
  -5  -5   4  141.88    6.47
  -5  -5   4  148.73    4.73
   5  -5  -4  147.95    4.73
   5   5  -4  141.41    6.10
  -5   5   4  143.79    5.53
   5   5  -4  148.12    5.38
  -5   5   4  137.61    5.41
  -5   5   4  147.98    4.53
   5   5  -4  154.58    5.41
   5   5  -4  151.17    5.40
   3  -5  -4   -0.05    0.64
   3  -5  -4   -0.08    0.71
   3  -5  -4    0.76    0.68
  -3  -5   4    0.77    1.18
   3  -5  -4    1.30    0.99
   3  -5  -4    1.05    0.70
   3  -5  -4    0.06    0.41
  -3  -5   4    0.60    0.70
  -3  -5   4    0.95    1.23
  -3   5   4    0.64    0.69
   3   5  -4    0.25    0.69
   3   5  -4   -0.41    0.78
   3   5  -4   -0.11    0.65
  -3   5   4    0.13    0.73
   3   5  -4   -1.41    1.17
  -1  -5   4   77.43    3.82
   1  -5  -4   77.16    3.41
  -1  -5   4   80.54    3.37
  -1  -5   4   77.27    4.31
   1  -5  -4   77.91    3.20
   1  -5  -4   80.27    3.01
   1  -5  -4   79.12    3.81
   1  -5  -4   79.82    3.44
   1   5  -4   80.77    3.10
   1   5  -4   82.07    3.17
   1   5  -4   79.23    4.13
  -1   5   4   80.28    3.52
   1   5  -4   88.28    3.91
   1  -5   4    1.17    1.09
  -1  -5  -4    1.37    0.91
  -1  -5  -4    0.46    0.74
  -1  -5  -4    0.80    0.59
  -1  -5  -4    1.32    0.85
   1  -5   4   -0.20    1.12
   1  -5   4    0.98    0.81
  -1  -5  -4    0.47    0.63
  -1   5  -4    0.50    0.51
  -1   5  -4    1.39    0.83
  -1   5  -4   -1.72    1.20
  -1   5  -4    1.09    0.56
   1   5   4    2.30    1.13
  -1   5  -4    0.95    0.60
   1   5   4    1.07    0.88
  -3  -5  -4   55.21    1.89
  -3  -5  -4   57.08    3.19
   3  -5   4   50.09    3.13
   3  -5   4   50.63    2.58
   3  -5   4   51.01    3.38
  -3  -5  -4   48.98    2.77
  -3  -5  -4   53.47    2.87
  -3  -5  -4   55.23    2.67
  -3   5  -4   52.86    2.56
  -3   5  -4   51.55    3.10
   3   5   4   53.12    2.91
  -3   5  -4   54.12    2.06
  -3   5  -4   57.93    2.17
   3   5   4   51.44    3.22
  -5  -5  -4    0.87    1.00
  -5  -5  -4    0.05    0.93
   5  -5   4    0.19    1.05
  -5  -5  -4    0.50    0.96
  -5  -5  -4    1.08    0.72
  -5  -5  -4   -0.80    0.86
   5  -5   4    0.55    0.86
  -5   5  -4    2.78    1.04
  -5   5  -4    0.60    0.68
   5   5   4    0.91    0.95
  -5   5  -4   -0.04    0.70
  -5   5  -4   -0.05    0.39
  -5   5  -4   -0.09    0.39
  -7  -5  -4   42.82    2.79
   7  -5   4   39.08    2.43
  -7  -5  -4   41.45    2.73
  -7  -5  -4   43.87    2.88
   7  -5   4   38.20    3.18
  -7  -5  -4   39.59    2.44
  -7  -5  -4   41.57    1.82
  -7   5  -4   43.77    2.09
  -7   5  -4   41.27    1.78
  -7   5  -4   40.04    1.73
  -7   5  -4   41.85    2.63
   7   5   4   41.39    2.96
  -7   5  -4   39.56    1.75
   7   5   4   42.51    2.87
  -9  -5  -4    1.96    1.02
  -9  -5  -4    3.23    1.38
  -9  -5  -4    2.10    1.15
   9  -5   4    1.16    1.01
  -9  -5  -4    3.36    1.36
  -9   5  -4    3.31    0.72
  -9   5  -4    2.22    0.94
   9   5   4    3.32    1.38
  -9   5  -4    3.03    0.58
  -9   5  -4    3.21    0.72
   9   5   4    1.22    1.29
  -9   5  -4    3.11    0.66
 -11  -5  -4    6.60    1.76
  11  -5   4    5.51    1.37
 -11  -5  -4    6.75    1.34
 -11  -5  -4    4.08    1.48
 -11  -5  -4    4.21    1.24
 -11  -5  -4    5.72    1.65
 -11   5  -4    8.14    1.16
  11   5   4    6.36    1.54
 -11   5  -4    6.51    0.99
  11   5   4    8.41    1.88
 -11   5  -4    3.48    1.19
 -13  -5  -4    2.05    1.15
 -13  -5  -4    2.51    1.51
 -13  -5  -4    5.93    2.20
 -13  -5  -4    7.01    1.98
 -13  -5  -4    5.33    1.44
 -13   5  -4    2.89    0.84
 -13   5  -4    1.69    1.14
  13   5   4    4.06    1.94
 -15  -5  -4    3.43    1.60
 -15  -5  -4    4.16    2.74
 -15  -5  -4    2.58    1.78
 -15  -5  -4    2.61    1.28
 -15   5  -4    3.65    1.51
  15   5   4    6.89    2.26
 -17  -5  -4    7.01    2.81
 -17  -5  -4    0.78    1.71
 -17  -5  -4   -2.44    1.97
 -17   5  -4    1.93    1.72
  17   5   4   -3.29    2.49
  20  -6  -4   15.49    2.35
 -20  -6   4   10.20    3.10
  20   6  -4   12.24    2.91
 -20   6   4   10.63    4.45
  20   6  -4    4.93    3.06
 -20   6   4   12.01    2.37
  18  -6  -4    2.37    1.60
 -18  -6   4    6.98    2.72
 -18  -6   4    1.59    2.39
 -18   6   4    4.91    1.64
 -18   6   4    0.96    1.89
  16  -6  -4   27.03    3.05
 -16  -6   4   24.19    3.56
  16  -6  -4   27.79    2.78
 -16  -6   4   31.81    3.95
 -16  -6   4   27.36    3.26
 -16   6   4   24.83    3.13
  16   6  -4   25.70    3.66
  16   6  -4   25.53    3.51
 -16   6   4   23.12    2.86
 -14  -6   4    6.74    1.38
  14  -6  -4    3.17    1.07
  14  -6  -4    1.19    1.30
  14  -6  -4    2.45    1.30
 -14  -6   4    3.34    1.77
 -14  -6   4    4.17    1.63
 -14  -6   4    8.23    2.84
 -14  -6   4    0.42    1.69
  14  -6  -4    3.93    1.59
 -14   6   4    2.53    1.40
  14   6  -4   -0.22    1.59
  14   6  -4    4.08    2.00
 -14   6   4    1.77    1.20
  14   6  -4    1.80    1.68
  12  -6  -4   49.39    3.05
  12  -6  -4   50.58    2.61
 -12  -6   4   47.83    3.26
  12  -6  -4   45.81    3.35
 -12  -6   4   52.89    4.70
 -12  -6   4   51.37    3.35
  12  -6  -4   50.83    3.01
 -12  -6   4   55.34    4.47
 -12  -6   4   53.55    3.33
  12   6  -4   48.96    3.64
 -12   6   4   50.51    3.13
  12   6  -4   51.61    4.07
 -12   6   4   48.09    3.10
  12   6  -4   45.54    3.57
  10  -6  -4   20.59    2.24
  10  -6  -4   18.89    2.37
 -10  -6   4   20.61    2.20
 -10  -6   4   19.37    3.57
  10  -6  -4   18.93    1.32
 -10  -6   4   18.08    2.19
 -10  -6   4   22.63    2.49
  10  -6  -4   20.41    1.84
  10  -6  -4   22.40    2.06
  10   6  -4   19.18    2.59
 -10   6   4   20.57    2.09
  10   6  -4   21.17    3.19
  10   6  -4   18.79    2.60
 -10   6   4   21.64    1.99
  -8  -6   4   39.20    2.87
   8  -6  -4   38.99    2.91
   8  -6  -4   39.17    1.91
   8  -6  -4   42.10    2.32
   8  -6  -4   38.43    2.39
  -8  -6   4   38.11    3.88
   8  -6  -4   39.94    2.79
  -8  -6   4   40.20    2.36
  -8  -6   4   35.98    2.59
   8   6  -4   38.38    2.81
   8   6  -4   41.74    2.87
  -8   6   4   35.27    2.48
   8   6  -4   38.23    3.56
   6  -6  -4   41.72    2.38
   6  -6  -4   42.54    2.76
   6  -6  -4   41.65    2.97
   6  -6  -4   44.52    1.66
   6  -6  -4   38.68    2.40
  -6  -6   4   40.53    3.14
  -6  -6   4   42.54    2.56
  -6  -6   4   34.42    3.59
   6  -6  -4   40.35    2.47
   6   6  -4   42.68    2.67
  -6   6   4   39.72    2.45
   6   6  -4   38.98    3.38
  -6   6   4   39.58    1.50
   6   6  -4   40.28    2.60
  -6   6   4   42.83    2.59
   4  -6  -4   59.04    3.49
  -4  -6   4   57.46    3.50
   4  -6  -4   63.05    2.91
  -4  -6   4   55.80    4.16
  -4  -6   4   61.43    2.95
   4  -6  -4   58.84    2.88
   4  -6  -4   60.69    2.76
   4  -6  -4   57.80    3.20
   4  -6  -4   57.59    2.90
   4  -6  -4   59.40    3.39
  -4   6   4   58.17    3.06
   4   6  -4   59.43    4.13
   4   6  -4   58.87    2.94
  -4   6   4   57.65    2.98
   4   6  -4   66.85    2.77
   4   6  -4   59.62    2.95
  -2  -6   4   34.47    2.97
   2  -6  -4   34.89    2.16
   2  -6  -4   36.65    1.69
   2  -6  -4   35.49    2.23
   2  -6  -4   35.61    2.08
  -2  -6   4   34.29    3.17
  -2  -6   4   33.92    2.14
   2  -6  -4   33.59    2.20
   2  -6  -4   35.22    2.54
   2   6  -4   34.95    2.27
   2   6  -4   33.17    3.33
   2   6  -4   33.45    2.03
  -2   6   4   32.29    2.23
  -2   6   4   35.36    2.31
   2   6  -4   37.93    2.78
   0  -6  -4   27.23    2.08
   0  -6   4   26.96    2.98
   0  -6  -4   26.00    1.72
   0  -6  -4   29.16    2.50
   0  -6  -4   26.24    2.06
   0  -6  -4   29.53    1.81
   0  -6   4   27.06    2.83
   0  -6   4   23.56    1.86
   0  -6  -4   25.02    2.00
   0   6   4   26.04    2.12
   0   6   4   24.47    2.00
   0   6  -4   26.71    1.64
   0   6  -4   25.49    3.03
   0   6  -4   25.35    1.72
   0   6  -4   27.77    1.63
  -2  -6  -4   84.25    3.78
   2  -6   4   74.48    4.43
  -2  -6  -4   81.91    4.05
  -2  -6  -4   81.74    3.54
  -2  -6  -4   82.86    3.78
   2  -6   4   81.00    4.29
  -2  -6  -4   82.22    3.49
   2  -6   4   81.04    3.51
  -2  -6  -4   79.18    3.30
  -2   6  -4   80.88    2.87
   2   6   4   79.65    3.74
  -2   6  -4   81.07    3.08
   2   6   4   81.09    3.79
  -2   6  -4   84.49    3.53
  -2   6  -4   86.06    4.24
   4  -6   4    6.34    1.19
  -4  -6  -4    6.14    0.90
   4  -6   4    4.98    1.52
  -4  -6  -4    8.77    1.38
  -4  -6  -4    4.81    1.28
  -4  -6  -4    5.91    1.39
  -4  -6  -4    7.35    1.40
   4  -6   4    7.56    1.61
  -4  -6  -4    6.57    1.26
  -4   6  -4    5.85    0.74
   4   6   4    6.97    1.40
  -4   6  -4    7.77    1.96
  -4   6  -4    5.44    0.68
  -4   6  -4    7.78    1.13
   4   6   4    5.90    1.36
  -4   6  -4    5.87    0.78
  -6  -6  -4   39.45    1.97
   6  -6   4   39.49    3.40
   6  -6   4   37.12    2.42
  -6  -6  -4   42.80    3.06
  -6  -6  -4   40.06    2.79
  -6  -6  -4   37.47    2.78
   6  -6   4   38.96    2.41
  -6  -6  -4   38.56    2.80
  -6  -6  -4   37.35    2.55
  -6   6  -4   40.01    2.14
  -6   6  -4   46.93    2.71
   6   6   4   39.10    2.84
  -6   6  -4   39.06    1.62
   6   6   4   36.06    2.76
  -6   6  -4   41.59    2.61
  -6   6  -4   38.36    1.53
   8  -6   4    7.47    1.40
   8  -6   4    7.39    1.26
  -8  -6  -4    7.23    1.13
  -8  -6  -4    9.52    1.84
  -8  -6  -4    9.96    1.81
  -8  -6  -4    7.93    1.43
   8  -6   4    6.96    1.77
  -8  -6  -4    6.91    1.41
  -8  -6  -4    8.02    1.56
  -8   6  -4    9.36    0.86
  -8   6  -4    8.55    0.97
   8   6   4    9.58    1.78
   8   6   4    9.20    1.70
  -8   6  -4    9.91    1.14
  -8   6  -4    6.63    1.23
 -10  -6  -4   24.52    3.06
  10  -6   4   15.40    2.00
 -10  -6  -4   17.25    2.07
 -10  -6  -4   17.96    2.22
 -10  -6  -4   17.80    2.60
 -10  -6  -4   18.88    2.64
  10  -6   4   17.38    2.22
  10   6   4   17.59    2.74
 -10   6  -4   16.17    2.06
  10   6   4   23.55    2.97
 -10   6  -4   18.30    1.21
 -10   6  -4   17.60    1.53
 -10   6  -4   21.53    1.55
 -12  -6  -4    4.26    2.01
  12  -6   4   -0.81    1.29
 -12  -6  -4    1.27    1.78
 -12  -6  -4    0.47    1.50
 -12  -6  -4    0.34    1.18
 -12  -6  -4    0.10    1.32
  12   6   4    0.45    1.78
  12   6   4    1.31    1.70
 -12   6  -4   -0.47    1.08
 -12   6  -4   -0.88    0.76
 -14  -6  -4   25.06    3.96
 -14  -6  -4   22.25    3.61
 -14  -6  -4   20.87    2.67
 -14   6  -4   18.14    2.85
  14   6   4   30.51    4.01
 -16  -6  -4   -2.58    1.62
 -16  -6  -4   -0.95    2.19
 -16  -6  -4   -0.40    2.14
 -16   6  -4    1.77    1.22
  16   6   4    5.69    2.43
 -17  -7   4   22.34    3.17
  17  -7  -4   16.48    2.77
 -17  -7   4   18.36    3.02
  17   7  -4   13.50    2.90
 -17   7   4   24.25    3.27
  17   7  -4   20.43    3.10
 -17   7   4   23.86    3.22
 -15  -7   4    4.22    1.44
  15  -7  -4    2.66    1.40
 -15  -7   4    2.99    1.74
 -15  -7   4    0.87    1.84
  15   7  -4    6.55    2.49
  15   7  -4    0.89    2.09
  15   7  -4    5.15    2.34
 -15   7   4    2.82    1.44
 -15   7   4    2.61    1.51
 -13  -7   4   24.53    2.78
  13  -7  -4   28.33    2.67
 -13  -7   4   32.52    2.81
  13  -7  -4   24.80    2.41
 -13  -7   4   24.71    2.87
  13   7  -4   23.43    3.38
 -13   7   4   29.91    2.69
  13   7  -4   28.09    3.81
 -13   7   4   27.93    2.71
  13   7  -4   21.64    3.14
 -11  -7   4   14.55    2.45
  11  -7  -4   12.85    1.98
  11  -7  -4   10.82    1.86
  11  -7  -4   11.42    1.76
 -11  -7   4   15.61    2.31
 -11  -7   4   14.50    3.09
 -11  -7   4   12.44    1.78
  11   7  -4    9.58    1.95
  11   7  -4    8.15    1.98
 -11   7   4   12.47    1.83
  11   7  -4    9.44    2.32
 -11   7   4   11.30    1.70
  -9  -7   4   64.88    5.09
  -9  -7   4   62.15    3.03
   9  -7  -4   62.61    3.52
  -9  -7   4   59.64    3.87
  -9  -7   4   55.42    3.29
   9  -7  -4   63.47    2.63
   9  -7  -4   61.19    3.24
   9   7  -4   59.38    4.59
   9   7  -4   58.81    3.65
  -9   7   4   58.45    3.30
   9   7  -4   57.16    3.64
  -9   7   4   60.61    3.33
   7  -7  -4    4.12    1.11
  -7  -7   4    4.85    1.74
  -7  -7   4    4.00    1.25
   7  -7  -4    5.92    1.39
  -7  -7   4    3.66    2.05
   7  -7  -4    4.54    0.97
   7  -7  -4    4.31    1.08
   7   7  -4    4.32    1.39
   7   7  -4    4.66    1.50
  -7   7   4    3.41    1.00
   7   7  -4    5.78    2.41
  -7   7   4    6.12    1.32
   5  -7  -4   93.07    4.49
   5  -7  -4   91.32    3.98
   5  -7  -4   94.12    3.86
  -5  -7   4   94.70    4.83
  -5  -7   4   88.08    5.56
  -5  -7   4   86.42    3.93
   5  -7  -4  101.02    3.63
  -5   7   4   93.62    4.09
   5   7  -4   87.47    4.06
   5   7  -4   92.77    4.08
   5   7  -4   95.03    5.46
  -5   7   4   87.04    4.02
  -3  -7   4    9.62    1.90
   3  -7  -4   10.56    1.74
   3  -7  -4   11.17    1.63
   3  -7  -4    8.09    1.27
  -3  -7   4    7.10    1.96
   3  -7  -4    7.37    1.79
   3  -7  -4    9.62    1.34
   3  -7  -4    8.25    1.67
  -3  -7   4   10.29    1.53
  -3   7   4    9.14    1.49
   3   7  -4    9.15    1.56
  -3   7   4    9.40    1.66
   3   7  -4    8.72    2.45
   3   7  -4    9.40    1.38
   1  -7  -4   80.55    3.01
   1  -7  -4   78.49    3.47
   1  -7  -4   80.43    3.44
  -1  -7   4   77.97    4.40
   1  -7  -4   78.80    3.59
  -1  -7   4   77.73    3.45
   1  -7  -4   78.35    3.66
  -1  -7   4   77.81    4.93
   1   7  -4   78.56    4.83
  -1   7   4   75.17    3.62
   1   7  -4   82.03    3.01
   1   7  -4   72.98    3.24
  -1   7   4   77.51    3.75
   1   7  -4   78.34    3.21
   1  -7   4   12.89    2.30
  -1  -7  -4   11.92    1.91
  -1  -7  -4   12.09    1.96
  -1  -7  -4   12.44    1.82
  -1  -7  -4   10.71    1.50
   1  -7   4   11.44    1.47
   1  -7   4   12.24    1.99
  -1  -7  -4   12.10    1.38
  -1  -7  -4   12.36    1.77
  -1   7  -4   11.54    1.59
   1   7   4   10.72    1.73
  -1   7  -4   11.82    1.11
  -1   7  -4    8.64    1.25
   1   7   4   12.38    1.87
  -1   7  -4   14.01    2.45
  -3  -7  -4   50.19    3.10
   3  -7   4   47.71    2.70
  -3  -7  -4   51.33    2.94
  -3  -7  -4   50.99    3.36
  -3  -7  -4   53.06    2.86
   3  -7   4   51.20    3.84
  -3  -7  -4   52.31    2.50
  -3  -7  -4   54.62    3.17
   3  -7   4   48.88    3.58
   3   7   4   49.15    2.97
  -3   7  -4   52.49    3.70
  -3   7  -4   51.02    2.73
   3   7   4   50.89    3.10
  -3   7  -4   47.74    1.84
   5  -7   4    2.85    1.48
  -5  -7  -4    3.24    1.37
  -5  -7  -4    4.53    1.38
  -5  -7  -4    2.96    1.27
   5  -7   4    4.50    1.24
   5  -7   4    5.73    1.91
   5  -7   4    3.46    1.20
  -5  -7  -4    5.62    1.30
  -5  -7  -4    3.92    1.32
  -5  -7  -4    3.38    0.89
  -5   7  -4    5.95    1.62
  -5   7  -4    2.30    0.86
   5   7   4    3.10    1.11
   5   7   4    4.22    1.41
  -5   7  -4    4.25    0.99
  -7  -7  -4   34.40    3.44
   7  -7   4   33.27    3.57
   7  -7   4   26.71    2.38
  -7  -7  -4   33.57    2.82
  -7  -7  -4   32.38    2.03
   7  -7   4   27.63    2.38
  -7  -7  -4   28.44    2.78
   7  -7   4   37.11    2.94
  -7  -7  -4   36.65    2.93
  -7  -7  -4   31.38    2.47
   7   7   4   30.15    2.89
   7   7   4   30.11    3.06
  -7   7  -4   31.44    1.99
  -7   7  -4   41.19    3.36
  -7   7  -4   30.48    2.39
   9  -7   4    8.47    1.62
  -9  -7  -4    6.44    1.58
  -9  -7  -4    5.49    1.51
  -9  -7  -4    9.71    2.19
   9  -7   4    5.03    1.38
  -9  -7  -4   10.14    2.01
  -9  -7  -4    6.96    1.64
   9   7   4   11.12    2.01
   9   7   4    8.46    2.12
  -9   7  -4    6.46    1.31
  -9   7  -4    8.07    1.16
 -11  -7  -4   15.06    2.62
  11  -7   4   13.74    2.14
 -11  -7  -4    9.47    1.89
 -11  -7  -4    7.81    1.93
  11  -7   4    7.47    1.60
 -11  -7  -4    8.37    1.68
 -11   7  -4    8.96    1.19
 -11   7  -4    9.05    1.58
 -11   7  -4    8.09    1.10
  11   7   4   13.18    2.30
 -11   7  -4    7.51    1.13
 -13  -7  -4    5.43    1.80
 -13  -7  -4    1.16    1.44
 -13  -7  -4    1.73    1.95
 -13  -7  -4    8.62    2.88
 -13  -7  -4    5.47    2.40
 -13   7  -4    1.87    1.02
  13   7   4   -1.54    2.29
 -13   7  -4    3.94    1.47
 -15  -7  -4    6.92    2.11
 -15  -7  -4    2.35    2.36
  15   7   4    9.92    2.63
 -16  -8   4   25.11    3.17
  16   8  -4   28.01    4.25
 -14  -8   4    4.25    1.76
  14  -8  -4    0.30    1.58
 -14  -8   4    2.21    1.54
  14  -8  -4    2.33    1.57
  14   8  -4   -2.66    1.97
  14   8  -4   -2.96    1.85
 -14   8   4    2.11    1.44
  14   8  -4    3.44    2.51
 -12  -8   4   16.59    2.76
 -12  -8   4   14.25    1.97
  12  -8  -4   13.38    2.08
 -12  -8   4   19.20    2.60
  12  -8  -4   17.19    2.35
  12   8  -4   13.53    2.52
  12   8  -4   15.85    2.57
  12   8  -4   15.22    3.12
 -12   8   4   14.63    2.39
 -10  -8   4    3.92    1.59
  10  -8  -4    3.45    1.48
 -10  -8   4    7.59    2.84
 -10  -8   4    3.93    1.38
  10  -8  -4    3.36    1.15
 -10  -8   4    4.99    1.94
  10   8  -4    1.69    1.68
  10   8  -4    1.30    2.53
 -10   8   4    4.97    1.25
 -10   8   4    3.73    1.29
  10   8  -4    3.10    1.75
  -8  -8   4    6.93    2.73
  -8  -8   4    8.40    2.07
  -8  -8   4   11.50    1.80
   8  -8  -4    9.88    1.39
   8  -8  -4    7.83    1.39
   8  -8  -4    9.09    1.75
   8  -8  -4   10.30    1.64
   8   8  -4    7.65    2.52
  -8   8   4    8.47    1.55
   8   8  -4    8.22    1.78
   8   8  -4    7.62    1.84
  -8   8   4    8.47    1.51
  -6  -8   4   13.91    1.85
  -6  -8   4   12.06    2.75
   6  -8  -4   13.77    1.80
   6  -8  -4   12.57    1.85
   6  -8  -4    9.83    1.75
  -6  -8   4   12.35    2.27
   6  -8  -4   12.68    1.79
   6   8  -4   10.10    2.95
  -6   8   4   10.89    1.79
   6   8  -4   12.91    1.81
  -6   8   4   10.25    1.69
   6   8  -4    7.71    1.78
  -4  -8   4   17.36    1.83
   4  -8  -4   14.98    2.39
   4  -8  -4   20.40    1.91
   4  -8  -4   17.65    1.88
  -4  -8   4   16.22    2.47
  -4  -8   4   17.42    3.66
   4  -8  -4   19.57    1.87
  -4   8   4   18.55    2.12
   4   8  -4   16.27    1.93
   4   8  -4   18.86    3.34
  -4   8   4   15.26    1.80
   4   8  -4   18.65    2.08
  -2  -8   4    6.88    2.34
   2  -8  -4    6.20    1.16
   2  -8  -4    7.29    1.31
  -2  -8   4    6.58    1.24
   2  -8  -4    7.34    1.36
   2  -8  -4    5.37    1.44
   2  -8  -4    4.34    2.01
  -2  -8   4    5.03    1.88
  -2   8   4    7.42    1.44
  -2   8   4    4.13    1.12
   2   8  -4    7.46    1.18
   2   8  -4    5.19    2.45
   0  -8  -4    5.68    1.28
   0  -8   4    7.87    1.38
   0  -8  -4    8.75    2.59
   0  -8  -4    5.50    1.44
   0  -8   4    5.35    2.14
   0  -8  -4    5.94    1.04
   0  -8   4    5.07    1.85
   0  -8  -4    7.58    1.49
   0   8   4    6.81    1.43
   0   8  -4    4.16    1.27
   0   8   4    6.34    1.35
   0   8  -4    6.31    0.96
   0   8  -4    5.43    2.48
   2  -8   4   27.50    3.50
  -2  -8  -4   24.38    2.60
  -2  -8  -4   25.44    1.95
   2  -8   4   25.55    2.14
  -2  -8  -4   25.37    2.31
   2  -8   4   24.89    3.09
  -2  -8  -4   24.51    2.34
  -2  -8  -4   26.90    2.71
  -2   8  -4   23.13    1.28
   2   8   4   27.94    2.67
   2   8   4   26.46    2.40
  -2   8  -4   21.50    3.59
  -2   8  -4   29.54    1.28
  -2   8  -4   24.82    2.13
  -4  -8  -4    1.29    0.82
  -4  -8  -4    0.69    1.33
  -4  -8  -4    4.28    1.32
   4  -8   4    1.31    1.06
   4  -8   4    1.20    1.62
   4  -8   4    1.71    1.49
   4  -8   4    0.33    1.19
  -4   8  -4    0.32    0.86
  -4   8  -4    1.69    1.80
   4   8   4    0.78    1.35
   4   8   4    1.69    1.11
  -6  -8  -4   13.39    1.94
  -6  -8  -4    9.20    1.76
  -6  -8  -4   12.08    1.93
   6  -8   4   14.73    2.65
   6  -8   4   11.92    1.77
  -6  -8  -4   10.71    1.60
   6  -8   4   20.45    2.90
  -6  -8  -4   10.81    2.09
   6  -8   4   11.31    1.72
   6   8   4   15.60    2.61
   6   8   4   15.17    2.63
  -6   8  -4   14.38    1.92
  -6   8  -4   10.77    1.42
  -8  -8  -4    2.90    1.39
   8  -8   4    3.38    1.42
  -8  -8  -4    2.21    1.43
   8  -8   4    4.03    2.05
  -8  -8  -4    4.85    2.09
   8  -8   4    6.28    1.68
  -8  -8  -4    2.19    1.62
  -8  -8  -4    1.62    1.01
   8  -8   4    1.23    1.28
   8   8   4    6.27    1.79
  -8   8  -4    1.02    0.90
   8   8   4    7.03    2.02
  -8   8  -4    1.85    1.10
 -10  -8  -4   12.37    2.72
  10  -8   4    3.77    1.60
  10  -8   4    6.42    1.79
 -10  -8  -4    3.59    1.92
 -10  -8  -4    6.18    1.67
  10   8   4    9.15    2.25
  10   8   4    9.59    3.64
 -10   8  -4    5.23    1.37
 -10   8  -4    5.01    1.11
 -12  -8  -4    1.89    1.58
 -12  -8  -4   -1.10    1.43
  12   8   4    4.71    2.35
  12   8   4    2.21    2.32
 -15  -9   4    5.61    2.80
 -15  -9   4    6.01    2.66
  15  -9  -4    1.00    1.74
 -15   9   4    3.21    1.59
  15   9  -4    9.01    3.01
 -13  -9   4   21.02    2.98
  13  -9  -4   14.08    2.37
 -13  -9   4   13.37    2.48
  13  -9  -4   18.52    2.72
 -13   9   4   13.33    2.00
  13   9  -4    9.60    2.74
  13   9  -4    8.15    2.66
 -13   9   4   14.69    2.23
 -11  -9   4    5.14    2.00
  11  -9  -4    4.24    1.90
  11  -9  -4    4.05    1.58
 -11   9   4    3.91    1.70
  11   9  -4    2.56    2.08
  11   9  -4    9.31    3.04
  11   9  -4    4.71    2.27
 -11   9   4    6.58    1.58
   9  -9  -4   18.92    2.20
  -9  -9   4   20.74    2.46
   9  -9  -4   20.42    2.91
  -9  -9   4   29.55    4.64
  -9  -9   4   22.75    3.54
   9   9  -4   15.83    3.37
  -9   9   4   22.34    2.31
   9   9  -4   18.48    2.62
  -9   9   4   15.93    2.55
   9   9  -4   15.05    2.44
  -7  -9   4    2.97    1.41
   7  -9  -4    4.88    1.63
   7  -9  -4    4.12    1.40
  -7  -9   4    0.93    2.00
  -7  -9   4    7.58    2.88
  -7   9   4    2.22    1.08
   7   9  -4    3.73    2.99
   7   9  -4    0.83    1.53
   7   9  -4    0.44    1.71
  -7   9   4    5.59    1.50
   5  -9  -4   39.88    2.56
   5  -9  -4   37.68    3.26
  -5  -9   4   41.57    3.99
  -5  -9   4   40.41    2.72
   5  -9  -4   38.53    2.72
   5  -9  -4   36.47    2.60
  -5  -9   4   41.50    4.88
   5   9  -4   38.25    5.04
   5   9  -4   33.15    2.91
  -5   9   4   36.86    2.69
   5   9  -4   29.66    3.48
  -5   9   4   40.37    2.96
   3  -9  -4    4.32    1.61
   3  -9  -4    5.30    1.24
   3  -9  -4    4.15    1.22
  -3  -9   4    4.80    1.25
   3  -9  -4    4.37    1.32
  -3  -9   4   10.11    2.94
  -3  -9   4    3.81    1.92
  -3   9   4    3.96    1.24
   3   9  -4    2.47    1.16
   3   9  -4    1.87    1.52
   3   9  -4    3.97    3.11
  -3   9   4    4.33    1.50
   1  -9  -4   26.87    4.07
  -1  -9   4   26.77    4.17
   1  -9  -4   29.48    2.28
   1  -9  -4   29.53    2.48
  -1  -9   4   28.76    2.36
   1  -9  -4   34.17    2.64
  -1  -9   4   30.81    3.70
   1  -9  -4   26.03    2.74
   1   9  -4   30.55    2.05
   1   9  -4   25.46    4.64
  -1   9   4   32.26    2.91
  -1   9   4   29.24    2.56
   1  -9   4    7.30    1.45
  -1  -9  -4    9.86    1.79
   1  -9   4    8.32    2.59
  -1  -9  -4    5.15    1.44
  -1  -9  -4    2.88    2.72
   1  -9   4    7.80    1.98
  -1  -9  -4    6.93    1.32
  -1  -9  -4    6.30    1.81
   1   9   4    6.83    1.71
  -1   9  -4    6.68    2.85
   1   9   4    6.40    1.46
  -1   9  -4    6.93    0.90
  -3  -9  -4   20.38    2.48
   3  -9   4   22.81    3.61
  -3  -9  -4   15.55    1.88
   3  -9   4   25.01    3.31
   3  -9   4   18.18    2.23
   3  -9   4   17.59    2.59
  -3  -9  -4   19.71    2.90
  -3  -9  -4   23.98    2.86
  -3  -9  -4   15.81    4.39
  -3   9  -4   19.11    2.03
   3   9   4   21.80    2.92
   3   9   4   16.31    2.45
  -3   9  -4   17.06    3.22
  -5  -9  -4    2.52    1.34
  -5  -9  -4    1.38    1.45
   5  -9   4    6.57    1.97
   5  -9   4    3.82    2.24
   5  -9   4    2.44    1.53
  -5  -9  -4    2.26    3.28
   5  -9   4    3.84    1.46
  -5  -9  -4    3.85    1.97
  -5  -9  -4    3.32    1.11
   5   9   4    3.64    1.93
  -5   9  -4    2.35    1.03
   5   9   4    1.44    1.37
  -5   9  -4    2.47    1.08
  -5   9  -4    1.92    1.99
  -7  -9  -4   17.20    2.40
  -7  -9  -4   10.82    2.44
   7  -9   4   15.95    3.00
  -7  -9  -4   14.22    1.67
   7  -9   4   11.55    2.03
  -7  -9  -4   11.12    1.91
  -7  -9  -4   20.87    3.09
   7  -9   4   16.30    2.17
  -7   9  -4   13.04    1.78
  -7   9  -4   15.54    2.18
   7   9   4   18.53    3.22
   7   9   4   19.88    3.11
  -9  -9  -4    3.98    1.84
  -9  -9  -4    0.48    2.17
   9  -9   4    4.55    2.49
   9  -9   4    2.03    1.66
   9  -9   4    6.86    1.85
  -9  -9  -4   10.31    2.92
  -9   9  -4    2.54    1.85
   9   9   4    6.70    2.11
 -11  -9  -4    0.50    2.59
 -11  -9  -4    5.86    1.95
 -11  -9  -4    5.11    1.91
  11  -9   4    1.77    1.87
  11  -9   4    2.82    1.99
 -11   9  -4    1.68    1.43
  11   9   4    8.89    2.86
  12 -10  -4    8.23    2.56
 -12 -10   4   12.38    2.59
  12 -10  -4   14.36    2.35
 -12 -10   4   22.33    3.26
  12  10  -4    8.37    2.71
 -12  10   4   11.90    2.04
  12  10  -4   16.90    3.97
  12  10  -4   12.38    3.18
 -12  10   4   14.37    2.37
 -10 -10   4   11.22    2.62
  10 -10  -4   10.12    2.44
  10 -10  -4   13.30    2.22
 -10 -10   4   19.50    2.93
 -10  10   4   11.11    2.10
  10  10  -4    6.97    2.54
  10  10  -4    7.59    2.44
  10  10  -4   14.65    3.90
 -10  10   4   14.89    2.40
   8 -10  -4   15.23    2.63
  -8 -10   4   17.34    2.63
   8 -10  -4   15.54    2.31
   8  10  -4   14.98    4.26
  -8  10   4   16.71    2.48
   8  10  -4   14.77    2.54
   8  10  -4   13.77    2.68
  -8  10   4   17.03    2.92
  -6 -10   4   15.22    2.31
   6 -10  -4   16.99    2.40
   6 -10  -4   15.89    2.57
  -6 -10   4   23.13    4.71
  -6 -10   4   12.69    2.83
   6  10  -4   10.22    3.90
  -6  10   4   15.75    2.28
   6  10  -4   11.77    2.13
  -6  10   4   15.55    2.23
  -4 -10   4   24.12    4.96
  -4 -10   4   21.21    2.45
   4 -10  -4   19.11    2.40
  -4 -10   4   20.60    3.45
   4 -10  -4   17.13    2.65
   4  10  -4   24.13    4.69
   4  10  -4   16.65    2.42
  -4  10   4   21.70    2.43
   2 -10  -4   19.61    2.55
  -2 -10   4   16.55    3.00
  -2 -10   4   14.43    2.25
   2 -10  -4   18.36    2.22
   2 -10  -4   19.15    3.22
  -2 -10   4   21.13    4.10
   2  10  -4   15.06    4.13
  -2  10   4   22.78    2.91
   2  10  -4   15.11    1.82
  -2  10   4   14.26    2.39
   0 -10  -4    9.76    2.88
   0 -10  -4   10.70    2.29
   0 -10  -4   15.85    2.18
   0 -10   4   21.04    4.00
   0 -10   4   13.87    2.83
   0 -10   4   12.12    1.85
   0 -10  -4   15.62    2.08
   0  10  -4   12.88    1.58
   0  10   4   18.68    2.46
   0  10  -4   13.63    3.92
   0  10   4   16.11    2.79
   2 -10   4   31.98    4.94
  -2 -10  -4   24.02    2.44
  -2 -10  -4   24.24    3.31
   2 -10   4   15.92    2.49
   2 -10   4   27.95    3.95
  -2 -10  -4   22.57    4.18
  -2 -10  -4   21.17    2.79
  -2  10  -4   28.88    4.49
   2  10   4   24.67    2.81
  -2  10  -4   17.38    2.53
   2  10   4   26.39    3.39
   4 -10   4    7.68    1.81
  -4 -10  -4    7.76    2.06
   4 -10   4    8.10    2.42
   4 -10   4    5.40    1.99
   4 -10   4    7.26    2.87
  -4 -10  -4    0.62    3.93
  -4 -10  -4    4.49    1.47
  -4 -10  -4    8.21    2.33
  -4  10  -4    6.52    1.44
  -4  10  -4    5.69    1.34
  -4  10  -4   10.49    3.23
   4  10   4   10.03    1.96
   4  10   4   10.13    2.47
   6 -10   4    9.58    3.23
  -6 -10  -4   10.19    2.15
   6 -10   4   11.43    2.03
  -6 -10  -4   11.29    4.97
  -6 -10  -4   10.49    2.34
   6 -10   4    9.00    2.08
   6 -10   4   16.18    3.00
  -6 -10  -4    8.45    1.64
  -6  10  -4   15.02    2.02
  -6  10  -4    9.95    1.56
  -8 -10  -4    7.38    2.36
   8 -10   4    7.48    2.92
   8 -10   4    5.12    2.23
  -8 -10  -4    4.97    2.08
  -8 -10  -4    4.65    2.06
  -8 -10  -4    3.89    5.19
   8 -10   4    4.94    1.98
   8  10   4    6.81    2.24
  -9 -11   4    4.28    2.45
   9 -11  -4    4.59    1.86
   9 -11  -4    5.16    2.43
  -9 -11   4    4.81    2.01
  -9  11   4    6.27    2.03
  -9  11   4    5.51    1.73
   9  11  -4    3.93    4.00
  -7 -11   4    7.73    4.14
   7 -11  -4    6.08    2.27
  -7 -11   4    2.70    2.55
   7 -11  -4    5.25    1.67
  -7 -11   4    1.55    1.79
  -7  11   4    5.21    2.08
  -7  11   4    2.05    1.35
   7  11  -4   -1.31    3.85
  -5 -11   4   14.39    2.20
  -5 -11   4   22.77    4.82
   5 -11  -4   12.88    2.12
  -5 -11   4   13.81    3.08
   5 -11  -4   14.59    2.75
   5  11  -4   11.84    2.16
  -5  11   4   16.58    2.60
  -5  11   4   16.34    2.57
   5  11  -4   24.23    5.11
   3 -11  -4    0.80    2.08
  -3 -11   4    9.48    3.91
  -3 -11   4    5.41    2.70
   3 -11  -4    2.80    1.56
  -3 -11   4    1.78    1.54
   3  11  -4    0.96    4.17
  -3  11   4    2.98    1.33
  -3  11   4    2.45    1.92
   3  11  -4   -0.69    1.18
  -1 -11   4    9.31    1.93
   1 -11  -4    9.67    2.37
  -1 -11   4    7.80    2.68
   1 -11  -4    9.28    1.88
  -1 -11   4    9.72    4.00
  -1  11   4    8.88    1.81
   1  11  -4    1.86    4.71
  -1  11   4   11.67    2.64
   1 -11   4    3.34    3.37
   1 -11   4    1.71    1.65
   1 -11   4    6.22    2.44
  -1 -11  -4    1.50    2.50
  -1 -11  -4   -0.03    1.91
  -1 -11  -4    4.01    2.24
  -1  11  -4    3.14    0.77
   1  11   4    4.46    1.50
  -1  11  -4   -7.48    6.15
   1  11   4    8.67    4.42
   3 -11   4   13.50    3.50
   3 -11   4    7.59    1.95
   3 -11   4    7.43    2.50
  -3 -11  -4    2.97    2.26
  -3 -11  -4    6.67    2.16
  -3 -11  -4    2.93    4.03
  -3  11  -4    5.63    1.66
   3  11   4    6.43    1.72
  -3  11  -4    3.13    3.89
  -5 -11  -4   -5.81    7.93
   5 -11   4    8.73    2.49
   5 -11   4    4.62    3.21
  -5 -11  -4    2.75    1.87
  -5 -11  -4   -0.32    2.61
  -5 -11  -4   -2.87    2.01
  -5  11  -4    3.39    3.09
  -5  11  -4    1.58    1.44
   5  11   4    6.28    1.92
 -22   0   5   -1.95    2.21
  22   0  -5    2.77    2.00
  22   0  -5    4.32    2.24
 -22   0   5    0.47    2.47
  20   0  -5   28.32    3.33
 -20   0   5   27.25    4.05
  20   0  -5   26.72    3.32
 -20   0   5   27.57    3.94
 -18   0   5    5.32    2.03
  18   0  -5    2.84    1.56
  18   0  -5    5.53    1.87
  18   0  -5    4.16    1.76
 -18   0   5    3.91    2.01
 -16   0   5   73.08    4.34
 -16   0   5   74.36    3.22
 -16   0   5   63.63    4.10
  16   0  -5   62.68    3.75
 -16   0   5   62.07    4.15
  16   0  -5   57.59    4.01
  16   0  -5   58.63    3.19
  16   0  -5   66.21    4.27
 -14   0   5    0.51    1.31
  14   0  -5    0.89    0.83
  14   0  -5    0.83    1.35
 -14   0   5   -0.81    1.07
  14   0  -5   -0.81    0.89
  14   0  -5   -0.32    1.18
 -14   0   5    0.18    0.76
 -12   0   5  159.62    5.82
  12   0  -5  166.73    6.43
 -12   0   5  165.89    6.59
 -12   0   5  157.79    6.55
  12   0  -5  173.51    6.77
  12   0  -5  164.50    5.56
 -10   0   5   -0.74    0.83
  10   0  -5   -0.52    0.82
  10   0  -5   -1.16    0.87
  10   0  -5    0.11    0.82
 -10   0   5   -0.10    0.94
 -10   0   5    0.53    0.64
  10   0  -5   -1.19    0.94
   8   0  -5  181.50    6.59
   8   0  -5  190.85    6.10
   8   0  -5  185.85    6.62
   8   0  -5  180.22    6.91
  -8   0   5  189.95    6.41
  -8   0   5  193.43    6.75
  -8   0   5  156.17    7.19
  -8   0   5  194.42    6.77
   6   0  -5    5.86    1.53
  -6   0   5    5.33    1.05
  -6   0   5    5.36    1.05
   6   0  -5    3.68    0.71
   6   0  -5    4.29    1.18
  -6   0   5    3.66    0.93
   6   0  -5    3.59    0.87
  -4   0   5  206.29    7.44
  -4   0   5  209.53    7.05
   4   0  -5  201.64    6.74
   4   0  -5  220.41    7.62
   4   0  -5  209.62    7.11
   4   0  -5  205.61    7.04
  -4   0   5  207.74    6.86
  -4   0   5  215.21    7.06
  -2   0   5    7.43    0.96
   2   0  -5    7.98    1.14
  -2   0   5    6.79    1.03
   2   0  -5    7.53    1.16
   2   0  -5    9.04    1.05
   2   0  -5    6.94    1.28
  -2   0   5    8.36    1.15
  -2   0   5    8.07    1.30
   0   0  -5  222.84    7.38
   0   0   5  225.12    7.16
   0   0  -5  220.68    7.62
   0   0  -5  225.19    7.37
   0   0   5  222.85    7.28
   0   0   5  221.18    7.24
   0   0  -5  222.73    7.37
  -2   0  -5    6.81    1.02
  -2   0  -5    7.68    1.08
  -2   0  -5    6.81    1.12
  -2   0  -5    7.83    1.26
   2   0   5    8.80    1.15
  -2   0  -5    7.42    1.20
   2   0   5    7.76    1.04
   2   0   5    8.17    1.15
  -4   0  -5   67.59    3.01
   4   0   5   67.10    2.92
  -4   0  -5   66.85    2.90
   4   0   5   65.37    2.87
  -4   0  -5   62.39    2.94
  -4   0  -5   66.21    3.26
  -4   0  -5   65.39    3.02
   4   0   5   65.59    2.89
  -4   0  -5   65.71    2.96
  -6   0  -5   44.46    2.73
  -6   0  -5   41.22    2.39
  -6   0  -5   43.61    2.19
   6   0   5   43.22    2.37
   6   0   5   44.56    2.41
   6   0   5   42.33    2.29
  -6   0  -5   43.78    2.35
  -6   0  -5   46.29    2.52
  -6   0  -5   41.84    2.46
  -8   0  -5   26.91    2.41
  -8   0  -5   31.11    2.11
  -8   0  -5   31.46    2.42
  -8   0  -5   30.80    2.04
   8   0   5   31.38    2.06
  -8   0  -5   32.07    2.18
 -10   0  -5   12.18    1.69
  10   0   5   13.09    1.94
 -10   0  -5   11.40    1.80
 -10   0  -5    8.66    1.66
 -10   0  -5   10.25    1.50
  10   0   5   10.90    1.65
 -12   0  -5    7.29    1.53
 -12   0  -5   11.97    1.49
  12   0   5    7.24    1.63
 -14   0  -5   10.71    2.03
 -14   0  -5   12.82    2.21
  14   0   5    3.98    1.79
 -14   0  -5    6.75    1.88
 -14   0  -5    8.63    1.46
 -16   0  -5   -0.51    2.19
 -16   0  -5   -1.83    1.61
 -16   0  -5    0.81    1.21
 -16   0  -5    1.77    2.00
 -18   0  -5   27.11    4.37
  21  -1  -5    0.09    1.80
 -21  -1   5   -1.30    2.23
  21  -1  -5    0.69    1.97
  21   1  -5    2.63    2.04
 -21   1   5   -2.90    2.03
  21   1  -5    0.02    1.75
 -21   1   5    0.43    2.05
 -19  -1   5   28.69    3.84
  19  -1  -5   23.93    3.06
 -19  -1   5   22.59    3.86
  19  -1  -5   24.81    3.11
 -19   1   5   24.53    3.61
  19   1  -5   22.55    3.13
  19   1  -5   23.81    3.39
  19   1  -5   32.00    3.25
  19   1  -5   28.96    2.15
 -19   1   5   29.17    3.67
 -17  -1   5    1.10    1.75
 -17  -1   5   -0.64    1.59
 -17  -1   5    4.27    1.71
  17  -1  -5    1.85    1.35
  17  -1  -5   -0.28    1.63
  17  -1  -5    1.40    1.49
  17   1  -5    1.02    0.89
  17   1  -5    2.02    1.77
  17   1  -5    0.26    1.51
  17   1  -5    0.29    1.29
 -17   1   5   -0.63    1.48
 -17   1   5    2.20    1.63
 -17   1   5    4.40    1.50
 -15  -1   5   15.66    2.72
  15  -1  -5   22.88    2.45
 -15  -1   5   23.17    3.17
  15  -1  -5   21.45    1.79
  15  -1  -5   25.79    2.68
 -15  -1   5   21.99    2.81
  15  -1  -5   23.76    2.67
  15   1  -5   25.12    2.86
  15   1  -5   19.15    2.33
  15   1  -5   20.44    1.78
 -15   1   5   19.14    2.65
 -15   1   5   25.92    1.84
  15   1  -5   22.95    2.67
 -15   1   5   21.19    2.76
 -13  -1   5   15.39    2.47
  13  -1  -5   19.32    2.41
 -13  -1   5   18.05    2.53
  13  -1  -5   20.66    2.16
 -13  -1   5   19.95    2.09
  13   1  -5   16.82    2.46
  13   1  -5   18.97    1.72
  13   1  -5   18.26    2.40
  13   1  -5   16.94    2.10
 -13   1   5   17.02    2.36
 -13   1   5   19.32    1.31
 -13   1   5   17.03    2.40
  11  -1  -5   28.01    2.55
  11  -1  -5   25.21    2.15
  11  -1  -5   23.66    2.51
 -11  -1   5   23.78    2.45
 -11  -1   5   24.78    2.49
 -11  -1   5   24.73    2.55
 -11   1   5   27.92    1.53
 -11   1   5   24.71    2.50
  11   1  -5   23.87    2.43
  11   1  -5   22.29    2.51
 -11   1   5   28.22    2.45
  11   1  -5   26.27    2.22
  11   1  -5   22.70    2.06
  -9  -1   5   16.18    1.92
  -9  -1   5   17.32    2.00
   9  -1  -5   20.76    1.57
   9  -1  -5   18.43    1.81
   9  -1  -5   18.11    2.12
  -9  -1   5   16.96    1.96
   9  -1  -5   18.93    1.81
  -9  -1   5   17.21    1.76
   9   1  -5   18.24    1.83
  -9   1   5   17.70    1.32
   9   1  -5   17.92    1.82
  -9   1   5   17.52    2.02
   9   1  -5   19.41    2.31
   9   1  -5   20.18    2.22
  -7  -1   5   19.12    1.79
   7  -1  -5   21.87    1.78
  -7  -1   5   20.25    1.84
   7  -1  -5   19.31    1.91
  -7  -1   5   20.10    1.74
   7  -1  -5   19.43    1.74
   7  -1  -5   22.15    1.37
  -7  -1   5   16.15    2.03
  -7   1   5   19.74    1.40
   7   1  -5   19.75    1.74
  -7   1   5   17.77    1.76
   7   1  -5   18.17    2.07
  -7   1   5   21.74    1.88
  -7   1   5   20.78    1.63
   7   1  -5   20.86    1.93
   7   1  -5   21.56    1.57
  -5  -1   5   94.95    4.01
   5  -1  -5   92.49    4.20
   5  -1  -5   95.16    3.51
   5  -1  -5   95.67    3.97
  -5  -1   5   91.55    3.77
  -5  -1   5   98.94    3.80
   5  -1  -5   88.00    4.08
  -5  -1   5   96.54    3.88
   5   1  -5   98.57    3.92
   5   1  -5   95.70    3.63
  -5   1   5   93.24    3.85
   5   1  -5   95.78    3.87
   5   1  -5   89.90    4.64
  -5   1   5  100.58    3.94
   3  -1  -5    0.39    0.63
  -3  -1   5    0.01    0.69
  -3  -1   5    0.07    0.54
   3  -1  -5   -0.30    0.65
  -3  -1   5   -0.52    0.52
   3  -1  -5    0.53    0.80
   3  -1  -5    0.47    0.59
  -3  -1   5    0.23    0.75
  -3   1   5    1.10    0.51
   3   1  -5   -0.42    0.88
   3   1  -5    0.17    0.55
   3   1  -5   -0.73    0.66
  -3   1   5    1.02    0.68
  -3   1   5    0.01    0.59
   3   1  -5    0.59    0.61
   3   1  -5   -0.05    0.55
  -1  -1   5  120.36    4.92
   1  -1  -5  120.71    4.44
  -1  -1   5  115.38    4.15
   1  -1  -5  121.49    4.48
  -1  -1   5  120.22    4.28
  -1  -1   5  118.50    4.31
   1  -1  -5  121.56    4.75
   1  -1  -5  120.87    4.34
  -1   1   5  113.96    4.35
   1   1  -5  123.87    4.37
   1   1  -5  112.05    4.64
  -1   1   5  117.11    4.09
  -1   1   5  116.44    4.39
   1   1  -5  110.29    4.80
   1  -1   5    9.24    1.05
  -1  -1  -5    9.06    1.31
  -1  -1  -5    7.86    1.15
  -1  -1  -5    9.43    1.29
   1  -1   5    8.17    1.03
  -1  -1  -5    6.53    1.06
  -1  -1  -5    8.37    1.33
   1  -1   5    8.49    1.16
   1   1   5    7.20    1.06
  -1   1  -5    7.55    1.41
  -1   1  -5    8.20    1.09
  -1   1  -5    6.35    1.09
  -1   1  -5    6.28    1.07
   1   1   5    9.90    1.23
   1   1   5    8.39    1.29
  -1   1  -5    9.36    1.69
  -3  -1  -5  105.05    4.17
   3  -1   5  100.80    3.69
  -3  -1  -5  104.66    4.30
  -3  -1  -5  103.65    3.44
  -3  -1  -5  104.30    4.16
   3  -1   5  104.81    3.95
  -3  -1  -5  103.39    4.13
  -3  -1  -5  107.35    4.00
  -3   1  -5  107.74    4.38
   3   1   5  104.52    3.81
  -3   1  -5  104.55    3.96
  -3   1  -5  105.37    4.11
   3   1   5  104.21    4.04
  -3   1  -5  108.53    3.96
  -3   1  -5  102.62    3.95
  -3   1  -5  104.02    4.03
   3   1   5   99.44    5.24
   5  -1   5    0.61    0.83
   5  -1   5    0.13    0.68
  -5  -1  -5    0.54    0.27
  -5  -1  -5    0.78    0.81
   5  -1   5   -0.05    0.64
  -5  -1  -5    0.04    0.69
  -5  -1  -5   -0.04    0.76
  -5  -1  -5    0.40    0.76
  -5  -1  -5    0.06    0.75
  -5   1  -5    0.74    0.48
  -5   1  -5    1.01    0.62
  -5   1  -5    0.21    0.67
  -5   1  -5    0.51    0.68
  -5   1  -5   -0.61    0.62
  -5   1  -5   -0.05    0.63
  -5   1  -5    0.06    0.64
   5   1   5    0.55    0.95
   5   1   5    0.52    0.76
  -7  -1  -5   85.24    4.31
  -7  -1  -5   81.79    3.74
  -7  -1  -5   83.32    3.75
  -7  -1  -5   82.44    3.54
  -7  -1  -5   83.29    4.04
   7  -1   5   82.67    3.59
   7  -1   5   88.94    3.27
  -7   1  -5   83.80    3.22
  -7   1  -5   81.21    3.55
  -7   1  -5   84.84    4.03
   7   1   5   83.52    3.65
  -7   1  -5   86.23    4.40
   7   1   5   81.83    3.65
  -7   1  -5   84.42    3.47
   7   1   5   86.52    3.47
   9  -1   5    0.87    0.83
   9  -1   5   -0.56    0.99
  -9  -1  -5    0.85    0.98
  -9  -1  -5    0.30    0.87
  -9  -1  -5    0.91    0.82
  -9  -1  -5    0.48    0.83
   9   1   5    0.34    0.84
  -9   1  -5    0.24    0.74
  -9   1  -5    0.20    0.89
  -9   1  -5    0.49    0.53
   9   1   5    0.40    1.00
  -9   1  -5    0.20    0.78
  -9   1  -5    0.64    0.71
 -11  -1  -5   32.55    2.87
  11  -1   5   26.27    2.32
 -11  -1  -5   27.41    2.65
 -11  -1  -5   29.37    2.61
 -11  -1  -5   28.80    2.15
  11   1   5   34.77    2.53
 -11   1  -5   27.12    2.01
 -11   1  -5   25.10    2.67
 -11   1  -5   26.02    2.46
 -11   1  -5   29.09    2.28
 -13  -1  -5    3.58    1.55
 -13  -1  -5    0.10    1.35
 -13  -1  -5    0.48    1.36
 -13  -1  -5    1.48    1.12
 -13   1  -5    0.86    1.32
 -13   1  -5    1.38    0.99
 -13   1  -5    3.21    1.30
 -13   1  -5    0.10    1.21
  13   1   5   -1.68    1.49
 -15  -1  -5   17.58    2.87
 -15  -1  -5    7.31    2.16
 -15  -1  -5    9.99    1.66
 -15  -1  -5   12.24    2.44
 -15   1  -5    9.98    2.26
 -15   1  -5   11.68    1.65
 -15   1  -5   12.80    2.26
 -15   1  -5   13.90    2.75
 -17  -1  -5    0.76    2.47
 -17  -1  -5   -0.23    1.92
 -17  -1  -5   -2.17    1.34
 -17   1  -5    4.43    2.49
 -17   1  -5   -1.54    1.30
 -17   1  -5   -1.95    1.70
  22  -2  -5   -0.87    1.72
 -22  -2   5    0.01    2.44
 -22  -2   5   -5.33    2.49
  22   2  -5    3.08    2.37
  22   2  -5    0.29    1.97
 -22   2   5   -1.74    2.32
  20  -2  -5   25.88    3.94
  20  -2  -5   14.81    2.64
  20  -2  -5   16.81    2.53
 -20  -2   5   13.74    3.05
  20   2  -5   22.92    3.62
 -20   2   5   16.07    2.79
  20   2  -5   15.52    2.28
  20   2  -5   17.08    2.77
 -20   2   5   17.76    3.10
  18  -2  -5    1.70    1.50
 -18  -2   5    1.40    1.88
  18  -2  -5    1.72    1.72
 -18  -2   5    4.37    1.88
 -18  -2   5    0.84    1.84
  18   2  -5   -1.96    1.52
 -18   2   5    0.99    1.81
 -18   2   5    0.68    1.58
  18   2  -5    0.37    1.46
  18   2  -5    2.84    1.83
  16  -2  -5   38.26    3.20
  16  -2  -5   37.97    3.13
 -16  -2   5   36.89    3.55
 -16  -2   5   41.57    3.58
 -16  -2   5   32.65    3.45
  16  -2  -5   37.05    2.98
 -16   2   5   38.05    3.37
  16   2  -5   33.12    3.13
  16   2  -5   40.40    3.54
  16   2  -5   35.95    3.06
 -16   2   5   33.76    3.27
 -14  -2   5    0.54    1.34
  14  -2  -5    3.06    0.71
 -14  -2   5    1.16    1.38
  14  -2  -5    2.05    1.21
  14  -2  -5    2.07    1.15
 -14  -2   5    3.02    1.42
  14  -2  -5    2.04    1.39
 -14  -2   5   -1.22    1.43
  14   2  -5    1.32    1.18
 -14   2   5    1.52    1.23
  14   2  -5    2.82    1.31
 -14   2   5    2.34    1.41
  14   2  -5    2.84    1.63
  12  -2  -5   97.48    4.42
  12  -2  -5   98.93    3.91
  12  -2  -5   99.29    4.73
 -12  -2   5  101.44    4.79
  12  -2  -5   94.41    4.61
 -12  -2   5   93.32    5.63
  12   2  -5  105.01    4.62
  12   2  -5  101.04    4.68
  12   2  -5  103.34    4.97
 -12   2   5   95.22    4.53
 -12   2   5   97.02    4.63
 -10  -2   5    8.33    1.51
  10  -2  -5    9.85    1.61
 -10  -2   5    9.68    1.67
  10  -2  -5    8.88    1.07
  10  -2  -5   10.30    1.78
  10  -2  -5    8.67    1.54
 -10  -2   5    9.81    1.72
 -10  -2   5    8.48    1.52
  10   2  -5   11.11    1.91
  10   2  -5    9.32    1.79
  10   2  -5    7.67    1.13
  10   2  -5   10.30    1.76
 -10   2   5    9.26    1.61
 -10   2   5   11.78    1.73
   8  -2  -5   90.76    3.57
   8  -2  -5   90.87    4.25
  -8  -2   5   92.91    4.01
  -8  -2   5   82.21    3.93
   8  -2  -5   86.69    3.59
  -8  -2   5   94.33    4.29
   8  -2  -5   92.61    3.93
   8  -2  -5   91.55    3.89
  -8  -2   5   94.91    4.05
   8   2  -5   89.72    4.05
  -8   2   5   94.48    3.77
   8   2  -5   90.52    4.30
   8   2  -5   85.00    3.95
  -8   2   5   91.88    4.09
  -8   2   5   93.02    4.06
   8   2  -5   86.06    3.58
   6  -2  -5    1.25    0.79
  -6  -2   5    0.48    0.79
  -6  -2   5    1.09    0.75
   6  -2  -5    0.90    0.97
  -6  -2   5    0.74    0.88
  -6  -2   5    1.43    0.95
   6  -2  -5    0.77    0.73
   6  -2  -5    0.68    0.61
   6   2  -5    1.15    0.81
   6   2  -5    0.06    0.90
  -6   2   5    0.78    0.80
   6   2  -5    1.17    0.83
   6   2  -5    1.66    0.80
  -6   2   5    1.26    0.64
   4  -2  -5  121.94    4.24
   4  -2  -5  121.19    4.60
  -4  -2   5  109.02    4.36
  -4  -2   5  119.69    4.40
  -4  -2   5  118.08    4.99
   4  -2  -5  125.34    4.99
   4  -2  -5  121.63    4.60
  -4  -2   5  118.96    4.48
  -4   2   5  119.48    4.13
   4   2  -5  119.82    4.38
   4   2  -5  119.53    4.56
  -4   2   5  121.54    4.65
   4   2  -5  115.84    4.50
  -4   2   5  115.71    4.59
   4   2  -5  117.64    5.06
   4   2  -5  125.37    4.64
  -2  -2   5    3.66    0.95
  -2  -2   5    2.34    0.91
   2  -2  -5    3.25    0.78
  -2  -2   5    3.52    0.68
   2  -2  -5    3.51    0.90
   2  -2  -5    3.33    0.88
   2   2  -5    2.76    0.78
   2   2  -5    3.58    1.17
  -2   2   5    3.34    0.62
   2   2  -5    3.87    0.85
   2   2  -5    2.01    0.73
  -2   2   5    2.32    0.83
   2   2  -5    2.92    0.75
  -2   2   5    2.94    0.81
   0  -2   5  128.42    4.62
   0  -2  -5  128.66    4.39
   0  -2  -5  125.73    4.97
   0  -2   5  124.36    5.38
   0  -2  -5  126.25    4.72
   0  -2  -5  127.97    4.54
   0  -2   5  127.01    4.36
   0  -2  -5  126.28    4.75
   0  -2   5  122.86    4.18
   0   2   5  126.76    4.76
   0   2  -5  126.96    4.59
   0   2   5  124.67    4.74
   0   2   5  128.34    4.25
   0   2  -5  126.52    4.56
   0   2  -5  128.79    4.53
   0   2  -5  129.12    4.98
   0   2  -5  124.15    4.55
  -2  -2  -5    2.53    0.88
  -2  -2  -5    1.87    0.46
  -2  -2  -5    2.24    0.81
   2  -2   5    2.80    0.64
  -2  -2  -5    1.95    0.91
   2  -2   5    1.57    0.79
  -2  -2  -5    2.53    0.95
  -2  -2  -5    3.01    0.83
   2  -2   5    1.35    0.94
   2  -2   5    1.97    0.78
   2  -2   5    2.41    0.56
   2   2   5    2.10    0.60
  -2   2  -5    2.43    0.66
   2   2   5    1.98    0.79
  -2   2  -5    2.13    0.69
  -2   2  -5    1.94    0.78
   2   2   5    0.87    0.82
  -2   2  -5    2.38    0.65
  -4  -2  -5   32.26    2.27
   4  -2   5   32.02    1.42
  -4  -2  -5   30.96    2.13
  -4  -2  -5   31.97    1.34
   4  -2   5   29.74    1.56
   4  -2   5   30.28    1.70
  -4  -2  -5   31.20    2.11
   4  -2   5   30.99    1.97
  -4  -2  -5   30.92    2.01
  -4  -2  -5   31.71    2.22
  -4   2  -5   31.82    1.85
  -4   2  -5   32.93    1.82
  -4   2  -5   30.96    1.75
  -4   2  -5   32.61    2.02
   4   2   5   32.84    1.76
   4   2   5   30.53    2.09
   4   2   5   28.71    2.17
  -4   2  -5   29.08    2.28
  -4   2  -5   33.18    1.96
  -6  -2  -5   19.44    1.92
  -6  -2  -5   20.08    1.97
  -6  -2  -5   20.96    1.98
   6  -2   5   19.07    1.78
  -6  -2  -5   19.98    1.81
  -6  -2  -5   21.87    1.78
   6   2   5   22.49    2.12
  -6   2  -5   19.82    1.54
  -6   2  -5   20.66    2.02
   6   2   5   23.68    1.96
  -6   2  -5   20.72    1.55
  -6   2  -5   23.63    1.55
  -6   2  -5   22.26    1.67
  -6   2  -5   21.12    1.70
  -8  -2  -5   16.16    1.62
  -8  -2  -5   15.81    1.92
  -8  -2  -5   17.34    2.17
  -8  -2  -5   17.39    1.98
   8  -2   5   19.24    1.77
  -8   2  -5   18.47    2.05
  -8   2  -5   15.61    1.56
   8   2   5   21.45    2.04
   8   2   5   15.52    2.12
  -8   2  -5   19.56    1.63
  -8   2  -5   20.24    1.86
  -8   2  -5   15.65    1.20
 -10  -2  -5    4.84    1.43
  10  -2   5    2.73    1.21
 -10  -2  -5    2.83    1.24
 -10  -2  -5    1.69    1.03
 -10  -2  -5    2.74    1.31
 -10   2  -5    3.73    1.00
 -10   2  -5    4.64    1.10
 -10   2  -5    1.31    1.03
  10   2   5    3.72    1.37
 -10   2  -5    3.78    0.95
 -12  -2  -5    7.45    1.87
 -12  -2  -5    4.84    1.28
 -12  -2  -5    6.92    1.76
 -12  -2  -5    5.50    1.53
 -12   2  -5    6.06    1.14
  12   2   5    9.37    1.72
 -12   2  -5    5.46    1.43
 -12   2  -5    7.54    1.40
 -12   2  -5    6.81    1.60
 -14  -2  -5   10.97    2.30
 -14  -2  -5   10.71    1.66
 -14  -2  -5    5.87    1.91
 -14  -2  -5   11.14    2.19
 -14   2  -5    7.19    1.28
 -14   2  -5    8.78    1.70
 -14   2  -5    9.96    1.98
 -14   2  -5    6.71    1.75
  14   2   5    5.32    2.02
 -16  -2  -5    2.05    1.44
 -16  -2  -5    1.09    1.87
 -16  -2  -5    2.24    2.71
 -16  -2  -5    3.16    3.29
 -16   2  -5   -2.19    1.20
 -16   2  -5    1.72    1.88
 -16   2  -5    0.50    2.05
 -16   2  -5   -1.36    1.59
  21  -3  -5    2.78    2.27
  21  -3  -5    0.73    1.66
  21  -3  -5    3.43    1.90
 -21  -3   5    2.46    2.49
 -21   3   5    0.38    2.18
 -21   3   5    1.04    2.21
  21   3  -5    1.70    2.18
  21   3  -5    2.36    2.01
  19  -3  -5   31.39    3.40
  19  -3  -5   29.07    3.04
 -19  -3   5   28.09    4.34
  19  -3  -5   29.56    3.01
 -19  -3   5   32.04    3.91
  19   3  -5   29.17    3.63
  19   3  -5   25.85    3.48
 -19   3   5   31.23    3.69
 -19   3   5   31.08    3.85
  17  -3  -5    7.67    1.62
 -17  -3   5    8.78    2.17
  17  -3  -5    6.31    1.75
 -17  -3   5    2.75    1.98
 -17  -3   5    2.74    2.00
  17  -3  -5    4.51    1.56
 -17   3   5    3.60    1.88
  17   3  -5    7.32    2.31
  17   3  -5    3.40    1.73
 -17   3   5    9.17    2.07
  17   3  -5    6.22    1.79
 -15  -3   5   30.29    3.67
  15  -3  -5   23.74    2.44
 -15  -3   5   23.67    2.96
  15  -3  -5   24.99    2.67
 -15  -3   5   34.86    3.64
  15  -3  -5   28.70    2.56
 -15  -3   5   23.61    3.45
 -15   3   5   22.56    2.75
 -15   3   5   26.78    2.80
  15   3  -5   28.64    2.84
  15   3  -5   32.14    3.23
  15   3  -5   24.80    2.84
 -13  -3   5   24.05    2.93
  13  -3  -5   17.27    1.94
  13  -3  -5   21.41    2.12
  13  -3  -5   20.61    2.22
 -13  -3   5   20.69    2.65
 -13  -3   5   21.03    2.68
  13  -3  -5   21.45    1.34
  13  -3  -5   20.86    2.37
  13   3  -5   20.77    2.81
 -13   3   5   18.27    2.29
  13   3  -5   20.74    2.34
 -13   3   5   21.52    2.39
  13   3  -5   21.39    2.46
  11  -3  -5   49.28    2.10
 -11  -3   5   48.99    3.57
 -11  -3   5   45.67    3.15
 -11  -3   5   53.24    3.25
  11  -3  -5   51.55    2.91
  11  -3  -5   50.13    2.91
  11  -3  -5   52.02    2.86
  11  -3  -5   47.40    3.18
 -11   3   5   48.08    3.09
  11   3  -5   46.38    3.47
  11   3  -5   49.12    3.03
  11   3  -5   49.01    3.08
 -11   3   5   46.16    3.03
   9  -3  -5   51.78    2.82
  -9  -3   5   49.77    3.01
  -9  -3   5   52.87    3.57
   9  -3  -5   49.63    2.18
  -9  -3   5   49.73    2.95
  -9  -3   5   50.05    3.04
   9  -3  -5   52.14    2.81
   9  -3  -5   49.00    3.18
   9  -3  -5   50.25    2.81
   9   3  -5   48.74    2.99
   9   3  -5   51.57    2.98
  -9   3   5   46.56    2.97
   9   3  -5   46.74    3.20
  -9   3   5   49.90    2.96
  -7  -3   5   26.19    2.11
   7  -3  -5   26.80    1.97
   7  -3  -5   28.08    2.02
  -7  -3   5   25.40    1.97
  -7  -3   5   27.53    2.73
   7  -3  -5   25.87    2.00
  -7  -3   5   27.34    2.10
   7  -3  -5   27.45    2.34
  -7   3   5   26.55    2.28
  -7   3   5   28.54    2.15
   7   3  -5   27.65    2.25
   7   3  -5   27.53    1.87
   7   3  -5   25.29    2.38
   7   3  -5   27.60    2.16
  -7   3   5   29.13    1.75
  -5  -3   5   80.76    3.23
   5  -3  -5   82.79    3.54
   5  -3  -5   81.91    3.89
   5  -3  -5   81.26    3.39
   5  -3  -5   82.64    3.13
   5  -3  -5   80.81    3.50
  -5  -3   5   78.62    3.35
  -5  -3   5   83.35    4.22
  -5  -3   5   78.37    3.50
   5   3  -5   79.28    3.53
  -5   3   5   79.00    3.64
   5   3  -5   80.28    3.52
  -5   3   5   81.39    2.98
  -5   3   5   78.42    3.62
   5   3  -5   78.15    4.00
   5   3  -5   78.50    3.32
   5   3  -5   78.15    4.22
   3  -3  -5   12.70    1.50
  -3  -3   5   14.73    2.16
   3  -3  -5   14.39    1.76
  -3  -3   5   14.72    1.58
   3  -3  -5   14.77    1.39
   3  -3  -5   12.08    1.48
   3  -3  -5   16.18    1.31
  -3  -3   5   15.10    1.46
  -3  -3   5   14.06    1.12
   3  -3  -5   14.06    1.39
   3   3  -5   13.82    1.54
  -3   3   5   15.56    1.61
   3   3  -5   14.93    1.48
   3   3  -5   13.60    2.02
  -3   3   5   15.77    1.57
  -3   3   5   14.97    1.06
   3   3  -5   14.39    1.44
   3   3  -5   17.37    1.56
   1  -3  -5  161.15    5.85
   1  -3  -5  169.59    5.54
  -1  -3   5  163.29    5.06
   1  -3  -5  163.13    6.15
   1  -3  -5  163.96    5.66
  -1  -3   5  167.66    5.32
  -1  -3   5  167.82    5.23
   1  -3  -5  165.00    5.90
  -1  -3   5  157.16    5.70
  -1  -3   5  154.41    6.44
   1  -3  -5  167.49    5.59
   1   3  -5  158.80    5.59
   1   3  -5  161.50    6.29
   1   3  -5  158.48    5.66
   1   3  -5  170.37    5.66
  -1   3   5  159.87    5.87
  -1   3   5  158.62    5.85
   1   3  -5  166.42    5.65
  -1   3   5  165.70    5.18
   1  -3   5   13.57    1.45
   1  -3   5   17.07    1.18
  -1  -3  -5   13.15    1.70
  -1  -3  -5   14.83    1.54
   1  -3   5   15.40    2.11
  -1  -3  -5   15.25    1.11
  -1  -3  -5   13.01    1.44
  -1  -3  -5   14.39    1.65
  -1  -3  -5   17.59    1.55
  -1   3  -5   15.61    1.85
   1   3   5   14.51    1.57
   1   3   5   14.49    1.66
  -1   3  -5   14.24    1.27
  -1   3  -5   14.74    1.26
   1   3   5   14.30    1.02
  -1   3  -5   14.87    1.51
  -1   3  -5   15.54    1.28
  -3  -3  -5   95.74    4.10
  -3  -3  -5  101.16    4.27
   3  -3   5   96.87    4.82
  -3  -3  -5   99.76    4.17
  -3  -3  -5   96.63    3.85
  -3  -3  -5   97.25    3.35
   3  -3   5   94.24    3.88
   3   3   5   91.78    4.05
   3   3   5   95.34    4.06
  -3   3  -5   96.16    3.63
  -3   3  -5   99.41    3.64
  -3   3  -5  101.55    4.60
  -3   3  -5   96.20    3.77
  -3   3  -5   98.19    3.64
   3   3   5   99.65    3.45
  -5  -3  -5    3.78    1.18
  -5  -3  -5    2.14    1.00
  -5  -3  -5    1.73    0.41
  -5  -3  -5    1.44    0.97
  -5  -3  -5    2.30    1.24
   5  -3   5    2.24    0.85
  -5  -3  -5    1.99    0.95
  -5   3  -5    1.85    0.74
  -5   3  -5    2.33    0.67
   5   3   5    1.99    1.00
   5   3   5    3.91    1.04
  -5   3  -5    4.06    1.01
  -5   3  -5    1.86    0.68
   5   3   5    3.19    0.74
  -5   3  -5    1.53    0.87
   7  -3   5   79.61    3.68
  -7  -3  -5   82.14    3.96
  -7  -3  -5   82.40    3.63
  -7  -3  -5   80.69    3.86
  -7  -3  -5   80.86    4.03
  -7   3  -5   78.07    3.31
   7   3   5   84.17    3.87
  -7   3  -5   81.50    4.02
   7   3   5   80.29    3.86
  -7   3  -5   83.47    3.53
  -7   3  -5   84.76    3.42
  -7   3  -5   83.48    3.23
  -9  -3  -5    0.96    1.19
  -9  -3  -5    1.44    1.05
  -9  -3  -5    0.12    1.11
   9  -3   5    0.45    0.96
  -9  -3  -5    0.74    1.06
   9   3   5    1.47    1.25
   9   3   5    0.92    1.12
  -9   3  -5    1.14    0.96
  -9   3  -5    1.05    0.79
  -9   3  -5    1.25    0.70
  -9   3  -5    1.35    0.86
 -11  -3  -5   32.74    2.54
 -11  -3  -5   31.45    2.89
 -11  -3  -5   36.85    3.41
 -11  -3  -5   35.97    3.20
  11  -3   5   35.07    2.65
 -11   3  -5   36.10    2.36
 -11   3  -5   35.54    2.18
 -11   3  -5   32.78    2.91
 -11   3  -5   32.45    2.52
  11   3   5   42.82    3.25
 -13  -3  -5    1.23    1.65
 -13  -3  -5    1.86    1.33
 -13  -3  -5    1.15    1.56
 -13  -3  -5    3.28    1.82
  13   3   5    6.92    1.80
 -13   3  -5    2.01    1.36
 -13   3  -5    3.20    1.06
 -13   3  -5    2.36    1.28
 -13   3  -5    4.28    1.26
 -15  -3  -5    6.84    1.57
 -15  -3  -5    8.20    1.82
 -15  -3  -5   14.87    3.14
 -15  -3  -5    9.26    2.25
 -15   3  -5    8.03    1.80
  15   3   5    7.06    2.23
 -17  -3  -5   14.83    3.79
 -17  -3  -5    7.90    2.85
 -17   3  -5    8.07    2.32
  20  -4  -5   13.89    2.15
  20  -4  -5   15.93    2.74
  20  -4  -5   12.57    2.20
 -20  -4   5   11.15    3.00
 -20   4   5   16.02    4.75
  20   4  -5   16.11    2.91
 -20   4   5   14.41    2.63
  20   4  -5   16.61    2.80
 -18  -4   5    4.80    2.30
  18  -4  -5    4.56    1.96
  18  -4  -5    5.30    1.53
  18  -4  -5    1.30    1.33
 -18  -4   5    3.41    2.14
  18   4  -5    4.55    1.91
 -18   4   5    5.15    1.87
  18   4  -5    2.36    1.79
 -18   4   5    5.61    1.93
 -16  -4   5   31.56    3.51
  16  -4  -5   31.07    2.67
  16  -4  -5   36.57    2.91
  16  -4  -5   36.08    3.30
 -16  -4   5   40.12    3.92
  16   4  -5   27.62    3.13
 -16   4   5   35.71    3.19
  16   4  -5   38.54    3.86
 -16   4   5   37.63    3.33
  16   4  -5   30.74    3.31
 -14  -4   5    3.41    2.01
  14  -4  -5    0.92    1.32
 -14  -4   5   -0.37    1.32
 -14  -4   5    0.37    1.41
  14  -4  -5    1.70    1.05
 -14  -4   5   -1.06    1.59
  14  -4  -5   -0.01    1.02
  14   4  -5   -1.27    1.29
  14   4  -5    0.30    1.23
  14   4  -5    0.51    1.65
 -14   4   5    0.56    1.24
 -14   4   5    0.22    1.24
  12  -4  -5   91.31    4.60
 -12  -4   5   90.81    4.49
  12  -4  -5   87.54    4.03
 -12  -4   5   93.31    5.20
  12  -4  -5   89.84    3.19
 -12  -4   5   89.60    4.59
  12  -4  -5   86.52    4.08
 -12  -4   5   87.86    4.46
  12  -4  -5   96.45    4.33
 -12   4   5   92.11    4.47
  12   4  -5   91.82    4.44
  12   4  -5   93.75    4.52
 -12   4   5   86.77    4.37
  12   4  -5   87.52    4.76
 -10  -4   5    3.05    1.26
  10  -4  -5    1.81    1.02
 -10  -4   5    0.98    1.40
  10  -4  -5    3.28    0.97
  10  -4  -5    3.10    1.33
 -10  -4   5    4.05    1.39
  10  -4  -5    2.64    0.69
 -10  -4   5    2.88    1.39
  10  -4  -5    3.36    1.04
  10   4  -5    2.33    1.48
  10   4  -5    3.88    1.21
  10   4  -5    2.76    1.23
 -10   4   5    1.76    1.02
 -10   4   5    0.73    0.98
   8  -4  -5   80.85    4.11
   8  -4  -5   79.82    3.43
   8  -4  -5   83.72    3.73
   8  -4  -5   86.04    3.75
  -8  -4   5   82.31    4.70
  -8  -4   5   72.25    3.80
  -8  -4   5   86.38    3.95
   8  -4  -5   83.68    3.75
   8   4  -5   86.24    3.99
  -8   4   5   84.28    3.93
   8   4  -5   88.35    3.95
  -8   4   5   90.56    3.39
   8   4  -5   80.14    4.41
  -8   4   5   84.52    3.97
   6  -4  -5   14.64    1.69
  -6  -4   5   14.54    1.70
   6  -4  -5   14.80    1.36
   6  -4  -5   16.84    1.65
  -6  -4   5   13.46    2.41
   6  -4  -5   15.29    1.64
   6  -4  -5   14.77    1.90
   6   4  -5   11.20    2.06
  -6   4   5   14.80    1.11
  -6   4   5   15.63    1.88
   6   4  -5   12.26    1.76
   6   4  -5   15.37    2.01
  -6   4   5   14.00    1.92
   6   4  -5   13.22    1.94
   4  -4  -5  110.10    4.81
  -4  -4   5  110.94    5.35
   4  -4  -5  109.62    4.43
   4  -4  -5  112.86    4.15
  -4  -4   5  106.23    4.33
  -4  -4   5  109.33    4.04
  -4  -4   5  115.90    3.83
   4  -4  -5  107.45    3.94
   4  -4  -5  110.44    4.44
   4  -4  -5  110.65    4.21
  -4  -4   5  109.25    3.74
   4   4  -5  112.21    4.42
   4   4  -5  102.87    4.26
   4   4  -5  113.57    4.41
  -4   4   5  107.75    4.57
   4   4  -5  112.98    4.55
   4   4  -5  109.89    5.03
  -4   4   5  112.72    3.65
  -2  -4   5    0.20    1.14
   2  -4  -5    0.68    0.75
  -2  -4   5   -0.14    0.68
   2  -4  -5    0.18    0.76
  -2  -4   5    0.96    0.83
   2  -4  -5    1.41    0.81
   2  -4  -5    0.02    0.53
   2  -4  -5    0.64    0.94
   2   4  -5    0.21    0.62
  -2   4   5    0.87    0.90
   2   4  -5    0.26    0.69
   2   4  -5    0.14    0.67
   2   4  -5   -0.91    0.74
  -2   4   5    0.11    0.36
  -2   4   5    0.46    0.80
   2   4  -5    0.23    1.12
   0  -4   5  105.78    5.15
   0  -4  -5  111.65    3.98
   0  -4  -5  111.12    4.46
   0  -4   5  108.86    4.30
   0  -4  -5  107.67    4.46
   0  -4  -5  116.68    4.86
   0  -4  -5  115.16    4.29
   0   4   5  113.86    4.58
   0   4   5  112.82    4.55
   0   4  -5  110.66    4.29
   0   4  -5   95.91    4.43
   0   4  -5  106.00    4.06
   0   4  -5  114.89    4.10
   0   4   5  112.26    3.59
   0   4  -5  110.49    4.78
  -2  -4  -5    9.70    1.67
   2  -4   5   10.37    1.39
  -2  -4  -5    9.68    1.01
  -2  -4  -5    9.74    1.53
   2  -4   5   11.49    2.22
  -2  -4  -5   10.51    1.73
  -2  -4  -5    7.22    1.26
  -2  -4  -5   11.56    1.61
   2   4   5    9.55    0.86
  -2   4  -5    9.92    1.15
   2   4   5    9.43    1.61
  -2   4  -5   10.31    1.14
   2   4   5   10.54    1.62
  -2   4  -5    8.74    1.12
  -2   4  -5   11.14    1.48
  -2   4  -5   10.66    1.77
  -4  -4  -5   32.61    1.60
   4  -4   5   30.95    2.96
  -4  -4  -5   34.00    2.41
  -4  -4  -5   33.73    2.24
   4  -4   5   35.33    2.19
  -4  -4  -5   35.14    2.66
  -4  -4  -5   31.93    2.33
  -4   4  -5   33.37    1.76
  -4   4  -5   39.07    2.38
  -4   4  -5   32.23    1.78
   4   4   5   33.93    2.40
  -4   4  -5   33.48    1.76
   4   4   5   35.55    2.46
  -4   4  -5   30.35    2.01
  -4   4  -5   34.67    2.49
   6  -4   5   21.77    1.95
  -6  -4  -5   23.59    2.22
  -6  -4  -5   25.03    2.44
  -6  -4  -5   24.18    2.23
  -6  -4  -5   24.05    1.97
  -6  -4  -5   22.89    1.20
  -6   4  -5   23.17    1.59
  -6   4  -5   25.80    2.73
  -6   4  -5   22.72    2.18
  -6   4  -5   21.99    1.69
   6   4   5   25.11    2.42
  -6   4  -5   21.63    2.20
   6   4   5   24.08    2.30
  -6   4  -5   23.30    1.51
  -8  -4  -5   20.70    2.50
  -8  -4  -5   16.10    1.80
   8  -4   5   15.19    1.92
  -8  -4  -5   18.72    2.26
  -8  -4  -5   17.91    2.32
  -8   4  -5   19.96    1.53
  -8   4  -5   20.59    2.03
  -8   4  -5   17.23    1.57
  -8   4  -5   17.73    1.50
   8   4   5   22.42    2.50
  -8   4  -5   18.28    1.45
   8   4   5   20.87    2.43
 -10  -4  -5    4.72    1.36
 -10  -4  -5    3.88    1.50
  10  -4   5    4.42    1.31
 -10  -4  -5    6.27    1.66
 -10  -4  -5    4.12    1.49
 -10   4  -5    5.27    1.13
 -10   4  -5    4.96    1.52
  10   4   5    6.95    1.78
 -10   4  -5    4.52    1.00
 -10   4  -5    2.00    1.19
  10   4   5    6.91    1.71
 -12  -4  -5    9.55    1.67
 -12  -4  -5   11.28    2.38
 -12  -4  -5    5.87    1.86
 -12  -4  -5    8.13    2.01
 -12  -4  -5    4.04    1.38
  12  -4   5    5.63    1.68
 -12   4  -5    7.29    1.69
 -12   4  -5    6.66    1.28
 -12   4  -5    9.59    1.56
 -12   4  -5    7.17    1.22
 -14  -4  -5    7.13    2.44
 -14  -4  -5   13.43    2.81
 -14  -4  -5    9.28    1.82
 -14  -4  -5    8.40    1.62
 -14   4  -5    7.92    1.80
 -14   4  -5    7.79    1.34
 -16  -4  -5    3.42    2.19
 -16  -4  -5    4.50    2.58
  16   4   5   -1.59    2.30
 -16   4  -5   -0.39    1.68
  19  -5  -5   16.29    2.75
  19  -5  -5   13.91    2.79
  19  -5  -5   12.54    2.12
 -19  -5   5   14.04    3.41
 -19   5   5   12.28    2.49
  19   5  -5   11.46    2.75
  19   5  -5   14.53    2.81
 -19   5   5   14.88    3.08
 -17  -5   5   -1.25    1.78
  17  -5  -5    0.15    1.39
 -17  -5   5    1.02    1.95
  17  -5  -5    0.55    1.29
 -17  -5   5    3.22    2.30
  17  -5  -5    1.62    1.77
  17   5  -5    1.78    1.63
  17   5  -5    1.36    1.78
 -17   5   5   -0.16    1.55
 -17   5   5   -0.02    1.63
  17   5  -5    7.86    2.72
  15  -5  -5    7.32    1.57
 -15  -5   5    8.92    2.24
  15  -5  -5    7.86    1.67
 -15  -5   5   10.89    2.16
  15  -5  -5    8.21    1.98
  15  -5  -5    7.60    1.50
  15   5  -5   15.39    2.96
 -15   5   5    8.07    1.88
  15   5  -5    7.90    1.87
 -15   5   5   11.07    2.02
  15   5  -5    8.11    1.87
  13  -5  -5    7.06    1.36
 -13  -5   5   10.78    2.42
  13  -5  -5    5.89    1.69
 -13  -5   5    5.97    1.73
 -13  -5   5    8.12    1.80
  13  -5  -5    6.26    1.42
  13  -5  -5    4.71    1.36
  13   5  -5    9.42    2.47
 -13   5   5    7.75    1.69
 -13   5   5    7.21    1.61
  13   5  -5    7.33    1.69
  13   5  -5    6.61    1.65
  11  -5  -5   14.92    1.79
  11  -5  -5   17.56    2.38
 -11  -5   5   15.25    3.13
 -11  -5   5   14.32    2.21
  11  -5  -5   13.45    1.91
  11  -5  -5   13.28    1.32
 -11  -5   5   15.79    2.19
  11  -5  -5   14.81    2.09
  11   5  -5   12.26    1.91
  11   5  -5   14.44    2.10
  11   5  -5   18.33    2.95
 -11   5   5   12.76    2.10
 -11   5   5   15.31    2.02
   9  -5  -5   10.46    1.66
  -9  -5   5   14.31    2.99
  -9  -5   5   13.75    2.06
   9  -5  -5   12.51    1.91
  -9  -5   5    8.75    1.60
   9  -5  -5   10.98    1.70
   9  -5  -5    9.11    1.25
  -9  -5   5   11.65    1.96
   9  -5  -5    8.47    1.67
   9   5  -5   11.47    1.90
  -9   5   5   10.55    1.78
   9   5  -5   12.82    2.39
   9   5  -5    8.78    1.60
  -9   5   5   11.58    1.86
  -9   5   5    6.96    1.95
   7  -5  -5    6.62    1.24
   7  -5  -5    6.81    1.00
   7  -5  -5    4.93    1.40
  -7  -5   5    4.99    1.67
   7  -5  -5    6.58    1.21
   7  -5  -5    7.38    1.29
  -7  -5   5    5.77    1.43
  -7  -5   5    4.33    1.13
   7  -5  -5    5.90    0.91
  -7   5   5    5.57    1.25
  -7   5   5    6.61    1.35
   7   5  -5    4.62    1.18
  -7   5   5    7.64    0.89
   7   5  -5    6.55    1.95
   7   5  -5    5.71    1.26
  -5  -5   5   27.24    1.37
   5  -5  -5   28.78    2.09
  -5  -5   5   26.42    2.06
   5  -5  -5   25.70    2.49
   5  -5  -5   27.65    2.00
   5  -5  -5   27.90    2.12
   5  -5  -5   26.28    1.49
  -5  -5   5   25.06    2.52
  -5  -5   5   25.59    3.01
   5   5  -5   25.78    2.06
  -5   5   5   27.51    1.23
   5   5  -5   25.55    2.75
   5   5  -5   27.32    2.38
  -5   5   5   25.56    2.19
  -5   5   5   25.37    2.18
   5   5  -5   27.36    2.14
   3  -5  -5    0.83    1.06
   3  -5  -5    2.53    0.88
   3  -5  -5    1.46    0.79
  -3  -5   5    1.11    1.42
   3  -5  -5    0.78    0.82
  -3  -5   5    1.19    1.21
   3  -5  -5    1.98    0.63
   3  -5  -5    0.58    0.83
  -3  -5   5    1.58    0.94
   3   5  -5    0.10    1.19
   3   5  -5    1.34    0.86
   3   5  -5    0.31    0.74
  -3   5   5    1.73    0.47
  -3   5   5    0.57    0.86
   3   5  -5    1.96    1.51
   3   5  -5    1.41    0.94
  -3   5   5    1.94    0.92
   1  -5  -5   59.10    2.66
   1  -5  -5   58.26    2.80
   1  -5  -5   54.59    2.62
  -1  -5   5   56.32    3.89
   1  -5  -5   56.31    2.96
  -1  -5   5   52.82    2.84
   1  -5  -5   58.47    3.04
   1  -5  -5   57.64    3.43
   1   5  -5   55.82    2.67
  -1   5   5   58.80    3.13
   1   5  -5   63.19    3.74
  -1   5   5   55.03    1.88
  -1   5   5   55.47    3.05
   1   5  -5   57.79    2.68
   1   5  -5   57.17    2.81
   1   5  -5   57.17    2.95
  -1  -5  -5    3.85    1.43
  -1  -5  -5    3.84    1.15
  -1  -5  -5    2.95    1.24
  -1  -5  -5    2.63    1.04
   1  -5   5    3.25    1.02
  -1  -5  -5    2.21    0.88
   1  -5   5    3.03    1.23
  -1   5  -5    3.27    0.70
  -1   5  -5    2.76    0.97
  -1   5  -5    2.82    0.77
   1   5   5    1.85    1.01
  -1   5  -5    2.57    0.81
   1   5   5    2.62    1.05
  -1   5  -5    3.65    1.56
  -3  -5  -5   35.32    2.47
  -3  -5  -5   33.67    2.71
  -3  -5  -5   38.67    1.95
  -3  -5  -5   38.20    2.33
   3  -5   5   36.33    3.29
  -3  -5  -5   35.86    2.49
  -3   5  -5   36.79    1.84
  -3   5  -5   40.60    2.85
   3   5   5   36.36    2.59
  -3   5  -5   38.61    2.27
   3   5   5   36.65    2.65
  -3   5  -5   33.80    1.87
  -3   5  -5   36.31    1.80
  -5  -5  -5    0.16    0.98
  -5  -5  -5    1.11    0.99
   5  -5   5   -0.52    1.17
  -5  -5  -5    0.35    1.09
   5  -5   5    0.45    0.85
  -5  -5  -5   -0.04    0.94
  -5  -5  -5   -0.29    0.46
  -5   5  -5    0.60    0.83
  -5   5  -5   -0.30    0.57
  -5   5  -5    0.59    0.52
  -5   5  -5    1.42    0.69
  -5   5  -5   -0.47    0.52
   5   5   5   -0.15    1.02
   5   5   5   -0.22    0.89
  -5   5  -5    1.02    1.05
  -7  -5  -5   38.00    2.87
  -7  -5  -5   36.07    1.70
  -7  -5  -5   37.00    2.82
   7  -5   5   39.08    2.63
  -7  -5  -5   37.15    3.02
  -7  -5  -5   36.85    2.64
  -7   5  -5   37.23    1.84
  -7   5  -5   37.27    1.91
  -7   5  -5   34.79    2.71
   7   5   5   35.46    3.07
  -7   5  -5   36.47    2.20
  -7   5  -5   36.69    1.88
   7   5   5   36.30    2.98
  -9  -5  -5   -0.23    1.29
   9  -5   5   -1.17    1.05
  -9  -5  -5    0.14    1.18
  -9  -5  -5    1.34    1.20
  -9  -5  -5    1.10    1.45
  -9   5  -5    1.48    1.04
  -9   5  -5   -0.10    0.82
   9   5   5    1.14    1.43
  -9   5  -5    0.93    0.75
   9   5   5    0.65    1.50
 -11  -5  -5   15.30    2.22
 -11  -5  -5   22.49    3.69
  11  -5   5   16.77    2.54
 -11  -5  -5   12.32    2.18
 -11  -5  -5   15.22    2.40
 -11  -5  -5   17.29    2.37
 -11   5  -5   14.88    1.67
 -11   5  -5   13.23    2.38
  11   5   5   20.87    3.13
 -11   5  -5   19.11    2.14
  11   5   5   20.25    2.97
 -13  -5  -5    4.67    2.34
 -13  -5  -5    2.46    2.02
 -13  -5  -5    1.39    2.53
 -13  -5  -5    0.84    1.30
 -13   5  -5    1.88    1.51
 -13   5  -5    0.36    1.04
 -13   5  -5    5.68    1.42
 -15  -5  -5    4.02    1.66
 -15  -5  -5    8.71    2.86
 -15  -5  -5    5.69    1.98
 -15  -5  -5    5.21    2.22
 -15   5  -5    4.48    1.99
  18  -6  -5    7.00    2.39
  18  -6  -5    3.33    1.67
 -18  -6   5    1.71    2.07
 -18  -6   5    3.72    2.35
  18   6  -5    1.38    1.96
 -18   6   5    4.77    2.00
 -18   6   5    5.85    2.24
  18   6  -5    3.93    2.21
  16  -6  -5   27.36    2.87
 -16  -6   5   21.80    3.16
  16  -6  -5   25.66    3.25
 -16  -6   5   17.77    3.20
  16  -6  -5   26.20    2.48
  16   6  -5   24.72    3.22
 -16   6   5   20.92    3.16
 -16   6   5   25.39    3.21
  16   6  -5   21.33    3.45
  14  -6  -5    0.31    1.64
 -14  -6   5    2.78    1.57
  14  -6  -5    1.27    1.10
  14  -6  -5    1.13    1.36
  14  -6  -5    1.36    1.29
 -14  -6   5    5.46    2.64
 -14  -6   5   -0.55    1.49
  14   6  -5    3.87    2.43
  14   6  -5   -1.23    1.42
 -14   6   5    0.17    1.36
 -14   6   5   -0.18    1.32
  14   6  -5    0.74    1.48
 -12  -6   5   60.21    3.41
 -12  -6   5   52.75    3.42
  12  -6  -5   54.65    3.87
  12  -6  -5   55.54    3.48
  12  -6  -5   56.15    3.38
 -12  -6   5   55.25    3.57
 -12  -6   5   61.44    4.98
  12  -6  -5   54.68    3.06
 -12   6   5   59.12    3.52
 -12   6   5   53.45    3.52
  12   6  -5   53.85    3.70
  12   6  -5   59.61    4.36
  12   6  -5   50.38    3.50
  10  -6  -5    0.73    1.00
  10  -6  -5    0.62    1.12
 -10  -6   5    1.42    1.38
  10  -6  -5    1.18    1.19
 -10  -6   5    2.18    1.12
 -10  -6   5    3.23    1.31
 -10  -6   5    1.59    1.82
  10  -6  -5    1.13    0.98
  10  -6  -5    0.72    1.38
  10   6  -5    2.67    1.37
  10   6  -5    2.21    1.30
 -10   6   5    0.45    1.02
  10   6  -5    2.11    1.86
   8  -6  -5   63.16    2.78
  -8  -6   5   58.47    3.02
   8  -6  -5   64.54    3.59
  -8  -6   5   57.15    3.39
   8  -6  -5   59.67    3.23
  -8  -6   5   60.79    3.54
   8  -6  -5   62.33    3.91
   8  -6  -5   64.15    3.17
  -8  -6   5   63.34    4.72
   8   6  -5   59.47    3.39
   8   6  -5   62.38    3.51
   8   6  -5   66.05    4.44
  -8   6   5   61.20    3.50
  -8   6   5   57.97    3.36
  -8   6   5   64.17    2.37
   6  -6  -5    8.97    1.39
   6  -6  -5   10.23    1.93
   6  -6  -5    8.94    1.27
  -6  -6   5    6.99    2.13
   6  -6  -5    8.26    1.34
  -6  -6   5    8.16    1.76
  -6  -6   5    8.44    1.50
   6  -6  -5    7.49    1.32
   6   6  -5    9.63    2.11
   6   6  -5    7.80    1.37
  -6   6   5   10.26    1.77
   6   6  -5    8.82    1.52
  -6   6   5    8.40    1.49
  -4  -6   5   65.49    3.87
   4  -6  -5   69.43    3.41
   4  -6  -5   66.61    3.90
  -4  -6   5   66.63    4.63
   4  -6  -5   69.49    3.10
   4  -6  -5   68.95    2.59
   4  -6  -5   67.80    3.19
   4  -6  -5   68.23    3.37
  -4  -6   5   65.85    3.35
  -4   6   5   67.35    3.47
   4   6  -5   66.51    3.24
   4   6  -5   67.32    4.31
  -4   6   5   67.45    3.49
   4   6  -5   65.52    3.24
   2  -6  -5    5.58    1.21
  -2  -6   5    5.30    1.87
   2  -6  -5    3.49    0.80
   2  -6  -5    4.53    1.51
   2  -6  -5    4.42    1.15
   2  -6  -5    5.30    1.13
  -2  -6   5    3.97    1.12
   2  -6  -5    4.89    0.99
  -2  -6   5    4.14    1.32
   2   6  -5    4.26    1.06
   2   6  -5    5.05    1.08
  -2   6   5    4.90    1.25
   2   6  -5    3.74    1.17
   2   6  -5    3.77    1.08
   2   6  -5    5.26    1.89
  -2   6   5    3.17    0.97
   0  -6   5   75.63    4.14
   0  -6  -5   77.45    3.23
   0  -6   5   74.03    4.68
   0  -6  -5   73.67    3.61
   0  -6  -5   75.67    3.25
   0  -6   5   71.07    3.45
   0  -6  -5   78.34    3.79
   0  -6  -5   77.03    3.49
   0   6  -5   67.32    3.28
   0   6  -5   76.08    3.55
   0   6  -5   73.54    3.07
   0   6  -5   77.17    4.30
   0   6   5   74.34    3.85
   0   6  -5   78.87    3.23
   0   6   5   72.03    3.66
  -2  -6  -5    8.28    1.23
  -2  -6  -5    7.73    1.46
  -2  -6  -5    7.24    1.30
   2  -6   5    7.20    1.28
   2  -6   5    8.85    2.08
  -2  -6  -5    7.84    1.33
  -2   6  -5    7.52    1.01
   2   6   5    6.77    1.42
  -2   6  -5    5.77    1.04
  -2   6  -5    5.78    1.17
  -2   6  -5    7.55    1.10
   2   6   5    7.41    1.48
  -4  -6  -5   25.16    2.40
  -4  -6  -5   24.56    1.81
  -4  -6  -5   27.51    2.32
  -4  -6  -5   27.19    3.05
  -4  -6  -5   27.50    2.34
   4  -6   5   25.48    3.18
   4  -6   5   26.09    2.13
  -4   6  -5   24.93    1.41
  -4   6  -5   24.35    1.46
   4   6   5   26.24    2.56
  -4   6  -5   23.85    2.22
  -4   6  -5   25.89    1.95
  -4   6  -5   24.48    1.58
   4   6   5   27.90    2.53
  -6  -6  -5   16.09    2.17
  -6  -6  -5   18.49    1.42
  -6  -6  -5   25.84    2.85
   6  -6   5   18.05    2.05
  -6  -6  -5   17.48    2.34
   6  -6   5   16.33    2.98
  -6  -6  -5   17.06    2.24
  -6  -6  -5   20.31    2.41
  -6   6  -5   18.49    1.29
  -6   6  -5   21.36    2.16
  -6   6  -5   17.84    1.34
  -6   6  -5   17.80    1.68
   6   6   5   20.91    2.52
   6   6   5   18.75    2.51
  -8  -6  -5   17.72    2.84
  -8  -6  -5   18.10    3.13
   8  -6   5   11.75    1.84
  -8  -6  -5   11.26    1.85
  -8  -6  -5   13.37    1.95
  -8  -6  -5   15.28    2.61
  -8   6  -5   16.81    2.14
   8   6   5   16.58    2.80
   8   6   5   19.44    2.91
  -8   6  -5   15.07    1.42
  -8   6  -5   12.95    1.64
  10  -6   5    5.79    1.63
 -10  -6  -5    6.98    1.95
 -10  -6  -5    5.22    1.81
 -10  -6  -5    4.49    1.48
 -10  -6  -5    3.79    1.89
 -10  -6  -5    4.57    1.42
 -10   6  -5    5.73    1.09
  10   6   5    4.95    1.91
 -10   6  -5    3.53    1.33
 -12  -6  -5    8.75    2.51
 -12  -6  -5    5.61    1.78
 -12  -6  -5    4.64    1.99
 -12  -6  -5    7.11    1.73
 -12  -6  -5    9.67    2.55
  12  -6   5    3.82    1.92
 -12   6  -5    2.60    1.51
  12   6   5   13.17    2.85
 -12   6  -5    5.52    1.20
 -14  -6  -5    3.98    2.12
 -14  -6  -5    6.42    2.73
 -14  -6  -5    0.62    1.85
 -14  -6  -5    6.87    1.83
 -14   6  -5    5.34    1.85
 -15  -7   5    9.75    2.18
 -15  -7   5   16.36    2.55
  15  -7  -5   12.11    2.54
  15   7  -5   15.84    2.77
 -15   7   5   18.18    2.81
  15   7  -5   13.63    2.57
 -15   7   5   15.49    3.74
  13  -7  -5   15.12    2.07
 -13  -7   5   17.29    2.73
 -13  -7   5   15.26    2.13
  13  -7  -5   17.23    2.93
 -13  -7   5   24.69    2.63
 -13  -7   5   21.02    4.26
  13  -7  -5   18.94    2.79
  13  -7  -5   17.39    2.22
  13   7  -5   16.97    2.48
 -13   7   5   20.09    2.62
  13   7  -5   16.69    2.96
 -13   7   5   16.09    2.63
  11  -7  -5   17.27    2.11
 -11  -7   5   18.70    3.96
 -11  -7   5   16.83    2.27
 -11  -7   5   17.29    2.49
  11  -7  -5   18.63    2.89
 -11  -7   5   18.82    2.55
  11  -7  -5   18.37    2.49
  11  -7  -5   18.17    2.09
  11   7  -5   20.21    2.81
  11   7  -5   16.57    2.72
  11   7  -5   20.25    3.21
 -11   7   5   18.18    2.51
 -11   7   5   20.10    2.50
   9  -7  -5   13.46    2.02
   9  -7  -5   14.15    2.62
   9  -7  -5   11.95    1.47
  -9  -7   5   16.49    2.73
  -9  -7   5   12.98    2.95
   9  -7  -5   12.12    1.90
   9  -7  -5   16.60    2.59
  -9  -7   5   14.22    2.19
   9   7  -5   11.33    1.92
  -9   7   5   13.04    2.11
  -9   7   5   13.83    2.14
   9   7  -5   12.60    2.00
   9   7  -5   14.83    2.77
  -7  -7   5   26.49    3.87
   7  -7  -5   24.38    2.85
   7  -7  -5   24.80    2.19
   7  -7  -5   20.20    2.56
   7  -7  -5   22.28    1.98
  -7  -7   5   24.75    3.02
  -7  -7   5   24.92    2.26
   7  -7  -5   22.93    2.03
  -7   7   5   23.19    2.34
   7   7  -5   22.03    2.36
   7   7  -5   20.91    3.47
   7   7  -5   20.40    2.23
  -7   7   5   20.63    2.29
   5  -7  -5   42.21    2.65
  -5  -7   5   49.48    2.94
  -5  -7   5   42.30    3.30
   5  -7  -5   44.34    3.23
   5  -7  -5   45.47    2.82
   5  -7  -5   45.67    2.53
  -5  -7   5   45.36    4.37
  -5   7   5   44.85    3.01
   5   7  -5   47.60    3.02
  -5   7   5   41.31    2.86
   5   7  -5   44.41    2.79
   5   7  -5   41.39    3.98
   3  -7  -5    8.28    1.74
  -3  -7   5    6.79    1.90
  -3  -7   5    5.87    2.33
   3  -7  -5    7.22    1.33
   3  -7  -5    8.32    1.43
   3  -7  -5    5.26    1.80
   3  -7  -5    7.42    1.21
  -3  -7   5    4.80    1.22
   3   7  -5    8.27    2.26
   3   7  -5    6.80    1.25
  -3   7   5    8.24    1.49
   3   7  -5    7.39    1.28
  -3   7   5    7.14    1.43
   1  -7  -5   44.46    3.31
   1  -7  -5   39.90    2.28
  -1  -7   5   47.59    4.15
  -1  -7   5   42.96    3.46
   1  -7  -5   43.80    2.64
   1  -7  -5   37.71    2.76
  -1  -7   5   42.06    2.72
   1  -7  -5   44.65    2.45
   1  -7  -5   44.90    3.06
  -1   7   5   43.99    2.95
   1   7  -5   44.29    2.40
   1   7  -5   42.16    2.34
   1   7  -5   42.70    2.84
  -1   7   5   42.95    2.86
   1   7  -5   51.47    3.84
   1  -7   5   14.53    1.93
  -1  -7  -5   14.32    2.10
   1  -7   5   18.94    3.10
  -1  -7  -5   13.60    1.44
  -1  -7  -5   15.30    2.25
   1  -7   5   15.14    2.58
  -1  -7  -5   17.36    2.05
  -1  -7  -5   19.72    2.51
  -1   7  -5   14.79    1.30
   1   7   5   15.59    2.18
  -1   7  -5   12.08    1.51
  -1   7  -5   15.15    1.54
   1   7   5   16.50    2.33
  -1   7  -5   14.67    1.88
  -3  -7  -5   37.17    2.11
   3  -7   5   35.28    2.55
   3  -7   5   34.32    2.99
  -3  -7  -5   38.00    3.01
  -3  -7  -5   35.72    2.82
   3  -7   5   35.39    3.76
  -3  -7  -5   38.33    3.32
  -3  -7  -5   38.09    2.71
  -3  -7  -5   34.01    2.93
  -3   7  -5   33.94    1.68
   3   7   5   35.88    2.89
  -3   7  -5   35.98    2.45
   3   7   5   43.69    3.06
  -3   7  -5   43.58    3.16
  -5  -7  -5    2.20    0.88
   5  -7   5    4.53    1.46
  -5  -7  -5    4.02    2.14
  -5  -7  -5    5.09    1.59
  -5  -7  -5    2.53    1.37
  -5  -7  -5    4.84    1.39
   5  -7   5    4.34    1.93
  -5  -7  -5    3.20    1.46
  -5   7  -5    3.01    1.00
  -5   7  -5    4.49    0.63
   5   7   5    5.44    1.48
  -5   7  -5    3.44    1.14
   5   7   5    3.72    1.53
  -7  -7  -5   31.01    2.62
   7  -7   5   29.96    2.70
  -7  -7  -5   27.50    3.15
   7  -7   5   31.14    4.01
  -7  -7  -5   27.95    2.03
  -7  -7  -5   31.60    3.02
  -7  -7  -5   39.12    3.90
  -7  -7  -5   28.01    2.93
   7   7   5   37.83    3.35
   7   7   5   33.91    3.37
  -7   7  -5   31.59    1.54
  -7   7  -5   28.20    2.69
  -7   7  -5   31.27    2.18
  -9  -7  -5    1.48    1.85
  -9  -7  -5   -0.93    1.58
  -9  -7  -5    4.67    2.11
  -9  -7  -5    1.23    1.55
   9  -7   5   -0.20    1.32
  -9  -7  -5    1.86    1.45
   9   7   5    0.82    1.73
  -9   7  -5    1.06    1.00
  -9   7  -5    1.64    1.25
   9   7   5    3.39    2.04
 -11  -7  -5   15.50    2.95
 -11  -7  -5   11.90    2.08
  11  -7   5   11.96    2.25
 -11  -7  -5    8.07    2.21
 -11  -7  -5   13.03    2.91
 -11  -7  -5   14.32    2.29
 -11   7  -5    9.40    1.88
  11   7   5   15.87    2.70
 -11   7  -5    8.14    1.38
 -13  -7  -5    0.84    2.72
 -13  -7  -5    5.04    2.84
 -13  -7  -5    2.53    1.75
 -13  -7  -5    0.57    2.03
 -13   7  -5    2.74    1.83
  14  -8  -5    2.83    1.60
 -14  -8   5    1.04    1.86
  14  -8  -5   -1.17    1.77
  14   8  -5   -1.93    1.91
  14   8  -5   -1.64    1.79
  14   8  -5    8.94    2.62
 -14   8   5   -0.09    1.42
 -12  -8   5   20.71    3.24
  12  -8  -5   18.39    3.02
 -12  -8   5   24.55    2.98
 -12  -8   5   28.44    4.70
  12  -8  -5   15.15    2.33
  12   8  -5   13.57    2.49
  12   8  -5   24.95    4.14
 -12   8   5   19.74    2.91
  12   8  -5   17.74    2.64
 -12   8   5   19.57    2.77
 -10  -8   5    4.52    1.81
 -10  -8   5    2.69    1.44
 -10  -8   5    3.04    2.60
  10  -8  -5   -0.31    1.36
  10  -8  -5    0.67    1.11
  10  -8  -5    1.87    1.28
  10   8  -5    3.21    2.36
  10   8  -5   -0.17    1.53
  10   8  -5   -0.33    1.56
 -10   8   5    1.12    1.40
 -10   8   5    0.75    1.17
   8  -8  -5   15.72    1.98
  -8  -8   5   25.24    3.15
   8  -8  -5   16.93    2.16
  -8  -8   5   22.87    4.30
   8  -8  -5   13.24    2.16
  -8  -8   5   15.80    2.40
   8  -8  -5   21.18    2.18
  -8   8   5   18.40    2.55
  -8   8   5   18.99    2.41
   8   8  -5   16.67    2.51
   8   8  -5   14.69    2.21
   8   8  -5   19.36    3.42
   6  -8  -5    1.64    1.01
   6  -8  -5    0.89    1.11
  -6  -8   5    1.36    1.31
  -6  -8   5    1.94    2.41
  -6  -8   5    0.55    1.65
   6  -8  -5    0.76    1.35
   6  -8  -5    2.93    1.15
  -6   8   5    0.73    1.27
   6   8  -5    0.31    1.33
   6   8  -5    6.08    2.46
  -6   8   5    0.50    1.02
   6   8  -5    2.90    1.22
   4  -8  -5   18.51    2.02
  -4  -8   5   19.92    4.02
   4  -8  -5   19.11    2.02
   4  -8  -5   20.15    2.72
  -4  -8   5   17.89    2.18
   4  -8  -5   22.96    2.33
  -4  -8   5   22.23    3.07
   4   8  -5   17.92    2.08
  -4   8   5   17.97    2.20
   4   8  -5   22.00    3.80
   4   8  -5   17.32    2.41
  -4   8   5   20.93    2.58
  -2  -8   5    1.01    1.72
   2  -8  -5    1.33    1.22
   2  -8  -5    0.67    1.13
  -2  -8   5    1.27    2.15
   2  -8  -5    2.96    1.00
  -2  -8   5    1.11    1.12
   2  -8  -5    1.13    1.42
   2   8  -5    2.09    2.27
   2   8  -5    0.46    1.16
  -2   8   5   -0.30    1.25
  -2   8   5    2.32    1.25
   2   8  -5   -0.43    0.92
   0  -8  -5   25.44    2.12
   0  -8  -5   22.30    2.65
   0  -8  -5   22.34    2.36
   0  -8   5   23.07    3.93
   0  -8  -5   24.97    2.70
   0  -8   5   29.49    3.33
   0  -8   5   22.48    2.26
   0   8   5   23.70    2.72
   0   8  -5   25.28    1.77
   0   8  -5   30.76    3.63
   0   8   5   24.09    2.57
   0   8  -5   22.58    2.30
  -2  -8  -5    1.61    1.33
   2  -8   5    2.40    1.89
  -2  -8  -5    2.71    1.47
  -2  -8  -5    0.87    0.86
   2  -8   5    3.93    1.69
  -2  -8  -5    0.84    1.36
   2  -8   5    3.55    1.37
  -2   8  -5    6.02    1.94
   2   8   5    6.87    1.72
  -2   8  -5    1.56    1.14
   2   8   5    3.24    1.30
  -4  -8  -5    6.06    1.52
  -4  -8  -5    6.61    1.85
   4  -8   5    9.47    1.96
  -4  -8  -5    6.84    2.01
   4  -8   5    9.00    2.69
   4  -8   5    8.34    1.74
  -4  -8  -5    6.56    1.70
  -4  -8  -5    7.12    1.23
  -4   8  -5    7.69    1.42
   4   8   5   10.30    2.03
  -4   8  -5    8.02    0.83
  -4   8  -5   10.01    1.44
   4   8   5    9.78    1.94
  -6  -8  -5    5.59    1.82
  -6  -8  -5    8.07    1.90
  -6  -8  -5    5.09    1.62
  -6  -8  -5    7.27    2.31
  -6  -8  -5    5.51    1.19
   6  -8   5    8.86    2.69
   6  -8   5    5.93    1.73
   6   8   5   10.85    2.43
   6   8   5    9.48    2.13
  -6   8  -5    7.18    1.31
  -6   8  -5    6.34    1.41
  -8  -8  -5    4.50    1.78
  -8  -8  -5    5.97    2.55
  -8  -8  -5    6.10    1.91
  -8  -8  -5    2.86    1.81
   8  -8   5    9.71    2.86
   8  -8   5    7.97    1.86
   8   8   5    8.73    2.16
   8   8   5   11.80    2.63
  -8   8  -5    4.31    1.47
  -8   8  -5    4.92    1.20
  10  -8   5    5.25    1.81
 -10  -8  -5   -2.64    1.71
 -10  -8  -5    1.04    1.62
 -10  -8  -5    1.94    1.93
  10   8   5    8.13    2.54
  10   8   5    2.11    2.26
 -10   8  -5    1.70    1.48
 -10   8  -5   -0.19    1.38
 -13  -9   5   11.19    2.41
  13  -9  -5    7.40    2.06
  13  -9  -5    5.99    2.20
 -13   9   5    6.21    2.19
 -13   9   5    6.32    1.80
  13   9  -5    2.27    2.15
 -11  -9   5   15.46    3.66
 -11  -9   5   11.11    2.28
  11  -9  -5    6.92    2.13
  11  -9  -5    8.73    1.96
 -11   9   5    9.83    1.85
  11   9  -5    3.76    2.23
 -11   9   5   10.48    2.13
  11   9  -5    8.12    2.19
   9  -9  -5    4.76    1.92
  -9  -9   5    6.84    2.03
  -9  -9   5    7.82    2.19
   9   9  -5    2.41    2.03
  -9   9   5    6.86    1.80
  -9   9   5    8.67    1.97
   7  -9  -5    8.80    2.45
  -7  -9   5   10.31    2.01
  -7  -9   5   11.45    3.51
  -7  -9   5    8.46    2.37
   7  -9  -5    9.56    1.70
   7  -9  -5    8.00    1.64
   7  -9  -5    8.26    2.01
  -7   9   5   10.35    2.00
   7   9  -5   15.59    3.29
   7   9  -5   10.44    1.91
  -7   9   5    9.02    1.83
  -5  -9   5   19.91    3.92
   5  -9  -5   14.20    2.23
   5  -9  -5   12.29    1.77
   5  -9  -5   19.15    2.42
   5  -9  -5   12.38    2.21
  -5  -9   5   23.05    3.42
  -5  -9   5   21.50    2.50
   5   9  -5   17.69    2.35
  -5   9   5   16.71    2.74
   5   9  -5   12.02    2.63
  -5   9   5   14.43    2.35
   3  -9  -5    5.44    1.40
  -3  -9   5    5.28    1.49
  -3  -9   5    3.61    1.81
   3  -9  -5    5.64    1.63
  -3  -9   5    8.24    2.97
   3  -9  -5    6.21    1.39
   3  -9  -5    4.18    1.62
  -3   9   5    7.61    1.85
  -3   9   5    5.65    1.62
   3   9  -5   12.90    3.20
   3   9  -5    4.13    1.28
   1  -9  -5   23.62    2.50
   1  -9  -5   15.21    3.01
   1  -9  -5   19.12    2.14
  -1  -9   5   17.67    2.41
  -1  -9   5   15.68    2.71
   1  -9  -5   22.85    2.92
   1  -9  -5   18.70    2.92
  -1  -9   5   22.71    4.58
   1   9  -5   20.20    1.87
   1   9  -5   16.00    2.15
  -1   9   5   20.01    3.04
  -1   9   5   16.89    2.59
  -1  -9  -5    4.05    3.16
   1  -9   5    6.82    1.64
  -1  -9  -5    5.07    1.30
  -1  -9  -5    7.89    1.93
  -1  -9  -5   11.25    2.17
   1  -9   5   13.65    3.21
   1  -9   5    9.57    2.36
  -1  -9  -5    8.17    1.81
  -1   9  -5    7.05    0.93
  -1   9  -5    4.64    1.44
   1   9   5    7.21    1.71
   1   9   5   11.65    2.20
   3  -9   5   13.75    2.08
   3  -9   5   22.60    3.43
  -3  -9  -5   15.05    1.98
  -3  -9  -5   15.04    2.28
   3  -9   5   21.97    4.52
  -3  -9  -5   17.59    2.64
  -3  -9  -5   13.35    2.24
  -3   9  -5   16.04    2.27
   3   9   5   21.01    2.94
   3   9   5   18.45    2.87
  -5  -9  -5    6.91    2.40
   5  -9   5    4.25    2.84
  -5  -9  -5    0.29    1.14
  -5  -9  -5    1.21    1.40
   5  -9   5    3.92    1.70
  -5   9  -5    3.19    1.32
   5   9   5    5.44    1.81
   5   9   5    9.05    3.56
  -5   9  -5    3.96    1.34
  -7  -9  -5    7.16    2.08
   7  -9   5   17.91    2.80
  -7  -9  -5    8.82    2.04
   7   9   5   15.57    2.61
  -7   9  -5   10.50    1.60
  -7   9  -5   10.40    1.81
  -9  -9  -5    1.11    1.76
   9  -9   5   -1.54    1.75
  -9  -9  -5   -1.25    1.83
  -9  -9  -5    3.01    2.96
   9   9   5    7.82    5.62
  -9   9  -5    0.19    1.55
 -10 -10   5   12.72    4.09
  10 -10  -5    3.03    1.82
 -10 -10   5    7.76    3.68
 -10 -10   5    8.25    2.22
 -10  10   5    5.70    2.33
  10  10  -5   -0.98    2.23
 -10  10   5    4.20    1.61
  10  10  -5    0.86    1.96
  -8 -10   5   20.88    3.12
  -8 -10   5   16.53    2.81
   8 -10  -5   12.02    2.06
  -8  10   5   13.05    2.10
   8  10  -5   11.04    2.51
  -8  10   5   19.79    3.48
   8  10  -5   16.04    2.44
  -6 -10   5   22.46    4.69
  -6 -10   5   14.36    2.21
   6 -10  -5   12.57    2.05
   6 -10  -5   12.05    3.95
  -6  10   5   15.49    2.50
  -6  10   5   16.73    2.78
   6  10  -5   16.22    3.69
   6  10  -5   11.25    1.99
   4 -10  -5   19.44    2.84
   4 -10  -5   21.70    3.41
  -4 -10   5   17.88    2.44
  -4 -10   5   23.29    3.82
  -4  10   5   21.98    3.20
   4  10  -5   15.35    2.68
  -4  10   5   23.48    2.90
   4  10  -5   22.94    6.48
   2 -10  -5    5.95    1.98
   2 -10  -5    5.31    1.80
  -2 -10   5    9.28    2.52
   2 -10  -5    3.75    1.65
  -2 -10   5    9.77    3.59
  -2 -10   5    7.10    1.75
   2 -10  -5    4.11    1.55
   2  10  -5   14.62    3.56
  -2  10   5    5.16    2.01
   2  10  -5    6.59    1.33
  -2  10   5    8.68    2.42
   0 -10  -5   16.03    2.76
   0 -10   5   28.34    3.98
   0 -10   5   30.61    5.57
   0 -10  -5   19.44    2.86
   0 -10  -5   28.68    2.54
   0 -10   5   23.52    2.74
   0 -10  -5   22.45    3.44
   0  10  -5   19.81    1.77
   0  10   5   17.36    3.30
   0  10   5   25.17    3.83
   0  10  -5   19.83    2.84
   2 -10   5    7.10    1.86
  -2 -10  -5   11.76    3.77
   2 -10   5    8.93    3.40
  -2 -10  -5    2.72    3.70
  -2 -10  -5   10.85    2.64
  -2 -10  -5    5.54    1.55
  -2 -10  -5    3.86    1.79
   2  10   5    6.48    1.95
  -2  10  -5   10.90    1.81
   2  10   5    9.26    2.47
   4 -10   5   10.36    2.33
  -4 -10  -5   11.43    2.29
  -4 -10  -5   15.04    3.13
  -4 -10  -5    5.86    4.65
  -4 -10  -5   10.81    1.82
   4 -10   5   15.79    3.74
  -4 -10  -5    7.27    2.20
   4 -10   5   13.64    2.76
  -4  10  -5   16.66    2.27
   4  10   5   18.61    3.22
   4  10   5   16.74    2.94
  -6 -10  -5    8.20    2.15
  -6 -10  -5   -0.43    6.04
   6 -10   5   10.77    2.18
  -6 -10  -5    8.28    2.26
   6 -10   5   10.51    3.44
  -6  10  -5    9.41    1.62
   6  10   5   12.48    2.53
  -6  10  -5    8.66    1.80
   5 -11  -5    4.23    1.69
  -5 -11   5   10.53    2.56
  -5 -11   5    6.98    2.25
   5 -11  -5    6.30    2.44
   5  11  -5   12.12    3.84
  -5  11   5    4.30    1.73
   3 -11  -5   -0.50    2.10
  -3 -11   5    8.26    2.42
  -3 -11   5   -0.70    2.27
   3 -11  -5    8.30    2.49
   3 -11  -5    5.11    1.66
  -3 -11   5    5.87    4.15
  -3  11   5    5.28    2.42
   3  11  -5   12.17    3.89
   3  11  -5    2.62    1.35
  -3  11   5    4.73    1.76
  -1 -11   5   15.50    4.35
   1 -11  -5    7.64    1.81
  -1 -11   5   11.20    2.74
   1 -11  -5   11.22    3.99
   1 -11  -5    6.47    2.52
  -1 -11   5    7.28    2.16
   1  11  -5    8.65    1.31
  -1  11   5   10.37    2.01
  -1  11   5   12.39    2.88
   1  11  -5    3.13    1.95
  22   0  -6   10.49    3.03
 -22   0   6    1.75    2.72
 -22   0   6    5.73    3.30
  20   0  -6   10.14    2.34
  20   0  -6   10.08    2.54
 -20   0   6    8.27    2.59
 -20   0   6    6.82    2.72
 -18   0   6   19.98    2.97
  18   0  -6   18.55    2.88
  18   0  -6   20.03    3.31
  18   0  -6   19.79    3.21
 -18   0   6   20.10    2.90
  16   0  -6   15.48    2.59
  16   0  -6   18.76    1.76
 -16   0   6   18.76    2.90
 -16   0   6   11.99    2.21
  16   0  -6   17.48    2.78
  16   0  -6   17.05    2.55
  14   0  -6   31.65    2.10
 -14   0   6   32.75    3.08
 -14   0   6   34.54    2.15
 -14   0   6   26.60    3.02
  14   0  -6   30.79    2.90
  14   0  -6   30.51    2.82
  14   0  -6   31.77    3.17
  12   0  -6   57.93    3.52
  12   0  -6   61.02    2.79
 -12   0   6   50.00    4.10
  12   0  -6   61.60    3.98
  12   0  -6   59.28    3.47
 -12   0   6   60.77    3.51
 -12   0   6   62.56    3.01
 -12   0   6   58.04    3.62
 -10   0   6    3.46    0.92
  10   0  -6    3.51    1.24
  10   0  -6    2.89    1.13
  10   0  -6    3.31    1.39
  10   0  -6    4.05    0.97
 -10   0   6    3.13    1.29
 -10   0   6    2.46    1.20
  -8   0   6  109.47    4.57
   8   0  -6  108.72    4.23
   8   0  -6  111.94    4.80
  -8   0   6  111.33    4.74
  -8   0   6  113.99    4.81
   8   0  -6  105.42    4.71
   8   0  -6  114.58    5.27
  -8   0   6  111.57    4.62
  -6   0   6   10.18    1.71
  -6   0   6    9.35    1.53
   6   0  -6    9.76    1.50
   6   0  -6    9.99    1.38
   6   0  -6    9.88    1.62
   6   0  -6    9.18    1.73
  -6   0   6   11.33    1.48
  -6   0   6    9.39    1.66
   4   0  -6   99.19    4.57
  -4   0   6   97.25    4.29
   4   0  -6   92.15    4.07
   4   0  -6   95.04    4.10
  -4   0   6   96.59    3.82
  -4   0   6   95.70    4.00
  -4   0   6   91.04    3.99
   4   0  -6   98.99    3.83
  -2   0   6    1.19    0.85
  -2   0   6    1.64    0.91
   2   0  -6    1.72    0.89
   2   0  -6    2.07    0.89
   2   0  -6    1.26    1.19
  -2   0   6    2.40    0.85
   2   0  -6    1.33    0.85
   0   0   6  153.29    5.29
   0   0  -6  147.18    5.82
   0   0   6  147.10    5.32
   0   0   6  147.73    5.37
   0   0  -6  145.41    5.53
   0   0  -6  146.45    5.30
   0   0  -6  141.07    5.44
   2   0   6    0.12    0.73
  -2   0  -6   -0.33    0.74
  -2   0  -6   -0.86    0.96
  -2   0  -6    0.51    0.87
   2   0   6   -0.16    0.84
  -2   0  -6   -0.26    0.66
  -2   0  -6   -0.12    0.70
   2   0   6   -0.39    0.65
   4   0   6   91.92    3.91
  -4   0  -6   89.95    4.27
   4   0   6   91.03    3.86
  -4   0  -6   93.71    3.99
   4   0   6   91.75    3.75
  -4   0  -6   89.65    3.95
  -4   0  -6   91.50    3.85
  -6   0  -6    1.75    0.88
  -6   0  -6    1.44    0.88
  -6   0  -6    1.04    0.91
   6   0   6    2.06    1.05
   6   0   6    1.28    0.93
  -6   0  -6    0.26    0.86
  -6   0  -6    1.33    0.86
   8   0   6   37.79    2.46
  -8   0  -6   38.28    3.02
  -8   0  -6   39.75    2.88
   8   0   6   41.29    2.42
  -8   0  -6   35.57    2.62
  -8   0  -6   36.39    2.45
 -10   0  -6    2.67    1.16
  10   0   6    0.96    1.16
 -10   0  -6    0.78    1.11
 -10   0  -6    2.49    1.09
 -10   0  -6    2.42    1.23
  10   0   6    5.08    1.26
 -12   0  -6   16.72    2.08
 -12   0  -6   19.45    2.68
 -14   0  -6    2.88    1.96
 -14   0  -6    0.14    1.70
 -14   0  -6    4.95    2.22
 -14   0  -6   -0.20    1.31
 -16   0  -6   10.14    2.74
  21  -1  -6    0.97    2.29
  21  -1  -6    1.18    1.96
 -21  -1   6   -0.20    2.33
 -21  -1   6   -2.33    2.47
  21   1  -6    2.44    2.45
  21   1  -6    3.24    2.16
 -21   1   6   -1.73    2.54
 -19  -1   6   38.62    4.31
 -19  -1   6   32.36    5.39
  19  -1  -6   31.63    3.82
  19  -1  -6   34.20    3.67
 -19   1   6   35.25    5.67
  19   1  -6   31.85    3.79
 -19   1   6   37.05    4.33
  19   1  -6   26.19    3.83
  17  -1  -6   -0.44    1.38
  17  -1  -6   -0.25    1.70
 -17  -1   6    1.07    1.75
 -17  -1   6    1.73    1.34
 -17  -1   6   -0.61    1.77
  17  -1  -6   -0.35    1.65
 -17   1   6    1.30    1.81
 -17   1   6    1.95    1.76
  17   1  -6    0.15    1.36
  17   1  -6   -0.87    1.50
  17   1  -6    0.37    1.88
  17   1  -6   -0.89    1.02
 -15  -1   6   52.68    3.96
  15  -1  -6   58.67    3.72
 -15  -1   6   50.56    3.76
  15  -1  -6   59.19    3.79
  15  -1  -6   56.82    2.74
 -15  -1   6   58.14    3.68
  15  -1  -6   52.10    3.87
 -15   1   6   51.22    3.77
  15   1  -6   55.34    3.74
  15   1  -6   55.59    4.10
  15   1  -6   56.42    2.83
 -15   1   6   52.43    3.79
  15   1  -6   51.21    3.54
  13  -1  -6    0.60    0.84
  13  -1  -6   -0.81    1.15
 -13  -1   6    0.41    1.04
  13  -1  -6   -0.05    1.23
  13  -1  -6   -0.75    1.08
 -13  -1   6   -1.03    1.41
 -13  -1   6    1.42    1.35
 -13  -1   6    0.53    1.24
 -13   1   6    0.68    0.62
 -13   1   6   -0.70    1.17
  13   1  -6   -0.19    0.79
  13   1  -6    0.14    1.11
  13   1  -6   -0.93    1.28
 -13   1   6   -1.10    1.27
  13   1  -6   -0.38    1.14
  11  -1  -6   73.46    3.81
 -11  -1   6   74.66    3.88
 -11  -1   6   72.09    3.95
 -11  -1   6   75.00    3.73
  11  -1  -6   72.29    3.29
  11  -1  -6   71.93    3.95
  11  -1  -6   74.22    4.16
 -11  -1   6   72.33    3.92
  11   1  -6   68.52    3.86
 -11   1   6   70.07    3.93
  11   1  -6   62.10    4.12
  11   1  -6   73.49    3.21
 -11   1   6   74.18    3.06
  11   1  -6   74.81    3.82
 -11   1   6   73.68    3.75
 -11   1   6   73.99    4.17
   9  -1  -6   -0.27    0.78
  -9  -1   6   -0.64    0.94
   9  -1  -6   -0.44    1.24
   9  -1  -6   -0.97    0.77
  -9  -1   6   -0.67    1.06
  -9  -1   6   -0.40    0.98
  -9  -1   6    0.24    0.87
   9  -1  -6    0.38    1.20
   9   1  -6   -0.26    0.74
   9   1  -6   -0.92    0.82
   9   1  -6   -0.76    0.87
  -9   1   6    0.16    0.98
  -9   1   6   -0.56    1.03
  -9   1   6    0.10    0.59
   9   1  -6    1.95    1.40
  -9   1   6    1.02    0.96
  -7  -1   6   97.29    4.32
  -7  -1   6   94.89    4.23
   7  -1  -6   87.52    4.13
   7  -1  -6   83.90    4.53
  -7  -1   6   94.47    4.08
   7  -1  -6   91.24    4.50
   7  -1  -6   95.79    3.74
   7   1  -6   94.15    4.71
   7   1  -6   95.57    4.19
  -7   1   6   97.12    3.92
  -7   1   6   92.06    4.27
   7   1  -6   93.22    3.74
  -7   1   6   92.18    4.23
   7   1  -6   93.22    4.18
   5  -1  -6   -0.03    0.63
   5  -1  -6    0.64    1.09
  -5  -1   6   -0.33    0.78
  -5  -1   6   -0.12    0.79
   5  -1  -6    0.22    0.95
   5  -1  -6    0.10    0.84
  -5  -1   6    1.42    0.85
   5   1  -6    0.94    0.74
   5   1  -6    0.84    0.83
   5   1  -6    0.53    1.04
  -5   1   6    0.10    0.81
   5   1  -6   -0.36    0.80
  -5   1   6   -0.62    0.83
   3  -1  -6   42.17    2.28
  -3  -1   6   45.05    3.03
  -3  -1   6   43.19    2.39
   3  -1  -6   44.81    2.60
   3  -1  -6   44.94    2.97
  -3  -1   6   47.78    2.50
  -3  -1   6   41.91    2.59
   3  -1  -6   44.48    2.68
  -3   1   6   44.38    2.59
   3   1  -6   44.78    2.62
  -3   1   6   43.79    2.58
  -3   1   6   43.94    2.30
   3   1  -6   44.62    2.59
   3   1  -6   46.86    3.08
   3   1  -6   43.17    2.38
  -1  -1   6   12.61    1.58
   1  -1  -6   13.31    1.90
   1  -1  -6   12.90    1.63
  -1  -1   6   14.24    1.50
   1  -1  -6   14.11    1.42
  -1  -1   6   13.38    1.54
  -1  -1   6   12.70    1.97
   1  -1  -6   15.84    1.75
   1   1  -6   15.94    2.04
  -1   1   6   14.35    1.66
   1   1  -6   13.90    1.54
  -1   1   6   12.80    1.61
   1   1  -6   14.23    1.69
   1   1  -6   12.67    1.79
   1   1  -6   12.92    1.61
  -1   1   6   16.77    1.69
  -1  -1  -6   23.89    2.20
  -1  -1  -6   23.98    2.02
   1  -1   6   23.15    1.74
  -1  -1  -6   21.31    1.90
   1  -1   6   25.24    1.82
  -1  -1  -6   22.12    2.08
  -1  -1  -6   22.24    1.89
   1  -1   6   22.69    1.79
  -1   1  -6   23.86    1.89
   1   1   6   23.95    1.94
   1   1   6   23.00    1.89
  -1   1  -6   25.01    2.24
   1   1   6   23.40    1.67
  -1   1  -6   19.85    1.83
  -1   1  -6   26.96    2.91
  -1   1  -6   23.76    1.88
   3  -1   6    8.15    1.18
  -3  -1  -6    5.41    1.12
  -3  -1  -6    6.18    1.15
  -3  -1  -6   11.39    1.54
  -3  -1  -6    7.10    1.23
  -3  -1  -6   10.26    1.70
   3  -1   6    6.72    1.09
  -3  -1  -6    6.76    0.86
  -3   1  -6    6.78    1.12
  -3   1  -6    7.79    1.35
  -3   1  -6    9.16    1.40
   3   1   6    9.15    1.61
  -3   1  -6    8.59    1.37
   3   1   6    8.23    1.26
   3   1   6    9.05    1.24
  -5  -1  -6   26.51    2.11
  -5  -1  -6   21.56    1.05
  -5  -1  -6   22.35    2.08
   5  -1   6   23.25    1.84
  -5  -1  -6   24.27    2.27
   5  -1   6   24.17    1.89
  -5  -1  -6   23.59    2.13
  -5  -1  -6   20.19    1.91
  -5   1  -6   26.14    2.01
   5   1   6   23.44    2.16
  -5   1  -6   23.02    2.22
  -5   1  -6   22.16    1.87
   5   1   6   24.22    2.13
   5   1   6   21.44    1.75
  -5   1  -6   22.65    1.96
  -5   1  -6   20.58    1.87
  -7  -1  -6   20.75    1.95
   7  -1   6   26.11    2.00
  -7  -1  -6   21.61    1.88
  -7  -1  -6   23.09    2.25
  -7  -1  -6   21.03    2.19
  -7  -1  -6   22.11    2.45
  -7   1  -6   21.89    1.99
   7   1   6   21.71    1.85
  -7   1  -6   23.09    2.25
  -7   1  -6   21.23    2.04
  -7   1  -6   20.12    1.93
   7   1   6   21.72    2.30
   9  -1   6   -0.46    1.08
  -9  -1  -6    0.51    1.11
  -9  -1  -6    1.03    1.07
  -9  -1  -6   -0.35    1.03
  -9  -1  -6    0.40    1.00
  -9   1  -6   -0.23    0.93
   9   1   6    1.40    0.98
  -9   1  -6   -0.32    1.06
  -9   1  -6    1.48    1.04
  -9   1  -6    1.25    0.93
 -11  -1  -6   17.71    2.08
 -11  -1  -6   11.70    2.08
 -11  -1  -6   16.66    2.35
  11  -1   6   16.41    2.26
 -11  -1  -6   18.85    3.10
 -11   1  -6   20.49    2.79
 -11   1  -6   16.15    1.93
 -11   1  -6   20.04    2.46
 -11   1  -6   12.77    2.17
 -13  -1  -6    1.51    1.34
 -13  -1  -6    1.56    1.82
 -13  -1  -6    3.07    2.07
 -13   1  -6   -0.40    1.22
 -13   1  -6    3.18    1.68
 -15  -1  -6    7.97    2.34
 -15  -1  -6    4.77    2.10
 -15  -1  -6    4.98    1.76
 -15  -1  -6    7.78    2.66
 -15   1  -6    4.41    2.09
 -15   1  -6    5.53    1.65
 -20  -2   6    7.10    2.42
 -20  -2   6    3.46    2.95
  20  -2  -6    6.39    2.54
  20  -2  -6    5.38    1.98
 -20   2   6    4.05    2.31
  20   2  -6    6.96    2.54
  20   2  -6    2.94    2.28
 -20   2   6    4.93    2.45
  20   2  -6    5.54    2.10
  18  -2  -6   10.60    2.11
 -18  -2   6    8.36    2.35
  18  -2  -6   10.32    2.36
 -18  -2   6    8.07    2.33
  18   2  -6    9.02    1.51
  18   2  -6    7.08    2.09
  18   2  -6   10.42    2.22
  18   2  -6   11.38    2.71
 -18   2   6    8.69    2.28
 -18   2   6    3.96    1.97
  16  -2  -6    8.87    2.17
  16  -2  -6    7.30    1.80
 -16  -2   6    6.52    1.98
  16  -2  -6    5.90    2.56
 -16  -2   6    7.93    2.27
  16   2  -6    9.18    1.85
  16   2  -6    9.61    2.09
  16   2  -6    6.54    2.29
 -16   2   6    6.56    1.79
 -16   2   6    6.23    1.96
  16   2  -6    7.48    1.34
 -14  -2   6   14.09    2.29
 -14  -2   6   14.64    2.27
  14  -2  -6   15.26    2.38
 -14  -2   6   16.67    2.40
  14  -2  -6   15.60    2.58
  14  -2  -6   11.07    2.02
  14  -2  -6   15.24    1.66
 -14   2   6   15.58    2.56
  14   2  -6   11.67    2.03
 -14   2   6   17.04    2.53
  14   2  -6   15.25    2.38
  14   2  -6   15.08    1.74
  14   2  -6   14.73    2.58
 -12  -2   6   28.75    2.81
 -12  -2   6   27.30    2.68
  12  -2  -6   30.16    2.53
  12  -2  -6   27.63    2.33
  12  -2  -6   26.60    2.71
 -12  -2   6   31.38    2.83
  12  -2  -6   29.46    2.90
 -12  -2   6   29.51    2.93
  12   2  -6   27.11    2.71
 -12   2   6   29.76    2.83
  12   2  -6   30.52    3.19
 -12   2   6   27.82    2.76
  12   2  -6   28.65    2.07
  12   2  -6   27.95    2.59
  10  -2  -6   -0.85    1.05
  10  -2  -6   -0.49    1.02
  10  -2  -6    0.32    0.91
 -10  -2   6   -0.26    1.05
 -10  -2   6   -0.06    1.07
 -10  -2   6    1.28    1.08
 -10  -2   6    1.55    1.12
  10  -2  -6    1.11    0.97
 -10   2   6    0.58    1.15
  10   2  -6    0.28    1.07
  10   2  -6   -0.41    0.87
  10   2  -6    0.75    0.86
 -10   2   6    0.37    0.99
  10   2  -6   -0.96    1.31
 -10   2   6    0.93    1.07
   8  -2  -6   60.29    3.33
  -8  -2   6   55.75    3.18
   8  -2  -6   57.04    3.59
  -8  -2   6   57.10    3.13
  -8  -2   6   60.09    3.50
  -8  -2   6   56.94    3.29
   8  -2  -6   59.70    3.19
   8  -2  -6   56.95    2.66
  -8   2   6   63.01    3.57
  -8   2   6   64.48    3.01
   8   2  -6   56.21    3.28
   8   2  -6   54.77    3.15
   8   2  -6   55.95    2.77
   8   2  -6   51.17    3.63
  -6  -2   6    0.67    0.89
   6  -2  -6   -0.40    0.71
   6  -2  -6    0.66    1.18
  -6  -2   6    0.34    0.94
   6  -2  -6    0.47    0.82
  -6  -2   6    0.98    1.02
  -6  -2   6    1.82    0.95
   6  -2  -6    0.45    0.91
  -6   2   6    0.75    0.73
   6   2  -6   -1.13    1.17
   6   2  -6    0.18    0.82
  -6   2   6    0.05    0.95
   6   2  -6   -0.48    0.85
   6   2  -6    1.50    0.96
  -6   2   6    0.33    0.96
  -4  -2   6   46.35    2.62
   4  -2  -6   48.43    2.80
   4  -2  -6   49.10    3.10
   4  -2  -6   52.69    2.54
  -4  -2   6   48.03    2.64
  -4  -2   6   51.14    3.18
  -4  -2   6   50.61    2.60
   4   2  -6   53.97    2.69
  -4   2   6   46.98    2.83
  -4   2   6   51.25    2.36
   4   2  -6   52.61    3.16
   4   2  -6   54.83    2.87
   4   2  -6   50.63    2.84
   4   2  -6   51.72    3.36
  -4   2   6   46.90    2.82
   2  -2  -6    0.01    0.76
  -2  -2   6    0.32    0.68
   2  -2  -6   -0.11    0.75
   2  -2  -6    0.39    0.98
   2  -2  -6   -0.05    0.82
   2  -2  -6    1.08    1.09
  -2  -2   6   -0.17    0.75
  -2  -2   6    0.28    1.04
   2   2  -6   -0.69    1.09
   2   2  -6    0.17    0.78
   2   2  -6   -0.25    0.76
   2   2  -6    0.49    0.89
  -2   2   6   -0.07    0.77
   2   2  -6    1.28    0.96
  -2   2   6   -0.10    0.75
   0  -2  -6   88.59    3.90
   0  -2   6   83.51    4.46
   0  -2  -6   83.62    3.57
   0  -2   6   83.27    3.22
   0  -2  -6   84.23    3.81
   0  -2  -6   85.85    4.11
   0  -2  -6   86.54    3.89
   0  -2   6   88.22    3.47
   0  -2   6   84.51    3.64
   0  -2  -6   87.51    3.31
   0   2  -6   85.67    3.63
   0   2  -6   84.75    3.69
   0   2   6   84.03    3.78
   0   2  -6   91.73    4.20
   0   2   6   85.27    3.81
   0   2   6   85.45    3.28
   0   2  -6   83.36    3.66
   2  -2   6    3.85    0.96
  -2  -2  -6    4.78    0.76
  -2  -2  -6    7.19    1.40
  -2  -2  -6    4.66    1.10
  -2  -2  -6    3.48    1.03
  -2  -2  -6    3.36    1.04
  -2  -2  -6    5.59    1.18
   2  -2   6    5.62    0.83
  -2   2  -6    3.68    0.96
  -2   2  -6    6.53    1.08
   2   2   6    4.19    1.13
  -2   2  -6    4.23    1.33
   2   2   6    4.34    0.92
   2   2   6    2.85    1.10
   4  -2   6   59.97    2.96
  -4  -2  -6   55.27    2.97
  -4  -2  -6   58.18    3.22
  -4  -2  -6   58.11    3.29
   4  -2   6   62.85    2.25
  -4  -2  -6   60.77    3.14
  -4  -2  -6   57.01    2.18
  -4  -2  -6   60.36    3.22
  -4   2  -6   54.66    3.27
  -4   2  -6   59.72    2.92
   4   2   6   55.23    3.12
   4   2   6   60.88    3.01
  -4   2  -6   58.88    2.96
  -4   2  -6   60.08    2.88
   4   2   6   58.77    3.15
  -4   2  -6   60.84    3.13
  -6  -2  -6    1.17    0.97
  -6  -2  -6    0.80    1.00
  -6  -2  -6   -0.62    0.83
  -6  -2  -6   -0.23    0.90
   6  -2   6   -0.14    0.86
  -6  -2  -6    0.09    0.94
  -6   2  -6    0.04    0.91
   6   2   6   -0.09    1.10
  -6   2  -6    0.81    0.82
   6   2   6    1.04    1.07
   6   2   6    0.55    0.72
  -6   2  -6    0.38    0.80
  -6   2  -6   -0.18    0.83
  -6   2  -6    0.67    0.80
  -8  -2  -6   20.84    2.32
   8  -2   6   20.58    2.17
  -8  -2  -6   22.54    2.58
  -8  -2  -6   25.51    2.61
  -8  -2  -6   22.77    2.03
  -8   2  -6   24.35    2.03
   8   2   6   21.80    1.90
  -8   2  -6   26.46    2.14
   8   2   6   27.28    2.60
  -8   2  -6   23.75    1.64
  -8   2  -6   24.31    2.50
  -8   2  -6   25.49    2.10
  10  -2   6    1.23    1.24
 -10  -2  -6    0.44    1.31
 -10  -2  -6   -0.03    1.44
 -10  -2  -6   -0.94    1.05
 -10  -2  -6    0.89    1.36
 -10   2  -6    0.44    1.14
 -10   2  -6    1.16    1.04
 -10   2  -6   -0.61    0.92
 -10   2  -6    1.02    1.09
  10   2   6    3.52    1.49
  12  -2   6   14.76    2.23
 -12  -2  -6   18.59    3.14
 -12  -2  -6   13.64    2.41
 -12  -2  -6   16.81    2.34
 -12   2  -6   17.49    2.54
 -12   2  -6   11.60    2.01
 -12   2  -6   13.08    1.74
 -12   2  -6   23.00    3.12
 -14  -2  -6    0.60    1.72
 -14  -2  -6    1.94    2.18
 -14  -2  -6   -1.29    2.60
 -14  -2  -6    7.46    2.62
 -14   2  -6   -0.61    1.25
 -14   2  -6    0.94    1.69
 -14   2  -6    1.55    1.89
 -14   2  -6   -0.96    1.70
  14   2   6   -3.49    2.03
  21  -3  -6   -0.30    1.90
 -21  -3   6   -1.17    2.48
  21  -3  -6    0.06    1.95
  21  -3  -6    6.66    2.60
  21   3  -6   -3.06    2.02
 -21   3   6    2.08    2.45
  21   3  -6   -2.42    2.43
 -21   3   6   -1.58    2.40
  19  -3  -6   41.33    3.73
  19  -3  -6   44.06    3.70
 -19  -3   6   40.55    4.37
  19  -3  -6   39.60    4.16
  19   3  -6   54.06    4.52
  19   3  -6   37.51    4.30
  19   3  -6   44.56    4.11
  19   3  -6   38.88    3.03
 -19   3   6   38.80    4.28
 -19   3   6   47.13    5.14
  17  -3  -6    0.81    1.75
  17  -3  -6    1.23    1.44
 -17  -3   6    4.63    1.97
 -17  -3   6   -0.38    1.77
  17  -3  -6    1.16    1.54
  17   3  -6    0.71    1.22
 -17   3   6    3.09    1.71
  17   3  -6    0.18    1.57
  17   3  -6   -0.10    1.59
  17   3  -6    3.71    2.34
 -17   3   6    1.29    1.69
  15  -3  -6   51.54    3.49
 -15  -3   6   65.81    4.34
 -15  -3   6   53.06    6.13
 -15  -3   6   56.37    4.03
  15  -3  -6   58.38    3.64
 -15  -3   6   56.65    3.86
  15  -3  -6   58.60    4.03
  15   3  -6   56.20    4.00
  15   3  -6   50.75    3.73
  15   3  -6   55.87    4.33
 -15   3   6   53.25    3.98
 -15   3   6   57.34    3.92
  15   3  -6   54.40    3.14
 -13  -3   6    6.20    1.77
 -13  -3   6    0.41    1.71
  13  -3  -6    4.26    1.25
 -13  -3   6    2.18    1.35
  13  -3  -6    1.79    1.23
 -13  -3   6    2.32    1.48
  13  -3  -6    5.88    1.83
  13  -3  -6    1.31    0.88
  13   3  -6    3.97    1.41
 -13   3   6    2.33    1.45
  13   3  -6    4.15    2.04
  13   3  -6    4.81    1.50
  13   3  -6    1.93    1.12
 -13   3   6    2.43    1.45
 -11  -3   6   70.80    3.93
 -11  -3   6   74.67    3.98
 -11  -3   6   75.24    4.42
  11  -3  -6   73.60    3.85
 -11  -3   6   76.93    4.16
  11  -3  -6   71.93    3.67
  11  -3  -6   74.98    3.15
  11  -3  -6   73.97    4.34
 -11   3   6   75.14    4.04
  11   3  -6   76.68    3.51
 -11   3   6   77.46    3.66
  11   3  -6   74.69    3.96
  11   3  -6   72.19    4.04
 -11   3   6   76.10    3.99
  11   3  -6   73.35    4.54
  -9  -3   6    2.20    1.07
  -9  -3   6    0.06    1.22
   9  -3  -6    0.98    1.03
   9  -3  -6    1.20    1.17
   9  -3  -6    1.95    1.02
   9  -3  -6   -0.16    0.79
  -9  -3   6    1.63    1.19
   9  -3  -6    0.94    0.86
  -9  -3   6    1.09    1.24
  -9   3   6    1.76    1.10
   9   3  -6    1.29    0.96
   9   3  -6   -1.45    1.33
  -9   3   6    0.90    1.16
   9   3  -6    0.40    1.14
  -9   3   6    0.18    0.92
   9   3  -6    2.38    1.11
   7  -3  -6  121.10    5.06
   7  -3  -6  123.07    5.52
   7  -3  -6  122.83    5.06
  -7  -3   6  126.30    5.72
  -7  -3   6  125.24    5.08
  -7  -3   6  126.43    4.87
  -7  -3   6  123.91    5.10
   7  -3  -6  126.21    4.53
   7  -3  -6  126.70    4.94
  -7   3   6  123.29    5.29
   7   3  -6  122.18    5.70
   7   3  -6  117.54    5.10
   7   3  -6  118.05    4.81
  -7   3   6  124.43    5.28
  -7   3   6  127.84    4.52
   7   3  -6  115.69    5.04
   5  -3  -6   11.24    1.53
   5  -3  -6    8.96    1.64
   5  -3  -6    8.10    1.33
  -5  -3   6    8.61    1.43
  -5  -3   6    7.87    1.59
   5  -3  -6   10.98    1.49
  -5  -3   6   10.17    1.44
   5  -3  -6    8.97    1.48
   5   3  -6    9.55    1.48
   5   3  -6    8.79    1.53
   5   3  -6    9.58    1.94
  -5   3   6    7.95    2.16
   5   3  -6    8.15    1.32
  -5   3   6    8.57    1.49
   3  -3  -6   41.09    3.01
  -3  -3   6   40.29    3.05
   3  -3  -6   42.74    2.32
  -3  -3   6   38.11    2.55
   3  -3  -6   40.07    2.53
   3  -3  -6   39.40    2.29
  -3  -3   6   40.11    2.01
  -3  -3   6   36.84    2.35
   3  -3  -6   39.42    2.94
   3  -3  -6   39.52    2.39
   3   3  -6   37.05    2.55
   3   3  -6   40.89    3.08
   3   3  -6   39.96    2.47
   3   3  -6   39.00    2.31
  -3   3   6   41.70    1.91
  -3   3   6   37.10    2.64
  -3   3   6   40.54    2.66
   1  -3  -6   18.12    1.62
  -1  -3   6   14.88    2.36
   1  -3  -6   19.31    1.89
  -1  -3   6   18.44    1.22
  -1  -3   6   15.79    1.70
   1  -3  -6   17.40    1.79
   1  -3  -6   15.64    2.06
   1  -3  -6   17.49    1.99
   1   3  -6   15.16    1.62
  -1   3   6   17.33    2.40
   1   3  -6   16.63    1.79
  -1   3   6   15.39    1.18
   1   3  -6   14.39    2.39
   1   3  -6   17.39    2.47
   1   3  -6   15.54    1.71
  -1   3   6   14.91    1.88
  -1  -3  -6   46.28    2.58
   1  -3   6   45.53    3.43
  -1  -3  -6   44.87    2.91
  -1  -3  -6   44.57    2.75
  -1  -3  -6   47.71    2.87
  -1  -3  -6   47.04    2.76
  -1  -3  -6   44.97    2.20
   1  -3   6   47.48    2.60
  -1   3  -6   45.32    2.46
  -1   3  -6   47.41    3.01
  -1   3  -6   43.46    2.43
   1   3   6   42.99    2.74
   1   3   6   45.76    2.78
  -1   3  -6   47.36    2.49
   1   3   6   50.21    2.56
  -3  -3  -6   17.54    1.74
  -3  -3  -6   16.99    1.98
  -3  -3  -6   20.09    1.22
   3  -3   6   21.57    2.69
  -3  -3  -6   18.12    1.98
   3  -3   6   16.74    1.73
  -3  -3  -6   17.66    2.07
  -3  -3  -6   18.89    2.02
  -3   3  -6   24.50    2.40
  -3   3  -6   19.26    1.67
  -3   3  -6   20.17    1.70
   3   3   6   20.43    1.45
   3   3   6   18.38    2.04
  -3   3  -6   18.10    2.11
   3   3   6   16.28    2.05
  -3   3  -6   20.65    1.83
  -5  -3  -6   22.57    2.24
   5  -3   6   22.84    2.04
  -5  -3  -6   26.52    2.41
  -5  -3  -6   23.70    2.11
  -5  -3  -6   22.03    1.18
  -5  -3  -6   23.77    2.27
  -5  -3  -6   22.96    2.10
  -5   3  -6   22.46    2.32
   5   3   6   22.19    2.36
  -5   3  -6   25.92    2.06
   5   3   6   24.99    2.50
   5   3   6   20.76    1.73
  -5   3  -6   21.00    1.88
  -5   3  -6   19.97    1.79
  -7  -3  -6   23.75    2.39
   7  -3   6   20.69    2.13
  -7  -3  -6   22.56    2.61
  -7  -3  -6   23.08    2.01
  -7  -3  -6   21.27    2.52
   7   3   6   24.72    2.70
  -7   3  -6   20.68    2.21
  -7   3  -6   22.29    1.94
  -7   3  -6   21.73    2.25
   7   3   6   25.71    2.65
  -7   3  -6   22.58    1.93
   9  -3   6    1.50    1.28
  -9  -3  -6    2.28    1.36
  -9  -3  -6    3.69    1.52
  -9  -3  -6    0.25    1.03
  -9  -3  -6    0.78    1.29
  -9   3  -6    1.87    0.98
  -9   3  -6    3.40    1.11
  -9   3  -6    3.46    1.07
  -9   3  -6    2.32    1.25
   9   3   6    6.70    1.72
  11  -3   6   16.06    2.47
 -11  -3  -6   20.86    3.53
 -11  -3  -6   16.44    2.84
 -11  -3  -6   16.72    2.38
 -11  -3  -6   14.56    2.42
 -11   3  -6   14.19    2.63
 -11   3  -6   17.45    2.55
 -11   3  -6   18.05    2.08
 -11   3  -6   20.05    2.21
 -13  -3  -6    0.19    1.79
 -13  -3  -6    8.86    2.66
 -13  -3  -6    2.18    2.66
 -13  -3  -6    5.82    2.42
 -13   3  -6    5.02    1.64
 -13   3  -6    2.79    1.30
 -13   3  -6    0.99    1.43
 -13   3  -6    4.03    1.85
 -15  -3  -6    4.42    2.30
 -15  -3  -6    6.45    1.78
 -15  -3  -6    8.98    2.93
 -15  -3  -6   11.78    3.05
 -15   3  -6   11.04    2.61
 -15   3  -6    5.99    1.60
 -15   3  -6    4.00    2.11
  20  -4  -6    5.09    1.95
 -20  -4   6    3.21    2.46
  20  -4  -6    6.23    2.64
 -20  -4   6    2.80    2.32
  20  -4  -6    6.98    2.15
  20   4  -6    3.41    2.31
 -20   4   6    7.87    2.35
 -20   4   6    9.89    2.55
  20   4  -6    4.12    2.53
  18  -4  -6    8.22    2.61
 -18  -4   6    6.02    2.41
  18  -4  -6    9.92    2.02
  18  -4  -6    9.71    1.96
 -18  -4   6    4.49    2.12
  18   4  -6    7.81    2.45
  18   4  -6   16.62    3.37
 -18   4   6    8.53    2.30
  18   4  -6    9.95    2.37
 -18   4   6    9.02    4.29
 -16  -4   6    7.52    2.08
  16  -4  -6   14.26    2.61
 -16  -4   6   10.06    2.24
  16  -4  -6    7.94    1.89
  16  -4  -6    9.23    1.82
  16   4  -6    9.14    2.16
  16   4  -6    9.24    2.18
 -16   4   6   11.63    2.32
 -16   4   6    9.45    2.14
  14  -4  -6   18.58    3.04
  14  -4  -6   20.32    2.46
  14  -4  -6   19.12    2.37
 -14  -4   6   18.65    2.74
 -14  -4   6   26.29    3.56
 -14  -4   6   20.85    2.77
 -14   4   6   17.11    2.75
  14   4  -6   24.64    3.38
  14   4  -6   19.95    2.85
  14   4  -6   17.09    2.78
 -14   4   6   18.21    2.63
  12  -4  -6   30.68    1.99
 -12  -4   6   32.21    2.82
  12  -4  -6   26.81    2.86
  12  -4  -6   31.38    2.62
  12  -4  -6   35.49    2.98
 -12  -4   6   31.92    2.87
 -12  -4   6   35.38    3.63
  12  -4  -6   31.33    2.53
 -12   4   6   27.43    2.80
  12   4  -6   33.72    3.49
  12   4  -6   31.78    2.50
 -12   4   6   26.19    2.46
  12   4  -6   28.37    2.78
  12   4  -6   30.50    2.97
 -12   4   6   34.83    2.88
 -10  -4   6    4.09    1.22
  10  -4  -6    2.92    1.20
  10  -4  -6    3.76    1.62
 -10  -4   6    6.32    1.86
  10  -4  -6    3.85    1.24
  10  -4  -6    4.18    1.19
 -10  -4   6    3.33    1.50
  10  -4  -6    3.88    1.33
  10   4  -6    5.62    2.01
  10   4  -6    4.25    1.25
  10   4  -6    4.32    1.43
 -10   4   6    5.41    1.41
  10   4  -6    4.91    1.36
 -10   4   6    5.37    1.31
 -10   4   6    4.10    1.36
   8  -4  -6   54.90    3.51
   8  -4  -6   56.18    3.04
   8  -4  -6   56.79    2.65
   8  -4  -6   58.80    3.28
  -8  -4   6   55.48    4.02
   8  -4  -6   53.38    3.18
  -8  -4   6   52.77    3.22
   8   4  -6   52.44    3.30
  -8   4   6   55.16    2.51
  -8   4   6   57.34    3.41
   8   4  -6   57.32    3.31
   8   4  -6   55.81    2.95
  -8   4   6   52.50    3.36
   8   4  -6   57.08    3.87
   6  -4  -6   -0.31    0.79
   6  -4  -6    1.30    0.72
   6  -4  -6    1.63    0.99
  -6  -4   6    1.21    0.99
  -6  -4   6    0.49    1.25
   6  -4  -6    0.70    1.13
  -6  -4   6    0.96    0.83
   6  -4  -6    0.91    0.86
   6   4  -6   -0.19    1.40
   6   4  -6    0.04    0.93
   6   4  -6    1.03    1.02
  -6   4   6   -0.41    0.99
  -6   4   6    0.88    0.59
   6   4  -6    1.54    0.99
  -6   4   6    1.00    1.07
   4  -4  -6   48.14    2.59
   4  -4  -6   52.64    3.09
   4  -4  -6   52.36    2.68
   4  -4  -6   52.80    2.63
   4  -4  -6   54.41    3.08
  -4  -4   6   52.80    2.94
  -4  -4   6   50.28    2.20
  -4  -4   6   53.19    3.72
   4  -4  -6   49.58    3.35
   4   4  -6   54.67    2.97
   4   4  -6   52.74    2.94
  -4   4   6   52.75    3.10
  -4   4   6   54.56    2.17
   4   4  -6   54.70    2.91
  -4   4   6   53.94    3.15
   4   4  -6   52.90    3.61
   2  -4  -6    9.36    1.52
   2  -4  -6   10.31    1.98
   2  -4  -6    6.14    1.20
  -2  -4   6    7.53    1.65
   2  -4  -6    7.19    1.05
  -2  -4   6    5.80    1.17
   2  -4  -6    6.77    1.29
   2  -4  -6    7.41    1.41
   2   4  -6    8.41    1.91
  -2   4   6    7.79    1.38
   2   4  -6    6.64    1.26
   2   4  -6    8.17    1.29
   2   4  -6    7.23    1.20
  -2   4   6    6.37    1.35
  -2   4   6    8.89    0.85
   0  -4   6   72.21    4.46
   0  -4  -6   75.04    3.40
   0  -4  -6   74.34    3.76
   0  -4  -6   73.54    3.06
   0  -4  -6   77.79    4.01
   0  -4  -6   75.36    3.64
   0  -4  -6   70.79    3.57
   0   4   6   71.27    2.69
   0   4   6   68.97    3.63
   0   4  -6   79.58    4.03
   0   4  -6   71.05    3.30
   0   4  -6   72.32    3.46
   0   4  -6   73.31    3.24
  -2  -4  -6    2.87    1.12
  -2  -4  -6    1.23    1.16
   2  -4   6    0.71    0.85
  -2  -4  -6    1.73    0.62
   2  -4   6    1.89    1.22
  -2  -4  -6    0.23    0.98
  -2  -4  -6    0.41    0.87
  -2  -4  -6    1.35    1.01
  -2   4  -6    0.96    0.71
  -2   4  -6    0.93    0.71
   2   4   6    1.70    1.08
   2   4   6    0.71    1.20
  -2   4  -6    0.21    0.89
  -2   4  -6    3.58    1.24
   2   4   6    1.64    0.60
  -4  -4  -6   49.82    3.18
   4  -4   6   53.27    4.04
  -4  -4  -6   51.82    2.97
  -4  -4  -6   52.15    3.18
   4  -4   6   49.80    2.88
  -4  -4  -6   54.74    3.35
  -4  -4  -6   52.05    3.23
  -4  -4  -6   53.21    2.23
  -4   4  -6   55.65    3.22
  -4   4  -6   51.98    2.56
  -4   4  -6   49.05    3.15
   4   4   6   54.88    3.79
   4   4   6   53.80    2.34
   4   4   6   51.72    3.27
  -4   4  -6   52.29    2.79
  -4   4  -6   50.84    2.55
  -6  -4  -6    3.09    1.40
  -6  -4  -6    1.72    1.22
  -6  -4  -6    2.74    1.11
   6  -4   6    2.21    1.11
  -6  -4  -6    3.28    1.29
  -6   4  -6    1.78    0.87
  -6   4  -6    2.41    1.19
   6   4   6    1.03    1.43
  -6   4  -6    4.29    0.94
  -6   4  -6    3.24    0.92
  -6   4  -6    4.02    1.11
   6   4   6    5.42    1.63
  -8  -4  -6   18.48    2.31
  -8  -4  -6   19.81    2.63
  -8  -4  -6   15.51    2.60
  -8  -4  -6   21.35    3.10
   8  -4   6   20.94    2.29
   8   4   6   21.27    3.45
  -8   4  -6   22.66    2.11
  -8   4  -6   21.54    2.49
   8   4   6   21.28    3.03
  -8   4  -6   19.20    1.92
  -8   4  -6   21.21    1.93
 -10  -4  -6    1.09    1.31
  10  -4   6    1.38    1.34
 -10  -4  -6    3.91    1.97
 -10  -4  -6   -0.15    1.62
 -10  -4  -6   -0.08    1.35
 -10   4  -6    1.44    1.14
 -10   4  -6    1.08    1.04
  10   4   6    4.73    2.13
 -10   4  -6    0.88    1.03
 -10   4  -6    2.29    1.27
 -12  -4  -6   13.56    2.63
 -12  -4  -6   15.95    2.86
 -12  -4  -6   11.46    2.87
 -12  -4  -6   15.12    2.77
  12  -4   6   13.55    2.31
 -12   4  -6   19.42    2.78
 -12   4  -6   16.62    2.16
 -14  -4  -6    5.18    2.81
 -14  -4  -6    3.14    1.63
 -14  -4  -6    4.70    2.45
 -14  -4  -6    0.28    1.65
 -14  -4  -6   -0.60    1.90
 -14   4  -6   -0.83    1.33
 -14   4  -6    0.65    1.73
 -14   4  -6    3.46    1.90
  19  -5  -6   17.79    2.55
 -19  -5   6   16.40    3.01
  19  -5  -6   19.66    3.77
 -19  -5   6   15.68    2.97
  19  -5  -6   19.65    3.09
 -19   5   6   27.52    4.01
  19   5  -6   12.07    3.30
  19   5  -6   13.18    2.82
 -19   5   6   14.57    2.78
 -17  -5   6   -1.94    1.75
  17  -5  -6    0.81    1.41
 -17  -5   6   -1.07    1.62
  17  -5  -6    0.73    1.99
  17  -5  -6    1.52    1.62
 -17   5   6    0.28    2.05
  17   5  -6   -2.13    1.70
  17   5  -6    3.40    4.38
  17   5  -6   -2.75    1.63
 -17   5   6   -2.15    1.72
  15  -5  -6   24.00    2.55
  15  -5  -6   26.27    2.85
  15  -5  -6   25.68    2.77
 -15  -5   6   21.76    3.04
  15  -5  -6   19.13    3.18
 -15  -5   6   23.12    3.08
  15   5  -6   29.23    3.88
 -15   5   6   28.78    3.13
 -15   5   6   25.78    3.28
  15   5  -6   25.54    3.20
  15   5  -6   18.67    3.15
 -13  -5   6   -0.23    1.40
  13  -5  -6    0.44    1.06
 -13  -5   6   -1.54    1.26
  13  -5  -6    0.50    1.20
 -13  -5   6    5.06    2.28
  13  -5  -6    0.99    1.55
 -13   5   6    1.05    1.30
  13   5  -6    0.04    1.31
 -13   5   6    0.62    1.52
  13   5  -6    3.05    2.16
  13   5  -6    1.46    1.38
 -11  -5   6   34.73    2.93
  11  -5  -6   30.08    2.55
 -11  -5   6   32.89    3.92
  11  -5  -6   29.05    3.05
  11  -5  -6   29.45    2.08
 -11  -5   6   28.96    2.58
  11  -5  -6   23.43    2.44
  11   5  -6   30.24    3.38
  11   5  -6   28.64    2.83
 -11   5   6   25.77    2.23
  11   5  -6   27.46    2.69
 -11   5   6   28.19    2.88
   9  -5  -6   -0.03    0.69
  -9  -5   6   -0.90    1.15
  -9  -5   6    0.56    1.71
   9  -5  -6    0.29    1.39
   9  -5  -6    0.01    1.01
   9  -5  -6   -0.37    0.89
   9  -5  -6   -0.36    1.11
   9  -5  -6   -0.60    1.17
   9   5  -6   -0.16    1.09
  -9   5   6    1.28    1.21
   9   5  -6    0.98    1.51
   9   5  -6   -0.89    1.02
  -9   5   6    0.63    0.71
  -9   5   6   -0.31    1.05
   7  -5  -6   48.96    3.53
  -7  -5   6   46.01    3.03
   7  -5  -6   47.45    2.79
   7  -5  -6   49.96    3.35
  -7  -5   6   48.79    2.44
   7  -5  -6   48.55    2.32
   7  -5  -6   43.75    2.84
  -7  -5   6   47.47    4.05
   7  -5  -6   48.30    2.46
  -7   5   6   45.34    3.09
   7   5  -6   50.84    3.06
   7   5  -6   47.68    3.14
  -7   5   6   48.09    2.02
   7   5  -6   43.40    2.78
   7   5  -6   44.56    3.41
  -7   5   6   45.47    3.08
  -5  -5   6    2.17    1.57
  -5  -5   6    0.54    0.57
   5  -5  -6    0.75    0.84
   5  -5  -6    0.67    0.72
   5  -5  -6   -0.20    0.81
   5  -5  -6    0.69    0.95
   5  -5  -6   -0.05    1.28
   5  -5  -6    0.01    1.08
  -5  -5   6   -0.28    0.94
   5   5  -6    0.58    0.97
   5   5  -6    0.40    1.08
  -5   5   6    0.38    0.50
  -5   5   6   -0.62    0.97
  -5   5   6   -0.63    0.98
   5   5  -6    1.50    1.64
   5   5  -6   -0.61    0.92
  -3  -5   6   13.66    2.62
   3  -5  -6   12.77    2.05
   3  -5  -6   13.16    2.15
   3  -5  -6   12.15    1.51
   3  -5  -6   14.17    1.96
   3  -5  -6   13.38    1.63
  -3  -5   6   11.67    1.73
   3   5  -6   14.28    1.78
   3   5  -6   13.56    2.52
   3   5  -6   14.22    1.88
  -3   5   6   14.22    2.08
  -3   5   6   12.44    1.93
  -3   5   6   13.21    0.91
  -1  -5   6    5.31    1.23
   1  -5  -6    3.55    1.32
  -1  -5   6    4.98    1.65
   1  -5  -6    4.52    1.15
   1  -5  -6    3.97    1.17
   1  -5  -6    4.66    0.92
   1  -5  -6    3.73    1.38
   1  -5  -6    3.97    1.24
  -1   5   6    5.77    0.73
  -1   5   6    5.11    1.38
   1   5  -6    8.42    2.05
   1   5  -6    5.46    1.10
  -1   5   6    4.18    1.16
   1   5  -6    6.00    1.29
   1   5  -6    4.08    1.00
  -1  -5  -6   15.87    2.17
  -1  -5  -6   14.31    1.41
  -1  -5  -6   16.66    1.99
   1  -5   6   14.90    2.91
   1  -5   6   13.76    1.84
  -1  -5  -6   15.39    2.18
  -1  -5  -6   14.72    1.86
  -1  -5  -6   18.58    2.35
  -1   5  -6   13.82    1.46
   1   5   6   15.88    2.22
  -1   5  -6   13.39    1.68
  -1   5  -6   15.27    1.70
   1   5   6   15.78    2.15
   1   5   6   13.34    1.03
  -3  -5  -6    5.85    1.40
  -3  -5  -6    3.60    1.15
  -3  -5  -6    5.26    1.37
   3  -5   6    3.37    1.70
   3  -5   6    4.62    1.23
  -3  -5  -6    5.37    1.42
   3   5   6    4.24    1.37
   3   5   6    5.15    1.41
  -3   5  -6    5.45    0.95
  -3   5  -6    6.00    1.25
   5  -5   6   11.11    2.42
  -5  -5  -6   13.06    2.20
  -5  -5  -6    8.77    1.64
   5  -5   6   12.05    1.87
  -5  -5  -6    9.26    1.78
  -5  -5  -6    7.82    1.52
  -5   5  -6    8.42    1.63
  -5   5  -6    8.49    1.32
   5   5   6   11.47    1.96
  -5   5  -6    8.91    1.45
   5   5   6   10.24    1.71
  -5   5  -6    8.35    1.35
  -7  -5  -6   11.12    2.10
   7  -5   6    9.13    1.77
  -7  -5  -6    6.93    1.62
  -7  -5  -6    9.04    1.94
  -7  -5  -6    9.67    1.80
   7   5   6    9.09    1.91
  -7   5  -6    8.68    1.69
  -7   5  -6   12.94    1.74
  -7   5  -6   15.95    2.75
   7   5   6   11.61    2.22
  -7   5  -6    9.29    1.36
  -9  -5  -6   -0.44    1.44
  -9  -5  -6    2.25    1.67
  -9  -5  -6    2.43    1.94
  -9  -5  -6    1.53    1.41
   9  -5   6    1.21    1.43
   9   5   6    4.20    2.05
  -9   5  -6    2.15    1.06
  -9   5  -6   -0.04    0.93
  -9   5  -6   -0.31    1.19
 -11  -5  -6   10.66    2.84
 -11  -5  -6    7.28    1.74
 -11  -5  -6    8.40    1.94
 -11  -5  -6    6.83    2.10
  11  -5   6    8.85    2.15
 -11   5  -6   10.04    1.49
 -11   5  -6    4.99    2.12
 -13  -5  -6    0.46    1.94
  13  -5   6    0.93    1.94
 -13  -5  -6   -1.04    1.74
 -13  -5  -6   -1.09    1.53
 -13  -5  -6    0.92    2.41
 -13  -5  -6   12.88    5.63
 -13   5  -6    3.26    1.41
 -13   5  -6    0.62    1.66
 -18  -6   6   12.23    2.59
  18  -6  -6    6.60    2.10
 -18  -6   6    6.62    2.43
 -18   6   6   10.48    2.30
 -18   6   6   15.36    2.66
  18   6  -6    7.91    2.38
  18   6  -6    8.09    2.59
  16  -6  -6   11.45    2.09
  16  -6  -6   10.38    2.69
 -16  -6   6    7.17    2.11
  16  -6  -6    8.59    1.93
 -16  -6   6    6.84    2.15
 -16   6   6   11.99    2.83
  16   6  -6    7.68    2.31
 -16   6   6    9.03    2.43
  16   6  -6    8.42    3.25
  14  -6  -6   15.88    2.26
  14  -6  -6   14.67    2.82
  14  -6  -6   14.75    2.07
  14  -6  -6   15.28    2.35
 -14  -6   6   13.57    2.31
 -14  -6   6   16.46    2.27
  14   6  -6   18.28    2.64
 -14   6   6   17.37    2.98
 -14   6   6   24.01    2.93
  14   6  -6   17.56    2.83
  12  -6  -6   24.59    2.85
  12  -6  -6   23.97    2.57
  12  -6  -6   23.03    2.32
 -12  -6   6   27.41    2.58
 -12  -6   6   21.14    2.90
  12  -6  -6   24.12    3.20
  12   6  -6   25.04    2.79
  12   6  -6   25.82    3.32
  12   6  -6   24.47    3.03
 -12   6   6   25.34    2.97
 -12   6   6   21.22    2.26
 -10  -6   6    4.12    1.49
  10  -6  -6    4.95    1.90
  10  -6  -6    5.98    1.47
 -10  -6   6    9.19    2.60
  10  -6  -6    5.34    1.58
  10  -6  -6    4.04    1.38
  10  -6  -6    5.45    1.27
  10   6  -6    7.42    2.60
  10   6  -6    4.75    1.55
 -10   6   6    4.53    1.59
  10   6  -6    3.58    1.49
 -10   6   6    4.14    1.41
  -8  -6   6   37.43    2.94
   8  -6  -6   41.15    2.37
  -8  -6   6   41.21    4.22
   8  -6  -6   41.76    2.67
   8  -6  -6   42.36    2.91
   8  -6  -6   41.51    3.53
  -8   6   6   43.81    3.18
   8   6  -6   39.64    3.13
   8   6  -6   44.28    3.07
  -8   6   6   41.48    3.12
   8   6  -6   47.58    3.99
   6  -6  -6    8.25    1.27
  -6  -6   6    8.07    1.51
   6  -6  -6    9.17    1.43
   6  -6  -6    5.54    1.67
   6  -6  -6    7.10    1.45
  -6  -6   6    6.69    2.28
   6  -6  -6    5.74    1.66
   6   6  -6    7.01    1.51
   6   6  -6    8.41    1.59
  -6   6   6    7.81    1.64
   6   6  -6   10.87    2.49
   6   6  -6    6.94    1.53
  -6   6   6    8.54    1.71
   4  -6  -6   33.81    2.14
   4  -6  -6   36.97    2.78
   4  -6  -6   36.48    2.90
   4  -6  -6   33.09    2.95
  -4  -6   6   36.76    3.84
   4  -6  -6   34.19    2.33
  -4  -6   6   34.33    2.59
   4  -6  -6   35.73    2.42
   4   6  -6   43.10    3.74
   4   6  -6   33.81    2.67
   4   6  -6   35.26    2.55
  -4   6   6   32.32    2.79
   4   6  -6   36.72    2.63
  -4   6   6   33.98    2.70
  -2  -6   6    6.48    1.40
   2  -6  -6    5.33    1.24
   2  -6  -6    3.96    1.35
   2  -6  -6    6.30    1.52
   2  -6  -6    7.11    1.78
   2  -6  -6    5.12    1.34
  -2  -6   6    5.59    1.86
   2  -6  -6    5.24    1.09
  -2   6   6    6.71    1.53
   2   6  -6    4.49    1.28
   2   6  -6    4.94    1.16
   2   6  -6    9.99    2.40
   2   6  -6    5.03    1.27
  -2   6   6    6.36    1.50
   0  -6  -6   48.32    2.56
   0  -6  -6   52.22    2.95
   0  -6  -6   49.54    3.23
   0  -6  -6   47.96    3.32
   0  -6  -6   53.59    3.73
   0  -6   6   46.41    2.91
   0  -6  -6   41.08    3.71
   0  -6   6   48.11    4.16
   0   6   6   51.16    3.42
   0   6   6   46.82    3.23
   0   6  -6   49.13    2.63
   0   6  -6   46.42    2.47
   0   6  -6   47.55    2.93
  -2  -6  -6    1.49    1.20
  -2  -6  -6   -0.08    0.69
  -2  -6  -6    1.20    1.03
   2  -6   6    2.59    1.78
   2  -6   6   -0.72    0.96
  -2  -6  -6    1.66    1.20
  -2  -6  -6    1.65    1.32
  -2   6  -6    0.81    0.72
   2   6   6    3.32    1.29
  -2   6  -6    1.75    0.81
   2   6   6    0.62    1.26
  -2   6  -6    1.95    1.02
  -4  -6  -6   37.92    3.41
  -4  -6  -6   34.73    2.73
  -4  -6  -6   27.62    2.64
  -4  -6  -6   33.39    3.10
   4  -6   6   29.16    3.85
   4  -6   6   30.76    2.63
  -4  -6  -6   30.62    1.91
   4   6   6   31.55    3.13
   4   6   6   35.66    3.16
  -4   6  -6   29.72    2.32
  -4   6  -6   35.52    2.84
  -4   6  -6   32.43    1.96
   6  -6   6    1.41    1.91
  -6  -6  -6    1.86    1.31
  -6  -6  -6    3.83    1.84
  -6  -6  -6    2.21    1.56
  -6  -6  -6    1.72    1.29
   6  -6   6    1.64    1.45
  -6   6  -6    1.59    1.15
   6   6   6    2.79    1.78
   6   6   6    4.17    1.69
  -6   6  -6    3.59    1.11
  -6   6  -6    3.39    0.85
  -8  -6  -6   13.06    2.13
  -8  -6  -6   21.88    3.15
  -8  -6  -6   10.22    2.07
   8  -6   6   14.91    2.20
  -8  -6  -6   15.99    2.61
   8   6   6   18.16    3.18
  -8   6  -6   13.96    1.96
  -8   6  -6   14.26    2.49
   8   6   6   23.68    3.41
 -10  -6  -6    3.17    1.63
 -10  -6  -6    3.39    1.78
 -10  -6  -6    8.70    2.71
 -10  -6  -6   -0.37    1.55
  10  -6   6    0.58    1.60
 -10  -6  -6    1.56    2.25
 -10   6  -6    2.90    1.84
 -10   6  -6    7.14    1.70
 -10   6  -6    1.89    1.23
  12  -6   6   10.76    2.45
 -12  -6  -6   12.15    3.00
 -12  -6  -6    9.41    2.00
 -12  -6  -6    6.74    2.51
 -12  -6  -6    5.61    1.99
 -12   6  -6   11.61    1.66
 -12   6  -6    8.14    2.03
 -17  -7   6    7.07    2.13
 -15  -7   6   17.34    3.09
  15  -7  -6   23.38    5.24
 -15  -7   6   25.97    3.44
  15  -7  -6   23.08    3.03
  15   7  -6   24.22    3.72
 -15   7   6   23.12    3.29
  15   7  -6   19.60    2.97
  13  -7  -6    3.64    1.55
  13  -7  -6    3.13    1.80
 -13  -7   6    4.68    2.14
  13  -7  -6    4.24    2.15
  13  -7  -6    6.47    1.75
 -13  -7   6    5.71    1.60
 -13   7   6    3.92    1.78
  13   7  -6    3.94    2.86
  13   7  -6    5.09    2.00
 -13   7   6    3.73    1.84
  13   7  -6   15.23    4.74
 -11  -7   6   40.59    5.07
  11  -7  -6   29.83    2.82
  11  -7  -6   30.25    3.25
  11  -7  -6   35.19    3.74
  11  -7  -6   32.70    2.97
 -11  -7   6   33.43    3.30
 -11   7   6   27.85    3.22
 -11   7   6   30.02    3.24
  11   7  -6   35.45    3.43
  11   7  -6   38.40    4.28
  11   7  -6   30.40    3.18
   9  -7  -6    4.94    1.46
   9  -7  -6    3.08    1.19
  -9  -7   6    6.01    1.74
   9  -7  -6    5.37    1.50
   9  -7  -6    6.28    2.17
  -9  -7   6    7.34    2.93
   9  -7  -6    3.48    1.59
   9   7  -6   10.26    2.90
   9   7  -6    3.53    1.61
  -9   7   6    4.55    1.56
  -9   7   6    6.05    1.69
   9   7  -6    5.63    1.67
   7  -7  -6   32.60    3.25
  -7  -7   6   35.87    2.98
  -7  -7   6   34.48    4.41
   7  -7  -6   36.44    2.91
   7  -7  -6   36.99    3.57
   7  -7  -6   35.10    2.47
   7  -7  -6   37.74    2.82
   7   7  -6   46.36    3.93
   7   7  -6   38.79    2.96
   7   7  -6   35.05    3.02
  -7   7   6   42.21    3.39
  -7   7   6   34.54    3.08
  -5  -7   6    2.14    2.46
   5  -7  -6    2.83    1.18
   5  -7  -6    4.96    1.90
   5  -7  -6    3.42    1.21
   5  -7  -6    4.46    1.42
  -5  -7   6    3.16    1.37
   5  -7  -6    1.92    1.52
  -5   7   6    5.10    1.48
   5   7  -6    4.65    1.29
  -5   7   6    5.05    1.54
   5   7  -6    5.23    1.42
   5   7  -6    9.10    2.46
   5   7  -6    3.86    1.36
   3  -7  -6   22.96    2.32
  -3  -7   6   25.32    3.94
   3  -7  -6   25.57    2.70
   3  -7  -6   28.34    2.67
   3  -7  -6   24.69    2.11
  -3  -7   6   22.99    2.38
  -3   7   6   28.08    2.70
   3   7  -6   23.97    2.42
   3   7  -6   28.72    2.59
  -3   7   6   26.26    2.94
   3   7  -6   24.49    2.32
   1  -7  -6   12.68    2.17
   1  -7  -6   17.22    2.41
   1  -7  -6   13.68    1.68
  -1  -7   6   16.72    3.52
  -1  -7   6   16.12    2.15
   1  -7  -6   15.14    2.09
  -1   7   6   14.61    2.48
   1   7  -6   17.16    2.05
   1   7  -6   14.90    1.79
   1   7  -6   16.85    2.23
  -1   7   6   14.36    2.50
  -1  -7  -6   14.10    2.13
  -1  -7  -6   10.88    1.54
  -1  -7  -6   14.26    1.97
  -1  -7  -6   17.23    2.67
   1  -7   6   12.63    2.88
  -1  -7  -6   17.44    3.55
   1  -7   6   10.44    1.72
  -1  -7  -6   12.38    2.25
  -1   7  -6   15.21    2.13
  -1   7  -6   13.90    1.50
   1   7   6   17.93    2.66
   1   7   6   11.67    1.96
  -3  -7  -6    6.78    1.76
  -3  -7  -6   10.43    2.05
  -3  -7  -6    6.59    1.43
  -3  -7  -6    8.58    1.94
  -3  -7  -6    5.11    1.54
   3  -7   6    8.86    2.83
  -3  -7  -6    5.38    1.06
   3  -7   6    6.14    1.49
   3   7   6   10.26    2.13
  -3   7  -6    8.21    1.52
   3   7   6    7.63    1.88
  -3   7  -6    8.17    1.36
  -5  -7  -6   10.37    1.88
   5  -7   6   17.48    3.43
   5  -7   6   18.56    2.48
  -5  -7  -6   13.63    2.36
  -5  -7  -6   21.49    3.16
  -5  -7  -6   13.49    1.81
  -5  -7  -6   13.09    2.08
  -5  -7  -6   16.26    2.64
  -5   7  -6   16.00    1.60
   5   7   6   22.42    3.20
  -5   7  -6   13.54    2.37
  -5   7  -6   15.60    2.05
  -7  -7  -6    9.26    2.03
  -7  -7  -6   11.62    2.45
  -7  -7  -6    7.35    1.91
  -7  -7  -6   10.09    2.36
   7  -7   6    4.29    3.23
  -7   7  -6   10.71    1.60
   7   7   6   11.57    2.45
  -7   7  -6   10.94    1.92
   7   7   6   11.39    2.97
  -9  -7  -6    5.55    1.90
   9  -7   6    3.38    1.93
  -9  -7  -6    8.80    3.98
  -9  -7  -6    1.25    2.36
   9   7   6    7.68    2.40
  -9   7  -6    2.19    1.33
 -14  -8   6    8.76    2.36
  14  -8  -6    4.51    2.31
  14  -8  -6    6.91    2.03
 -14   8   6    5.49    2.19
  14   8  -6    3.34    2.11
 -14   8   6    5.98    1.98
  14   8  -6    5.07    2.18
 -12  -8   6   12.03    3.85
 -12  -8   6    8.74    2.19
  12  -8  -6    5.70    2.10
  12  -8  -6    9.34    2.04
 -12   8   6    8.59    2.08
 -12   8   6    5.43    2.16
  12   8  -6    5.22    2.16
  12   8  -6    4.72    1.90
  10  -8  -6    0.75    1.73
  10  -8  -6    1.82    1.46
 -10  -8   6    4.33    1.83
 -10   8   6    2.83    1.56
  10   8  -6   -0.57    1.56
  10   8  -6   -0.17    1.71
 -10   8   6    0.76    1.77
   8  -8  -6   12.82    1.75
   8  -8  -6   13.85    2.38
   8  -8  -6   12.72    2.02
  -8  -8   6   15.57    2.34
  -8  -8   6   22.42    3.04
   8  -8  -6   13.32    2.03
   8   8  -6   14.69    2.24
  -8   8   6   15.81    2.76
   8   8  -6   13.18    2.18
  -8   8   6   12.80    2.30
  -6  -8   6    6.96    1.92
   6  -8  -6    3.41    1.48
   6  -8  -6    2.31    1.33
  -6  -8   6    3.27    1.63
   6  -8  -6    3.65    1.83
  -6  -8   6    4.91    2.90
   6  -8  -6    1.17    1.24
   6   8  -6    0.10    1.34
   6   8  -6    4.23    1.55
  -6   8   6    3.75    1.75
   6   8  -6    2.77    1.39
  -6   8   6    3.04    1.42
   4  -8  -6   10.43    1.65
   4  -8  -6    9.76    1.63
  -4  -8   6    9.87    2.09
   4  -8  -6   10.28    1.94
  -4  -8   6   11.80    3.31
  -4  -8   6   10.86    1.96
   4  -8  -6    8.27    2.03
   4   8  -6    8.10    1.67
  -4   8   6   11.62    2.24
   4   8  -6    8.91    1.62
  -4   8   6    8.79    1.86
   4   8  -6    7.70    1.74
  -2  -8   6    3.07    2.61
   2  -8  -6    1.31    1.53
   2  -8  -6    0.96    1.05
  -2  -8   6    1.11    1.44
   2  -8  -6    2.20    1.33
   2  -8  -6    0.69    1.59
   2   8  -6    2.40    1.10
  -2   8   6    4.29    1.80
  -2   8   6    1.67    1.41
   2   8  -6    1.27    1.36
   0  -8  -6   14.95    2.11
   0  -8   6   16.85    2.47
   0  -8   6   20.15    4.14
   0  -8  -6   12.04    2.18
   0  -8  -6   16.63    2.50
   0  -8  -6   12.93    1.66
   0   8   6   17.02    2.90
   0   8  -6   14.68    1.69
   0   8   6   19.00    2.97
   0   8  -6   14.36    2.05
  -2  -8  -6    3.91    1.90
   2  -8   6    1.78    1.49
  -2  -8  -6    2.21    1.00
  -2  -8  -6   -1.13    1.48
  -2  -8  -6    2.22    1.58
   2  -8   6    3.27    2.54
  -2   8  -6    1.09    1.36
  -2   8  -6    0.68    0.73
   2   8   6    3.29    1.87
   2   8   6    1.84    1.59
   4  -8   6   11.55    2.24
  -4  -8  -6   10.81    1.48
  -4  -8  -6   11.05    2.24
  -4  -8  -6   16.75    2.82
   4   8   6   11.78    3.44
  -4   8  -6    9.45    1.40
   4   8   6   12.61    2.17
  -4   8  -6   10.80    1.67
  -4   8  -6    9.48    1.75
  -6  -8  -6    1.08    1.82
  -6  -8  -6    4.25    2.46
   6  -8   6    0.80    2.70
   6  -8   6    4.69    1.77
  -6  -8  -6    1.17    1.76
  -6   8  -6    2.55    1.47
   6   8   6    4.93    2.42
   6   8   6    1.75    2.24
  -6   8  -6    1.03    1.33
   8  -8   6    5.08    1.94
  -8  -8  -6   14.20    3.11
  -8  -8  -6    4.13    1.93
  -8  -8  -6    6.06    2.24
  -8  -8  -6    8.70    2.13
   8   8   6    7.78    2.63
  -8   8  -6    3.62    1.74
  -8   8  -6    8.25    1.57
  11  -9  -6    9.50    3.91
  11  -9  -6   11.20    2.05
 -11  -9   6   14.48    2.53
  11   9  -6   10.37    2.45
 -11   9   6   12.18    2.60
 -11   9   6   11.91    2.18
  11   9  -6   11.11    2.36
  -9  -9   6   20.20    3.27
  -9  -9   6   11.83    4.02
   7  -9  -6   17.73    2.62
  -7  -9   6   21.17    3.28
   7  -9  -6   21.04    3.08
  -7  -9   6   27.12    3.47
   7  -9  -6   17.16    4.10
   7   9  -6   16.25    2.38
   7   9  -6   21.23    3.08
  -7   9   6   25.60    3.67
  -7   9   6   18.90    3.06
  -5  -9   6   11.06    3.89
   5  -9  -6    4.57    1.46
   5  -9  -6    4.24    1.76
  -5  -9   6    5.05    1.82
  -5  -9   6    4.59    1.78
   5  -9  -6    2.64    1.63
  -5   9   6    3.80    2.12
   5   9  -6    5.64    1.62
  -5   9   6    4.27    2.02
   5   9  -6    3.70    1.59
   3  -9  -6    9.98    1.94
   3  -9  -6    8.26    1.72
   3  -9  -6   13.49    2.25
   3  -9  -6   10.90    2.78
  -3  -9   6   13.52    3.84
  -3  -9   6   11.00    2.13
  -3  -9   6   13.79    2.63
  -3   9   6   15.85    2.57
  -3   9   6   14.27    2.75
   1  -9  -6    6.95    1.50
   1  -9  -6    6.75    1.80
  -1  -9   6   12.87    3.61
   1  -9  -6    5.94    2.12
  -1  -9   6    5.02    1.75
   1  -9  -6    4.68    2.01
   1   9  -6    6.74    1.24
  -1   9   6    5.94    5.15
   1   9  -6    7.53    2.20
  -1   9   6    8.10    2.01
  -1  -9  -6    3.54    1.69
  -1  -9  -6    7.02    1.45
  -1  -9  -6   10.42    4.10
   1  -9   6   11.78    3.45
  -1  -9  -6    8.97    2.02
  -1  -9  -6   15.74    2.62
   1   9   6    8.50    2.04
  -1   9  -6    5.48    1.71
  -1   9  -6    8.80    1.46
   1   9   6   12.14    2.76
  -3  -9  -6   19.40    5.68
  -3  -9  -6    3.05    1.90
   3  -9   6    4.24    1.74
   3  -9   6    6.39    3.57
  -3  -9  -6    2.46    1.33
  -3  -9  -6    5.09    2.01
   3   9   6    8.12    2.50
  -3   9  -6    3.68    1.54
   3   9   6    2.97    1.82
  -3   9  -6    5.31    1.68
  -3   9  -6    4.87    0.75
   5  -9   6    5.35    3.45
  -5  -9  -6    8.25    2.13
   5  -9   6    8.31    2.15
  -5  -9  -6    1.94    1.96
  -5  -9  -6    9.20    2.83
  -5   9  -6    9.00    2.63
   5   9   6    9.13    2.84
  -6 -10   6   19.79    3.41
  -6 -10   6   15.50    4.50
  -4 -10   6   20.01    5.02
   4 -10  -6   16.63    2.61
  -4 -10   6   14.51    2.51
   4 -10  -6   10.88    2.54
   4 -10  -6   12.95    2.31
   4  10  -6   11.21    1.95
   4  10  -6    8.18    2.18
  -4  10   6   11.86    2.35
   2 -10  -6   10.03    2.61
   2 -10  -6    6.84    2.06
   2 -10  -6    2.85    1.92
  -2 -10   6    7.96    2.03
  -2 -10   6   17.03    4.55
   2 -10  -6    9.17    1.75
   2  10  -6    8.93    2.03
   2  10  -6    5.13    1.40
  -2  10   6   13.17    2.97
  -2  10   6    8.00    2.03
   0 -10  -6   11.93    2.64
   0 -10  -6   14.41    2.44
   0 -10   6    8.65    2.15
   0 -10  -6   16.96    3.19
   0 -10   6   21.48    4.56
   0 -10  -6   12.08    2.51
   0  10  -6   12.30    2.13
   0  10  -6   16.97    1.83
   0  10   6   22.00    3.56
  20   0  -7    2.83    2.19
  20   0  -7    0.49    2.32
 -20   0   7    3.62    2.80
 -20   0   7   -2.60    2.15
 -18   0   7   27.28    3.70
  18   0  -7   28.73    3.80
 -18   0   7   22.32    3.91
  18   0  -7   28.19    3.49
  18   0  -7   27.85    3.84
 -18   0   7   27.38    3.99
 -16   0   7    1.73    1.81
  16   0  -7    2.78    1.26
  16   0  -7    3.20    2.16
  16   0  -7    3.85    1.73
  16   0  -7    1.45    1.64
 -16   0   7    4.52    1.94
 -16   0   7    1.78    1.88
  14   0  -7   54.43    4.44
  14   0  -7   66.17    3.15
  14   0  -7   66.05    4.15
 -14   0   7   68.59    3.96
 -14   0   7   64.81    4.19
  14   0  -7   57.11    3.95
 -14   0   7   60.52    4.31
  12   0  -7    2.40    1.48
 -12   0   7    5.08    1.19
 -12   0   7    3.93    1.44
 -12   0   7    5.63    1.54
  12   0  -7    2.40    1.50
 -12   0   7    3.44    1.87
  12   0  -7    3.05    1.88
  12   0  -7    2.43    1.11
  10   0  -7   72.64    3.30
 -10   0   7   70.39    4.28
 -10   0   7   69.01    3.66
  10   0  -7   73.32    4.41
 -10   0   7   72.28    3.63
  10   0  -7   70.35    3.98
  10   0  -7   73.49    4.01
  -8   0   7   19.86    2.43
  -8   0   7   18.71    2.72
  -8   0   7   19.06    2.44
   8   0  -7   20.89    2.25
   8   0  -7   18.83    1.79
   8   0  -7   18.65    2.20
   8   0  -7   19.36    2.55
  -8   0   7   23.71    2.10
  -6   0   7   31.81    2.54
  -6   0   7   31.50    2.28
   6   0  -7   34.80    2.64
  -6   0   7   35.15    2.64
   6   0  -7   29.18    2.42
  -6   0   7   31.90    2.58
   6   0  -7   33.84    3.09
   6   0  -7   31.19    2.08
   4   0  -7   22.57    2.64
  -4   0   7   21.90    2.05
   4   0  -7   20.79    2.19
   4   0  -7   21.36    2.07
  -4   0   7   19.75    2.12
   4   0  -7   23.61    1.99
  -4   0   7   22.58    1.90
   2   0  -7   37.66    2.61
   2   0  -7   39.15    2.96
  -2   0   7   36.01    2.45
   2   0  -7   37.12    2.58
  -2   0   7   37.79    2.57
   2   0  -7   35.26    2.39
  -2   0   7   39.68    2.28
   0   0  -7   26.92    2.46
   0   0  -7   23.08    2.31
   0   0   7   22.99    1.83
   0   0  -7   23.93    2.20
   0   0  -7   23.50    1.91
   0   0  -7   20.36    2.06
   0   0   7   23.95    2.07
  -2   0  -7    4.35    1.25
   2   0   7    5.16    1.17
  -2   0  -7    6.16    1.32
  -2   0  -7    2.91    1.10
  -2   0  -7    6.79    1.49
   2   0   7    4.19    1.05
  -2   0  -7    4.89    1.20
   4   0   7   38.04    2.70
  -4   0  -7   39.76    2.61
  -4   0  -7   41.56    2.72
  -4   0  -7   39.20    2.83
   4   0   7   38.82    2.46
  -4   0  -7   38.92    3.03
  -4   0  -7   40.65    2.70
  -6   0  -7    4.05    1.33
  -6   0  -7    3.66    1.34
  -6   0  -7    3.76    1.14
  -6   0  -7    2.13    1.24
  -6   0  -7    1.80    1.05
   6   0   7    3.01    1.14
  -8   0  -7   16.03    2.57
  -8   0  -7   16.40    2.22
   8   0   7   14.33    1.92
  -8   0  -7   14.05    2.05
  -8   0  -7   16.98    2.58
  -8   0  -7   14.36    2.56
  10   0   7    1.92    1.47
 -10   0  -7    2.37    1.28
 -10   0  -7    1.84    1.91
 -10   0  -7    0.26    1.55
 -10   0  -7    1.78    1.62
 -12   0  -7   11.29    2.01
 -12   0  -7   13.29    2.42
 -12   0  -7   20.13    3.43
  19  -1  -7   12.24    2.55
 -19  -1   7   10.69    2.66
 -19  -1   7   12.09    2.89
  19   1  -7   11.20    4.29
 -19   1   7   19.56    3.05
 -19   1   7   14.40    3.10
  19   1  -7   10.65    2.76
  19   1  -7   11.78    2.53
 -17  -1   7    3.31    1.95
  17  -1  -7    3.62    2.12
  17  -1  -7    4.21    2.11
 -17  -1   7    3.11    2.10
  17  -1  -7    2.88    2.30
 -17  -1   7    2.20    2.04
  17   1  -7    3.46    2.07
 -17   1   7   -0.48    1.87
  17   1  -7    5.66    2.42
 -17   1   7   -0.58    2.09
 -17   1   7    2.30    2.08
  17   1  -7    2.68    3.22
  17   1  -7    3.68    1.38
 -15  -1   7   31.80    3.26
  15  -1  -7   38.13    2.41
 -15  -1   7   40.69    3.04
  15  -1  -7   39.20    3.47
 -15  -1   7   29.51    3.34
  15  -1  -7   31.59    3.37
 -15  -1   7   31.46    4.31
  15  -1  -7   29.46    3.63
 -15   1   7   32.45    3.65
  15   1  -7   33.85    3.37
  15   1  -7   36.58    3.43
 -15   1   7   33.82    3.37
  15   1  -7   30.46    2.38
 -15   1   7   31.23    3.10
  15   1  -7   32.42    3.84
 -13  -1   7    3.61    1.68
 -13  -1   7    4.59    1.29
  13  -1  -7    5.31    2.05
  13  -1  -7    3.16    1.50
  13  -1  -7    3.67    1.05
 -13  -1   7    3.76    1.49
  13   1  -7    0.46    1.29
  13   1  -7    1.96    1.43
  13   1  -7    4.45    1.21
 -13   1   7    2.99    1.36
 -13   1   7    2.96    1.64
 -13   1   7    2.08    1.38
  13   1  -7    0.70    1.89
  11  -1  -7   40.34    3.04
 -11  -1   7   38.31    3.02
 -11  -1   7   36.63    3.01
  11  -1  -7   39.25    3.30
  11  -1  -7   37.75    3.03
  11  -1  -7   39.97    2.44
 -11  -1   7   42.57    2.94
 -11   1   7   40.43    3.07
 -11   1   7   38.80    2.79
  11   1  -7   37.83    3.64
  11   1  -7   42.62    3.08
 -11   1   7   37.97    3.29
  11   1  -7   41.85    2.53
  11   1  -7   37.00    3.08
   9  -1  -7    1.05    1.16
  -9  -1   7    0.96    1.14
   9  -1  -7    1.23    1.46
   9  -1  -7    1.54    0.92
  -9  -1   7    0.13    1.35
   9  -1  -7    1.11    1.07
  -9  -1   7    1.44    1.07
  -9  -1   7    0.46    1.13
   9   1  -7    0.33    0.87
   9   1  -7    2.50    1.69
  -9   1   7    0.91    1.26
  -9   1   7    0.69    1.15
   9   1  -7    0.22    1.21
   9   1  -7    1.83    1.24
  -9   1   7    2.20    1.50
   7  -1  -7   82.82    4.20
  -7  -1   7   82.95    4.06
  -7  -1   7   88.13    4.29
  -7  -1   7   84.93    4.22
   7  -1  -7   82.32    3.63
  -7  -1   7   89.09    3.99
   7  -1  -7   83.04    4.59
   7  -1  -7   86.76    4.16
  -7   1   7   89.42    5.21
  -7   1   7   86.86    3.77
   7   1  -7   84.64    4.61
   7   1  -7   84.26    4.20
   7   1  -7   79.03    3.67
   7   1  -7   82.47    4.12
  -7   1   7   77.36    4.16
  -5  -1   7    1.44    1.06
  -5  -1   7    0.72    0.98
  -5  -1   7    0.86    0.98
  -5  -1   7    1.27    1.00
   5  -1  -7    0.65    1.32
   5  -1  -7   -0.26    0.78
   5  -1  -7    0.70    0.93
   5  -1  -7    0.98    0.95
   5   1  -7    0.99    0.98
  -5   1   7    0.04    0.93
  -5   1   7    2.17    1.13
   5   1  -7    1.67    1.30
  -5   1   7    1.98    0.95
   5   1  -7    2.52    1.03
   5   1  -7    1.13    0.97
  -3  -1   7   74.42    3.46
   3  -1  -7   75.83    3.80
  -3  -1   7   74.00    3.82
  -3  -1   7   74.55    4.12
   3  -1  -7   73.89    3.74
  -3  -1   7   73.22    3.46
   3  -1  -7   75.85    4.13
   3  -1  -7   73.06    3.36
  -3   1   7   74.79    3.72
   3   1  -7   72.65    3.68
   3   1  -7   77.32    4.29
   3   1  -7   72.69    3.44
  -3   1   7   72.46    3.67
  -3   1   7   72.98    3.24
   3   1  -7   75.50    3.67
  -1  -1   7    0.63    0.84
   1  -1  -7   -1.56    1.10
   1  -1  -7    0.10    0.75
   1  -1  -7    0.31    0.80
   1  -1  -7    0.58    0.86
  -1  -1   7    0.34    0.85
   1  -1  -7    0.33    0.95
  -1   1   7   -1.10    0.82
   1   1  -7   -0.39    0.86
  -1   1   7    0.29    0.91
   1   1  -7   -0.29    0.82
  -1   1   7    0.30    0.75
   1   1  -7    0.04    0.89
   1   1  -7   -0.31    1.17
  -1  -1  -7   36.40    2.75
  -1  -1  -7   34.24    2.58
   1  -1   7   37.11    2.33
  -1  -1  -7   38.53    2.62
   1  -1   7   37.07    2.32
  -1  -1  -7   34.08    2.69
  -1  -1  -7   38.57    2.49
  -1   1  -7   33.87    2.33
  -1   1  -7   35.06    2.76
   1   1   7   37.94    2.64
   1   1   7   36.53    2.58
  -1   1  -7   35.59    2.55
  -1   1  -7   38.61    2.56
  -1   1  -7   33.00    2.74
   1   1   7   37.23    2.16
   3  -1   7    1.15    1.07
  -3  -1  -7   -0.62    0.99
  -3  -1  -7   -0.61    0.91
  -3  -1  -7    0.42    0.93
  -3  -1  -7    0.11    0.91
  -3  -1  -7   -0.20    0.93
  -3  -1  -7    0.20    0.54
   3  -1   7   -0.34    0.84
  -3   1  -7    0.42    0.92
  -3   1  -7    0.59    0.89
   3   1   7    0.54    1.03
   3   1   7    0.57    0.84
  -3   1  -7   -0.36    0.96
  -3   1  -7    0.91    0.91
  -3   1  -7    1.61    1.14
  -5  -1  -7   33.04    2.66
  -5  -1  -7   28.78    2.25
   5  -1   7   31.61    2.39
  -5  -1  -7   28.45    2.59
  -5  -1  -7   26.30    2.69
  -5  -1  -7   34.14    2.81
   5   1   7   35.50    2.67
  -5   1  -7   32.48    2.39
  -5   1  -7   30.33    2.75
   5   1   7   31.45    2.24
  -5   1  -7   28.32    2.24
  -5   1  -7   32.03    2.61
  -5   1  -7   33.26    2.43
  -7  -1  -7    0.34    1.03
   7  -1   7    0.21    1.14
  -7  -1  -7    0.77    1.24
  -7  -1  -7   -1.53    1.00
  -7  -1  -7    0.55    1.25
  -7  -1  -7    0.32    1.14
  -7   1  -7   -0.47    1.07
  -7   1  -7    0.56    1.16
  -7   1  -7   -0.10    2.18
  -7   1  -7    1.48    1.12
  -7   1  -7   -0.11    1.17
   7   1   7   -0.46    1.04
   7   1   7    3.09    1.37
   9  -1   7   14.88    2.33
  -9  -1  -7   10.70    1.93
  -9  -1  -7   14.20    2.24
  -9  -1  -7   11.58    1.72
  -9  -1  -7   21.43    3.27
  -9   1  -7   14.17    2.11
   9   1   7   14.23    1.92
  -9   1  -7   14.90    2.12
  -9   1  -7   10.40    2.06
 -11  -1  -7    7.14    2.30
 -11  -1  -7    5.36    1.90
 -11  -1  -7    0.27    1.88
  11  -1   7    3.60    2.14
 -11   1  -7    3.69    1.45
 -11   1  -7    2.98    1.71
 -11   1  -7    4.57    1.73
 -11   1  -7    3.09    1.79
 -13  -1  -7    0.28    1.87
 -13  -1  -7    8.97    2.85
 -13  -1  -7   -0.37    1.57
 -13  -1  -7    3.40    2.28
 -13   1  -7   -0.01    1.99
 -13   1  -7    2.37    2.12
 -13   1  -7    1.06    1.51
 -13   1  -7    7.25    2.62
  20  -2  -7    2.20    2.13
  20  -2  -7   -2.58    1.75
  20  -2  -7    2.49    2.58
 -20  -2   7   -4.11    2.20
 -20  -2   7   -3.60    2.27
  20   2  -7    1.27    2.38
  20   2  -7    1.67    2.62
 -20   2   7    0.00    3.94
 -20   2   7   -0.80    2.26
  20   2  -7   -0.29    2.15
  18  -2  -7   22.39    3.69
 -18  -2   7   16.74    2.91
  18  -2  -7   23.22    3.30
 -18  -2   7   18.38    2.94
  18   2  -7   21.57    3.53
  18   2  -7   16.51    2.77
 -18   2   7   17.13    2.96
 -18   2   7   23.90    3.57
  18   2  -7   21.57    2.55
 -16  -2   7   -0.52    1.75
 -16  -2   7    0.11    1.74
  16  -2  -7   -0.17    1.54
  16  -2  -7    2.33    2.05
  16   2  -7    1.62    1.21
  16   2  -7   -1.22    2.09
 -16   2   7    4.05    2.08
 -16   2   7    3.33    1.79
  16   2  -7   -0.44    1.49
  16   2  -7   -1.87    1.66
 -16   2   7   -1.97    1.67
  14  -2  -7   38.43    2.36
 -14  -2   7   37.68    3.50
 -14  -2   7   40.21    3.32
  14  -2  -7   37.21    3.26
  14  -2  -7   38.98    3.80
 -14  -2   7   37.14    3.33
  14  -2  -7   35.31    3.33
  14   2  -7   37.56    3.50
  14   2  -7   36.60    3.40
 -14   2   7   41.71    3.39
 -14   2   7   33.96    3.01
  14   2  -7   36.01    2.54
 -14   2   7   33.58    3.51
  14   2  -7   38.35    3.97
  12  -2  -7   -0.21    1.20
 -12  -2   7    0.69    1.44
  12  -2  -7    0.48    0.93
  12  -2  -7   -1.05    1.60
 -12  -2   7    1.65    1.32
  12  -2  -7    1.36    1.46
 -12  -2   7    0.07    1.19
 -12   2   7    0.96    1.36
 -12   2   7    1.07    1.17
  12   2  -7    0.81    1.83
  12   2  -7    2.20    1.42
  12   2  -7    0.76    0.98
 -12   2   7   -0.39    1.23
  12   2  -7    1.47    1.32
  10  -2  -7   42.72    3.12
  10  -2  -7   35.82    3.38
 -10  -2   7   40.62    3.13
  10  -2  -7   42.78    3.09
 -10  -2   7   38.09    3.01
  10  -2  -7   44.06    2.40
 -10   2   7   37.73    3.22
 -10   2   7   43.25    2.64
  10   2  -7   38.95    3.08
  10   2  -7   40.08    3.00
 -10   2   7   42.35    3.26
  10   2  -7   38.17    3.63
  10   2  -7   33.13    2.49
   8  -2  -7    6.75    1.48
   8  -2  -7    6.95    1.24
  -8  -2   7    7.53    1.51
   8  -2  -7    8.60    1.67
  -8  -2   7   10.92    2.14
  -8  -2   7    8.36    1.59
   8  -2  -7    7.20    2.00
  -8   2   7    7.87    1.70
   8   2  -7    9.22    1.67
   8   2  -7    8.27    1.60
   8   2  -7    8.42    2.00
  -8   2   7    8.69    1.36
   8   2  -7    7.51    1.28
  -8   2   7    7.83    1.76
  -6  -2   7   17.72    2.47
  -6  -2   7   18.66    1.98
  -6  -2   7   15.13    1.99
   6  -2  -7   16.54    2.56
   6  -2  -7   16.01    2.11
   6  -2  -7   17.05    1.76
   6  -2  -7   17.36    2.19
   6   2  -7   18.41    2.14
  -6   2   7   18.56    2.30
  -6   2   7   18.52    2.50
   6   2  -7   18.49    1.91
   6   2  -7   17.80    2.73
   6   2  -7   19.19    2.10
  -6   2   7   16.29    1.63
  -4  -2   7    8.22    1.49
   4  -2  -7    7.11    1.45
  -4  -2   7    7.99    1.29
  -4  -2   7    7.79    1.70
   4  -2  -7    5.43    1.57
   4  -2  -7    5.50    1.22
   4  -2  -7    6.07    1.37
   4   2  -7    8.30    1.92
  -4   2   7    9.10    1.68
  -4   2   7    7.73    1.48
   4   2  -7    6.40    1.33
   4   2  -7    5.10    1.19
   4   2  -7    7.35    1.34
  -4   2   7    8.84    1.21
  -2  -2   7   11.63    1.75
  -2  -2   7   11.78    2.27
   2  -2  -7   12.49    1.81
   2  -2  -7   12.94    1.44
   2  -2  -7   12.75    1.71
   2  -2  -7   11.87    1.94
  -2  -2   7   11.90    1.70
   2  -2  -7   12.42    1.89
   2  -2  -7   12.09    1.94
   2   2  -7   12.70    1.77
  -2   2   7   12.38    1.43
  -2   2   7   11.85    1.93
   2   2  -7   14.17    1.74
   2   2  -7   12.52    1.79
   2   2  -7   14.16    2.37
  -2   2   7   13.74    2.01
   0  -2  -7   11.63    1.86
   0  -2  -7   14.20    1.95
   0  -2  -7   13.71    2.04
   0  -2  -7   11.55    1.92
   0  -2   7   12.08    1.69
   0  -2   7   11.01    1.66
   0  -2  -7   13.24    1.81
   0  -2  -7   13.94    1.60
   0   2  -7   12.50    1.77
   0   2   7   12.99    1.89
   0   2  -7   14.16    2.29
   0   2  -7   12.86    1.84
   0   2   7   13.92    1.42
   0   2   7   11.48    1.89
   0   2  -7   13.30    1.66
  -2  -2  -7    3.13    1.21
  -2  -2  -7    1.99    1.22
  -2  -2  -7    3.30    1.11
  -2  -2  -7    4.08    1.25
  -2  -2  -7    2.48    1.12
   2  -2   7    3.34    1.14
  -2  -2  -7    2.80    0.68
  -2   2  -7    3.01    1.07
  -2   2  -7    2.76    1.04
  -2   2  -7    4.18    1.40
   2   2   7    3.68    0.97
  -2   2  -7    2.43    1.13
   2   2   7    2.45    1.28
   2   2   7    4.68    1.32
  -2   2  -7    3.05    1.10
  -4  -2  -7   22.00    2.49
   4  -2   7   18.41    2.10
  -4  -2  -7   25.46    2.43
  -4  -2  -7   21.67    2.57
  -4  -2  -7   22.05    2.32
  -4  -2  -7   24.52    2.06
  -4   2  -7   22.43    2.20
   4   2   7   21.25    1.83
  -4   2  -7   20.84    2.04
  -4   2  -7   20.34    2.49
  -4   2  -7   21.68    2.25
   4   2   7   19.48    2.47
  -4   2  -7   17.83    2.02
  -6  -2  -7   -0.53    1.18
  -6  -2  -7    0.52    1.05
  -6  -2  -7    0.92    1.27
  -6  -2  -7   -0.08    1.34
  -6  -2  -7    0.19    1.08
   6  -2   7   -0.76    1.07
  -6   2  -7    1.06    1.06
  -6   2  -7    0.84    1.12
   6   2   7    2.20    1.44
  -6   2  -7   -0.31    1.00
  -6   2  -7    0.13    0.94
   6   2   7   -0.80    0.99
  -6   2  -7    1.74    1.17
  -8  -2  -7    8.08    1.61
   8  -2   7   10.32    1.82
  -8  -2  -7   10.50    2.08
  -8  -2  -7    6.24    1.63
  -8  -2  -7   11.99    2.24
  -8   2  -7    7.77    1.47
   8   2   7   16.57    2.76
  -8   2  -7   13.85    2.25
  -8   2  -7   11.12    2.03
  -8   2  -7   12.99    1.93
   8   2   7   11.26    1.70
 -10  -2  -7    4.85    2.09
 -10  -2  -7    4.91    1.81
 -10  -2  -7    0.82    1.70
  10  -2   7    1.18    1.55
 -10  -2  -7    1.91    1.58
 -10   2  -7   -0.93    1.23
 -10   2  -7    2.62    1.53
 -10   2  -7    1.32    1.63
 -10   2  -7   -1.13    1.69
 -12  -2  -7   10.73    2.57
  12  -2   7    7.33    2.11
 -12  -2  -7    9.62    2.36
 -12  -2  -7   12.13    3.07
 -12  -2  -7    6.89    1.78
 -12   2  -7   10.94    2.05
 -12   2  -7   12.66    2.57
 -12   2  -7    9.50    2.24
  19  -3  -7   12.33    2.89
  19  -3  -7    9.70    2.33
 -19  -3   7   13.81    2.73
  19  -3  -7    8.41    2.14
 -19  -3   7   11.45    2.60
 -19   3   7    6.81    2.51
  19   3  -7   11.11    2.87
 -19   3   7   11.46    3.82
  19   3  -7    8.74    2.45
  19   3  -7   12.05    2.01
 -17  -3   7    3.81    2.19
 -17  -3   7    1.94    1.87
  17  -3  -7    4.90    1.96
 -17  -3   7    8.32    2.63
  17  -3  -7    6.71    2.37
  17  -3  -7    4.76    2.02
 -17   3   7    2.60    2.35
  17   3  -7    5.18    1.59
 -17   3   7    4.94    2.08
  17   3  -7    4.20    2.19
  17   3  -7    7.70    2.20
  15  -3  -7   43.65    3.51
 -15  -3   7   46.71    3.63
 -15  -3   7   43.56    3.82
  15  -3  -7   41.70    3.47
  15  -3  -7   53.77    4.20
 -15   3   7   41.55    3.57
  15   3  -7   40.91    3.75
 -15   3   7   42.39    3.93
  15   3  -7   41.91    2.93
 -15   3   7   39.56    3.39
  15   3  -7   49.12    4.45
  15   3  -7   42.53    3.59
  13  -3  -7    7.73    1.31
 -13  -3   7   10.42    2.18
  13  -3  -7    8.26    2.21
 -13  -3   7    9.74    2.07
  13  -3  -7   10.03    2.03
  13  -3  -7    7.81    1.89
  13  -3  -7    7.53    1.58
 -13  -3   7    7.70    1.78
  13   3  -7    8.00    2.28
  13   3  -7    7.83    1.79
  13   3  -7    8.30    1.51
 -13   3   7   10.37    2.19
 -13   3   7    7.29    1.81
  13   3  -7    8.42    1.69
 -13   3   7    8.36    1.71
 -11  -3   7   46.27    3.33
  11  -3  -7   43.88    2.48
  11  -3  -7   43.60    3.18
 -11  -3   7   38.92    3.53
  11  -3  -7   47.65    3.42
 -11  -3   7   47.58    3.17
  11  -3  -7   41.76    3.07
  11  -3  -7   42.93    3.52
  11   3  -7   38.29    3.30
  11   3  -7   46.41    4.05
 -11   3   7   46.05    2.78
 -11   3   7   41.09    3.41
  11   3  -7   46.73    2.82
  11   3  -7   39.79    3.28
  -9  -3   7    6.11    1.70
   9  -3  -7    6.36    1.67
  -9  -3   7    6.77    1.50
   9  -3  -7    5.12    1.42
   9  -3  -7    4.20    1.58
  -9  -3   7    5.68    1.67
   9  -3  -7    6.58    1.21
   9  -3  -7    7.49    1.57
  -9   3   7    6.77    1.68
   9   3  -7    7.07    1.57
  -9   3   7    7.37    1.80
   9   3  -7    5.68    1.52
   9   3  -7    6.40    1.34
   9   3  -7    6.71    2.12
  -9   3   7    9.99    1.56
   7  -3  -7   81.96    4.15
  -7  -3   7   84.45    3.80
   7  -3  -7   76.66    4.53
  -7  -3   7   80.43    4.03
   7  -3  -7   82.70    3.58
   7  -3  -7   82.34    4.14
   7  -3  -7   82.85    3.88
  -7  -3   7   81.39    4.65
   7   3  -7   80.49    4.78
   7   3  -7   76.26    3.77
  -7   3   7   84.60    4.33
   7   3  -7   79.49    4.16
  -7   3   7   83.49    3.44
  -7   3   7   79.18    4.24
   7   3  -7   76.95    4.02
   5  -3  -7    0.00    1.04
   5  -3  -7    0.36    1.35
  -5  -3   7   -0.31    1.07
   5  -3  -7   -1.68    0.77
   5  -3  -7   -0.61    0.85
  -5  -3   7    0.99    1.20
   5  -3  -7    0.80    0.81
  -5  -3   7    0.31    0.89
   5  -3  -7   -0.54    1.04
  -5   3   7   -0.27    1.19
   5   3  -7    0.38    0.93
  -5   3   7   -0.44    1.06
   5   3  -7    0.81    1.00
   5   3  -7    0.60    1.54
  -5   3   7   -0.04    0.81
   5   3  -7   -0.33    0.91
   3  -3  -7   94.67    4.26
   3  -3  -7   94.95    3.96
   3  -3  -7   94.26    4.08
  -3  -3   7   99.52    3.76
  -3  -3   7   92.05    4.26
   3  -3  -7  101.41    4.57
   3  -3  -7   94.43    4.48
   3  -3  -7  101.77    4.97
  -3  -3   7   96.73    5.20
   3   3  -7   95.63    4.25
   3   3  -7   95.98    4.35
   3   3  -7   92.47    4.32
   3   3  -7   98.04    4.96
  -3   3   7   91.13    4.46
   1  -3  -7    4.56    1.28
   1  -3  -7    4.02    1.22
   1  -3  -7    3.50    1.09
   1  -3  -7    2.19    1.37
  -1  -3   7    3.69    1.58
   1  -3  -7    4.13    0.91
  -1  -3   7    1.69    0.98
   1  -3  -7    2.54    1.03
   1   3  -7    6.30    1.78
   1   3  -7    4.14    1.09
  -1   3   7    2.45    1.19
  -1   3   7    2.29    1.14
  -1   3   7    3.24    1.44
   1   3  -7    2.56    0.98
   1   3  -7    1.73    1.00
  -1  -3  -7   30.30    1.92
  -1  -3  -7   28.37    2.59
  -1  -3  -7   24.83    2.50
  -1  -3  -7   28.65    2.63
  -1  -3  -7   27.22    2.13
   1  -3   7   29.52    2.30
  -1  -3  -7   28.69    2.52
   1  -3   7   30.61    3.19
  -1   3  -7   26.43    2.19
   1   3   7   28.41    1.83
   1   3   7   28.29    2.65
  -1   3  -7   27.71    2.10
  -1   3  -7   25.73    2.21
   1   3   7   26.12    2.62
  -1   3  -7   28.06    2.68
   3  -3   7    0.72    1.11
  -3  -3  -7    1.33    1.24
  -3  -3  -7    1.35    1.24
  -3  -3  -7    0.09    0.62
  -3  -3  -7    1.45    1.11
  -3  -3  -7    1.10    1.09
  -3  -3  -7    1.73    1.14
  -3   3  -7    1.59    1.10
  -3   3  -7    0.41    0.90
   3   3   7    0.49    0.86
  -3   3  -7    0.50    0.94
   3   3   7    0.70    1.20
  -3   3  -7    3.55    1.40
  -3   3  -7    0.24    1.00
   5  -3   7   40.06    2.81
  -5  -3  -7   37.34    2.91
  -5  -3  -7   37.61    2.68
  -5  -3  -7   40.12    3.40
  -5  -3  -7   43.23    3.30
  -5  -3  -7   40.67    3.24
  -5   3  -7   42.76    2.78
  -5   3  -7   38.76    3.23
   5   3   7   42.37    3.37
   5   3   7   39.78    2.36
  -5   3  -7   46.21    2.86
  -5   3  -7   40.75    2.59
  -5   3  -7   43.27    2.78
  -7  -3  -7    2.17    1.39
   7  -3   7    1.40    1.37
  -7  -3  -7    0.33    1.35
  -7  -3  -7    0.61    1.62
  -7  -3  -7    0.41    1.31
  -7   3  -7    1.40    1.14
  -7   3  -7   -1.16    1.00
  -7   3  -7    2.20    1.15
   7   3   7    2.65    1.73
  -7   3  -7   -1.33    1.06
  -9  -3  -7    9.90    2.05
  -9  -3  -7   10.51    2.53
   9  -3   7    9.74    2.09
  -9  -3  -7   16.19    2.60
  -9  -3  -7    9.54    1.98
  -9   3  -7    7.94    2.00
  -9   3  -7   10.97    1.68
  -9   3  -7   11.63    1.84
  -9   3  -7   15.74    2.85
 -11  -3  -7    7.85    2.92
  11  -3   7    3.56    1.95
 -11  -3  -7    2.05    1.74
 -11  -3  -7    3.89    1.93
 -11  -3  -7    8.05    2.32
 -11   3  -7    2.54    1.75
 -11   3  -7    0.51    1.35
 -11   3  -7    4.25    1.62
 -11   3  -7    8.97    2.04
 -18  -4   7   22.58    3.18
  18  -4  -7   24.26    3.27
  18  -4  -7   23.07    3.42
  18  -4  -7   21.83    3.92
 -18  -4   7   19.57    2.93
 -18   4   7   27.87    4.27
  18   4  -7   21.76    3.09
 -18   4   7   30.28    3.71
  18   4  -7   23.84    3.63
  16  -4  -7    1.58    1.65
 -16  -4   7    0.91    1.82
  16  -4  -7    1.19    1.47
  16  -4  -7    3.66    2.22
 -16  -4   7    3.18    1.84
 -16   4   7    0.67    1.86
  16   4  -7    1.12    1.36
  16   4  -7   -1.25    1.72
 -16   4   7    5.36    1.89
  16   4  -7    5.32    3.25
  16   4  -7   -1.45    1.64
  14  -4  -7   30.98    3.00
 -14  -4   7   33.53    3.30
  14  -4  -7   28.72    3.17
 -14  -4   7   34.94    4.08
  14  -4  -7   36.11    3.77
 -14  -4   7   28.58    3.21
 -14   4   7   33.34    3.62
 -14   4   7   34.97    3.47
 -14   4   7   24.66    2.72
  14   4  -7   26.49    3.44
  14   4  -7   34.46    3.25
  14   4  -7   42.70    4.25
  14   4  -7   34.86    2.80
 -12  -4   7    2.24    1.51
  12  -4  -7    1.90    1.45
  12  -4  -7    0.94    1.40
  12  -4  -7    5.90    2.18
 -12  -4   7    4.41    1.91
 -12  -4   7    5.71    1.50
  12  -4  -7    2.21    1.08
  12   4  -7    2.27    1.26
  12   4  -7    1.71    1.37
  12   4  -7    2.06    1.44
 -12   4   7    2.84    1.69
 -12   4   7    4.90    1.31
  12   4  -7    5.47    2.41
 -10  -4   7   42.17    3.22
 -10  -4   7   41.34    3.79
  10  -4  -7   39.31    3.40
  10  -4  -7   39.46    2.40
  10  -4  -7   40.93    4.16
  10  -4  -7   37.41    2.84
  10  -4  -7   40.52    3.07
 -10  -4   7   39.05    2.96
 -10   4   7   42.89    3.38
 -10   4   7   35.91    3.37
  10   4  -7   42.37    3.16
 -10   4   7   45.25    2.47
  10   4  -7   42.11    3.93
  10   4  -7   41.95    3.33
  10   4  -7   41.28    2.86
  -8  -4   7   11.43    1.93
   8  -4  -7   12.60    2.31
  -8  -4   7   11.85    1.92
  -8  -4   7   11.93    2.26
   8  -4  -7   12.63    1.68
   8  -4  -7   11.65    1.96
   8  -4  -7   11.92    1.94
   8  -4  -7   12.00    1.71
   8   4  -7   13.45    2.42
   8   4  -7   12.68    1.76
   8   4  -7   13.73    2.13
   8   4  -7   15.84    2.21
  -8   4   7   12.11    2.06
  -8   4   7   15.95    1.62
  -8   4   7   12.69    2.01
  -6  -4   7   24.96    2.40
   6  -4  -7   23.35    2.63
  -6  -4   7   27.55    3.23
   6  -4  -7   23.50    2.11
   6  -4  -7   23.82    2.08
   6  -4  -7   27.94    2.23
   6  -4  -7   20.55    2.62
   6  -4  -7   25.88    2.46
  -6   4   7   24.53    2.53
   6   4  -7   22.35    2.32
  -6   4   7   24.71    1.67
  -6   4   7   26.48    2.69
   6   4  -7   24.75    3.19
   6   4  -7   26.24    2.32
   6   4  -7   24.67    2.51
   4  -4  -7    9.38    1.43
   4  -4  -7    8.39    1.92
   4  -4  -7    9.48    1.68
   4  -4  -7   12.04    1.63
  -4  -4   7   10.73    1.78
   4  -4  -7    8.47    1.53
  -4  -4   7    8.98    1.98
   4  -4  -7   10.29    1.77
  -4  -4   7    9.76    1.68
   4   4  -7   11.05    2.37
   4   4  -7   10.42    1.65
  -4   4   7   10.46    1.78
   4   4  -7   10.00    1.79
   4   4  -7    7.98    1.47
  -4   4   7    9.10    1.14
  -4   4   7    9.99    1.84
  -2  -4   7   13.77    1.91
  -2  -4   7   14.26    2.85
   2  -4  -7   10.49    1.78
   2  -4  -7   13.67    1.57
   2  -4  -7   12.90    2.21
   2  -4  -7   12.00    2.26
   2  -4  -7   13.43    1.85
   2  -4  -7   13.63    2.07
   2   4  -7   11.32    1.62
  -2   4   7   11.83    1.16
   2   4  -7   11.64    1.82
  -2   4   7   13.08    2.11
   2   4  -7   11.73    1.83
  -2   4   7   12.37    2.21
   2   4  -7   17.57    2.71
   0  -4  -7   16.25    2.03
   0  -4  -7   15.91    1.53
   0  -4  -7   17.66    2.39
   0  -4  -7   15.05    2.43
   0  -4  -7   13.09    2.08
   0  -4  -7   17.14    2.03
   0  -4   7   16.10    2.05
   0  -4   7   15.75    2.93
   0   4  -7   18.77    1.93
   0   4   7   15.40    1.31
   0   4  -7   14.66    1.79
   0   4  -7   22.30    2.70
   0   4  -7   16.93    1.91
   0   4   7   16.81    2.33
   0   4   7   16.37    2.37
  -2  -4  -7    7.90    1.09
  -2  -4  -7    8.92    1.84
  -2  -4  -7    8.25    1.59
   2  -4   7    5.68    2.09
  -2  -4  -7    6.94    1.55
  -2  -4  -7    6.47    1.57
   2  -4   7    6.54    1.43
  -2  -4  -7    7.27    1.46
  -2   4  -7   10.12    2.02
  -2   4  -7    7.10    1.29
   2   4   7    7.75    1.73
   2   4   7    6.79    1.77
   2   4   7    9.30    1.23
  -2   4  -7    8.46    1.43
  -2   4  -7    7.95    1.31
   4  -4   7   19.42    2.28
  -4  -4  -7   15.69    2.49
  -4  -4  -7   17.93    2.89
  -4  -4  -7   18.81    2.34
  -4  -4  -7   18.59    2.46
  -4  -4  -7   16.68    2.44
  -4   4  -7   22.31    2.51
  -4   4  -7   17.09    2.00
   4   4   7   14.75    1.71
  -4   4  -7   15.26    2.10
   4   4   7   16.88    2.59
  -4   4  -7   19.65    2.37
   4   4   7   24.02    3.35
  -4   4  -7   18.61    1.93
   6  -4   7   -0.67    1.35
  -6  -4  -7    0.34    1.44
  -6  -4  -7    2.79    1.38
  -6  -4  -7   -1.48    1.61
  -6  -4  -7   -0.16    1.37
  -6   4  -7    0.43    1.00
  -6   4  -7    1.26    1.14
  -6   4  -7    0.69    1.12
  -6   4  -7    0.28    1.19
  -6   4  -7    2.92    1.26
   6   4   7    1.73    1.86
  -8  -4  -7   12.50    2.44
  -8  -4  -7   11.26    2.56
   8  -4   7   14.03    3.45
  -8  -4  -7    8.53    2.02
  -8   4  -7   11.85    1.88
  -8   4  -7    7.00    1.53
  -8   4  -7   11.02    1.89
   8   4   7   15.62    2.91
  -8   4  -7   10.30    2.10
 -10  -4  -7    7.37    2.76
 -10  -4  -7   -0.03    1.92
 -10  -4  -7   -0.47    2.02
 -10  -4  -7    0.62    1.62
  10  -4   7    1.43    1.76
 -10   4  -7    2.65    1.43
 -10   4  -7    2.31    1.64
 -10   4  -7    4.83    1.60
  17  -5  -7    1.72    1.76
  17  -5  -7    4.26    3.27
  17  -5  -7    2.74    2.50
 -17  -5   7    2.44    2.00
 -17   5   7    2.98    2.15
  17   5  -7   -0.93    2.02
  17   5  -7    2.18    1.73
 -17   5   7    4.14    2.04
  17   5  -7   -0.16    2.09
 -15  -5   7   21.33    3.15
  15  -5  -7   19.78    2.97
  15  -5  -7   13.95    2.29
  15  -5  -7   19.76    3.57
  15  -5  -7   17.75    2.83
 -15  -5   7   24.44    3.37
 -15   5   7   17.14    2.22
 -15   5   7   23.25    3.18
 -15   5   7   15.30    2.53
  15   5  -7   18.65    3.04
  15   5  -7   17.00    2.33
  13  -5  -7    1.43    1.97
  13  -5  -7    2.36    1.48
 -13  -5   7    5.58    1.59
 -13  -5   7    2.34    1.71
  13  -5  -7    1.41    1.48
 -13  -5   7    5.45    2.40
 -13   5   7    0.85    2.19
 -13   5   7    4.00    2.01
 -13   5   7    3.56    1.78
  13   5  -7    1.47    2.42
  13   5  -7    0.79    1.60
  13   5  -7    4.39    1.49
  13   5  -7    3.15    1.69
 -11  -5   7   20.17    2.81
  11  -5  -7   15.19    2.77
 -11  -5   7   17.35    2.52
  11  -5  -7   17.92    2.16
 -11  -5   7   17.13    3.09
  11  -5  -7   16.77    2.60
  11  -5  -7   16.49    1.90
  11   5  -7   13.12    1.86
 -11   5   7   19.18    1.78
  11   5  -7   20.73    3.53
  11   5  -7   16.00    2.37
 -11   5   7   17.66    2.99
  11   5  -7   15.65    2.64
 -11   5   7   17.82    2.63
   9  -5  -7    0.29    1.39
  -9  -5   7    0.98    1.99
   9  -5  -7    0.80    1.04
  -9  -5   7    0.17    1.39
   9  -5  -7    1.18    1.26
  -9  -5   7    1.24    1.16
  -9   5   7    1.82    1.38
  -9   5   7    1.74    1.53
   9   5  -7    0.78    1.26
   9   5  -7    1.02    1.35
   9   5  -7    0.91    1.32
   9   5  -7    3.08    2.17
   7  -5  -7   37.20    2.51
  -7  -5   7   36.32    2.95
   7  -5  -7   31.67    2.47
   7  -5  -7   37.42    2.91
   7  -5  -7   35.08    3.40
  -7  -5   7   37.24    3.96
   7  -5  -7   32.77    2.38
  -7  -5   7   33.33    2.47
  -7   5   7   34.08    3.09
   7   5  -7   34.64    2.85
  -7   5   7   31.88    3.11
   7   5  -7   35.31    3.15
   7   5  -7   32.83    3.73
  -7   5   7   35.76    1.94
   7   5  -7   36.54    2.81
   5  -5  -7   -2.33    1.35
   5  -5  -7    0.37    1.28
   5  -5  -7    2.14    1.25
   5  -5  -7   -0.43    1.87
   5  -5  -7   -0.15    0.84
  -5  -5   7   -0.47    1.58
  -5  -5   7    0.81    1.23
   5  -5  -7    1.23    1.04
  -5   5   7    0.06    1.29
   5   5  -7    0.58    1.75
   5   5  -7   -0.55    0.99
   5   5  -7   -0.71    1.07
  -5   5   7    0.02    1.20
   5   5  -7    0.43    1.01
   3  -5  -7   36.20    2.55
  -3  -5   7   38.42    2.86
   3  -5  -7   35.54    2.42
   3  -5  -7   41.49    3.18
   3  -5  -7   34.01    3.09
  -3  -5   7   40.95    3.93
   3  -5  -7   36.21    2.59
   3  -5  -7   39.96    2.97
   3   5  -7   35.51    2.67
   3   5  -7   37.96    3.69
   3   5  -7   42.47    2.85
  -3   5   7   37.75    3.07
   3   5  -7   37.59    2.73
  -3   5   7   37.51    3.13
   1  -5  -7    0.48    1.41
   1  -5  -7   -0.47    1.23
   1  -5  -7    0.65    1.18
  -1  -5   7    1.81    1.21
   1  -5  -7    0.46    1.04
   1  -5  -7   -0.64    0.78
  -1  -5   7    2.15    1.66
   1  -5  -7   -0.62    1.05
  -1   5   7    0.75    1.25
   1   5  -7    0.74    1.15
   1   5  -7    4.27    2.02
   1   5  -7   -1.36    1.02
   1   5  -7    0.03    0.90
  -1   5   7    0.44    1.33
  -1  -5  -7    9.99    1.97
  -1  -5  -7   13.63    2.34
  -1  -5  -7   11.72    2.03
  -1  -5  -7   11.82    2.12
   1  -5   7    9.16    2.33
  -1  -5  -7   11.33    1.53
   1  -5   7   12.61    1.94
  -1  -5  -7   10.75    1.68
   1   5   7    9.95    1.85
   1   5   7   13.88    2.21
  -1   5  -7   11.74    1.71
  -1   5  -7   13.20    1.86
  -1   5  -7   12.28    1.80
  -3  -5  -7   -0.93    1.32
   3  -5   7    0.30    1.23
  -3  -5  -7    1.06    0.81
  -3  -5  -7   -1.56    1.15
   3  -5   7   -0.40    1.90
  -3  -5  -7    1.25    1.33
  -3  -5  -7    2.88    1.40
  -3   5  -7   -0.80    0.98
  -3   5  -7    1.22    0.93
   3   5   7    0.61    1.59
  -3   5  -7    0.32    1.05
  -3   5  -7    0.29    1.02
  -3   5  -7    3.95    1.80
   3   5   7    0.80    1.36
   5  -5   7   20.17    2.56
  -5  -5  -7   17.11    2.69
  -5  -5  -7   18.04    2.72
  -5  -5  -7   18.72    2.99
  -5  -5  -7   21.19    2.61
  -5   5  -7   22.39    2.23
   5   5   7   24.08    3.23
  -5   5  -7   16.85    2.39
   5   5   7   26.49    3.09
  -5   5  -7   13.75    1.82
  -7  -5  -7   -1.77    1.51
  -7  -5  -7    2.52    2.02
  -7  -5  -7    1.54    3.29
   7  -5   7   -0.88    1.68
  -7  -5  -7    0.02    1.87
   7   5   7    3.98    2.34
  -7   5  -7    0.05    1.50
  -7   5  -7   -0.05    1.27
  -7   5  -7    2.20    1.30
  -9  -5  -7   13.89    3.18
  -9  -5  -7    9.31    2.49
   9  -5   7    8.00    2.16
  -9  -5  -7    4.45    2.26
  -9  -5  -7    5.06    1.88
  -9   5  -7    6.09    1.53
  -9   5  -7    7.73    1.67
  -9   5  -7    4.54    1.76
 -16  -6   7    3.93    2.18
  16  -6  -7    6.10    2.76
  16  -6  -7    1.90    1.97
  16  -6  -7    2.61    1.85
 -16  -6   7    2.92    2.06
  16   6  -7   -0.25    1.76
  16   6  -7    3.46    2.26
 -16   6   7    1.82    1.95
  16   6  -7    2.32    2.03
  14  -6  -7   31.59    4.27
 -14  -6   7   38.18    5.36
 -14  -6   7   23.44    3.28
  14  -6  -7   21.15    2.95
  14  -6  -7   31.40    3.53
  14  -6  -7   24.05    3.30
 -14  -6   7   28.41    3.03
  14   6  -7   23.48    3.06
  14   6  -7   27.80    3.80
 -14   6   7   29.29    5.80
 -14   6   7   24.47    3.76
  12  -6  -7    3.18    2.44
  12  -6  -7    3.53    1.81
 -12  -6   7    8.35    3.10
  12  -6  -7    4.21    1.70
 -12  -6   7    5.21    1.69
  12   6  -7    3.30    2.06
  12   6  -7    9.66    4.59
  12   6  -7    3.07    1.75
 -12   6   7    5.82    2.08
  12   6  -7    2.22    1.72
 -12   6   7    5.34    1.90
 -10  -6   7   37.39    4.91
 -10  -6   7   33.65    3.33
  10  -6  -7   33.85    3.19
  10  -6  -7   32.31    2.83
  10  -6  -7   28.97    3.65
  10  -6  -7   28.77    2.45
  10   6  -7   40.19    4.15
  10   6  -7   30.16    3.40
 -10   6   7   35.62    3.37
  10   6  -7   35.04    3.00
  10   6  -7   28.23    3.10
 -10   6   7   33.05    3.37
   8  -6  -7   12.61    1.90
  -8  -6   7   16.60    3.39
   8  -6  -7   12.14    2.54
   8  -6  -7   11.24    1.58
  -8  -6   7   13.19    2.19
   8  -6  -7   12.78    2.08
  -8   6   7   14.76    2.29
   8   6  -7   13.50    2.93
   8   6  -7   10.55    1.97
  -8   6   7   12.56    2.26
   8   6  -7   10.16    1.83
   8   6  -7    9.87    1.93
  -6  -6   7   18.26    3.39
   6  -6  -7   16.18    2.22
   6  -6  -7   17.21    2.06
   6  -6  -7   16.04    2.61
  -6  -6   7   18.24    2.63
   6  -6  -7   16.37    3.01
   6   6  -7   16.29    2.42
  -6   6   7   14.90    2.43
   6   6  -7   24.99    3.56
   6   6  -7   18.89    2.68
   6   6  -7   13.18    2.34
  -6   6   7   19.53    2.72
   4  -6  -7   11.54    2.03
   4  -6  -7    9.20    1.49
  -4  -6   7    9.00    1.83
  -4  -6   7    8.57    2.56
   4  -6  -7   15.23    2.81
   4  -6  -7    9.17    1.64
   4  -6  -7   11.06    2.26
  -4   6   7    8.49    1.76
   4   6  -7   11.87    1.83
   4   6  -7   11.69    1.80
   4   6  -7   11.14    1.79
  -4   6   7   13.30    2.21
   2  -6  -7   19.19    2.61
   2  -6  -7   15.98    2.19
   2  -6  -7   16.07    2.60
   2  -6  -7   17.01    2.00
   2  -6  -7   17.00    2.26
  -2  -6   7   19.63    3.39
  -2  -6   7   16.33    2.43
   2  -6  -7   24.48    2.87
   2   6  -7   23.92    3.35
   2   6  -7   17.38    2.18
  -2   6   7   21.03    2.83
   2   6  -7   16.84    2.35
   2   6  -7   17.89    2.19
  -2   6   7   18.15    2.73
   0  -6   7   12.91    1.96
   0  -6  -7    9.60    2.00
   0  -6   7   13.70    2.96
   0  -6  -7   10.68    1.44
   0  -6  -7   11.60    2.20
   0  -6  -7   10.34    1.80
   0  -6  -7   11.00    1.63
   0  -6  -7   12.53    2.40
   0   6   7   14.39    2.37
   0   6  -7   10.42    1.62
   0   6   7    8.48    1.85
   0   6  -7   18.51    3.13
   0   6  -7   13.27    1.88
   0   6  -7   14.72    2.03
   2  -6   7    3.82    1.53
  -2  -6  -7    3.71    1.45
   2  -6   7    1.45    2.16
  -2  -6  -7    4.62    1.70
  -2  -6  -7    2.92    1.37
  -2  -6  -7    4.65    1.04
  -2  -6  -7    4.80    1.95
   2   6   7    7.68    1.84
  -2   6  -7    4.00    1.46
  -2   6  -7    6.67    1.22
   2   6   7    4.81    1.87
  -4  -6  -7   13.52    2.50
   4  -6   7   16.75    2.65
  -4  -6  -7   19.26    2.94
   4  -6   7   17.79    3.43
  -4  -6  -7   14.52    2.09
  -4  -6  -7   16.20    2.75
  -4   6  -7   14.96    1.73
  -4   6  -7   13.97    2.44
   4   6   7   15.34    2.43
  -4   6  -7   17.11    2.24
   4   6   7   22.20    3.44
   6  -6   7    0.40    1.72
  -6  -6  -7    5.19    2.14
  -6  -6  -7    0.01    1.59
  -6  -6  -7    3.23    2.11
  -6  -6  -7    2.08    1.72
  -6   6  -7    4.39    2.07
  -6   6  -7    1.38    1.39
   6   6   7    5.95    2.27
   8  -6   7    3.53    1.93
  -8  -6  -7    5.56    2.17
  -8  -6  -7    9.69    2.51
  -8  -6  -7   11.01    2.87
  -8  -6  -7    6.11    2.05
  -8   6  -7    9.54    1.71
  13  -7  -7    6.20    2.23
 -13  -7   7    8.93    2.28
  13  -7  -7    7.36    2.70
 -13  -7   7   13.78    3.82
  13  -7  -7    5.25    2.03
  13  -7  -7    3.70    1.81
 -13   7   7    3.60    1.82
  13   7  -7    8.97    2.34
  13   7  -7    2.73    2.81
  13   7  -7   13.17    3.18
  13   7  -7    6.16    2.05
 -13   7   7    5.57    2.33
 -11  -7   7   20.25    2.91
  11  -7  -7   19.85    3.74
  11  -7  -7   17.94    3.12
 -11  -7   7   19.20    4.54
  11  -7  -7   19.30    2.70
  11  -7  -7   13.16    2.52
 -11   7   7   18.65    2.93
 -11   7   7   18.17    3.04
  11   7  -7   17.36    3.09
  11   7  -7   21.47    3.43
  11   7  -7   15.24    2.23
  -9  -7   7    8.44    3.48
   9  -7  -7    4.85    1.73
   9  -7  -7    8.32    1.83
   9  -7  -7    7.84    1.95
   9  -7  -7    8.14    2.08
  -9  -7   7    5.14    2.88
   9   7  -7    5.06    2.10
  -9   7   7    3.04    1.55
  -9   7   7    7.11    2.13
   9   7  -7    5.46    2.38
  -7  -7   7   37.74    5.18
   7  -7  -7   37.19    3.58
   7  -7  -7   37.12    2.88
  -7  -7   7   30.92    3.32
   7  -7  -7   29.76    2.70
   7  -7  -7   32.36    3.95
   7  -7  -7   27.13    3.23
  -7   7   7   33.39    3.43
   7   7  -7   35.70    3.49
   7   7  -7   33.05    3.15
   7   7  -7   35.37    3.24
  -7   7   7   34.20    3.68
   5  -7  -7    4.28    2.09
  -5  -7   7    4.41    1.73
   5  -7  -7    2.92    1.42
   5  -7  -7    4.13    1.71
  -5  -7   7    2.73    2.48
   5  -7  -7    3.46    1.27
  -5   7   7    4.76    1.92
   5   7  -7    2.62    1.41
   5   7  -7    2.44    1.52
  -5   7   7    3.30    1.74
   5   7  -7    1.54    1.36
  -3  -7   7   28.07    3.01
   3  -7  -7   23.48    3.09
  -3  -7   7   25.92    4.03
   3  -7  -7   24.48    2.54
   3  -7  -7   25.92    2.37
   3   7  -7   30.33    2.74
  -3   7   7   23.79    3.34
   3   7  -7   26.16    2.68
   3   7  -7   27.67    2.80
  -3   7   7   24.89    3.22
   1  -7  -7    4.16    1.79
   1  -7  -7    1.46    1.17
  -1  -7   7    4.13    1.75
  -1  -7   7    3.06    2.62
   1  -7  -7    5.29    1.54
  -1   7   7    3.32    1.97
   1   7  -7    2.44    1.46
  -1   7   7    1.48    1.66
   1   7  -7    1.96    1.11
  -1  -7  -7   15.70    2.19
  -1  -7  -7   15.20    1.91
  -1  -7  -7   17.57    2.84
   1  -7   7   20.41    5.78
   1  -7   7   15.51    2.41
   1   7   7   20.15    5.63
  -1   7  -7   14.16    2.00
  -1   7  -7   18.61    2.49
   1   7   7   19.75    3.38
   3  -7   7    2.36    2.89
   3  -7   7    3.25    1.48
  -3  -7  -7    5.40    2.28
  -3  -7  -7    1.53    1.70
  -3   7  -7    4.56    1.07
  -3   7  -7    2.86    1.49
  -3   7  -7    1.47    1.58
   3   7   7    3.60    2.11
   3   7   7    5.46    2.05
  -5  -7  -7   14.70    2.84
  -5  -7  -7    8.14    2.18
   5  -7   7   12.92    2.37
   5  -7   7   14.18    3.36
  -5  -7  -7   11.85    2.28
  -5  -7  -7    7.99    2.08
  -5   7  -7    9.49    1.97
   5   7   7   10.32    2.34
  -5   7  -7   15.83    2.19
  -5   7  -7   13.01    2.16
  -7  -7  -7   -2.79    1.91
  -7  -7  -7   -0.96    1.74
  -7  -7  -7    3.10    1.96
  -7  -7  -7    2.22    2.52
   7  -7   7   -1.54    1.84
  -7   7  -7   -0.17    1.49
  -7   7  -7    2.05    1.15
  -7   7  -7   -1.55    1.57
   7   7   7   10.21    2.92
  12  -8  -7    2.56    2.11
 -12  -8   7    4.97    2.28
  12  -8  -7    1.45    2.47
  12  -8  -7    7.07    1.96
 -12   8   7    3.40    1.87
  12   8  -7   -1.36    1.88
  12   8  -7    0.24    1.89
  10  -8  -7   10.82    3.04
 -10  -8   7   18.74    4.33
 -10  -8   7    9.86    2.39
  10  -8  -7   18.69    2.77
  10  -8  -7   11.85    2.40
 -10   8   7   12.05    2.55
 -10   8   7   11.94    2.56
  10   8  -7   13.14    2.48
  10   8  -7    8.93    2.20
  10   8  -7    9.78    2.30
   8  -8  -7    5.97    2.41
  -8  -8   7    2.74    1.89
  -8  -8   7    7.62    3.60
   8  -8  -7    3.92    1.56
   8  -8  -7    4.58    1.99
   8   8  -7    2.05    1.75
  -8   8   7    3.02    2.19
   8   8  -7    3.71    1.82
   8   8  -7    2.99    1.80
  -8   8   7    4.49    2.21
   6  -8  -7    2.35    1.84
   6  -8  -7    5.24    1.68
   6  -8  -7    6.31    2.13
  -6  -8   7    4.20    2.04
   6  -8  -7    5.88    1.97
  -6  -8   7    6.23    3.26
  -6   8   7    5.70    2.09
  -6   8   7    6.03    2.04
   6   8  -7    6.68    1.83
   6   8  -7    6.05    1.86
   6   8  -7    2.84    1.70
   6   8  -7   14.16    3.40
   4  -8  -7    3.02    1.40
   4  -8  -7    5.73    1.72
  -4  -8   7    6.62    2.09
  -4  -8   7    9.32    3.45
   4  -8  -7    4.44    1.98
   4  -8  -7    6.40    2.07
  -4   8   7    3.15    2.18
   4   8  -7    4.15    1.55
   4   8  -7    4.09    1.62
  -4   8   7    5.41    1.98
   2  -8  -7    6.37    1.80
   2  -8  -7    8.60    2.35
  -2  -8   7    9.96    2.17
  -2  -8   7    8.42    3.49
   2  -8  -7    5.69    1.85
   2  -8  -7    8.11    1.55
  -2   8   7    7.62    2.16
   2   8  -7    7.72    1.94
  -2   8   7   10.75    2.56
   2   8  -7    6.13    1.46
   0  -8  -7    3.72    1.89
   0  -8  -7    2.45    2.07
   0  -8   7    4.71    1.76
   0  -8  -7    2.42    1.30
   0  -8   7    2.08    3.15
   0  -8  -7    3.82    2.86
   0   8   7    9.19    2.54
   0   8  -7    2.26    1.13
   0   8   7    5.69    2.10
   0   8  -7    4.32    1.76
  -2  -8  -7   -0.42    1.70
   2  -8   7    1.45    1.86
  -2  -8  -7    3.74    2.22
   2  -8   7    6.32    3.45
  -2  -8  -7    3.06    1.83
  -2   8  -7    1.42    1.01
   2   8   7    4.28    2.39
  -2   8  -7    3.76    1.64
   2   8   7    2.71    2.27
  -4  -8  -7    6.75    1.95
   4  -8   7    9.26    3.88
  -4  -8  -7    2.41    1.87
  -4  -8  -7    8.23    2.70
   4  -8   7    5.39    1.95
  -4   8  -7    9.87    1.33
   4   8   7   12.16    2.84
  -4   8  -7    4.50    1.76
  -4   8  -7    5.73    1.81
   4   8   7    8.46    2.68
   7  -9  -7   13.24    2.27
   7  -9  -7   17.30    2.80
   7  -9  -7   11.70    2.57
  -7  -9   7   12.95    2.59
   7   9  -7   11.47    2.18
  -7   9   7   12.30    2.44
   7   9  -7   11.62    2.21
   5  -9  -7    2.29    2.03
   5  -9  -7    3.74    2.32
  -5  -9   7    0.53    2.00
  -5  -9   7    9.87    4.33
   5  -9  -7    1.31    1.95
   5  -9  -7    2.32    1.52
  -5   9   7   -0.54    2.52
   5   9  -7    0.88    1.90
  -5   9   7   -0.20    1.92
   5   9  -7    3.70    1.61
  -3  -9   7   17.64    2.76
   3  -9  -7   10.00    2.40
  -3  -9   7   20.29    4.82
   3  -9  -7   16.18    3.15
   3  -9  -7   10.91    1.92
   3  -9  -7   10.73    2.65
   3   9  -7   11.23    1.91
   3   9  -7   11.24    2.12
  -3   9   7   14.20    3.03
  -3   9   7   13.28    2.51
   1  -9  -7    7.80    2.58
  -1  -9   7    3.67    3.95
   1  -9  -7    2.90    2.09
   1  -9  -7    1.08    2.05
  -1  -9   7    2.77    1.84
   1  -9  -7    3.29    2.04
  -1   9   7    7.28    2.23
  -1   9   7    2.14    2.55
   1   9  -7    4.14    1.22
   1   9  -7    3.51    1.84
  18   0  -8   23.77    4.07
 -18   0   8   27.21    3.55
 -18   0   8   28.64    4.18
  18   0  -8   27.85    4.19
 -16   0   8    1.83    2.25
  16   0  -8    2.44    1.46
  16   0  -8    3.65    2.05
 -16   0   8    6.67    2.11
  16   0  -8    0.98    2.22
  16   0  -8   -0.06    1.87
 -14   0   8   38.20    3.32
  14   0  -8   33.63    4.15
  14   0  -8   44.13    4.06
  14   0  -8   38.49    2.72
  14   0  -8   32.04    3.71
 -14   0   8   37.23    3.51
 -12   0   8    0.88    1.40
  12   0  -8    0.92    1.42
  12   0  -8    0.73    1.18
 -12   0   8    1.02    1.51
  12   0  -8   -0.19    1.48
 -12   0   8   -0.46    1.65
  12   0  -8    0.69    1.76
  10   0  -8   71.73    4.92
 -10   0   8   67.31    3.87
  10   0  -8   72.76    3.67
  10   0  -8   67.05    4.25
 -10   0   8   73.86    4.50
  10   0  -8   69.41    4.25
  -8   0   8    3.54    1.49
   8   0  -8    1.95    1.23
   8   0  -8    3.44    1.48
   8   0  -8    5.01    1.94
  -8   0   8    3.45    1.28
   8   0  -8    2.63    1.44
   6   0  -8   60.56    3.22
   6   0  -8   65.28    3.78
   6   0  -8   67.71    4.36
  -6   0   8   66.29    3.43
  -6   0   8   60.60    3.80
   6   0  -8   63.38    3.86
   4   0  -8    3.07    1.75
  -4   0   8    4.66    1.42
   4   0  -8    2.88    1.24
  -4   0   8    3.78    1.22
   4   0  -8    4.99    1.37
   4   0  -8    2.86    1.24
   2   0  -8   54.83    3.43
   2   0  -8   54.96    3.47
   2   0  -8   52.96    3.73
   2   0  -8   47.71    3.02
  -2   0   8   47.95    2.91
  -2   0   8   50.65    3.23
   0   0  -8    1.22    1.47
   0   0   8    3.24    1.14
   0   0   8    1.92    1.31
   0   0  -8    1.72    1.24
   0   0  -8    1.80    1.13
   0   0  -8    1.51    1.23
   0   0  -8    2.51    1.28
  -2   0  -8   34.36    3.12
   2   0   8   34.83    2.53
   2   0   8   39.85    2.80
  -2   0  -8   35.09    3.13
  -2   0  -8   29.50    2.84
  -2   0  -8   30.11    2.60
  -2   0  -8   31.01    2.97
  -4   0  -8    3.66    1.48
  -4   0  -8    4.73    1.63
  -4   0  -8    4.73    1.52
  -4   0  -8    4.54    1.46
  -4   0  -8    4.19    1.55
   4   0   8    5.18    1.42
  -6   0  -8    8.56    1.89
   6   0   8    7.37    1.63
  -6   0  -8    6.89    1.81
  -6   0  -8    5.40    1.51
  -6   0  -8    5.92    1.59
  -6   0  -8    7.61    1.94
  -8   0  -8    1.97    1.76
  -8   0  -8    1.87    1.40
   8   0   8    3.84    1.79
  -8   0  -8    7.27    2.05
  -8   0  -8    4.61    2.05
 -10   0  -8    3.14    1.74
 -10   0  -8    8.26    2.38
 -10   0  -8    5.80    1.99
 -10   0  -8    6.39    2.24
  10   0   8    3.75    2.00
  17  -1  -8   16.03    2.80
 -17  -1   8   14.44    2.70
 -17  -1   8   19.81    3.02
  17  -1  -8   14.13    3.21
 -17   1   8   21.09    3.45
  17   1  -8   12.57    2.55
 -17   1   8   17.04    3.04
  17   1  -8   18.35    3.57
 -17   1   8   14.88    3.09
  17   1  -8   16.47    2.85
  17   1  -8   15.63    2.12
  15  -1  -8    8.74    2.25
 -15  -1   8    6.25    1.99
  15  -1  -8    5.74    2.19
  15  -1  -8    4.32    1.50
 -15  -1   8    5.93    2.23
 -15   1   8    8.12    2.30
  15   1  -8    4.79    2.13
  15   1  -8    8.24    2.18
  15   1  -8    7.50    4.50
 -15   1   8    2.64    2.20
  15   1  -8    2.71    1.52
 -15   1   8    8.97    2.01
  13  -1  -8   18.52    2.14
 -13  -1   8   17.53    2.72
  13  -1  -8   16.07    2.99
  13  -1  -8   15.27    2.52
 -13  -1   8   15.29    2.58
  13  -1  -8   16.12    2.86
  13   1  -8   19.29    2.40
  13   1  -8   11.27    2.36
 -13   1   8   12.59    2.47
 -13   1   8   15.05    2.29
  13   1  -8   17.20    2.98
  13   1  -8   13.74    2.43
 -11  -1   8   12.97    2.14
 -11  -1   8    6.96    1.58
  11  -1  -8    6.88    1.77
 -11  -1   8    9.42    2.14
  11  -1  -8    8.93    1.87
  11  -1  -8    7.13    1.49
  11  -1  -8    7.40    2.38
 -11   1   8    8.66    2.12
 -11   1   8    9.84    1.78
  11   1  -8    7.00    2.51
 -11   1   8    4.33    2.05
  11   1  -8    7.44    1.93
  11   1  -8    8.62    1.58
  11   1  -8    7.73    1.90
   9  -1  -8   21.10    2.73
   9  -1  -8   18.94    2.72
   9  -1  -8   16.71    3.11
  -9  -1   8   23.72    2.63
  -9  -1   8   18.36    2.69
  -9  -1   8   19.05    2.47
   9  -1  -8   20.23    2.29
   9   1  -8   21.56    2.64
  -9   1   8   17.65    2.74
   9   1  -8   20.21    2.20
   9   1  -8   22.45    3.31
  -9   1   8   26.08    3.38
  -9   1   8   19.49    2.25
   9   1  -8   19.40    2.63
  -7  -1   8   10.92    2.26
  -7  -1   8   10.52    1.79
  -7  -1   8   13.07    1.93
   7  -1  -8   10.36    2.27
   7  -1  -8   11.76    1.67
   7  -1  -8    8.84    1.78
   7  -1  -8    9.40    1.91
   7   1  -8   12.81    1.72
  -7   1   8   11.30    1.94
  -7   1   8    9.14    2.05
   7   1  -8   11.95    2.04
   7   1  -8   12.23    2.08
   7   1  -8   13.14    2.61
  -7   1   8   11.65    1.63
   5  -1  -8    6.16    1.88
  -5  -1   8    6.86    1.52
   5  -1  -8    3.99    1.28
   5  -1  -8    5.93    1.27
  -5  -1   8    8.91    1.57
   5  -1  -8    6.47    1.55
   5   1  -8    4.62    1.35
   5   1  -8    7.38    1.72
  -5   1   8    6.00    1.96
  -5   1   8    7.23    1.38
   5   1  -8    6.39    1.60
   5   1  -8    6.77    2.13
  -5   1   8    5.03    1.53
  -3  -1   8   35.57    2.72
   3  -1  -8   36.18    3.07
   3  -1  -8   33.16    3.31
   3  -1  -8   36.43    2.88
   3  -1  -8   36.56    2.96
  -3  -1   8   35.28    2.60
   3  -1  -8   38.04    2.63
   3   1  -8   39.83    3.44
  -3   1   8   35.18    2.36
   3   1  -8   35.76    2.84
   3   1  -8   35.18    2.95
   3   1  -8   37.78    2.63
  -3   1   8   41.19    3.12
   1  -1  -8    0.78    1.42
   1  -1  -8    3.03    1.30
   1  -1  -8    2.27    1.29
   1  -1  -8    0.64    1.25
  -1  -1   8    2.10    1.13
   1  -1  -8    2.10    1.18
  -1  -1   8    2.69    1.18
   1   1  -8    0.61    1.16
   1   1  -8    1.94    1.26
  -1   1   8    3.07    1.03
  -1   1   8    2.38    1.31
   1   1  -8    1.90    1.23
   1   1  -8    2.42    1.48
  -1  -1  -8   20.25    2.69
   1  -1   8   20.86    2.14
  -1  -1  -8   21.81    2.16
  -1  -1  -8   18.16    2.57
   1  -1   8   27.57    2.36
  -1  -1  -8   19.74    1.73
  -1  -1  -8   19.72    2.57
  -1  -1  -8   20.26    2.60
  -1   1  -8   20.46    2.56
  -1   1  -8   20.36    2.32
  -1   1  -8   22.73    2.65
  -1   1  -8   24.73    2.73
  -1   1  -8   21.24    2.44
   1   1   8   21.71    2.05
   1   1   8   23.94    2.66
  -3  -1  -8    2.40    1.56
  -3  -1  -8    4.34    1.55
  -3  -1  -8    0.91    1.29
   3  -1   8    3.03    1.32
  -3  -1  -8    1.80    1.40
  -3  -1  -8   -0.22    1.09
  -3   1  -8    1.79    1.30
   3   1   8    2.54    1.13
  -3   1  -8    2.29    1.42
  -3   1  -8    1.63    1.38
   3   1   8    2.83    1.51
  -3   1  -8    0.49    1.45
  -3   1  -8    1.58    1.32
  -5  -1  -8   16.87    2.37
   5  -1   8   14.81    2.04
  -5  -1  -8   18.71    3.22
  -5  -1  -8   17.95    2.68
  -5  -1  -8   11.29    2.05
  -5  -1  -8   14.10    2.35
  -5   1  -8   13.24    2.13
   5   1   8   13.60    2.08
  -5   1  -8   15.73    2.58
  -5   1  -8    9.73    1.92
  -5   1  -8   12.86    2.36
  -5   1  -8   18.33    2.30
  -7  -1  -8    0.66    1.74
  -7  -1  -8   -0.31    1.73
   7  -1   8    0.63    1.51
  -7  -1  -8    1.78    1.55
  -7  -1  -8    0.32    3.22
   7   1   8   -0.94    1.39
  -7   1  -8   -0.35    1.55
  -7   1  -8   -0.78    1.31
  -9  -1  -8   16.88    2.81
  -9  -1  -8   15.33    2.80
  -9  -1  -8   10.33    1.93
  -9  -1  -8    7.99    2.28
   9  -1   8   12.11    2.19
  -9   1  -8    7.91    2.03
  -9   1  -8   11.59    2.42
  -9   1  -8   14.41    2.49
   9   1   8   12.40    2.14
  -9   1  -8   12.48    1.97
 -18  -2   8   11.34    2.48
  18  -2  -8   20.73    3.56
  18  -2  -8   12.04    3.24
 -18  -2   8   18.60    3.02
  18   2  -8    8.16    3.03
 -18   2   8   12.36    3.10
 -18   2   8   12.71    2.61
 -18   2   8   15.17    2.94
  18   2  -8   13.74    2.19
  18   2  -8   10.75    3.00
  18   2  -8   23.40    4.43
  16  -2  -8   -0.34    1.77
  16  -2  -8    2.11    2.34
 -16  -2   8    1.19    1.83
 -16  -2   8    2.12    1.99
 -16   2   8    1.87    1.87
  16   2  -8   -1.19    1.93
 -16   2   8    3.60    2.03
  16   2  -8   -0.43    1.89
  16   2  -8    2.63    1.55
  16   2  -8    2.34    2.57
 -16   2   8    0.37    2.32
  14  -2  -8   28.00    4.19
  14  -2  -8   20.81    2.82
 -14  -2   8   29.25    3.28
 -14  -2   8   27.55    3.18
 -14  -2   8   26.89    3.23
  14  -2  -8   26.00    2.56
  14   2  -8   18.50    2.68
  14   2  -8   23.56    3.39
 -14   2   8   22.13    3.69
 -14   2   8   27.30    2.81
 -12  -2   8    1.10    1.46
  12  -2  -8   -0.59    1.48
  12  -2  -8   -0.97    1.53
  12  -2  -8   -0.31    1.22
 -12  -2   8    2.23    1.59
 -12  -2   8   -1.56    1.61
  12  -2  -8    1.42    1.97
  12   2  -8   -1.33    1.38
 -12   2   8    1.34    1.66
  12   2  -8   -0.40    1.59
  12   2  -8   -0.55    1.24
 -12   2   8   -0.69    1.29
  12   2  -8   -2.27    2.09
 -12   2   8   -1.57    1.58
  10  -2  -8   47.24    3.59
 -10  -2   8   43.72    3.55
 -10  -2   8   37.49    3.36
  10  -2  -8   42.38    4.02
 -10  -2   8   38.98    3.28
  10  -2  -8   40.87    3.36
  10  -2  -8   40.27    2.64
  10   2  -8   40.26    4.03
  10   2  -8   40.62    3.52
  10   2  -8   40.27    2.91
  10   2  -8   37.71    3.54
 -10   2   8   45.89    3.64
 -10   2   8   42.12    2.87
 -10   2   8   43.77    3.84
   8  -2  -8    2.17    1.28
  -8  -2   8    0.46    1.23
   8  -2  -8    0.00    1.28
  -8  -2   8    1.21    1.38
   8  -2  -8   -1.33    1.01
  -8  -2   8   -0.93    1.16
   8  -2  -8    0.45    1.67
  -8   2   8   -1.69    1.45
   8   2  -8   -0.11    1.21
   8   2  -8   -0.51    1.31
  -8   2   8    1.73    1.11
   8   2  -8    1.39    1.91
  -8   2   8    0.43    1.43
   8   2  -8   -2.03    0.99
   6  -2  -8   36.04    3.14
   6  -2  -8   40.64    2.73
   6  -2  -8   42.59    3.27
  -6  -2   8   42.68    3.02
  -6  -2   8   44.37    2.91
   6  -2  -8   41.33    3.67
  -6  -2   8   43.52    3.53
   6   2  -8   42.76    2.85
  -6   2   8   42.86    2.57
  -6   2   8   40.59    3.30
   6   2  -8   38.92    3.16
   6   2  -8   37.22    3.20
  -6   2   8   37.67    3.48
   6   2  -8   43.90    3.80
   4  -2  -8   -1.38    1.37
  -4  -2   8    2.40    1.22
  -4  -2   8    0.95    1.05
   4  -2  -8   -0.50    1.16
  -4  -2   8    1.15    1.39
   4  -2  -8    0.12    1.10
   4  -2  -8   -0.29    1.15
   4  -2  -8   -0.06    1.01
   4   2  -8   -0.05    1.10
   4   2  -8   -0.79    1.09
  -4   2   8    1.03    1.34
  -4   2   8    0.59    0.99
  -4   2   8    0.22    1.70
   4   2  -8   -1.25    1.58
   4   2  -8    0.51    1.15
   2  -2  -8   35.26    3.02
   2  -2  -8   34.55    2.63
  -2  -2   8   37.62    2.50
   2  -2  -8   33.31    3.03
   2  -2  -8   35.80    3.26
   2  -2  -8   31.79    2.27
   2  -2  -8   34.09    3.05
  -2  -2   8   35.94    2.72
   2   2  -8   38.16    2.96
  -2   2   8   33.51    2.93
   2   2  -8   36.27    2.85
   2   2  -8   31.84    2.60
   2   2  -8   34.48    3.36
  -2   2   8   33.54    2.28
   0  -2  -8    0.44    1.31
   0  -2  -8   -0.59    0.79
   0  -2   8    1.66    1.25
   0  -2  -8    0.66    1.32
   0  -2  -8    0.52    1.22
   0  -2  -8   -1.39    1.05
   0  -2   8    3.21    1.10
   0  -2  -8    0.03    1.15
   0   2  -8    0.60    1.09
   0   2   8    1.36    0.98
   0   2  -8    0.09    1.10
   0   2  -8   -0.18    1.45
   0   2  -8   -0.50    1.03
   0   2  -8    0.71    1.08
   0   2   8    0.71    1.36
  -2  -2  -8   15.40    2.52
  -2  -2  -8   17.51    2.37
   2  -2   8   15.92    2.06
  -2  -2  -8   17.17    2.88
  -2  -2  -8   17.09    2.53
  -2  -2  -8   17.66    2.16
  -2   2  -8   18.11    2.35
  -2   2  -8   17.73    2.25
  -2   2  -8   17.80    2.55
   2   2   8   22.19    2.79
   2   2   8   14.90    1.80
  -2   2  -8   16.61    2.62
  -2   2  -8   19.74    2.76
  -4  -2  -8    2.93    1.58
  -4  -2  -8    0.53    1.40
   4  -2   8    4.31    1.53
  -4  -2  -8    3.27    1.47
  -4  -2  -8    4.31    1.67
  -4  -2  -8    4.27    1.64
  -4   2  -8    1.92    1.34
   4   2   8    4.21    1.25
  -4   2  -8    1.96    1.52
  -4   2  -8    2.27    1.59
   4   2   8    4.46    1.95
  -4   2  -8    2.13    1.44
  -4   2  -8    3.10    1.34
  -6  -2  -8    5.61    2.00
   6  -2   8    8.54    1.92
  -6  -2  -8    4.69    1.86
  -6  -2  -8    7.49    2.32
  -6  -2  -8    5.04    1.75
  -6   2  -8    2.26    1.55
  -6   2  -8    6.90    3.13
  -6   2  -8    6.45    1.70
  -6   2  -8    3.95    2.92
   6   2   8    3.80    1.45
  -8  -2  -8    1.16    1.91
  -8  -2  -8    1.30    1.78
   8  -2   8    1.10    1.65
  -8  -2  -8    1.22    1.59
  -8  -2  -8    8.69    2.59
  -8   2  -8    2.33    1.44
  -8   2  -8   -1.83    1.59
  -8   2  -8    4.00    1.77
  -8   2  -8    3.95    1.89
 -10  -2  -8    0.42    2.03
 -10  -2  -8    5.58    2.43
 -10  -2  -8    0.95    1.64
 -10  -2  -8    8.75    2.86
 -10   2  -8    4.26    2.08
 -10   2  -8    5.67    2.11
 -10   2  -8    4.52    2.13
 -10   2  -8    1.18    1.74
  17  -3  -8   22.43    3.31
 -17  -3   8   26.50    3.76
 -17  -3   8   17.65    2.84
  17  -3  -8   20.41    3.39
  17  -3  -8   21.53    3.74
 -17   3   8   22.04    3.66
  17   3  -8   17.26    3.03
 -17   3   8   22.02    3.24
  17   3  -8   11.60    2.70
  17   3  -8   16.94    3.82
 -17   3   8   13.96    3.01
  15  -3  -8    6.46    2.60
 -15  -3   8    6.85    2.10
 -15  -3   8    9.20    2.28
 -15  -3   8    5.97    2.08
  15  -3  -8    7.48    2.10
  15  -3  -8    3.42    1.92
  15   3  -8    7.27    2.89
 -15   3   8    4.38    1.69
  15   3  -8    6.10    2.29
  15   3  -8    3.76    1.97
 -15   3   8    5.59    2.38
  15   3  -8    6.24    1.71
  13  -3  -8   16.44    1.89
  13  -3  -8   16.79    3.62
  13  -3  -8   13.34    3.18
 -13  -3   8   23.65    3.61
 -13  -3   8   15.04    2.91
  13  -3  -8   17.22    3.00
  13   3  -8   18.42    2.62
  13   3  -8   19.18    3.03
  13   3  -8   17.04    2.48
 -13   3   8   19.12    2.52
 -13   3   8   14.36    4.12
 -11  -3   8   15.07    2.37
  11  -3  -8   16.44    2.83
 -11  -3   8   19.03    2.78
  11  -3  -8   11.74    2.10
 -11  -3   8   18.80    3.17
  11  -3  -8   14.28    2.67
  11  -3  -8   16.97    2.32
  11  -3  -8   14.44    2.15
 -11   3   8   20.38    2.24
 -11   3   8   18.19    2.81
  11   3  -8   14.90    2.42
  11   3  -8   18.44    2.38
  11   3  -8   20.40    3.45
 -11   3   8   13.87    2.41
  11   3  -8   18.12    3.08
   9  -3  -8   19.49    3.27
  -9  -3   8   28.49    3.38
   9  -3  -8   29.64    3.05
   9  -3  -8   25.66    2.29
  -9  -3   8   23.45    2.71
   9  -3  -8   24.58    2.59
   9  -3  -8   25.71    3.01
  -9  -3   8   28.10    2.85
   9   3  -8   22.87    2.80
  -9   3   8   29.61    2.25
   9   3  -8   24.79    3.67
  -9   3   8   27.00    3.32
   9   3  -8   23.95    3.03
  -9   3   8   31.43    3.26
   9   3  -8   22.35    2.43
   7  -3  -8   13.21    2.50
   7  -3  -8   16.16    2.02
   7  -3  -8   15.43    2.47
   7  -3  -8   17.26    2.70
  -7  -3   8   14.36    2.20
  -7  -3   8   14.12    1.90
  -7  -3   8   19.04    3.17
   7  -3  -8   13.68    1.81
  -7   3   8   15.26    1.80
   7   3  -8   15.64    2.82
   7   3  -8   11.85    1.80
  -7   3   8   16.10    2.78
   7   3  -8   16.91    2.66
   7   3  -8   13.55    2.21
  -7   3   8   13.36    2.20
   5  -3  -8   12.34    2.15
   5  -3  -8   10.27    1.55
  -5  -3   8   11.36    2.01
   5  -3  -8   11.89    2.32
   5  -3  -8   13.26    2.16
   5  -3  -8   11.10    1.65
   5  -3  -8   11.97    1.98
  -5  -3   8   16.57    2.24
  -5  -3   8   14.66    2.85
   5   3  -8   12.79    2.18
  -5   3   8   12.49    2.19
   5   3  -8    9.21    1.68
   5   3  -8   11.52    1.90
  -5   3   8   11.44    1.63
   5   3  -8   19.28    3.21
  -5   3   8   16.09    2.77
   3  -3  -8   35.55    3.16
  -3  -3   8   33.92    3.71
   3  -3  -8   36.29    3.00
   3  -3  -8   31.09    2.54
  -3  -3   8   30.61    2.67
   3  -3  -8   31.33    2.35
   3  -3  -8   32.17    3.04
  -3  -3   8   33.30    3.04
   3  -3  -8   34.15    2.77
   3   3  -8   32.33    3.48
   3   3  -8   29.74    2.60
  -3   3   8   35.05    3.14
  -3   3   8   34.14    3.11
   3   3  -8   34.75    2.81
   3   3  -8   34.00    2.92
  -3   3   8   34.48    2.16
  -1  -3   8    3.54    1.32
   1  -3  -8    4.90    1.10
   1  -3  -8    5.20    1.42
  -1  -3   8    5.28    2.01
   1  -3  -8    4.55    1.74
   1  -3  -8    4.68    1.52
   1  -3  -8    3.79    1.60
   1  -3  -8    3.83    1.41
  -1   3   8    2.97    1.63
   1   3  -8    2.85    1.68
  -1   3   8    5.04    1.10
   1   3  -8    3.45    1.35
   1   3  -8    5.31    2.06
  -1   3   8    1.81    1.78
   1   3  -8    3.96    1.38
  -1  -3  -8   30.14    2.93
  -1  -3  -8   28.02    1.96
  -1  -3  -8   28.82    3.31
  -1  -3  -8   29.67    2.48
   1  -3   8   25.78    2.51
  -1  -3  -8   32.14    3.09
  -1  -3  -8   28.65    2.93
   1   3   8   28.88    3.21
  -1   3  -8   30.28    3.14
  -1   3  -8   29.82    2.60
  -1   3  -8   25.06    2.62
  -1   3  -8   28.66    2.86
  -1   3  -8   31.15    3.13
   1   3   8   30.61    2.11
  -3  -3  -8    4.16    1.72
  -3  -3  -8    4.10    1.59
  -3  -3  -8    3.84    1.56
  -3  -3  -8    7.55    2.06
  -3  -3  -8    0.41    1.32
   3  -3   8    3.58    1.49
  -3   3  -8    4.67    1.42
  -3   3  -8    5.03    1.73
  -3   3  -8    3.20    1.32
  -3   3  -8    5.28    1.55
  -3   3  -8    1.68    1.48
   3   3   8    6.66    2.03
   3   3   8    3.90    1.13
  -5  -3  -8   12.61    2.42
   5  -3   8   14.43    2.26
  -5  -3  -8   13.12    2.60
  -5  -3  -8    8.75    1.95
  -5  -3  -8   11.88    2.12
  -5   3  -8   10.64    1.95
  -5   3  -8   10.35    1.84
  -5   3  -8    9.76    1.86
   5   3   8   12.09    1.69
   5   3   8   16.08    2.74
  -7  -3  -8   -2.66    1.52
  -7  -3  -8    1.47    1.78
  -7  -3  -8    2.46    2.49
   7  -3   8    1.65    1.67
  -7   3  -8    0.39    1.43
  -7   3  -8   -1.57    1.44
  -7   3  -8    2.15    1.64
  -7   3  -8    2.60    1.71
  -9  -3  -8   14.33    2.90
  -9  -3  -8   13.10    2.29
  -9  -3  -8   20.64    3.37
   9  -3   8   10.75    2.41
  -9  -3  -8   12.44    2.57
  -9   3  -8    7.24    1.81
  -9   3  -8   12.39    2.40
  -9   3  -8    7.32    2.04
  16  -4  -8    3.67    2.70
 -16  -4   8    5.29    2.42
 -16  -4   8    6.10    2.25
  16  -4  -8    4.76    2.12
  16  -4  -8    1.77    1.69
 -16  -4   8    3.58    2.08
  16   4  -8    2.42    2.09
  16   4  -8    1.93    1.65
  16   4  -8    0.72    2.21
 -16   4   8    3.71    1.75
  16   4  -8    8.48    3.18
  14  -4  -8   27.91    3.59
  14  -4  -8   22.65    3.08
  14  -4  -8   34.75    4.24
 -14  -4   8   33.04    3.48
 -14  -4   8   30.03    4.15
  14   4  -8   24.11    3.59
 -14   4   8   31.41    3.12
  14   4  -8   20.20    3.50
 -14   4   8   25.65    3.32
  14   4  -8   30.13    3.81
 -14   4   8   26.46    3.95
  12  -4  -8    1.40    1.32
 -12  -4   8    1.21    2.03
  12  -4  -8   -1.11    1.73
 -12  -4   8    6.70    2.57
 -12  -4   8   -0.65    1.61
 -12   4   8   -0.68    2.93
  12   4  -8   -1.06    1.36
  12   4  -8   -0.14    2.88
  12   4  -8   -2.25    1.53
 -12   4   8    0.97    1.92
  12   4  -8   -0.93    1.46
  10  -4  -8   33.69    3.63
  10  -4  -8   37.53    3.89
 -10  -4   8   33.45    3.11
  10  -4  -8   37.94    3.45
 -10  -4   8   32.14    3.34
  10  -4  -8   33.18    2.62
  10  -4  -8   40.23    3.07
 -10  -4   8   41.34    4.16
  10   4  -8   39.48    4.36
  10   4  -8   32.51    3.34
  10   4  -8   35.50    2.75
  10   4  -8   32.36    3.53
 -10   4   8   32.59    3.73
 -10   4   8   35.32    3.78
 -10   4   8   38.92    2.67
   8  -4  -8    2.06    1.26
  -8  -4   8    2.27    1.34
  -8  -4   8    1.68    1.77
  -8  -4   8    2.19    1.61
   8  -4  -8    3.15    1.61
   8  -4  -8    2.33    1.76
   8  -4  -8    0.66    1.28
   8  -4  -8    2.42    1.19
   8  -4  -8    2.83    1.68
  -8   4   8    3.02    1.71
   8   4  -8    4.08    1.51
  -8   4   8    0.49    0.98
   8   4  -8    2.29    2.04
   8   4  -8    2.46    1.36
  -8   4   8    3.00    1.69
   8   4  -8    4.20    1.58
   6  -4  -8   37.84    2.70
   6  -4  -8   40.06    3.41
   6  -4  -8   39.52    3.45
   6  -4  -8   37.15    2.76
   6  -4  -8   37.20    2.71
  -6  -4   8   38.14    4.09
   6  -4  -8   39.46    3.67
  -6  -4   8   38.37    3.25
   6   4  -8   36.38    2.94
  -6   4   8   39.22    3.49
   6   4  -8   33.54    3.08
  -6   4   8   40.43    3.58
   6   4  -8   35.55    4.04
   6   4  -8   35.63    3.26
  -6   4   8   36.69    2.17
   4  -4  -8    4.66    1.24
   4  -4  -8    3.06    1.52
   4  -4  -8    3.04    1.21
   4  -4  -8    4.62    1.85
  -4  -4   8    2.59    1.55
   4  -4  -8    5.40    1.43
  -4  -4   8    3.02    1.88
   4  -4  -8    2.37    1.48
   4   4  -8    3.03    1.46
  -4   4   8    3.55    1.69
   4   4  -8    5.69    1.48
   4   4  -8    2.32    1.41
  -4   4   8    4.13    1.59
   4   4  -8    4.59    2.24
  -4   4   8    2.85    1.01
  -2  -4   8   35.00    4.09
  -2  -4   8   30.87    2.88
   2  -4  -8   38.35    3.38
   2  -4  -8   32.29    2.89
   2  -4  -8   32.85    2.27
   2  -4  -8   35.93    2.79
   2  -4  -8   39.35    3.49
   2  -4  -8   36.03    3.38
   2   4  -8   34.10    2.72
   2   4  -8   31.51    2.92
  -2   4   8   34.11    3.36
   2   4  -8   31.63    3.00
  -2   4   8   33.42    3.31
   2   4  -8   33.74    3.70
  -2   4   8   34.18    2.10
   0  -4  -8    0.57    1.46
   0  -4  -8    2.97    1.55
   0  -4   8    1.49    1.88
   0  -4  -8    0.28    1.27
   0  -4  -8   -0.81    0.87
   0  -4   8   -1.92    1.24
   0  -4  -8   -1.04    1.25
   0  -4  -8    1.13    1.72
   0   4  -8    2.56    2.08
   0   4  -8   -1.13    1.18
   0   4   8   -0.58    1.49
   0   4  -8   -0.06    1.24
   0   4  -8   -1.05    1.16
   0   4   8    1.67    1.56
  -2  -4  -8   15.69    2.73
  -2  -4  -8   22.03    3.35
  -2  -4  -8    8.80    1.98
   2  -4   8   17.08    2.49
  -2  -4  -8   16.46    2.55
  -2  -4  -8   16.31    2.81
  -2   4  -8    9.81    2.89
  -2   4  -8   15.09    2.53
  -2   4  -8   13.69    1.93
   2   4   8   16.22    2.58
  -2   4  -8   20.44    3.11
  -2   4  -8   10.29    1.94
  -4  -4  -8    3.43    2.26
  -4  -4  -8    6.42    2.13
   4  -4   8    6.96    2.59
  -4  -4  -8    2.90    1.84
  -4  -4  -8    2.90    1.70
  -4  -4  -8    5.14    1.84
  -4   4  -8    5.67    1.53
   4   4   8    8.55    2.45
  -4   4  -8    4.44    1.51
  -4   4  -8    4.69    2.03
  -4   4  -8    2.79    1.85
  -4   4  -8    6.09    1.97
  -6  -4  -8    5.59    2.09
   6  -4   8    5.08    1.99
  -6  -4  -8    5.43    2.20
  -6  -4  -8    7.50    2.64
  -6  -4  -8    5.52    1.67
  -6   4  -8    8.43    1.86
   6   4   8   12.46    3.75
  -6   4  -8    4.52    1.91
  -6   4  -8    8.19    1.78
   8  -4   8    2.74    2.10
  -8  -4  -8    3.89    2.28
  -8  -4  -8    5.25    2.99
  -8  -4  -8    2.13    1.94
  -8  -4  -8   -1.05    1.91
  -8   4  -8    4.21    1.88
  -8   4  -8   -2.84    1.55
  -8   4  -8    2.04    1.56
 -15  -5   8    2.99    2.06
  15  -5  -8    2.43    2.04
  15  -5  -8    6.25    2.70
  15  -5  -8    0.29    1.82
 -15  -5   8    6.97    4.06
  15   5  -8    3.93    2.23
  15   5  -8    0.21    2.01
  15   5  -8    2.16    1.76
 -15   5   8    0.67    2.31
  15   5  -8    7.23    3.27
 -15   5   8    5.22    2.32
  13  -5  -8    7.33    1.98
 -13  -5   8    9.21    2.82
 -13  -5   8    6.80    2.04
  13  -5  -8    7.06    2.72
 -13  -5   8    7.88    2.23
  13  -5  -8    8.97    2.17
 -13   5   8    8.55    2.26
  13   5  -8    4.87    1.74
  13   5  -8    5.06    2.10
  13   5  -8   13.19    3.32
 -13   5   8    8.77    2.55
  13   5  -8    6.93    2.01
 -11  -5   8    4.37    2.15
  11  -5  -8    4.67    1.54
 -11  -5   8    6.34    1.96
  11  -5  -8    6.39    2.40
  11  -5  -8    2.35    1.86
  11   5  -8    8.47    2.73
  11   5  -8    4.01    1.94
 -11   5   8    6.32    2.16
  11   5  -8    4.33    2.06
 -11   5   8    5.32    2.17
  11   5  -8    5.20    1.80
   9  -5  -8   11.36    1.92
  -9  -5   8   20.39    4.99
   9  -5  -8   10.44    1.74
  -9  -5   8   11.79    2.87
   9  -5  -8   12.74    2.27
   9   5  -8   18.58    4.40
   9   5  -8   10.20    2.01
   9   5  -8   17.22    2.66
   9   5  -8    8.30    2.40
  -9   5   8    7.80    2.08
   7  -5  -8    3.47    1.75
  -7  -5   8    5.12    2.14
   7  -5  -8    5.40    1.44
  -7  -5   8    3.87    1.86
   7  -5  -8    5.49    2.33
   7  -5  -8    5.94    1.51
  -7   5   8    5.53    2.14
   7   5  -8    4.93    1.68
   7   5  -8    4.41    1.61
   7   5  -8    9.45    2.92
   7   5  -8    3.73    1.74
  -7   5   8    3.17    1.75
   5  -5  -8    5.81    2.04
  -5  -5   8    5.37    1.80
  -5  -5   8    3.80    2.24
   5  -5  -8    6.59    1.85
   5  -5  -8    6.54    2.18
   5  -5  -8    4.06    1.32
   5  -5  -8    3.07    1.40
  -5   5   8    3.82    1.69
   5   5  -8    4.15    1.49
   5   5  -8    6.61    1.67
   5   5  -8    2.57    1.56
   5   5  -8    7.42    2.75
  -5   5   8    6.56    2.11
   3  -5  -8   13.84    2.30
   3  -5  -8   18.14    2.39
   3  -5  -8   14.60    2.29
  -3  -5   8   22.15    4.14
  -3  -5   8   16.96    2.57
   3  -5  -8   14.64    2.43
   3  -5  -8   17.12    3.01
   3  -5  -8   12.21    1.68
   3   5  -8   14.65    2.18
  -3   5   8   14.66    2.58
  -3   5   8   20.35    3.42
   3   5  -8   18.50    2.71
   3   5  -8   24.25    3.78
   3   5  -8   14.65    2.10
   1  -5  -8    0.72    1.61
   1  -5  -8   -0.07    1.30
  -1  -5   8    2.94    2.43
   1  -5  -8    0.81    1.07
   1  -5  -8    2.76    1.73
  -1  -5   8    1.01    1.49
   1  -5  -8    2.76    1.44
   1  -5  -8    1.59    1.84
   1   5  -8    0.65    1.26
  -1   5   8    3.11    1.89
   1   5  -8    1.15    1.28
   1   5  -8    2.53    1.32
   1   5  -8    6.60    2.35
  -1   5   8    1.45    1.76
  -1  -5  -8    9.06    1.87
   1  -5   8   15.39    4.26
  -1  -5  -8   10.29    1.95
  -1  -5  -8   12.86    2.50
  -1  -5  -8   15.23    2.58
  -1  -5  -8   11.91    1.75
  -1   5  -8    9.50    1.94
  -1   5  -8   19.71    3.63
   1   5   8   12.61    2.49
  -1   5  -8   11.47    1.84
   1   5   8   15.51    2.89
  -3  -5  -8    0.74    2.08
  -3  -5  -8    2.56    1.77
  -3  -5  -8    0.43    1.64
   3  -5   8    0.95    1.56
  -3  -5  -8    3.51    1.89
  -3   5  -8   -0.49    1.19
   3   5   8   -0.50    2.05
  -3   5  -8    1.86    1.61
   5  -5   8    4.32    1.87
  -5  -5  -8    3.29    1.96
  -5  -5  -8    6.11    2.03
  -5  -5  -8    4.67    2.62
  -5  -5  -8    4.69    2.29
  -5   5  -8    4.93    1.58
   5   5   8   10.05    2.76
  -5   5  -8    8.25    1.73
  -5   5  -8    1.56    1.60
  -7  -5  -8   -0.88    2.11
  -7  -5  -8    5.36    6.35
  -7  -5  -8    1.67    2.38
   7  -5   8   -2.56    2.02
  -7  -5  -8   -0.84    1.88
  -7   5  -8    1.76    1.65
  -7   5  -8   -1.41    1.64
  -7   5  -8    1.12    1.65
 -12  -6   8    7.14    3.05
  12  -6  -8    4.73    2.80
 -12  -6   8    4.14    2.04
  12  -6  -8    4.62    2.09
  12  -6  -8    5.06    1.83
  12   6  -8    5.39    1.89
 -12   6   8    2.47    2.24
  12   6  -8    3.22    2.80
  12   6  -8    2.75    1.95
 -12   6   8    3.61    2.59
  12   6  -8    2.71    1.97
 -10  -6   8   35.32    3.58
 -10  -6   8   31.50    5.46
  10  -6  -8   24.68    3.37
  10  -6  -8   36.32    4.17
  10  -6  -8   27.84    3.02
 -10   6   8   25.87    3.83
  10   6  -8   19.28    2.63
 -10   6   8   30.35    3.75
  10   6  -8   28.48    3.49
  10   6  -8   36.02    4.44
  10   6  -8   26.08    3.73
   8  -6  -8    3.01    2.37
   8  -6  -8    3.56    1.61
  -8  -6   8    2.78    2.05
   8  -6  -8    2.52    1.58
   8   6  -8    1.21    1.64
  -8   6   8    5.65    2.21
   8   6  -8    2.63    1.72
   8   6  -8    2.52    1.75
   8   6  -8    7.45    2.83
  -8   6   8    0.65    1.93
   6  -6  -8   27.46    2.82
  -6  -6   8   28.40    5.10
   6  -6  -8   25.92    4.23
  -6  -6   8   21.62    2.86
   6  -6  -8   30.97    3.85
   6  -6  -8   20.72    2.54
  -6   6   8   28.80    3.63
   6   6  -8   27.04    2.99
   6   6  -8   27.33    5.17
   6   6  -8   21.80    3.12
  -6   6   8   28.04    3.89
   6   6  -8   29.16    3.47
  -4  -6   8    6.04    2.03
   4  -6  -8    4.06    1.35
   4  -6  -8    4.55    2.52
   4  -6  -8    4.99    1.67
   4   6  -8    2.42    1.72
   4   6  -8    9.74    2.99
   4   6  -8    3.94    1.61
  -4   6   8    5.61    2.08
  -4   6   8    4.30    2.13
   4   6  -8    6.38    1.81
   2  -6  -8   23.67    2.40
   2  -6  -8   18.33    2.70
  -2  -6   8   15.60    3.54
  -2  -6   8   27.21    3.09
   2  -6  -8   28.03    3.75
  -2   6   8   25.72    3.77
   2   6  -8   18.73    2.72
   2   6  -8   25.63    2.88
  -2   6   8   23.25    3.79
   2   6  -8   18.64    2.75
   0  -6  -8    3.72    2.23
   0  -6  -8    2.91    1.86
   0  -6  -8   -0.19    1.13
   0  -6   8    8.79    2.98
   0  -6   8    1.33    1.80
   0   6  -8    2.45    1.60
   0   6  -8    2.63    1.31
   0   6   8    3.51    2.25
   0   6   8    5.72    1.96
  -2  -6  -8   14.78    2.86
   2  -6   8   12.07    2.12
  -2  -6  -8   11.57    2.15
   2  -6   8   17.71    3.93
  -2  -6  -8    9.70    2.10
  -2  -6  -8   18.89    2.96
   2   6   8   22.17    3.82
  -2   6  -8   19.49    2.64
  -2   6  -8   16.95    2.58
  -2   6  -8    9.43    1.96
   2   6   8   18.58    3.91
   4  -6   8    5.49    2.15
  -4  -6  -8    6.01    2.37
  -4  -6  -8    6.32    2.92
  -4  -6  -8    2.50    1.94
  -4  -6  -8    2.53    2.01
   4   6   8   12.74    2.80
  -4   6  -8    1.42    1.59
  -4   6  -8    8.23    1.62
  -4   6  -8    2.54    1.79
   9  -7  -8   15.27    2.64
   9  -7  -8    7.61    1.94
  -9  -7   8   19.73    4.20
  -9  -7   8   11.24    2.57
   9  -7  -8   11.68    2.50
   9  -7  -8   15.12    3.17
   9   7  -8   11.32    2.06
  -9   7   8   16.35    2.93
   9   7  -8   11.13    2.40
  -9   7   8   12.05    2.68
   9   7  -8   14.08    2.61
  -7  -7   8   15.39    3.71
   7  -7  -8   11.36    2.91
  -7  -7   8   11.45    2.39
   7  -7  -8    6.83    1.92
   7  -7  -8    8.64    1.92
   7  -7  -8    7.52    2.38
   7   7  -8    7.63    2.15
   7   7  -8    8.62    2.14
   7   7  -8    4.46    2.04
  -7   7   8    9.91    2.47
  -7   7   8    7.70    2.56
  -5  -7   8    9.92    3.27
   5  -7  -8    7.27    2.82
   5  -7  -8    3.53    1.81
   5  -7  -8   13.47    2.53
   5  -7  -8    6.69    1.69
  -5  -7   8    9.30    2.14
  -5   7   8    9.89    2.77
   5   7  -8    4.68    1.96
   5   7  -8    8.91    1.90
  -5   7   8    6.51    2.26
   5   7  -8    6.20    1.97
   3  -7  -8   23.83    3.70
  -3  -7   8   16.91    3.85
   3  -7  -8   13.62    2.35
  -3  -7   8   20.07    3.13
   3  -7  -8   18.64    2.59
  -3   7   8   24.30    4.24
   3   7  -8   20.51    2.98
   3   7  -8   23.24    3.08
  -3   7   8   22.77    4.05
   1  -7  -8    7.47    2.38
   1  -7  -8    4.93    1.83
  -1  -7   8    5.94    1.96
   1  -7  -8    2.40    1.36
  -1  -7   8    4.62    3.43
   1   7  -8    5.13    1.72
  -1   7   8    7.80    2.72
   1   7  -8    1.56    1.43
  -1   7   8    4.66    2.27
   1  -7   8    8.12    3.59
  -1  -7  -8    9.53    2.73
  -1  -7  -8    8.99    2.18
   1  -7   8   10.96    2.12
  -1   7  -8   10.40    1.72
  -1   7  -8    6.96    1.99
   1   7   8   12.61    2.97
   1   7   8    8.65    2.74
  14   0  -9   13.48    2.88
  14   0  -9    6.82    1.91
  14   0  -9   10.25    2.61
  14   0  -9    9.70    3.00
 -14   0   9   14.99    2.58
 -14   0   9   11.12    2.70
  12   0  -9    5.05    1.98
  12   0  -9    6.15    2.46
 -12   0   9    4.44    3.01
 -12   0   9    7.24    2.07
  12   0  -9    4.60    2.04
  12   0  -9    3.89    1.69
 -10   0   9   21.84    3.54
  10   0  -9   15.06    2.42
 -10   0   9   23.25    2.90
  10   0  -9   19.40    2.53
  10   0  -9   20.65    3.79
  10   0  -9   16.07    3.40
   8   0  -9    4.00    1.53
  -8   0   9    2.89    1.95
   8   0  -9    6.27    1.93
   8   0  -9    3.85    1.81
   8   0  -9    5.78    2.37
  -8   0   9    6.36    1.73
   6   0  -9   26.27    3.63
   6   0  -9   23.44    2.64
   6   0  -9   24.17    2.98
   6   0  -9   31.09    3.42
  -6   0   9   24.78    2.79
  -6   0   9   22.48    3.26
   4   0  -9    5.48    1.87
  -4   0   9    5.26    1.52
  -4   0   9    7.59    1.92
   4   0  -9    7.76    1.79
   4   0  -9    5.33    1.85
   4   0  -9    7.67    2.20
   2   0  -9   26.64    2.54
   2   0  -9   35.12    3.42
   2   0  -9   29.07    3.32
   2   0  -9   31.45    3.56
  -2   0   9   25.87    2.73
  -2   0   9   35.19    3.39
   2   0  -9   33.61    3.62
   0   0  -9   -0.80    1.56
   0   0  -9    0.34    1.64
   0   0  -9    2.84    1.65
   0   0   9   -0.41    1.32
   0   0  -9   -0.07    1.63
   0   0   9    2.40    2.31
  -2   0  -9   24.98    3.27
  -2   0  -9   27.03    4.65
  -2   0  -9   26.40    2.88
  -2   0  -9   26.33    3.40
  -2   0  -9   21.39    4.30
   2   0   9   24.94    2.80
   4   0   9   -0.60    1.55
  -4   0  -9    1.69    1.67
  -4   0  -9    1.50    1.73
  -4   0  -9    1.78    1.97
  -4   0  -9   -0.28    1.68
  -6   0  -9   10.72    2.23
   6   0   9   15.60    2.35
  -6   0  -9   14.29    2.84
  -6   0  -9   16.23    2.86
 -15  -1   9    4.26    2.05
  15  -1  -9   -1.56    1.71
  15  -1  -9   -4.22    2.01
  15  -1  -9    5.17    2.88
  15  -1  -9    0.18    2.39
 -15   1   9    0.57    2.50
  15   1  -9    1.35    2.43
  15   1  -9   -0.32    2.16
  15   1  -9    2.16    2.89
 -15   1   9    0.82    2.04
  13  -1  -9   23.13    2.86
 -13  -1   9   19.99    3.07
  13  -1  -9   15.92    2.87
  13  -1  -9   20.08    2.93
 -13  -1   9   24.10    3.16
  13  -1  -9   21.52    4.11
 -13   1   9   25.40    4.10
  13   1  -9   18.78    2.34
  13   1  -9   21.07    3.61
 -13   1   9   24.56    3.23
  13   1  -9   17.73    2.88
  13   1  -9   24.14    3.92
  11  -1  -9   -0.72    1.70
 -11  -1   9    0.32    1.71
  11  -1  -9    1.77    2.20
 -11  -1   9   -0.53    1.59
 -11  -1   9    2.59    2.03
  11  -1  -9    3.19    1.61
  11  -1  -9    0.44    2.08
  11   1  -9    2.38    1.95
  11   1  -9    1.74    1.84
 -11   1   9    5.94    1.81
 -11   1   9    0.91    3.34
  11   1  -9    3.34    2.38
  11   1  -9   -0.85    1.43
  -9  -1   9   28.36    3.14
  -9  -1   9   28.45    3.55
   9  -1  -9   23.51    2.82
   9  -1  -9   27.30    3.53
  -9   1   9   29.06    2.95
  -9   1   9   19.95    3.33
   9   1  -9   24.88    3.41
   9   1  -9   27.85    2.75
   9   1  -9   21.02    3.40
   7  -1  -9    0.29    1.49
  -7  -1   9    4.25    1.58
   7  -1  -9   -0.66    1.53
   7  -1  -9   -0.04    1.29
   7  -1  -9    4.00    2.08
  -7  -1   9    1.01    1.59
   7   1  -9    1.40    1.54
  -7   1   9    1.44    1.39
   7   1  -9   -2.05    1.09
  -7   1   9   -0.51    1.68
   7   1  -9    1.36    2.07
   7   1  -9   -1.40    1.45
   5  -1  -9   23.22    3.37
   5  -1  -9   28.16    3.52
  -5  -1   9   29.12    3.11
  -5  -1   9   27.13    2.81
   5  -1  -9   19.09    2.52
   5  -1  -9   21.69    3.36
  -5   1   9   26.31    2.52
  -5   1   9   28.65    3.37
   5   1  -9   23.87    3.15
   5   1  -9   28.19    3.37
   5   1  -9   27.05    3.57
   5   1  -9   22.57    2.62
   3  -1  -9   -0.68    1.34
   3  -1  -9   -1.05    1.79
   3  -1  -9    0.29    1.64
  -3  -1   9    2.33    1.53
  -3  -1   9    1.48    1.49
   3  -1  -9    4.10    1.69
   3  -1  -9    1.94    1.47
   3   1  -9    3.71    1.65
  -3   1   9   -0.30    1.73
   3   1  -9    2.06    1.60
  -3   1   9    2.75    1.40
   3   1  -9    1.29    1.60
   3   1  -9    4.27    2.00
   1  -1  -9    8.34    1.86
  -1  -1   9   15.60    2.17
   1  -1  -9    9.87    2.23
   1  -1  -9    8.64    1.92
   1  -1  -9    8.02    1.40
   1  -1  -9   12.96    2.41
   1  -1  -9   12.72    2.30
  -1  -1   9   16.03    2.84
   1   1  -9   13.02    2.24
  -1   1   9   10.85    2.34
   1   1  -9    8.28    1.92
  -1   1   9   12.19    1.83
   1   1  -9   14.59    2.31
   1   1  -9   12.84    3.03
   1   1  -9   13.64    2.51
   1  -1   9    2.44    1.65
  -1  -1  -9    5.35    1.81
  -1  -1  -9    5.90    1.82
  -1  -1  -9    5.36    1.90
  -1  -1  -9    3.35    1.91
  -1  -1  -9   10.28    2.37
  -1   1  -9    5.10    1.75
  -1   1  -9    6.07    1.84
   1   1   9    5.38    1.59
  -1   1  -9    5.86    3.29
   1   1   9    8.41    2.19
  -1   1  -9    3.57    2.11
  -3  -1  -9    4.53    1.66
  -3  -1  -9    8.79    2.53
  -3  -1  -9    6.23    1.94
  -3  -1  -9   10.00    2.49
  -3  -1  -9    7.83    2.14
   3  -1   9    8.27    2.12
  -3   1  -9    3.46    1.67
   3   1   9    5.34    1.74
  -3   1  -9    8.78    2.06
  -3   1  -9    8.41    2.11
  -3   1  -9    8.03    2.06
  -3   1  -9   10.30    2.30
   5  -1   9    2.91    1.95
  -5  -1  -9    4.27    2.34
  -5  -1  -9    5.49    2.17
  -5  -1  -9   -0.50    1.69
  -5  -1  -9    1.74    1.88
  -5  -1  -9    2.29    1.79
  -5   1  -9   -0.75    1.59
  -5   1  -9    0.95    1.76
  -5   1  -9    5.42    2.22
   5   1   9   -1.78    1.68
 -14  -2   9    2.39    2.26
  14  -2  -9    2.86    1.79
  14  -2  -9    6.38    2.96
  14  -2  -9    5.25    2.29
 -14  -2   9    8.59    2.34
 -14   2   9    9.79    2.17
  14   2  -9    6.30    2.26
 -14   2   9    2.37    2.50
  14   2  -9    6.10    1.85
  14   2  -9    1.81    2.07
  14   2  -9    2.24    2.86
 -12  -2   9    4.33    1.94
  12  -2  -9    5.23    2.72
 -12  -2   9    1.65    1.84
  12  -2  -9    1.34    1.99
  12  -2  -9    2.54    2.12
 -12  -2   9    5.82    2.21
  12  -2  -9    5.07    1.70
  12   2  -9    0.43    2.66
 -12   2   9    4.81    1.70
 -12   2   9    2.65    2.22
  12   2  -9    5.97    2.13
 -10  -2   9   10.99    2.26
  10  -2  -9    9.72    1.89
  10  -2  -9   12.59    2.47
 -10  -2   9    8.22    2.18
  10  -2  -9   20.57    3.82
  10  -2  -9    9.68    2.20
  10   2  -9   13.69    3.22
 -10   2   9   12.22    1.98
 -10   2   9    8.47    2.61
  10   2  -9   14.54    2.48
  10   2  -9   12.15    2.03
  -8  -2   9    2.91    1.77
   8  -2  -9   -0.87    1.40
   8  -2  -9    1.05    2.07
  -8  -2   9   -0.72    1.62
  -8  -2   9    1.37    1.68
   8  -2  -9   -0.96    1.75
  -8   2   9   -0.41    2.02
  -8   2   9    2.44    1.41
   8   2  -9    3.85    1.75
   8   2  -9    1.36    1.50
   8   2  -9    3.26    1.78
   8   2  -9    2.15    4.13
   6  -2  -9   19.28    3.23
   6  -2  -9   16.59    2.92
  -6  -2   9   17.24    2.74
  -6  -2   9   15.57    2.23
   6  -2  -9   19.58    3.36
  -6  -2   9   14.02    2.54
   6  -2  -9   14.17    2.73
   6  -2  -9   12.46    1.94
   6  -2  -9   12.28    1.97
   6   2  -9   17.87    2.27
  -6   2   9   19.01    2.25
   6   2  -9   17.09    3.17
  -6   2   9   14.83    2.55
   6   2  -9   19.11    2.77
   6   2  -9   22.05    3.30
   4  -2  -9    4.25    2.16
   4  -2  -9    5.12    1.85
  -4  -2   9    3.75    1.55
  -4  -2   9    3.89    1.59
   4  -2  -9    2.51    1.44
   4  -2  -9    2.98    1.86
   4  -2  -9    0.34    1.22
   4  -2  -9    3.17    1.53
  -4   2   9    4.01    1.32
   4   2  -9    4.39    2.16
   4   2  -9    2.09    1.59
  -4   2   9    5.37    1.99
   4   2  -9    3.31    1.72
   4   2  -9    1.34    1.48
   2  -2  -9   18.09    2.35
   2  -2  -9   17.47    2.11
   2  -2  -9   19.01    3.14
   2  -2  -9   21.72    3.69
  -2  -2   9   19.34    2.92
   2  -2  -9   21.91    3.48
   2  -2  -9   17.04    2.90
  -2   2   9   16.62    2.23
   2   2  -9   18.32    2.80
   2   2  -9   15.22    2.73
  -2   2   9   24.55    3.40
   2   2  -9   21.24    3.32
   0  -2   9   -0.79    1.40
   0  -2  -9   -0.75    1.75
   0  -2  -9   -1.20    1.83
   0  -2  -9    1.59    1.61
   0  -2  -9    1.61    1.76
   0   2   9   -1.64    1.27
   0   2  -9    0.72    1.50
   0   2   9    4.45    2.06
   0   2  -9    0.39    1.75
   0   2  -9   -0.74    1.53
   0   2  -9    1.38    1.99
   0   2  -9    0.87    1.60
  -2  -2  -9   20.98    2.83
  -2  -2  -9   19.04    2.92
  -2  -2  -9   15.31    2.47
  -2  -2  -9   23.27    3.42
  -2  -2  -9   23.39    3.43
   2  -2   9   11.22    3.01
  -2   2  -9   14.28    2.20
  -2   2  -9   22.04    3.07
   2   2   9   16.01    2.39
  -2   2  -9   19.15    3.17
  -2   2  -9   19.96    3.35
   2   2   9   27.57    3.79
  -2   2  -9   19.87    3.31
  -4  -2  -9    3.66    2.20
  -4  -2  -9    0.31    1.80
  -4  -2  -9   -0.32    2.10
  -4  -2  -9   -0.72    1.64
  -4  -2  -9    1.45    1.93
   4  -2   9    0.48    1.63
   4   2   9    7.97    2.65
  -4   2  -9    3.32    1.90
  -4   2  -9   -0.09    1.67
   4   2   9    1.36    1.54
  -4   2  -9    1.43    1.77
  -4   2  -9    4.71    1.97
  -4   2  -9    1.28    1.75
 -13  -3   9   26.60    4.00
  13  -3  -9   25.29    3.89
  13  -3  -9   18.62    3.10
 -13  -3   9   22.00    3.49
  13  -3  -9   21.09    2.84
 -13  -3   9   21.68    3.81
  13  -3  -9   24.68    4.32
  13   3  -9   18.15    2.97
  13   3  -9   20.93    3.69
  13   3  -9   16.88    2.38
  13   3  -9   21.20    3.90
 -13   3   9   21.03    3.60
 -13   3   9   22.03    3.31
 -11  -3   9    4.00    2.03
  11  -3  -9   -1.37    1.56
 -11  -3   9    2.01    1.92
 -11  -3   9    0.65    2.02
  11  -3  -9    2.94    2.02
  11  -3  -9   -1.36    1.93
  11  -3  -9    3.02    2.50
  11  -3  -9    2.53    1.61
 -11   3   9    5.49    2.36
  11   3  -9    1.66    1.94
  11   3  -9    7.69    2.97
  11   3  -9    1.00    1.58
  11   3  -9    3.02    2.00
 -11   3   9   -0.97    2.26
 -11   3   9    3.16    1.66
   9  -3  -9   28.34    4.93
   9  -3  -9   26.08    3.71
  -9  -3   9   25.61    3.60
  -9  -3   9   22.06    3.33
   9  -3  -9   27.72    3.43
   9  -3  -9   23.86    2.87
   9  -3  -9   23.00    2.90
  -9  -3   9   28.05    3.91
  -9   3   9   24.83    2.96
   9   3  -9   23.42    3.76
  -9   3   9   28.93    3.97
   9   3  -9   31.03    4.25
   9   3  -9   27.95    2.82
   9   3  -9   26.24    4.01
   7  -3  -9    2.57    1.89
   7  -3  -9    4.24    1.54
   7  -3  -9    1.71    1.55
  -7  -3   9    2.65    1.70
   7  -3  -9    0.49    1.38
   7  -3  -9    2.90    2.26
   7  -3  -9    1.64    1.82
  -7  -3   9   -0.70    1.84
  -7   3   9    2.86    1.32
  -7   3   9    6.60    3.53
   7   3  -9    0.73    1.76
   7   3  -9    3.14    1.81
  -5  -3   9   31.81    4.14
   5  -3  -9   26.53    2.77
   5  -3  -9   25.14    3.81
  -5  -3   9   30.40    3.81
   5  -3  -9   27.14    2.68
   5  -3  -9   28.24    3.31
   5  -3  -9   26.36    2.94
   5   3  -9   27.90    3.09
   5   3  -9   27.61    3.95
  -5   3   9   26.70    4.55
  -5   3   9   31.74    2.39
   5   3  -9   20.32    2.80
   3  -3  -9    2.21    1.37
   3  -3  -9    3.69    1.66
   3  -3  -9    5.11    1.32
   3  -3  -9    3.85    1.85
  -3  -3   9    6.16    2.86
   3  -3  -9    4.85    2.23
   3  -3  -9    6.07    2.05
  -3   3   9    4.41    1.32
   3   3  -9    2.97    1.69
  -3   3   9    7.12    2.21
   3   3  -9    2.49    2.33
   3   3  -9    4.06    1.74
   3   3  -9    2.55    1.65
  -1  -3   9   11.27    2.72
   1  -3  -9   17.66    3.12
   1  -3  -9   11.46    2.36
   1  -3  -9   11.73    1.57
   1  -3  -9    9.79    2.07
   1  -3  -9   13.18    2.70
   1   3  -9   13.84    2.32
   1   3  -9   12.31    2.02
   1   3  -9   19.89    3.12
   1   3  -9   16.55    2.82
  -1   3   9   17.28    2.98
  -1   3   9   11.45    1.68
  -1  -3  -9    5.84    1.87
  -1  -3  -9    3.69    1.87
  -1  -3  -9    3.40    2.07
   1  -3   9    6.69    1.95
  -1  -3  -9    5.97    2.22
  -1  -3  -9    8.64    2.44
  -1   3  -9    2.22    1.65
  -1   3  -9    8.52    2.05
  -1   3  -9    6.90    1.86
  -1   3  -9   10.30    2.37
  -1   3  -9    6.13    1.88
   3  -3   9    6.76    2.05
  -3  -3  -9    7.02    1.92
  -3  -3  -9    7.46    2.30
  -3  -3  -9   12.43    4.26
  -3  -3  -9   11.02    2.53
  -3   3  -9    4.84    1.91
  -3   3  -9    6.46    2.03
  -3   3  -9    6.91    2.29
  -3   3  -9    7.47    2.00
  -3   3  -9   11.94    2.21
  -5  -3  -9    9.18    2.57
  -5  -3  -9    4.59    1.75
  -5  -3  -9    8.67    2.89
  -5   3  -9    2.82    1.89
  -5   3  -9    4.15    1.94
  12  -4  -9   10.23    2.93
  12  -4  -9    7.20    2.17
 -12  -4   9   10.46    2.34
 -12  -4   9    6.04    2.30
  12   4  -9   11.52    3.46
 -12   4   9    8.64    2.75
  12   4  -9    6.51    1.93
 -12   4   9    7.93    2.70
  12   4  -9    2.75    2.21
  12   4  -9    4.66    2.14
  10  -4  -9   10.82    3.11
  10  -4  -9   13.12    2.61
  10  -4  -9   14.15    2.18
  10  -4  -9   11.29    2.03
 -10   4   9   12.74    2.89
  10   4  -9   10.64    2.54
  10   4  -9   11.75    2.55
  10   4  -9   18.23    3.59
 -10   4   9   14.64    3.08
  10   4  -9   14.03    2.31
   8  -4  -9   -0.21    2.20
   8  -4  -9    2.09    2.02
  -8  -4   9    4.82    2.12
  -8  -4   9    3.27    2.28
   8  -4  -9   -0.41    1.65
   8  -4  -9   -1.23    1.51
   8  -4  -9    0.16    1.87
  -8   4   9    2.76    2.38
   8   4  -9   -1.00    1.78
   8   4  -9    0.86    1.71
   8   4  -9    2.75    1.89
  -8   4   9    4.30    2.21
   8   4  -9    2.65    2.75
  -6  -4   9   15.89    3.04
   6  -4  -9   17.44    2.41
   6  -4  -9   16.42    2.73
   6  -4  -9    9.53    2.25
   6  -4  -9   13.96    2.97
   6  -4  -9   13.33    2.12
  -6  -4   9   13.34    2.37
   6  -4  -9   12.52    2.05
   6   4  -9   12.94    2.07
   6   4  -9   14.61    2.49
   6   4  -9   12.99    2.43
   4  -4  -9    6.25    2.30
  -4  -4   9    8.49    4.24
   4  -4  -9    3.79    2.19
  -4  -4   9    5.46    1.92
   4  -4  -9    3.33    1.61
   4  -4  -9    4.91    2.15
   4  -4  -9    4.73    1.70
   4  -4  -9    5.43    1.50
   4   4  -9    4.43    2.04
   4   4  -9    5.75    3.25
  -4   4   9    9.33    2.36
   4   4  -9    2.35    1.48
   4   4  -9    5.58    1.88
   2  -4  -9   20.52    2.79
  -2  -4   9   16.22    2.53
   2  -4  -9   23.74    4.04
   2  -4  -9   16.26    2.93
  -2  -4   9   21.50    4.04
   2  -4  -9   18.88    2.89
   2  -4  -9   12.36    2.23
   2  -4  -9   13.97    2.05
   2   4  -9   13.72    2.28
   2   4  -9   21.93    3.81
  -2   4   9   19.52    3.03
   2   4  -9   19.20    3.31
   2   4  -9   15.91    2.44
   0  -4   9    3.37    1.84
   0  -4  -9   -0.04    1.77
   0  -4  -9    3.80    2.17
   0  -4  -9    2.54    2.12
   0  -4  -9    0.42    1.43
   0  -4  -9   -0.62    2.12
   0   4  -9    1.55    1.74
   0   4  -9    3.79    2.41
   0   4  -9    1.09    1.77
   0   4  -9    1.26    1.69
   0   4   9    0.41    2.27
   0   4  -9    1.09    1.62
  -2  -4  -9   20.60    3.19
  -2  -4  -9   15.08    2.82
  -2  -4  -9   14.73    2.54
  -2  -4  -9   16.17    2.49
   2  -4   9   22.06    3.13
  -2   4  -9   23.82    3.10
  -2   4  -9   20.96    3.69
   2   4   9   23.40    3.98
  -2   4  -9   18.48    3.24
  -2   4  -9   24.80    2.92
   9  -5  -9   11.44    2.10
  -9  -5   9   13.14    3.06
   9  -5  -9   10.75    2.17
   9  -5  -9   13.02    3.27
  -9  -5   9   10.61    2.75
   9   5  -9   12.62    2.63
   9   5  -9   23.39    4.22
  -9   5   9   15.23    3.18
  -9   5   9   17.00    3.17
   9   5  -9   10.70    2.20
   9   5  -9   13.68    2.73
   7  -5  -9   -1.28    1.72
  -7  -5   9    2.64    2.50
   7  -5  -9   -1.92    1.72
   7  -5  -9    1.34    2.00
   7  -5  -9   -0.90    2.27
  -7   5   9    2.76    2.44
   7   5  -9    0.67    2.03
   7   5  -9    3.09    1.84
  -7   5   9   -0.89    2.24
   7   5  -9    1.92    1.91
   7   5  -9    2.81    3.09
   5  -5  -9   14.98    3.01
  -5  -5   9   15.70    2.69
   5  -5  -9   12.14    2.00
  -5  -5   9   15.58    3.42
   5  -5  -9   17.61    2.91
  -5   5   9   12.29    2.98
   5   5  -9   20.60    3.36
   5   5  -9   24.12    3.66
   5   5  -9    7.55    2.06
  -5   5   9   10.37    2.70
   3  -5  -9    1.21    1.59
   3  -5  -9    7.24    2.52
  -3  -5   9    3.46    2.56
   3  -5  -9    1.09    2.11
   3  -5  -9   -0.95    1.32
  -3  -5   9   -1.67    1.77
   3  -5  -9    0.70    2.09
  -3   5   9    2.48    2.51
   3   5  -9    1.69    1.82
   3   5  -9    0.71    1.75
   3   5  -9    5.03    2.90
   3   5  -9    2.55    1.46
   1  -5  -9    7.58    2.70
   1  -5  -9    5.26    2.55
  -1  -5   9    6.64    3.17
   1  -5  -9    7.96    2.50
   1  -5  -9   11.08    2.70
   1  -5  -9    3.03    1.84
  -1  -5   9    6.50    2.14
   1   5  -9    7.14    1.97
   1   5  -9   16.14    5.50
   1   5  -9    7.03    2.06
   1   5  -9    5.38    1.70
  -1   5   9    7.47    2.72
  -1  -5  -9    7.46    2.88
   1  -5   9    2.44    1.90
  -1  -5  -9    6.56    2.45
  -1  -5  -9    2.83    2.12
  -1  -5  -9    3.95    1.98
  -1  -5  -9   11.01    2.62
  -1   5  -9    4.16    1.87
   1   5   9    8.89    2.74
  -1   5  -9    5.31    1.96
  -1   5  -9   10.42    2.84
  -1   5  -9    1.50    1.72
   6  -6  -9   10.53    2.74
   4  -6  -9    5.96    2.60
   8   0 -10    6.31    2.39
  -8   0  10   10.40    2.23
   8   0 -10   10.95    2.21
   8   0 -10   14.20    3.18
   8   0 -10    5.90    2.42
  -8   0  10    7.22    2.55
   6   0 -10    6.43    1.98
  -6   0  10    8.84    3.41
   6   0 -10    0.91    2.13
   6   0 -10    3.12    2.64
   6   0 -10    8.26    2.38
  -6   0  10    5.41    2.09
   4   0 -10    5.31    2.10
   4   0 -10    6.30    2.08
  -4   0  10    9.10    2.60
   4   0 -10   13.05    2.67
   4   0 -10   10.08    2.84
   4   0 -10    7.64    2.56
  -4   0  10   12.35    2.72
   2   0 -10    3.17    2.15
   2   0 -10    2.95    2.22
   2   0 -10    4.97    2.40
  -2   0  10   10.31    2.63
   2   0 -10    6.73    2.24
   2   0 -10    4.04    2.01
  -2   0  10    1.79    1.84
   9  -1 -10   13.93    2.32
   9  -1 -10   12.38    2.73
  -9  -1  10   12.60    2.55
   9  -1 -10   17.77    3.03
   9  -1 -10   13.18    3.22
   9   1 -10   14.46    2.23
   9   1 -10   13.11    2.73
  -9   1  10   12.06    2.93
   9   1 -10   13.67    2.98
   9   1 -10   15.86    3.49
   7  -1 -10    1.23    2.22
  -7  -1  10    1.79    2.31
   7  -1 -10    1.97    2.47
   7  -1 -10    0.53    1.76
  -7  -1  10    0.47    1.93
   7  -1 -10    0.18    2.24
  -7   1  10   -1.06    2.19
   7   1 -10    1.22    2.05
   7   1 -10    2.04    2.63
   7   1 -10    1.13    1.81
   7   1 -10   -1.58    1.96
  -7   1  10    1.61    1.86
   5  -1 -10   15.09    3.04
  -5  -1  10   16.13    2.73
   5  -1 -10   16.03    2.79
  -5  -1  10   18.97    2.72
   5  -1 -10   15.51    3.09
   5  -1 -10   14.09    2.52
   5  -1 -10   17.77    2.39
   5   1 -10   14.06    2.27
   5   1 -10   14.70    3.12
   5   1 -10   12.69    2.66
  -5   1  10   15.89    2.88
   5   1 -10   15.83    2.81
   3  -1 -10    3.73    2.20
  -3  -1  10    3.73    1.94
   3  -1 -10   -0.71    1.45
   3  -1 -10   -2.07    1.99
   3  -1 -10   -2.28    1.72
   3  -1 -10    3.76    2.33
   3  -1 -10    0.55    1.98
   3   1 -10    0.29    2.24
  -3   1  10    6.34    3.11
  -3   1  10    0.82    1.78
   3   1 -10    0.12    1.80
   3   1 -10   -2.60    1.68
   3   1 -10   -0.12    2.06
   3   1 -10    2.26    2.16
   1  -1 -10    9.61    2.25
   1  -1 -10   18.94    3.24
   1  -1 -10   10.62    2.71
  -1  -1  10   12.77    2.35
   1  -1 -10   10.92    2.47
   1   1 -10    7.77    2.22
   1   1 -10   10.87    2.64
  -1   1  10   15.81    2.98
   1   1 -10    9.31    2.20
   1   1 -10   15.08    3.02
   6  -2 -10    0.26    2.44
   6  -2 -10    3.58    2.41
  -6  -2  10    2.94    2.00
   6  -2 -10    5.13    2.29
   6  -2 -10    0.83    1.77
   6   2 -10    2.25    2.22
   6   2 -10   -1.55    1.60
  -6   2  10    5.36    2.46
   6   2 -10    1.30    2.10
   6   2 -10    5.51    2.63
   4  -2 -10    6.17    2.10
   4  -2 -10    3.33    2.55
   4  -2 -10    7.86    2.59
   4  -2 -10    6.37    2.44
   4  -2 -10    2.88    1.94
  -4  -2  10    5.69    2.07
   4  -2 -10    3.14    1.59
   4   2 -10    5.12    2.59
  -4   2  10    9.59    2.81
   4   2 -10    4.18    2.15
   4   2 -10    7.14    1.92
  -4   2  10    5.15    1.79
   4   2 -10    8.35    2.29
   0   0   0    0.00    0.00
;
_shelx_hkl_checksum              6199
loop_
_space_group_symop_operation_xyz
'x, y, z'
'-x, y, -z'
'x+1/2, y+1/2, z'
'-x+1/2, y+1/2, -z'
'-x, -y, -z'
'x, -y, z'
'-x+1/2, -y+1/2, -z'
'x+1/2, -y+1/2, z'
loop_
_atom_site_label
_atom_site_type_symbol
_atom_site_fract_x
_atom_site_fract_y
_atom_site_fract_z
_atom_site_U_iso_or_equiv
_atom_site_adp_type
_atom_site_occupancy
_atom_site_site_symmetry_order
_atom_site_calc_flag
_atom_site_refinement_flags_posn
_atom_site_refinement_flags_adp
_atom_site_refinement_flags_occupancy
C1 C 0.3940(3) 0.1348(6) 0.3784(7) 0.0418(10) Uani 1 1 d . . .
H1 H 0.4092 0.2265 0.3259 0.050 Uiso 1 1 calc R U .
C2 C 0.3525(3) 0.1383(6) 0.5296(7) 0.0383(10) Uani 1 1 d . . .
H2 H 0.3388 0.2318 0.5804 0.046 Uiso 1 1 calc R U .
C3 C 0.3312(4) 0.0000 0.6054(8) 0.0317(12) Uani 1 2 d S T P
N1 N 0.4127(4) 0.0000 0.3062(8) 0.0402(13) Uani 1 2 d DS T P
O1 O 0.5316(3) 0.5000 0.7749(6) 0.0356(9) Uani 1 2 d S T P
Cl1 Cl 0.65925(10) 0.5000 1.1896(2) 0.0398(3) Uani 1 2 d S T P
Cl2 Cl 0.5000 0.19378(15) 1.0000 0.0374(3) Uani 1 2 d S T P
I1 I 0.26242(3) 0.0000 0.82560(6) 0.04315(13) Uani 1 2 d S T P
Np1 Np 0.5000 0.5000 1.0000 0.02106(9) Uani 1 4 d S T P
HN1 H 0.434(4) 0.0000 0.205(6) 0.025 Uiso 1 2 d DS U P
loop_
_atom_site_aniso_label
_atom_site_aniso_U_11
_atom_site_aniso_U_22
_atom_site_aniso_U_33
_atom_site_aniso_U_23
_atom_site_aniso_U_13
_atom_site_aniso_U_12
C1 0.046(3) 0.040(2) 0.043(2) 0.0058(19) 0.016(2) -0.001(2)
C2 0.040(2) 0.038(2) 0.038(2) -0.0005(18) 0.0114(18) 0.0006(19)
C3 0.029(3) 0.042(3) 0.025(3) 0.000 0.007(2) 0.000
N1 0.038(3) 0.055(3) 0.031(3) 0.000 0.015(2) 0.000
O1 0.046(3) 0.039(2) 0.0268(19) 0.000 0.0189(18) 0.000
Cl1 0.0317(8) 0.0445(8) 0.0422(8) 0.000 0.0053(6) 0.000
Cl2 0.0530(9) 0.0186(6) 0.0459(8) 0.000 0.0227(7) 0.000
I1 0.0365(3) 0.0617(3) 0.0346(2) 0.000 0.01503(19) 0.000
Np1 0.02752(17) 0.01655(13) 0.02186(14) 0.000 0.01137(11) 0.000
loop_
_atom_type_symbol
_atom_type_description
_atom_type_scat_dispersion_real
_atom_type_scat_dispersion_imag
_atom_type_scat_source
C C 0.0033 0.0016 'International Tables Vol C Tables 4.2.6.8 and 6.1.1.4'
H H 0.0000 0.0000 'International Tables Vol C Tables 4.2.6.8 and 6.1.1.4'
N N 0.0061 0.0033 'International Tables Vol C Tables 4.2.6.8 and 6.1.1.4'
O O 0.0106 0.0060 'International Tables Vol C Tables 4.2.6.8 and 6.1.1.4'
Cl Cl 0.1484 0.1585 'International Tables Vol C Tables 4.2.6.8 and 6.1.1.4'
I I -0.4742 1.8119 'International Tables Vol C Tables 4.2.6.8 and 6.1.1.4'
Np Np -11.4937 4.1493 'International Tables Vol C Tables 4.2.6.8 and 6.1.1.4'
loop_
_geom_angle_atom_site_label_1
_geom_angle_atom_site_label_2
_geom_angle_atom_site_label_3
_geom_angle
_geom_angle_site_symmetry_1
_geom_angle_site_symmetry_3
N1 C1 C2 120.0(5) . .
N1 C1 H1 120.0 . .
C2 C1 H1 120.0 . .
C1 C2 C3 118.7(5) . .
C1 C2 H2 120.7 . .
C3 C2 H2 120.7 . .
C2 C3 C2 120.1(6) 6 .
C2 C3 I1 119.9(3) 6 .
C2 C3 I1 119.9(3) . .
C1 N1 C1 122.5(6) . 6
C1 N1 HN1 118.7(3) . .
C1 N1 HN1 118.7(3) 6 .
O1 Np1 O1 180.0 5_667 .
O1 Np1 Cl2 90.000(1) 5_667 5_667
O1 Np1 Cl2 90.000(1) . 5_667
O1 Np1 Cl2 90.000(1) 5_667 .
O1 Np1 Cl2 90.000(1) . .
Cl2 Np1 Cl2 180.0 5_667 .
O1 Np1 Cl1 89.82(16) 5_667 5_667
O1 Np1 Cl1 90.19(16) . 5_667
Cl2 Np1 Cl1 90.0 5_667 5_667
Cl2 Np1 Cl1 90.0 . 5_667
O1 Np1 Cl1 90.18(16) 5_667 .
O1 Np1 Cl1 89.81(16) . .
Cl2 Np1 Cl1 90.0 5_667 .
Cl2 Np1 Cl1 90.0 . .
Cl1 Np1 Cl1 180.0 5_667 .
loop_
_geom_bond_atom_site_label_1
_geom_bond_atom_site_label_2
_geom_bond_distance
_geom_bond_site_symmetry_2
C1 N1 1.333(6) .
C1 C2 1.368(6) .
C1 H1 0.9300 .
C2 C3 1.384(5) .
C2 H2 0.9300 .
C3 C2 1.384(5) 6
C3 I1 2.084(6) .
N1 C1 1.333(6) 6
N1 HN1 0.853(19) .
O1 Np1 1.749(4) .
Cl1 Np1 2.6544(16) .
Cl2 Np1 2.6543(13) .
Np1 O1 1.749(4) 5_667
Np1 Cl2 2.6543(13) 5_667
Np1 Cl1 2.6544(16) 5_667
loop_
_geom_hbond_atom_site_label_D
_geom_hbond_atom_site_label_H
_geom_hbond_atom_site_label_A
_geom_hbond_distance_DH
_geom_hbond_distance_HA
_geom_hbond_distance_DA
_geom_hbond_angle_DHA
_geom_hbond_site_symmetry_A
C1 H1 Cl2 0.93 2.98 3.482(5) 115.8 1_554
C2 H2 Cl1 0.93 2.82 3.719(5) 163.7 5_667
N1 HN1 Cl2 0.853(19) 2.580(17) 3.269(5) 138.7(10) 1_554
N1 HN1 Cl2 0.853(19) 2.580(17) 3.269(5) 138.7(10) 5_656
C1 H1 Cl2 0.93 2.98 3.482(5) 115.8 1_554
C2 H2 Cl1 0.93 2.82 3.719(5) 163.7 5_667
N1 HN1 Cl2 0.853(19) 2.580(17) 3.269(5) 138.7(10) 1_554
N1 HN1 Cl2 0.853(19) 2.580(17) 3.269(5) 138.7(10) 5_656
loop_
_geom_torsion_atom_site_label_1
_geom_torsion_atom_site_label_2
_geom_torsion_atom_site_label_3
_geom_torsion_atom_site_label_4
_geom_torsion
_geom_torsion_site_symmetry_4
N1 C1 C2 C3 0.4(8) .
C1 C2 C3 C2 0.5(9) 6
C1 C2 C3 I1 -176.8(4) .
C2 C1 N1 C1 -1.4(10) 6
