#------------------------------------------------------------------------------
#$Date: 2017-07-27 01:34:31 +0300 (Thu, 27 Jul 2017) $
#$Revision: 199346 $
#$URL: file:///home/coder/svn-repositories/cod/cif/4/12/63/4126309.cif $
#------------------------------------------------------------------------------
#
# This file is available in the Crystallography Open Database (COD),
# http://www.crystallography.net/
#
# All data on this site have been placed in the public domain by the
# contributors.
#
data_4126309
loop_
_publ_author_name
'Surbella, Robert G.'
'Ducati, Lucas Colucci'
'Pellegrini, Kristi L.'
'McNamara, Bruce K.'
'Autschbach, Jochen'
'Schwantes, Jon Michael'
'Cahill, Christopher L.'
_publ_section_title
;
 Transuranic Hybrid Materials: Crystallographic and Computational Metrics
 of Supramolecular Assembly.
;
_journal_name_full               'Journal of the American Chemical Society'
_journal_paper_doi               10.1021/jacs.7b05689
_journal_year                    2017
_chemical_formula_moiety         '(C5 H6 N 1+)2, (U O2 Cl4 2-)'
_chemical_formula_sum            'C10 H12 Cl4 N2 O2 U'
_chemical_formula_weight         572.05
_space_group_crystal_system      triclinic
_space_group_IT_number           2
_space_group_name_Hall           '-P 1'
_space_group_name_H-M_alt        'P -1'
_symmetry_space_group_name_Hall  '-P 1'
_symmetry_space_group_name_H-M   'P -1'
_atom_sites_solution_hydrogens   mixed
_audit_creation_method           SHELXL-2014/7
_cell_angle_alpha                78.07(2)
_cell_angle_beta                 72.22(2)
_cell_angle_gamma                75.60(2)
_cell_formula_units_Z            2
_cell_length_a                   7.732(7)
_cell_length_b                   10.312(9)
_cell_length_c                   11.343(9)
_cell_measurement_reflns_used    6652
_cell_measurement_temperature    296(2)
_cell_measurement_theta_max      51.451
_cell_measurement_theta_min      5.200
_cell_volume                     825.7(12)
_computing_cell_refinement       'SAINT, Bruker-AXS'
_computing_data_collection       'APEX, Bruker-AXS'
_computing_data_reduction        'SAINT, Bruker-AXS'
_computing_molecular_graphics    'WINGX (Farrugia, 2012)'
_computing_publication_material  'Crystal Maker (Palmer, 2009)'
_computing_structure_refinement  'SHELXL-2014/7 (Sheldrick, 2014)'
_computing_structure_solution    'SIR92 (Gualardi, 1994)'
_diffrn_ambient_temperature      296(2)
_diffrn_measured_fraction_theta_full 0.992
_diffrn_measured_fraction_theta_max 0.976
_diffrn_measurement_device_type  'Bruker Smart Apex II'
_diffrn_measurement_method       'Omega Scans'
_diffrn_radiation_probe          x-ray
_diffrn_radiation_type           MoK\a
_diffrn_radiation_wavelength     0.71073
_diffrn_reflns_av_R_equivalents  0.0239
_diffrn_reflns_av_unetI/netI     0.0200
_diffrn_reflns_Laue_measured_fraction_full 0.992
_diffrn_reflns_Laue_measured_fraction_max 0.976
_diffrn_reflns_limit_h_max       9
_diffrn_reflns_limit_h_min       -9
_diffrn_reflns_limit_k_max       12
_diffrn_reflns_limit_k_min       -12
_diffrn_reflns_limit_l_max       13
_diffrn_reflns_limit_l_min       -13
_diffrn_reflns_number            13494
_diffrn_reflns_point_group_measured_fraction_full 0.992
_diffrn_reflns_point_group_measured_fraction_max 0.976
_diffrn_reflns_theta_full        25.500
_diffrn_reflns_theta_max         25.898
_diffrn_reflns_theta_min         2.600
_diffrn_source                   'Fine-focus sealed tube'
_exptl_absorpt_coefficient_mu    10.473
_exptl_absorpt_correction_T_max  0.7452
_exptl_absorpt_correction_T_min  0.5144
_exptl_absorpt_correction_type   multi-scan
_exptl_absorpt_process_details   'Krause et. al 2015'
_exptl_crystal_colour            Yellow-green
_exptl_crystal_density_diffrn    2.301
_exptl_crystal_description       Prismatic
_exptl_crystal_F_000             524
_exptl_crystal_recrystallization_method 'Aqueous acidic (HCl)'
_exptl_crystal_size_max          0.367
_exptl_crystal_size_mid          0.275
_exptl_crystal_size_min          0.262
_refine_diff_density_max         0.513
_refine_diff_density_min         -0.619
_refine_diff_density_rms         0.093
_refine_ls_extinction_method     none
_refine_ls_goodness_of_fit_ref   1.067
_refine_ls_hydrogen_treatment    constr
_refine_ls_matrix_type           full
_refine_ls_number_parameters     175
_refine_ls_number_reflns         3140
_refine_ls_number_restraints     0
_refine_ls_restrained_S_all      1.067
_refine_ls_R_factor_all          0.0238
_refine_ls_R_factor_gt           0.0170
_refine_ls_shift/su_max          0.000
_refine_ls_shift/su_mean         0.000
_refine_ls_structure_factor_coef Fsqd
_refine_ls_weighting_details
'w=1/[\s^2^(Fo^2^)+(0.0186P)^2^+0.3866P] where P=(Fo^2^+2Fc^2^)/3'
_refine_ls_weighting_scheme      calc
_refine_ls_wR_factor_gt          0.0392
_refine_ls_wR_factor_ref         0.0428
_reflns_Friedel_coverage         0.000
_reflns_number_gt                2548
_reflns_number_total             3140
_reflns_threshold_expression     'I > 2\s(I)'
_cod_data_source_file            ja7b05689_si_002.cif
_cod_data_source_block           Compound_1
_cod_database_code               4126309
_shelx_shelxl_version_number     2014/7
_shelx_space_group_comment
;
The symmetry employed for this shelxl refinement is uniquely defined
by the following loop, which should always be used as a source of
symmetry information in preference to the above space-group names.
They are only intended as comments.
;
_shelx_res_file
;

    shelx.res created by SHELXL-2014/7

TITL shelx     P -1         R = 0.02
CELL  0.71073   7.7320  10.3120  11.3430   78.070   72.220   75.600
ZERR     2.00   0.0070   0.0090   0.0090    0.020    0.020    0.020
LATT   1
SFAC  C    H    CL   N    O    U
UNIT  20 24 8 4 4 2
MERG   2
OMIT     2  -1   1
OMIT     2   0   2
EQIV $1 -x+1, -y+1, -z
HTAB N1 Cl3_$1
HTAB C1 Cl3_$1
EQIV $2 -x, -y+1, -z+1
HTAB C2 Cl2_$2
HTAB C4 Cl4
EQIV $3 x+1, y, z-1
HTAB C5 Cl2_$3
HTAB N2 Cl2
EQIV $4 -x+1, -y+1, -z+1
HTAB N2 Cl3_$4
EQIV $5 x-1, y, z
HTAB C6 Cl3_$5
HTAB C6 Cl3_$4
EQIV $6 -x+1, -y, -z+1
HTAB C10 Cl4_$6
FMAP   2
PLAN    5
ACTA    51.00
HTAB    2.00000
BOND   $H
CONF
L.S.  25
TEMP    23.00
WGHT    0.018600    0.386600
FVAR       0.11056
U1    6    0.000000    0.000000    1.000000    10.50000    0.04834    0.04026 =
         0.04114   -0.01817   -0.00429   -0.00773
CL1   3    0.330138    0.032102    0.841094    11.00000    0.06139    0.08275 =
         0.07347   -0.03072    0.01291   -0.02300
CL2   3   -0.167191    0.168478    0.838111    11.00000    0.07025    0.06430 =
         0.05247   -0.01576   -0.01563    0.00193
O1    5   -0.001331    0.137554    1.071053    11.00000    0.06965    0.04994 =
         0.06071   -0.02963   -0.00979   -0.00962
U2    6    0.500000    0.500000    0.500000    10.50000    0.05108    0.03890 =
         0.04170   -0.00669   -0.01712   -0.00436
CL3   3    0.831464    0.553405    0.357268    11.00000    0.06567    0.06985 =
         0.07007   -0.02492   -0.00491   -0.02375
CL4   3    0.548495    0.301701    0.367639    11.00000    0.08541    0.05587 =
         0.06838   -0.02343   -0.02353   -0.01158
O2    5    0.391678    0.614425    0.394377    11.00000    0.07395    0.05816 =
         0.06136    0.00070   -0.03544    0.00148
N1    4    0.325273    0.352578   -0.083476    11.00000    0.09417    0.12785 =
         0.07289   -0.04608   -0.00558   -0.04083
AFIX   3
HN1   2    0.333273    0.321978   -0.150376    11.00000   -1.20000
AFIX   0
C1    1    0.240696    0.484158   -0.070327    11.00000    0.07365    0.09267 =
         0.07393    0.01072   -0.03228   -0.02353
AFIX  43
H1    2    0.193921    0.541158   -0.133296    11.00000   -1.20000
AFIX   0
C2    1    0.226830    0.529594    0.038109    11.00000    0.06166    0.05145 =
         0.10318   -0.02062   -0.01470   -0.00555
AFIX  43
H2    2    0.168199    0.617993    0.050539    11.00000   -1.20000
AFIX   0
C3    1    0.299228    0.444683    0.127034    11.00000    0.06833    0.10252 =
         0.05438   -0.02615   -0.00063   -0.03403
AFIX  43
H3    2    0.291474    0.474320    0.200891    11.00000   -1.20000
AFIX   0
C4    1    0.383707    0.315135    0.107132    11.00000    0.06363    0.07117 =
         0.06844    0.00752   -0.01850   -0.01694
AFIX  43
H4    2    0.434582    0.256374    0.167480    11.00000   -1.20000
AFIX   0
C5    1    0.393514    0.273055    0.003228    11.00000    0.06772    0.05477 =
         0.07419   -0.01616   -0.01088   -0.00818
AFIX  43
H5    2    0.450646    0.184253   -0.008554    11.00000   -1.20000
AFIX   0
N2    4    0.154335    0.151793    0.563299    11.00000    0.06680    0.07038 =
         0.05616   -0.02110   -0.00887   -0.02084
AFIX   3
HN2   2    0.149635    0.176293    0.632399    11.00000   -1.20000
AFIX   0
C6    1    0.062668    0.234234    0.487804    11.00000    0.05614    0.04684 =
         0.08103   -0.02150   -0.00733   -0.00793
AFIX  43
H6    2   -0.005454    0.317932    0.509404    11.00000   -1.20000
AFIX   0
C7    1    0.067000    0.197936    0.379144    11.00000    0.06647    0.06607 =
         0.07476    0.00481   -0.03009   -0.01658
AFIX  43
H7    2    0.000865    0.255990    0.326359    11.00000   -1.20000
AFIX   0
C8    1    0.169711    0.074599    0.346651    11.00000    0.07679    0.08071 =
         0.04867   -0.01903   -0.00514   -0.03735
AFIX  43
H8    2    0.174944    0.048612    0.271658    11.00000   -1.20000
AFIX   0
C9    1    0.263231   -0.008305    0.426481    11.00000    0.05788    0.04747 =
         0.07736   -0.01895    0.00438   -0.01203
AFIX  43
H9    2    0.333385   -0.092179    0.406756    11.00000   -1.20000
AFIX   0
C10   1    0.253473    0.032362    0.535702    11.00000    0.05711    0.05820 =
         0.06259   -0.00064   -0.01591   -0.01278
AFIX  43
H10   2    0.316735   -0.024081    0.590906    11.00000   -1.20000
AFIX   0
HKLF    4

REM  shelx     P -1         R = 0.02
REM R1 =  0.0170 for    2548 Fo > 4sig(Fo)  and  0.0238 for all    3140 data
REM    175 parameters refined using      0 restraints

END

WGHT      0.0182      0.3976

REM Instructions for potential hydrogen bonds
HTAB N1 Cl3_$1
HTAB C1 Cl3_$1
HTAB C2 Cl2_$2
HTAB C4 Cl4
HTAB C5 Cl2_$3
HTAB N2 Cl2
HTAB N2 Cl3_$4
HTAB C6 Cl3_$5
HTAB C6 Cl3_$4
HTAB C10 Cl4_$6

REM Highest difference peak  0.513,  deepest hole -0.619,  1-sigma level  0.093
Q1    1   0.3710  0.0159  0.8971  11.00000  0.05    0.51
Q2    1   0.7922  0.5102  0.4302  11.00000  0.05    0.39
Q3    1   0.0552  0.0720  0.9419  11.00000  0.05    0.34
Q4    1   0.2919 -0.0215  0.8414  11.00000  0.05    0.33
Q5    1   0.2146  0.0130  0.9421  11.00000  0.05    0.30
;
_shelx_res_checksum              90515
_shelx_hkl_file
;
  -1   0   0    0.15    0.04
  -2   0   0  105.17    2.58
  -3   0   0    0.80    0.11
  -4   0   0   84.39    2.07
  -4   0   0   79.21    2.08
  -4   0   0   79.89    2.04
  -5   0   0    1.91    0.13
  -5   0   0    2.09    0.22
  -5   0   0    2.29    0.20
  -5   0   0    2.37    0.18
  -5   0   0    2.06    0.16
   5   0   0    1.98    0.14
  -6   0   0   57.00    1.59
  -6   0   0   60.16    1.63
  -6   0   0   57.88    1.54
  -6   0   0   58.76    1.56
   6   0   0   59.58    1.51
   6   0   0   57.68    1.57
  -7   0   0    0.40    0.16
  -7   0   0    0.48    0.14
  -7   0   0    0.31    0.13
  -7   0   0    0.18    0.18
   7   0   0    0.33    0.20
   7   0   0    0.35    0.15
  -8   0   0    5.67    0.46
  -8   0   0    5.51    0.36
  -8   0   0    5.15    0.38
  -8   0   0    5.64    0.38
   8   0   0    5.80    0.50
   8   0   0    6.05    0.43
   8  -1   0   -0.22    0.16
   8  -1   0   -0.04    0.22
  -8   1   0   -0.01    0.22
  -8   1   0    0.14    0.17
  -8   1   0   -0.18    0.15
  -8   1   0   -0.12    0.14
   7  -1   0   14.14    0.49
   7  -1   0   14.43    0.55
  -7   1   0   13.01    0.55
  -7   1   0   14.66    0.52
  -7   1   0   13.22    0.48
  -7   1   0   13.74    0.52
  -7   1   0   13.49    0.60
   6  -1   0    1.98    0.17
  -6   1   0    1.34    0.17
  -6   1   0    1.76    0.15
  -6   1   0    1.86    0.18
  -6   1   0    2.01    0.18
  -6   1   0    2.35    0.26
  -6   1   0    1.99    0.21
  -5   1   0   38.06    1.08
  -5   1   0   38.45    0.99
  -5   1   0   35.73    1.01
  -5   1   0   35.56    1.01
  -5   1   0   39.35    1.05
  -4   1   0    8.52    0.34
  -4   1   0    9.16    0.31
  -4   1   0    8.68    0.30
  -4   1   0    8.91    0.32
  -4   1   0    8.44    0.29
  -3   1   0  210.34    5.13
  -2   1   0    0.14    0.06
  -1   1   0  431.35   10.50
  -1  -1   0  257.75    6.53
   1   1   0  273.34    6.56
  -2  -1   0    0.16    0.06
  -3  -1   0  220.93    5.38
  -4  -1   0    6.92    0.31
  -4  -1   0    7.25    0.29
  -4  -1   0    7.48    0.28
  -5  -1   0   56.60    1.54
  -5  -1   0   57.50    1.56
  -5  -1   0   57.62    1.50
  -5  -1   0   57.80    1.52
   5   1   0   58.90    1.52
  -6  -1   0    0.27    0.16
  -6  -1   0    0.02    0.11
  -6  -1   0   -0.02    0.11
  -6  -1   0    0.18    0.11
   6   1   0    0.09    0.11
   6   1   0   -0.07    0.07
   6   1   0    0.03    0.16
  -7  -1   0   19.81    0.71
  -7  -1   0   20.32    0.67
  -7  -1   0   20.00    0.76
  -7  -1   0   20.36    0.68
   7   1   0   19.10    0.79
   7   1   0   19.49    0.70
  -8  -1   0   -0.01    0.15
  -8  -1   0    0.00    0.15
  -8  -1   0    0.07    0.15
  -8  -1   0   -0.24    0.20
   8   1   0    0.04    0.23
   8   1   0    0.01    0.17
   8  -2   0    5.53    0.35
   8  -2   0    4.98    0.39
  -8   2   0    5.09    0.33
  -8   2   0    5.35    0.37
  -8   2   0    5.20    0.31
  -8   2   0    5.46    0.46
  -8   2   0    5.48    0.37
   7  -2   0   -0.18    0.12
  -7   2   0    0.14    0.15
  -7   2   0    0.02    0.12
  -7   2   0    0.27    0.19
  -7   2   0    0.27    0.13
  -7   2   0   -0.01    0.13
  -6   2   0   30.55    0.91
  -6   2   0   31.24    0.98
  -6   2   0   32.59    0.90
  -6   2   0   30.78    0.90
  -6   2   0   30.86    0.88
  -6   2   0   30.52    0.93
  -5   2   0    0.51    0.09
  -5   2   0    0.53    0.11
  -5   2   0    0.63    0.14
  -5   2   0    0.27    0.11
  -5   2   0    0.69    0.11
  -5   2   0    0.73    0.13
  -4   2   0  113.50    2.76
  -4   2   0  110.49    2.75
  -4   2   0  113.34    2.76
  -4   2   0  111.02    2.74
  -4   2   0  107.98    2.79
  -4   2   0  108.66    2.76
  -3   2   0    7.73    0.29
  -2   2   0   16.10    0.46
  -1   2   0   -0.10    0.01
  -2  -2   0   51.17    1.30
   2   2   0   51.04    1.31
  -3  -2   0    0.39    0.08
   3   2   0    0.37    0.09
  -4  -2   0  119.13    2.94
  -4  -2   0  115.18    2.95
  -4  -2   0  120.69    2.92
   4   2   0  113.91    2.97
  -5  -2   0    3.26    0.24
  -5  -2   0    3.64    0.24
  -5  -2   0    3.48    0.20
  -5  -2   0    4.00    0.22
   5   2   0    2.69    0.25
   5   2   0    3.74    0.24
  -6  -2   0   47.97    1.41
  -6  -2   0   51.96    1.36
  -6  -2   0   50.66    1.39
  -6  -2   0   47.61    1.35
   6   2   0   48.84    1.45
   6   2   0   48.84    1.37
  -7  -2   0    0.12    0.18
  -7  -2   0    0.32    0.14
  -7  -2   0    0.09    0.13
  -7  -2   0    0.15    0.16
   7   2   0    0.36    0.21
   7   2   0    0.25    0.16
  -8  -2   0   12.02    0.57
  -8  -2   0   12.58    0.63
  -8  -2   0   12.81    0.55
  -8  -2   0   10.98    0.50
   8   2   0   13.03    0.60
   8   2   0   12.53    0.67
   8  -3   0   -0.13    0.16
  -8   3   0    0.09    0.16
  -8   3   0    0.10    0.14
  -8   3   0    0.24    0.23
  -8   3   0   -0.11    0.15
   7  -3   0   16.08    0.63
   7  -3   0   16.08    0.58
  -7   3   0   15.87    0.56
  -7   3   0   15.76    0.66
  -7   3   0   15.78    0.61
  -7   3   0   15.74    0.58
  -7   3   0   16.80    0.60
   6  -3   0    3.20    0.27
  -6   3   0    2.55    0.28
  -6   3   0    2.30    0.21
  -6   3   0    2.76    0.23
  -6   3   0    2.35    0.23
  -6   3   0    2.07    0.19
  -6   3   0    3.05    0.22
   5  -3   0   21.29    0.69
  -5   3   0   21.50    0.70
  -5   3   0   21.70    0.67
  -5   3   0   22.00    0.66
  -5   3   0   21.27    0.66
  -5   3   0   21.17    0.64
   4  -3   0    0.72    0.13
  -4   3   0    0.79    0.11
  -4   3   0    0.76    0.11
  -4   3   0    0.52    0.09
  -4   3   0    1.05    0.15
  -4   3   0    0.76    0.13
   3  -3   0  156.15    3.92
  -3   3   0  163.51    3.91
  -3   3   0  160.24    3.89
  -3   3   0  157.04    3.89
  -3   3   0  158.88    3.91
  -2   3   0    3.67    0.17
  -1   3   0   57.75    1.44
   0   3   0   -0.10    0.04
   1   3   0    5.15    0.20
  -2  -3   0   -0.05    0.05
   2   3   0    0.01    0.06
  -3  -3   0  298.38    7.51
   3   3   0  314.89    7.46
  -4  -3   0    1.29    0.12
  -4  -3   0    1.54    0.15
  -4  -3   0    1.55    0.17
   4   3   0    1.53    0.18
  -5  -3   0   54.66    1.49
  -5  -3   0   52.90    1.46
  -5  -3   0   54.94    1.44
   5   3   0   55.32    1.52
   5   3   0   53.38    1.48
  -6  -3   0    0.17    0.11
  -6  -3   0    0.27    0.16
  -6  -3   0    0.24    0.12
   6   3   0    0.13    0.14
   6   3   0    0.19    0.17
  -7  -3   0    7.41    0.44
  -7  -3   0    6.02    0.38
  -7  -3   0    6.31    0.34
   7   3   0    7.49    0.42
   7   3   0    6.66    0.47
  -8  -3   0    0.22    0.22
  -8  -3   0    0.13    0.19
  -8  -3   0   -0.07    0.16
   8   3   0   -0.23    0.22
   7  -4   0    0.16    0.19
  -7   4   0    0.01    0.13
  -7   4   0    0.44    0.17
  -7   4   0    0.21    0.21
   6  -4   0   18.44    0.67
  -6   4   0   17.94    0.65
  -6   4   0   19.03    0.63
  -6   4   0   18.33    0.63
  -6   4   0   19.06    0.62
  -6   4   0   19.00    0.68
   5  -4   0    3.89    0.28
  -5   4   0    3.68    0.25
  -5   4   0    4.11    0.27
  -5   4   0    3.45    0.22
  -5   4   0    3.88    0.28
   4  -4   0   74.79    1.99
  -4   4   0   78.15    1.94
  -4   4   0   75.07    1.96
  -4   4   0   78.07    1.99
  -4   4   0   76.39    1.98
  -4   4   0   76.19    1.95
   3  -4   0    0.22    0.10
  -3   4   0    0.28    0.08
  -3   4   0    0.14    0.08
  -3   4   0    0.14    0.10
  -3   4   0    0.31    0.10
   2  -4   0   76.06    1.93
  -2   4   0   77.08    1.92
  -2   4   0   74.10    1.89
  -2   4   0   74.43    1.89
  -1   4   0    0.15    0.06
   0   4   0  235.82    5.79
   1   4   0    8.26    0.29
   2   4   0  143.41    3.55
  -3  -4   0    4.43    0.23
  -3  -4   0    5.55    0.24
   3   4   0    4.88    0.25
  -4  -4   0   79.97    2.03
  -4  -4   0   80.01    2.05
  -4  -4   0   78.86    2.06
   4   4   0   79.78    2.09
  -5  -4   0    0.82    0.17
  -5  -4   0    0.57    0.13
  -5  -4   0    0.63    0.13
   5   4   0    0.42    0.13
   5   4   0    0.94    0.19
  -6  -4   0   16.06    0.56
  -6  -4   0   15.68    0.59
  -6  -4   0   16.29    0.62
   6   4   0   17.20    0.66
   6   4   0   15.16    0.59
  -7  -4   0    0.01    0.11
  -7  -4   0   -0.18    0.15
  -7  -4   0    0.13    0.19
   7   4   0    0.18    0.20
   7   4   0    0.10    0.15
  -8  -4   0    8.86    0.53
  -8  -4   0    8.02    0.43
  -8  -4   0    8.44    0.49
   8   4   0    8.72    0.59
   7  -5   0   10.43    0.55
  -7   5   0    9.79    0.49
  -7   5   0    9.53    0.54
  -7   5   0   10.08    0.46
  -7   5   0    9.65    0.50
   6  -5   0    0.07    0.17
  -6   5   0    0.38    0.18
  -6   5   0    0.09    0.15
  -6   5   0    0.20    0.17
  -6   5   0   -0.03    0.13
   5  -5   0   15.49    0.59
  -5   5   0   15.37    0.57
  -5   5   0   16.03    0.58
  -5   5   0   15.02    0.53
  -5   5   0   14.91    0.54
   4  -5   0    1.78    0.20
  -4   5   0    1.95    0.18
  -4   5   0    1.75    0.19
  -4   5   0    1.63    0.17
  -4   5   0    1.98    0.20
   3  -5   0   81.54    2.11
  -3   5   0   80.94    2.07
  -3   5   0   81.99    2.10
  -3   5   0   80.74    2.07
   2  -5   0    1.21    0.15
  -2   5   0    0.90    0.12
  -2   5   0    0.93    0.12
  -2   5   0    1.18    0.12
   1  -5   0  261.18    6.36
  -1   5   0  271.77    6.35
  -1   5   0  258.00    6.33
  -1   5   0  257.54    6.32
  -1   5   0  256.00    6.32
   0  -5   0    0.19    0.08
   0   5   0    0.39    0.08
   0   5   0    0.18    0.07
   1   5   0   76.16    1.93
   2   5   0    9.47    0.36
  -3  -5   0  112.56    2.75
  -3  -5   0  110.82    2.77
   3   5   0  108.78    2.82
  -4  -5   0    0.10    0.09
  -4  -5   0    0.08    0.07
  -4  -5   0   -0.07    0.10
   4   5   0    0.06    0.12
   4   5   0   -0.05    0.09
  -5  -5   0   52.42    1.40
  -5  -5   0   51.39    1.43
  -5  -5   0   52.88    1.45
   5   5   0   52.17    1.43
   5   5   0   50.93    1.48
  -6  -5   0    0.13    0.12
  -6  -5   0    0.17    0.18
  -6  -5   0    0.19    0.15
   6   5   0    0.35    0.19
   6   5   0    0.34    0.15
  -7  -5   0    6.47    0.36
  -7  -5   0    6.84    0.45
  -7  -5   0    6.49    0.40
   7   5   0    6.07    0.47
  -8  -5   0    0.06    0.17
  -8  -5   0    0.10    0.23
  -8  -5   0    0.03    0.19
   8   5   0   -0.07    0.25
   6  -6   0   11.86    0.57
  -6   6   0   12.27    0.53
  -6   6   0   12.05    0.49
  -6   6   0   11.09    0.54
   5  -6   0    0.47    0.18
  -5   6   0    0.75    0.16
  -5   6   0    0.33    0.16
  -5   6   0    0.92    0.20
  -5   6   0    0.69    0.17
   4  -6   0   40.23    1.18
  -4   6   0   40.56    1.14
  -4   6   0   40.58    1.13
  -4   6   0   40.08    1.16
   3  -6   0    0.37    0.14
  -3   6   0    0.17    0.09
  -3   6   0    0.14    0.10
  -3   6   0    0.02    0.12
  -3   6   0    0.16    0.10
   2  -6   0   40.19    1.16
  -2   6   0   43.03    1.12
  -2   6   0   41.44    1.15
  -2   6   0   40.57    1.12
  -2   6   0   42.04    1.12
   1  -6   0   -0.02    0.10
  -1   6   0    0.03    0.06
  -1   6   0    0.08    0.07
  -1   6   0    0.09    0.08
   0  -6   0  158.10    3.90
   0   6   0  155.75    3.88
   0   6   0  160.21    3.86
   0   6   0  155.54    3.87
  -1  -6   0   -0.02    0.08
   1   6   0   -0.02    0.07
   1   6   0   -0.02    0.04
  -2  -6   0   97.98    2.48
   2   6   0   97.73    2.47
   2   6   0   98.47    2.50
  -3  -6   0    0.08    0.10
  -3  -6   0    0.12    0.09
  -3  -6   0    0.13    0.06
   3   6   0    0.16    0.13
   3   6   0   -0.04    0.08
   3   6   0    0.35    0.11
  -4  -6   0   39.24    1.11
  -4  -6   0   40.07    1.09
  -4  -6   0   39.79    1.12
   4   6   0   39.37    1.13
   4   6   0   40.96    1.18
  -5  -6   0    1.07    0.17
  -5  -6   0    1.07    0.18
  -5  -6   0    1.23    0.15
   5   6   0    1.32    0.23
   5   6   0    1.25    0.18
  -6  -6   0   27.72    0.92
  -6  -6   0   27.87    0.90
  -6  -6   0   26.71    0.85
   6   6   0   29.66    0.90
   6   6   0   27.34    0.96
  -7  -6   0   -0.18    0.15
  -7  -6   0   -0.02    0.12
  -7  -6   0    0.20    0.20
   7   6   0    0.08    0.22
  -8  -6   0   12.93    0.65
  -8  -6   0   11.20    0.53
  -8  -6   0   11.34    0.59
   8   6   0   13.12    0.71
   6  -7   0   -0.05    0.21
  -6   7   0   -0.04    0.16
  -6   7   0    0.12    0.21
  -6   7   0    0.14    0.17
   5  -7   0   12.78    0.59
  -5   7   0   13.06    0.58
  -5   7   0   13.80    0.55
  -5   7   0   13.07    0.52
   4  -7   0    0.19    0.17
  -4   7   0    0.45    0.15
  -4   7   0    0.67    0.18
  -4   7   0    0.29    0.14
   3  -7   0   25.15    0.82
  -3   7   0   25.84    0.76
  -3   7   0   23.44    0.80
  -3   7   0   26.03    0.77
  -3   7   0   24.72    0.77
   2  -7   0    0.97    0.18
  -2   7   0    1.00    0.14
  -2   7   0    1.05    0.13
  -2   7   0    0.99    0.14
   1  -7   0   67.22    1.78
  -1   7   0   65.57    1.74
  -1   7   0   68.14    1.73
  -1   7   0   66.41    1.73
   0  -7   0    6.22    0.31
   0   7   0    5.82    0.25
   0   7   0    6.01    0.28
   0   7   0    5.69    0.28
  -1  -7   0   49.55    1.34
   1   7   0   49.66    1.28
   1   7   0   48.60    1.31
  -2  -7   0    1.64    0.17
   2   7   0    1.78    0.17
   2   7   0    1.61    0.20
  -3  -7   0   45.51    1.28
  -3  -7   0   47.72    1.23
  -3  -7   0   47.30    1.26
   3   7   0   45.89    1.28
   3   7   0   46.36    1.28
   3   7   0   47.62    1.34
  -4  -7   0    0.84    0.12
  -4  -7   0    0.92    0.15
  -4  -7   0    0.66    0.16
   4   7   0    0.81    0.15
   4   7   0    0.80    0.16
   4   7   0    1.42    0.23
  -5  -7   0   47.05    1.30
  -5  -7   0   46.98    1.34
   5   7   0   47.78    1.34
   5   7   0   47.64    1.42
  -6  -7   0    0.39    0.13
  -6  -7   0    0.44    0.16
   6   7   0    0.42    0.18
   6   7   0    0.69    0.23
  -7  -7   0   12.64    0.56
  -7  -7   0   10.51    0.48
   7   7   0   12.06    0.65
  -8  -7   0   -0.21    0.20
  -8  -7   0    0.03    0.19
   8   7   0   -0.01    0.28
   5  -8   0    0.41    0.22
  -5   8   0   -0.11    0.15
  -5   8   0    0.29    0.21
  -5   8   0   -0.03    0.18
   4  -8   0   22.77    0.82
  -4   8   0   22.55    0.76
  -4   8   0   21.92    0.75
   3  -8   0    0.31    0.18
  -3   8   0    0.35    0.13
  -3   8   0    0.41    0.15
   2  -8   0   23.23    0.79
  -2   8   0   23.45    0.74
  -2   8   0   23.00    0.72
   1  -8   0    0.06    0.13
  -1   8   0    0.06    0.09
  -1   8   0    0.34    0.12
  -1   8   0    0.10    0.09
   0  -8   0   32.01    0.97
   0   8   0   31.56    0.92
   0   8   0   32.35    0.92
   0   8   0   31.67    0.90
  -1  -8   0    0.81    0.17
   1   8   0    0.36    0.13
   1   8   0    0.38    0.12
   1   8   0    0.30    0.09
  -2  -8   0   66.27    1.75
   2   8   0   63.69    1.65
   2   8   0   63.90    1.72
   2   8   0   65.14    1.75
  -3  -8   0    6.44    0.35
  -3  -8   0    6.49    0.26
  -3  -8   0    6.23    0.31
   3   8   0    6.06    0.32
   3   8   0    6.91    0.39
   3   8   0    6.37    0.34
  -4  -8   0   26.56    0.82
  -4  -8   0   25.92    0.76
  -4  -8   0   26.51    0.84
   4   8   0   24.81    0.89
   4   8   0   25.15    0.83
   4   8   0   27.11    0.83
  -5  -8   0    0.00    0.15
  -5  -8   0    0.19    0.16
  -5  -8   0   -0.12    0.10
   5   8   0    0.16    0.20
   5   8   0    0.00    0.14
   5   8   0    0.24    0.14
  -6  -8   0    7.87    0.43
  -6  -8   0    8.47    0.39
   6   8   0    7.75    0.53
   6   8   0    7.28    0.44
  -7  -8   0   -0.03    0.15
  -7  -8   0    0.21    0.20
   7   8   0    0.06    0.19
   7   8   0   -0.64    0.22
   4  -9   0    0.06    0.21
  -4   9   0   -0.20    0.15
  -4   9   0   -0.06    0.14
   3  -9   0   19.42    0.77
  -3   9   0   20.64    0.72
  -3   9   0   20.61    0.70
   2  -9   0    0.43    0.19
  -2   9   0    0.29    0.13
  -2   9   0    0.42    0.14
   1  -9   0   37.18    1.14
  -1   9   0   37.55    1.09
  -1   9   0   37.34    1.07
   0  -9   0    0.30    0.16
   0   9   0    0.08    0.12
   0   9   0    0.14    0.09
  -1  -9   0   30.83    0.96
   1   9   0   31.64    0.88
   1   9   0   29.60    0.92
   1   9   0   31.08    0.93
  -2  -9   0    0.72    0.18
   2   9   0    0.05    0.13
   2   9   0    0.50    0.15
   2   9   0    0.34    0.09
  -3  -9   0   25.94    0.84
   3   9   0   25.20    0.86
   3   9   0   24.97    0.81
  -4  -9   0    0.09    0.17
  -4  -9   0   -0.03    0.14
   4   9   0    0.29    0.16
   4   9   0   -0.18    0.19
   4   9   0    0.18    0.15
  -5  -9   0   14.62    0.52
  -5  -9   0   14.77    0.58
  -5  -9   0   14.23    0.61
   5   9   0   13.69    0.57
   5   9   0   13.95    0.59
   5   9   0   13.96    0.68
  -6  -9   0    0.50    0.20
  -6  -9   0    0.25    0.15
   6   9   0    0.52    0.20
   6   9   0    0.28    0.24
  -7  -9   0    3.45    0.31
  -7  -9   0    2.65    0.32
   7   9   0    3.72    0.45
   7   9   0    3.40    0.35
   3 -10   0   -0.12    0.20
  -3  10   0    0.07    0.16
  -3  10   0    0.04    0.14
   2 -10   0   19.88    0.78
  -2  10   0   18.80    0.68
  -2  10   0   20.03    0.71
   1 -10   0    0.07    0.19
  -1  10   0    0.09    0.15
  -1  10   0    0.10    0.12
   0 -10   0   19.22    0.73
   0  10   0   18.84    0.67
   0  10   0   18.59    0.62
  -1 -10   0    3.57    0.32
   1  10   0    3.58    0.24
   1  10   0    3.40    0.29
  -2 -10   0   29.76    0.97
   2  10   0   29.49    0.93
  -3 -10   0    0.09    0.17
   3  10   0    0.00    0.14
   3  10   0   -0.09    0.17
  -4 -10   0   18.47    0.72
   4  10   0   17.08    0.73
   4  10   0   16.88    0.65
  -5 -10   0    0.26    0.19
  -5 -10   0    0.41    0.24
   5  10   0    0.50    0.19
   5  10   0   -0.04    0.17
   5  10   0    0.02    0.24
  -6 -10   0    2.91    0.32
  -6 -10   0    2.95    0.28
   6  10   0    3.13    0.34
   6  10   0    3.45    0.43
   2 -11   0   -0.24    0.21
  -2  11   0    0.14    0.17
  -2  11   0    0.15    0.16
   1 -11   0   12.47    0.61
  -1  11   0   11.36    0.53
  -1  11   0   11.48    0.50
   0 -11   0    0.00    0.19
   0  11   0   -0.18    0.11
   0  11   0    0.12    0.16
  -1 -11   0   17.23    0.72
   1  11   0   17.48    0.59
   1  11   0   17.57    0.66
  -2 -11   0    0.05    0.20
   2  11   0    0.44    0.18
  -3 -11   0   11.93    0.58
   3  11   0   10.41    0.52
  -4 -11   0    0.57    0.24
   4  11   0    0.41    0.20
   5  11   0    8.55    0.61
   0 -12   0    7.05    0.52
   0  12   0    6.47    0.38
   0  12   0    6.71    0.44
  -1 -12   0   -0.06    0.23
   1  12   0   -0.04    0.18
   1  12   0   -0.11    0.18
  -2 -12   0    8.69    0.56
   2  12   0    9.27    0.53
  -3 -12   0   -0.12    0.23
   3  12   0   -0.12    0.18
   2  12  -1   -0.17    0.20
  -2 -12   1   -0.11    0.23
   1  12  -1    8.39    0.55
   1  12  -1    8.98    0.53
  -1 -12   1    9.47    0.59
   4  11  -1   10.60    0.56
  -4 -11   1   11.65    0.61
   3  11  -1    0.95    0.24
  -3 -11   1    0.93    0.25
   2  11  -1   13.80    0.62
  -2 -11   1   14.54    0.65
   1  11  -1    0.04    0.13
   1  11  -1    0.05    0.17
  -1 -11   1    0.06    0.20
   0  11  -1   14.33    0.55
   0  11  -1   13.48    0.61
   0 -11   1   15.31    0.67
  -1  11  -1    0.11    0.18
  -1  11  -1   -0.13    0.14
   1 -11   1   -0.04    0.22
  -2  11  -1    9.85    0.51
  -2  11  -1    9.08    0.46
   2 -11   1    7.95    0.55
   6  10  -1   -0.26    0.28
   6  10  -1    0.28    0.21
  -6 -10   1    0.17    0.20
  -6 -10   1    0.35    0.16
   5  10  -1    9.26    0.51
   5  10  -1    9.84    0.61
   4  10  -1   -0.07    0.18
   4  10  -1   -0.17    0.22
  -4 -10   1    0.11    0.20
   3  10  -1   10.41    0.53
  -3 -10   1   11.12    0.53
   2  10  -1    0.03    0.16
  -2 -10   1   -0.22    0.17
   1  10  -1   26.21    0.85
   1  10  -1   24.16    0.76
  -1 -10   1   25.68    0.87
   0  10  -1    0.19    0.16
   0  10  -1   -0.06    0.12
   0 -10   1    0.13    0.18
  -1  10  -1   20.23    0.69
  -1  10  -1   20.72    0.73
   1 -10   1   19.55    0.77
  -2  10  -1    0.12    0.15
  -2  10  -1    0.15    0.16
   2 -10   1    0.01    0.19
  -3  10  -1    6.32    0.42
  -3  10  -1    7.39    0.40
   3 -10   1    6.26    0.48
   6   9  -1    5.71    0.42
   6   9  -1    5.49    0.47
   6   9  -1    5.11    0.39
  -6  -9   1    5.42    0.39
  -6  -9   1    5.05    0.34
   5   9  -1    1.26    0.28
   5   9  -1    1.42    0.23
   5   9  -1    1.20    0.22
  -5  -9   1    1.51    0.23
  -5  -9   1    1.09    0.17
   4   9  -1   19.74    0.79
   4   9  -1   21.48    0.74
   4   9  -1   20.25    0.75
  -4  -9   1   22.77    0.76
  -4  -9   1   20.87    0.72
   3   9  -1    0.51    0.21
   3   9  -1    0.26    0.16
  -3  -9   1    0.49    0.17
   2   9  -1   25.12    0.73
   2   9  -1   25.40    0.83
  -2  -9   1   25.09    0.83
   1   9  -1    0.27    0.15
   1   9  -1    0.11    0.10
  -1  -9   1    0.23    0.15
   0   9  -1   12.98    0.52
   0   9  -1   13.54    0.48
   0  -9   1   12.89    0.55
  -1   9  -1    0.17    0.11
  -1   9  -1    0.03    0.13
   1  -9   1    0.07    0.15
  -2   9  -1   27.85    0.88
  -2   9  -1   26.57    0.86
   2  -9   1   28.25    0.94
  -3   9  -1    0.08    0.12
  -3   9  -1    0.04    0.15
   3  -9   1    0.22    0.20
  -4   9  -1    9.42    0.49
  -4   9  -1    9.94    0.47
   4  -9   1    9.32    0.55
   7   8  -1    7.60    0.59
  -7  -8   1    8.10    0.47
  -7  -8   1    6.41    0.41
   6   8  -1   -0.01    0.18
   6   8  -1   -0.15    0.21
  -6  -8   1   -0.12    0.14
  -6  -8   1    0.12    0.16
   5   8  -1   22.31    0.84
   5   8  -1   22.56    0.78
   5   8  -1   22.60    0.79
  -5  -8   1   22.11    0.76
  -5  -8   1   22.65    0.73
   4   8  -1    0.23    0.15
   4   8  -1   -0.23    0.16
   4   8  -1    0.01    0.13
  -4  -8   1   -0.08    0.14
  -4  -8   1   -0.03    0.12
  -4  -8   1    0.01    0.09
   3   8  -1   21.51    0.75
   3   8  -1   20.34    0.71
  -3  -8   1   20.38    0.66
  -3  -8   1   21.94    0.71
  -3  -8   1   20.90    0.63
   2   8  -1    2.05    0.22
   2   8  -1    2.61    0.25
   2   8  -1    2.22    0.16
  -2  -8   1    2.60    0.23
   1   8  -1   41.38    1.17
   1   8  -1   41.01    1.11
  -1  -8   1   41.12    1.18
   0   8  -1    0.10    0.12
   0   8  -1    0.10    0.08
   0  -8   1    0.11    0.13
  -1   8  -1   36.28    1.07
  -1   8  -1   38.29    1.06
   1  -8   1   37.58    1.12
  -2   8  -1    0.28    0.12
  -2   8  -1    0.05    0.11
   2  -8   1    0.29    0.17
  -3   8  -1   20.65    0.73
  -3   8  -1   20.23    0.70
  -3   8  -1   21.84    0.70
   3  -8   1   19.77    0.73
  -4   8  -1    0.33    0.16
  -4   8  -1    0.39    0.15
   4  -8   1    0.33    0.20
  -5   8  -1    9.09    0.47
  -5   8  -1    9.36    0.53
  -5   8  -1    8.74    0.45
   5  -8   1    9.95    0.55
   7   7  -1    0.02    0.24
  -7  -7   1    0.45    0.24
  -7  -7   1   -0.07    0.19
  -7  -7   1    0.38    0.17
   6   7  -1   10.91    0.52
   6   7  -1    9.16    0.54
  -6  -7   1    9.31    0.44
  -6  -7   1    9.70    0.47
   5   7  -1    0.04    0.14
   5   7  -1    0.05    0.17
  -5  -7   1    0.08    0.12
  -5  -7   1    0.00    0.13
   4   7  -1   34.10    1.07
   4   7  -1   34.41    1.04
  -4  -7   1   34.23    0.97
  -4  -7   1   33.33    0.99
   3   7  -1    0.11    0.11
   3   7  -1    0.28    0.13
   3   7  -1    0.46    0.17
  -3  -7   1    0.56    0.13
  -3  -7   1    0.39    0.10
  -3  -7   1    0.23    0.10
   2   7  -1  119.76    2.94
   2   7  -1  117.99    3.02
  -2  -7   1  119.23    3.00
   1   7  -1    0.15    0.10
   1   7  -1    0.11    0.10
   1   7  -1    0.20    0.07
  -1  -7   1    0.16    0.11
   0   7  -1   41.20    1.15
   0   7  -1   41.32    1.12
   0   7  -1   43.07    1.13
   0  -7   1   41.72    1.17
  -1   7  -1    0.83    0.11
  -1   7  -1    0.67    0.12
  -1   7  -1    0.74    0.12
   1  -7   1    0.44    0.14
  -2   7  -1   52.11    1.44
  -2   7  -1   54.92    1.48
  -2   7  -1   52.81    1.43
   2  -7   1   54.48    1.49
  -3   7  -1    2.84    0.22
  -3   7  -1    2.85    0.26
  -3   7  -1    2.71    0.23
   3  -7   1    2.57    0.26
  -4   7  -1   24.97    0.79
  -4   7  -1   24.99    0.80
  -4   7  -1   25.67    0.84
   4  -7   1   24.81    0.85
  -5   7  -1    0.17    0.14
  -5   7  -1   -0.15    0.15
  -5   7  -1    0.08    0.17
   5  -7   1    0.06    0.18
  -6   7  -1    4.33    0.37
  -6   7  -1    4.65    0.34
  -6   7  -1    3.99    0.33
   6  -7   1    4.98    0.42
   8   6  -1    0.25    0.28
  -8  -6   1   -0.11    0.22
  -8  -6   1    0.19    0.26
  -8  -6   1    0.07    0.17
   7   6  -1    7.64    0.55
   7   6  -1    8.05    0.48
  -7  -6   1    7.85    0.51
  -7  -6   1    6.91    0.41
  -7  -6   1    8.38    0.46
   6   6  -1    0.66    0.18
   6   6  -1    0.79    0.23
  -6  -6   1    0.51    0.16
  -6  -6   1    0.70    0.21
  -6  -6   1    0.47    0.15
   5   6  -1   58.90    1.58
   5   6  -1   56.86    1.61
  -5  -6   1   55.13    1.55
  -5  -6   1   55.87    1.57
  -5  -6   1   55.24    1.52
   4   6  -1    1.27    0.21
   4   6  -1    1.14    0.18
  -4  -6   1    1.40    0.17
  -4  -6   1    1.30    0.16
  -4  -6   1    1.25    0.15
   3   6  -1   42.67    1.25
   3   6  -1   42.79    1.26
  -3  -6   1   46.95    1.21
  -3  -6   1   48.11    1.20
  -3  -6   1   43.17    1.20
   2   6  -1   -0.03    0.09
   2   6  -1   -0.08    0.10
  -2  -6   1    0.10    0.09
   1   6  -1  147.66    3.66
   1   6  -1  146.62    3.60
   1   6  -1  146.17    3.63
  -1  -6   1  147.89    3.65
   0   6  -1    0.06    0.08
   0   6  -1    0.22    0.09
   0   6  -1    0.15    0.07
   0  -6   1   -0.03    0.09
  -1   6  -1  135.00    3.32
  -1   6  -1  136.22    3.36
  -1   6  -1  136.88    3.35
  -1   6  -1  132.29    3.38
   1  -6   1  135.91    3.39
  -2   6  -1    4.83    0.25
  -2   6  -1    5.17    0.22
  -2   6  -1    4.82    0.28
  -2   6  -1    4.99    0.25
   2  -6   1    4.59    0.28
  -3   6  -1   30.31    0.83
  -3   6  -1   30.35    0.86
  -3   6  -1   27.79    0.87
  -3   6  -1   29.41    0.85
   3  -6   1   28.66    0.90
  -4   6  -1   -0.01    0.11
  -4   6  -1    0.07    0.11
  -4   6  -1   -0.16    0.14
   4  -6   1    0.06    0.13
  -5   6  -1   19.94    0.67
  -5   6  -1   19.54    0.71
  -5   6  -1   20.01    0.67
   5  -6   1   19.78    0.73
  -6   6  -1    0.02    0.15
  -6   6  -1    0.17    0.15
  -6   6  -1   -0.10    0.16
   6  -6   1    0.29    0.20
   8   5  -1    4.90    0.48
  -8  -5   1    4.95    0.44
  -8  -5   1    4.93    0.42
  -8  -5   1    5.40    0.39
   7   5  -1    0.34    0.19
   7   5  -1    0.01    0.21
  -7  -5   1    0.03    0.14
  -7  -5   1    0.36    0.20
  -7  -5   1    0.25    0.21
   6   5  -1   26.55    0.91
   6   5  -1   26.10    0.86
  -6  -5   1   27.10    0.88
  -6  -5   1   24.84    0.84
  -6  -5   1   25.11    0.82
   5   5  -1    1.32    0.20
   5   5  -1    1.00    0.21
  -5  -5   1    1.66    0.18
  -5  -5   1    1.43    0.21
  -5  -5   1    1.33    0.18
   4   5  -1   32.12    0.98
   4   5  -1   32.88    0.99
  -4  -5   1   32.13    0.96
  -4  -5   1   33.80    0.93
  -4  -5   1   33.79    0.95
   3   5  -1    0.92    0.15
   3   5  -1    0.98    0.15
  -3  -5   1    1.06    0.12
  -3  -5   1    0.96    0.12
  -3  -5   1    0.93    0.13
   2   5  -1  141.37    3.53
   2   5  -1  141.79    3.52
   1   5  -1    0.18    0.08
   1   5  -1    0.08    0.08
   0   5  -1   88.38    2.23
   0   5  -1   90.67    2.27
   0  -5   1   91.34    2.27
  -1   5  -1    1.78    0.14
  -1   5  -1    1.85    0.12
  -1   5  -1    1.86    0.16
  -1   5  -1    1.99    0.15
   1  -5   1    2.06    0.17
  -2   5  -1   89.79    2.26
  -2   5  -1   87.92    2.23
  -2   5  -1   89.72    2.24
  -2   5  -1   90.91    2.21
   2  -5   1   85.24    2.27
  -3   5  -1    7.45    0.34
  -3   5  -1    7.83    0.32
  -3   5  -1    8.15    0.31
  -3   5  -1    7.73    0.31
   3  -5   1    7.38    0.35
  -4   5  -1   49.47    1.36
  -4   5  -1   49.29    1.33
  -4   5  -1   52.09    1.33
  -4   5  -1   49.03    1.33
   4  -5   1   47.74    1.38
  -5   5  -1    1.84    0.22
  -5   5  -1    1.74    0.19
  -5   5  -1    1.31    0.17
   5  -5   1    1.66    0.22
  -6   5  -1   19.09    0.64
  -6   5  -1   19.62    0.66
  -6   5  -1   17.61    0.69
  -6   5  -1   18.59    0.69
   6  -5   1   18.57    0.71
  -7   5  -1    0.25    0.17
  -7   5  -1    0.06    0.20
  -7   5  -1   -0.06    0.15
   7  -5   1   -0.03    0.20
   8   4  -1   -0.17    0.21
   8   4  -1    0.06    0.27
  -8  -4   1    0.40    0.25
  -8  -4   1    0.23    0.19
  -8  -4   1   -0.07    0.21
   7   4  -1    6.92    0.44
   7   4  -1    7.37    0.50
  -7  -4   1    8.06    0.49
  -7  -4   1    7.04    0.39
  -7  -4   1    7.06    0.43
   6   4  -1    0.47    0.19
   6   4  -1    0.16    0.15
  -6  -4   1    0.38    0.16
  -6  -4   1    0.51    0.17
  -6  -4   1    0.46    0.13
   5   4  -1   98.36    2.57
   5   4  -1   95.27    2.54
  -5  -4   1   97.55    2.52
  -5  -4   1  100.18    2.51
  -5  -4   1   97.19    2.54
   4   4  -1    0.02    0.11
   4   4  -1    0.11    0.11
  -4  -4   1   -0.02    0.06
  -4  -4   1    0.00    0.09
  -4  -4   1    0.12    0.08
   3   4  -1    9.98    0.45
   3   4  -1   11.52    0.42
  -3  -4   1   10.97    0.39
  -3  -4   1   11.74    0.38
  -3  -4   1   11.71    0.38
   2   4  -1    0.69    0.11
  -2  -4   1    0.93    0.10
   0   4  -1    8.45    0.27
  -1   4  -1  234.40    5.74
  -2   4  -1    1.49    0.14
  -2   4  -1    1.39    0.11
  -2   4  -1    1.54    0.12
  -2   4  -1    1.34    0.11
   2  -4   1    1.22    0.13
  -3   4  -1   58.58    1.49
  -3   4  -1   58.40    1.49
  -3   4  -1   58.13    1.51
  -3   4  -1   58.52    1.48
   3  -4   1   54.28    1.52
  -4   4  -1   11.00    0.39
  -4   4  -1   10.90    0.43
  -4   4  -1   11.02    0.39
   4  -4   1   10.83    0.44
  -5   4  -1   37.51    1.05
  -5   4  -1   37.01    1.03
  -5   4  -1   35.88    1.02
  -5   4  -1   37.03    1.06
   5  -4   1   35.63    1.08
  -6   4  -1    0.05    0.13
  -6   4  -1    0.09    0.13
  -6   4  -1    0.05    0.12
  -6   4  -1    0.20    0.16
   6  -4   1   -0.02    0.14
  -7   4  -1   15.41    0.63
  -7   4  -1   17.15    0.59
  -7   4  -1   17.18    0.66
  -7   4  -1   16.35    0.61
   7  -4   1   15.99    0.68
   8   3  -1   11.85    0.62
   8   3  -1   11.10    0.67
  -8  -3   1   10.48    0.55
  -8  -3   1   10.75    0.61
  -8  -3   1   10.65    0.52
   7   3  -1    0.53    0.20
   7   3  -1    0.87    0.25
  -7  -3   1    0.63    0.17
  -7  -3   1    0.64    0.20
  -7  -3   1    0.75    0.23
   6   3  -1   36.96    1.17
   6   3  -1   36.50    1.14
  -6  -3   1   37.06    1.11
  -6  -3   1   37.67    1.13
  -6  -3   1   36.81    1.08
   5   3  -1    0.58    0.18
   5   3  -1    0.32    0.14
  -5  -3   1    0.22    0.10
  -5  -3   1    0.07    0.11
  -5  -3   1    0.25    0.14
   4   3  -1   14.85    0.53
   4   3  -1   14.05    0.52
  -4  -3   1   14.43    0.49
  -4  -3   1   14.22    0.50
  -4  -3   1   14.61    0.47
   3   3  -1    0.92    0.14
  -3  -3   1    0.75    0.10
  -3  -3   1    0.84    0.12
  -3  -3   1    1.03    0.13
   2   3  -1  240.79    5.75
  -2  -3   1  231.67    5.73
   1   3  -1   -0.12    0.01
   0   3  -1   62.32    1.53
  -1   3  -1    8.10    0.24
  -2   3  -1  119.18    2.91
  -3   3  -1    3.42    0.19
  -3   3  -1    3.02    0.16
  -3   3  -1    3.25    0.17
  -4   3  -1   83.75    2.12
  -4   3  -1   84.85    2.14
  -4   3  -1   83.33    2.15
  -4   3  -1   85.00    2.12
  -5   3  -1    1.14    0.14
  -5   3  -1    1.13    0.15
  -5   3  -1    1.23    0.17
  -5   3  -1    1.01    0.13
  -5   3  -1    0.60    0.10
  -6   3  -1   24.25    0.78
  -6   3  -1   23.68    0.74
  -6   3  -1   24.50    0.80
  -6   3  -1   23.94    0.72
  -6   3  -1   23.63    0.74
  -6   3  -1   25.04    0.72
  -7   3  -1    0.03    0.17
  -7   3  -1   -0.01    0.14
  -7   3  -1    0.36    0.15
  -7   3  -1    0.07    0.13
  -7   3  -1   -0.09    0.12
  -7   3  -1    0.15    0.16
   7  -3   1   -0.21    0.16
  -8   3  -1    4.88    0.36
  -8   3  -1    4.96    0.33
  -8   3  -1    4.36    0.39
   8  -3   1    4.69    0.44
   8   2  -1    0.35    0.27
   8   2  -1    0.33    0.22
  -8  -2   1   -0.03    0.19
  -8  -2   1    0.13    0.16
  -8  -2   1    0.06    0.23
   7   2  -1   10.74    0.58
   7   2  -1    8.07    0.46
  -7  -2   1    8.30    0.45
  -7  -2   1    8.22    0.43
  -7  -2   1    8.24    0.41
  -7  -2   1   10.27    0.53
   6   2  -1    0.44    0.19
   6   2  -1    0.40    0.16
  -6  -2   1    0.47    0.17
  -6  -2   1    0.39    0.14
  -6  -2   1    0.55    0.15
  -6  -2   1    0.69    0.15
   5   2  -1   75.54    2.03
   5   2  -1   71.73    1.98
  -5  -2   1   76.20    1.96
  -5  -2   1   74.62    1.99
  -5  -2   1   77.80    1.98
  -5  -2   1   74.25    1.96
   4   2  -1    0.11    0.10
  -4  -2   1    0.06    0.06
  -4  -2   1    0.06    0.07
  -4  -2   1    0.10    0.09
  -3  -2   1  222.45    5.43
   2   2  -1   -0.04    0.06
  -2  -2   1    0.00    0.05
   1   2  -1  289.79    6.99
  -1  -2   1  280.16    6.96
  -1   2  -1  279.78    6.88
  -2   2  -1   18.58    0.50
  -3   2  -1  130.16    3.20
  -4   2  -1    3.89    0.19
  -4   2  -1    4.05    0.22
  -4   2  -1    3.49    0.21
  -4   2  -1    4.25    0.19
  -5   2  -1   24.84    0.75
  -5   2  -1   25.37    0.78
  -5   2  -1   25.88    0.72
  -5   2  -1   24.65    0.72
  -5   2  -1   25.75    0.75
  -5   2  -1   25.29    0.71
  -6   2  -1    0.20    0.11
  -6   2  -1    0.04    0.12
  -6   2  -1   -0.08    0.08
  -6   2  -1   -0.16    0.09
  -6   2  -1   -0.12    0.09
  -6   2  -1   -0.10    0.14
  -7   2  -1   13.88    0.59
  -7   2  -1   13.64    0.52
  -7   2  -1   14.00    0.55
  -7   2  -1   14.53    0.50
  -7   2  -1   14.04    0.51
  -7   2  -1   14.26    0.55
  -8   2  -1   -0.02    0.15
  -8   2  -1   -0.13    0.14
  -8   2  -1    0.25    0.22
  -8   2  -1   -0.06    0.13
  -8   2  -1    0.14    0.16
   8  -2   1   -0.19    0.14
   8  -2   1   -0.05    0.23
   8   1  -1   10.57    0.57
   8   1  -1   11.34    0.67
  -8  -1   1   11.53    0.54
  -8  -1   1    9.78    0.47
  -8  -1   1   10.13    0.60
  -8  -1   1   10.16    0.53
   7   1  -1    0.20    0.23
   7   1  -1    0.63    0.19
  -7  -1   1    0.72    0.23
  -7  -1   1    0.74    0.17
  -7  -1   1    0.44    0.16
  -7  -1   1    0.61    0.19
   6   1  -1   37.91    1.16
   6   1  -1   40.60    1.08
  -6  -1   1   41.42    1.18
  -6  -1   1   39.53    1.14
  -6  -1   1   40.96    1.14
  -6  -1   1   40.98    1.07
  -6  -1   1   39.59    1.20
   5   1  -1   -0.07    0.06
   5   1  -1    0.14    0.10
  -5  -1   1    0.05    0.09
  -5  -1   1   -0.05    0.09
  -5  -1   1    0.05    0.10
  -5  -1   1   -0.05    0.06
  -5  -1   1    0.01    0.11
   4   1  -1   41.26    1.15
  -4  -1   1   42.20    1.17
  -4  -1   1   42.92    1.14
  -4  -1   1   44.11    1.16
  -4  -1   1   42.44    1.13
  -3  -1   1    0.09    0.07
  -2  -1   1 1000.00   24.37
  -1  -1   1    0.52    0.06
  -2   1  -1   31.89    0.82
  -3   1  -1    6.18    0.24
  -4   1  -1  149.99    3.92
  -4   1  -1  159.65    3.89
  -4   1  -1  167.71    3.92
  -5   1  -1    0.44    0.09
  -5   1  -1    0.52    0.09
  -5   1  -1    0.51    0.12
  -5   1  -1    0.53    0.10
  -5   1  -1    0.21    0.12
  -5   1  -1    0.60    0.12
  -6   1  -1   32.85    0.96
  -6   1  -1   35.15    1.01
  -6   1  -1   36.73    0.99
  -6   1  -1   34.85    0.99
  -6   1  -1   33.99    0.94
  -6   1  -1   34.99    1.04
  -7   1  -1    0.37    0.12
  -7   1  -1    0.24    0.15
  -7   1  -1    0.31    0.13
  -7   1  -1    0.52    0.20
  -7   1  -1    0.43    0.16
  -7   1  -1    0.20    0.12
   7  -1   1    0.29    0.20
  -8   1  -1    4.16    0.31
  -8   1  -1    4.67    0.35
  -8   1  -1    3.66    0.29
  -8   1  -1    3.45    0.36
   8  -1   1    3.16    0.38
   8  -1   1    3.87    0.33
   8   0  -1    0.22    0.26
   8   0  -1    0.60    0.22
  -8   0   1    0.65    0.22
  -8   0   1    0.54    0.18
  -8   0   1    0.29    0.18
  -8   0   1    0.34    0.24
   7   0  -1    8.40    0.44
   7   0  -1    8.50    0.44
  -7   0   1    9.45    0.42
  -7   0   1    8.67    0.41
  -7   0   1    8.91    0.45
  -7   0   1    8.34    0.49
   6   0  -1    2.31    0.23
   6   0  -1    2.66    0.19
  -6   0   1    2.59    0.24
  -6   0   1    2.37    0.27
  -6   0   1    2.34    0.17
  -6   0   1    2.20    0.20
  -6   0   1    2.24    0.20
   5   0  -1   62.84    1.68
   5   0  -1   67.49    1.63
  -5   0   1   64.31    1.66
  -5   0   1   62.03    1.67
  -5   0   1   63.45    1.62
  -5   0   1   63.28    1.69
  -5   0   1   62.75    1.72
   4   0  -1   -0.01    0.07
  -4   0   1   -0.06    0.06
  -4   0   1   -0.05    0.06
  -4   0   1   -0.01    0.09
  -4   0   1   -0.08    0.08
  -3   0   1  244.75    5.96
  -2   0   1    0.14    0.05
  -1   0   1  202.17    4.94
  -2   0  -1   28.48    0.75
  -4   0  -1    0.05    0.06
  -4   0  -1    0.16    0.07
  -4   0  -1    0.13    0.09
  -5   0  -1   69.65    1.79
  -5   0  -1   70.70    1.82
  -5   0  -1   66.49    1.83
  -5   0  -1   73.30    1.78
  -5   0  -1   69.43    1.79
  -6   0  -1   -0.10    0.10
  -6   0  -1   -0.02    0.10
  -6   0  -1    0.11    0.10
  -6   0  -1   -0.01    0.10
  -6   0  -1   -0.02    0.01
  -6   0  -1    0.01    0.13
   6   0   1    0.01    0.15
  -7   0  -1   23.19    0.72
  -7   0  -1   23.28    0.77
  -7   0  -1   21.51    0.73
  -7   0  -1   23.08    0.82
   7   0   1   24.00    0.76
   7   0   1   24.10    0.87
  -8   0  -1    0.09    0.14
  -8   0  -1   -0.01    0.16
  -8   0  -1   -0.01    0.12
  -8   0  -1   -0.12    0.20
   8   0   1   -0.13    0.22
   8   0   1   -0.15    0.15
   8  -1  -1    5.32    0.42
  -8   1   1    6.60    0.43
  -8   1   1    6.32    0.38
  -8   1   1    6.39    0.50
  -8   1   1    5.43    0.41
   7  -1  -1    0.00    0.15
   7  -1  -1   -0.14    0.10
  -7   1   1    0.17    0.16
  -7   1   1    0.06    0.13
  -7   1   1   -0.25    0.18
  -7   1   1    0.22    0.15
  -7   1   1   -0.11    0.10
   6  -1  -1   51.16    1.42
   6  -1  -1   50.72    1.36
  -6   1   1   51.28    1.39
  -6   1   1   50.44    1.47
  -6   1   1   51.90    1.40
  -6   1   1   48.48    1.42
  -6   1   1   52.99    1.35
   5  -1  -1    2.53    0.18
  -5   1   1    2.56    0.19
  -5   1   1    2.59    0.19
  -5   1   1    2.85    0.22
  -5   1   1    2.49    0.16
  -5   1   1    2.61    0.24
   4  -1  -1   14.34    0.44
  -4   1   1   14.68    0.43
  -4   1   1   14.11    0.45
  -4   1   1   14.00    0.49
  -4   1   1   14.34    0.47
  -4   1   1   14.84    0.46
  -3   1   1    0.04    0.07
  -2   1   1  140.42    3.44
  -1   1   1    9.75    0.29
   0   1   1  279.00    6.84
   1   1   1    1.22    0.07
  -2  -1  -1  286.42    6.91
   2   1   1  279.38    6.91
  -3  -1  -1    7.93    0.29
   3   1   1    8.15    0.30
  -4  -1  -1  116.20    2.87
  -4  -1  -1  118.01    2.83
  -4  -1  -1  114.20    2.84
   4   1   1  108.26    2.88
  -5  -1  -1    0.49    0.13
  -5  -1  -1    0.73    0.12
  -5  -1  -1    0.25    0.08
  -5  -1  -1    0.22    0.08
  -5  -1  -1    0.29    0.10
   5   1   1    0.04    0.12
   5   1   1    0.36    0.09
  -6  -1  -1   81.60    2.19
  -6  -1  -1   83.56    2.16
  -6  -1  -1   85.73    2.14
  -6  -1  -1   84.90    2.11
   6   1   1   81.47    2.13
   6   1   1   80.68    2.23
   6   1   1   81.62    2.09
  -7  -1  -1    0.23    0.15
  -7  -1  -1    0.05    0.11
  -7  -1  -1    0.13    0.18
  -7  -1  -1    0.01    0.12
   7   1   1    0.24    0.20
   7   1   1    0.14    0.13
  -8  -1  -1    5.34    0.38
  -8  -1  -1    6.39    0.51
  -8  -1  -1    6.37    0.37
  -8  -1  -1    6.36    0.46
   8   1   1    6.42    0.50
   8   1   1    6.58    0.41
  -9  -1  -1    0.11    0.16
  -9  -1  -1   -0.12    0.19
  -9  -1  -1    0.25    0.27
   9   1   1    0.21    0.27
   8  -2  -1    0.19    0.17
   8  -2  -1    0.18    0.22
  -8   2   1    0.22    0.25
  -8   2   1    0.30    0.15
  -8   2   1    0.51    0.18
  -8   2   1    0.15    0.19
  -8   2   1    0.31    0.19
   7  -2  -1    6.92    0.35
  -7   2   1    6.98    0.40
  -7   2   1    7.30    0.37
  -7   2   1    7.31    0.34
  -7   2   1    7.43    0.39
  -7   2   1    8.08    0.49
   6  -2  -1   -0.01    0.10
  -6   2   1    0.12    0.16
  -6   2   1    0.13    0.12
  -6   2   1   -0.06    0.13
  -6   2   1   -0.01    0.10
  -6   2   1   -0.01    0.10
   5  -2  -1   49.20    1.30
   5  -2  -1   48.70    1.31
  -5   2   1   47.40    1.29
  -5   2   1   49.75    1.34
  -5   2   1   49.33    1.37
  -5   2   1   48.18    1.29
  -5   2   1   48.48    1.31
  -5   2   1   50.52    1.31
  -4   2   1    0.87    0.11
  -4   2   1    0.75    0.10
  -4   2   1    0.63    0.13
  -4   2   1    0.79    0.12
  -4   2   1    0.76    0.10
  -3   2   1  106.15    2.61
  -3   2   1  102.25    2.65
  -3   2   1  108.94    2.62
  -2   2   1    0.37    0.07
  -1   2   1   45.05    1.14
   0   2   1    5.77    0.20
   1   2   1  438.74   10.82
  -2  -2  -1    3.93    0.17
  -3  -2  -1  217.12    5.28
   3   2   1  216.39    5.30
  -4  -2  -1    0.75    0.10
  -4  -2  -1    0.89    0.11
  -4  -2  -1    0.69    0.12
   4   2   1    0.69    0.13
  -5  -2  -1   20.50    0.66
  -5  -2  -1   19.60    0.61
  -5  -2  -1   21.08    0.64
   5   2   1   20.88    0.69
  -6  -2  -1    0.43    0.16
  -6  -2  -1    0.12    0.07
  -6  -2  -1    0.30    0.11
  -6  -2  -1    0.32    0.11
  -6  -2  -1    0.63    0.15
   6   2   1    0.25    0.17
   6   2   1    0.22    0.12
  -7  -2  -1   22.10    0.79
  -7  -2  -1   22.15    0.76
  -7  -2  -1   22.30    0.71
  -7  -2  -1   21.69    0.72
   7   2   1   22.19    0.73
   7   2   1   21.92    0.83
  -8  -2  -1   -0.12    0.20
  -8  -2  -1    0.02    0.16
  -8  -2  -1    0.05    0.16
   8   2   1    0.21    0.23
  -9  -2  -1    6.33    0.41
  -9  -2  -1    6.51    0.46
  -9  -2  -1    7.21    0.54
   9   2   1    6.23    0.54
   7  -3  -1    0.57    0.17
  -7   3   1    0.29    0.22
  -7   3   1    0.66    0.16
  -7   3   1    0.99    0.20
  -7   3   1    0.29    0.16
  -7   3   1    0.61    0.15
   6  -3  -1   31.70    0.95
   6  -3  -1   33.35    0.97
  -6   3   1   31.82    0.98
  -6   3   1   31.34    0.96
  -6   3   1   33.58    0.94
  -6   3   1   32.91    0.94
  -6   3   1   33.45    1.04
   5  -3  -1    0.10    0.11
  -5   3   1    0.04    0.10
  -5   3   1   -0.08    0.09
  -5   3   1    0.13    0.09
  -5   3   1   -0.16    0.09
  -5   3   1   -0.08    0.13
  -5   3   1    0.00    0.09
   4  -3  -1   54.57    1.44
  -4   3   1   56.55    1.44
  -4   3   1   55.15    1.48
  -4   3   1   54.90    1.42
  -4   3   1   54.13    1.43
  -4   3   1   53.07    1.43
   3  -3  -1    0.22    0.09
  -3   3   1    0.16    0.09
  -3   3   1    0.06    0.06
  -3   3   1    0.42    0.08
  -2   3   1  139.18    3.42
  -1   3   1   20.16    0.56
   0   3   1  293.18    7.29
   1   3   1    4.98    0.20
   2   3   1  198.96    4.85
  -3  -3  -1    1.81    0.15
   3   3   1    2.00    0.16
  -4  -3  -1   15.76    0.46
  -4  -3  -1   14.62    0.47
  -4  -3  -1   13.93    0.49
   4   3   1   13.29    0.50
  -5  -3  -1    0.43    0.09
  -5  -3  -1    0.44    0.11
  -5  -3  -1    0.39    0.12
   5   3   1    0.45    0.13
  -6  -3  -1   42.77    1.22
  -6  -3  -1   45.78    1.24
  -6  -3  -1   45.04    1.29
  -6  -3  -1   46.33    1.27
   6   3   1   43.72    1.32
   6   3   1   44.88    1.26
  -7  -3  -1    0.21    0.12
  -7  -3  -1    0.49    0.17
  -7  -3  -1    0.29    0.17
   7   3   1    0.43    0.19
  -8  -3  -1    5.77    0.35
  -8  -3  -1    5.49    0.43
  -8  -3  -1    5.90    0.41
   8   3   1    5.17    0.44
  -9  -3  -1   -0.16    0.18
  -9  -3  -1    0.16    0.25
  -9  -3  -1    0.18    0.22
   9   3   1    0.06    0.27
   7  -4  -1    6.96    0.40
  -7   4   1    7.31    0.43
  -7   4   1    6.75    0.50
  -7   4   1    6.85    0.40
  -7   4   1    6.99    0.37
   6  -4  -1    0.08    0.14
   6  -4  -1    0.16    0.14
  -6   4   1    0.14    0.14
  -6   4   1    0.21    0.14
  -6   4   1    0.23    0.18
  -6   4   1    0.11    0.14
  -6   4   1    0.15    0.13
   5  -4  -1   24.18    0.75
  -5   4   1   22.71    0.73
  -5   4   1   24.83    0.79
  -5   4   1   23.35    0.73
  -5   4   1   24.25    0.72
  -5   4   1   23.23    0.73
   4  -4  -1    0.58    0.13
  -4   4   1    0.66    0.12
  -4   4   1    0.59    0.15
  -4   4   1    0.91    0.13
  -4   4   1    0.73    0.13
  -4   4   1    0.69    0.13
   3  -4  -1  188.99    4.72
  -3   4   1  185.76    4.69
  -3   4   1  195.76    4.70
  -3   4   1  197.90    4.71
  -3   4   1  192.28    4.73
   2  -4  -1    0.09    0.08
  -2   4   1    0.01    0.05
  -2   4   1    0.00    0.07
  -2   4   1    0.01    0.05
  -2   4   1    0.00    0.07
  -1   4   1  130.99    3.22
   0   4   1   21.71    0.61
   1   4   1   76.12    1.91
   2   4   1    6.80    0.27
   3   4   1  217.21    5.34
  -4  -4  -1    0.21    0.10
  -4  -4  -1    0.23    0.09
  -4  -4  -1    0.02    0.06
   4   4   1    0.11    0.10
  -5  -4  -1   34.99    0.98
  -5  -4  -1   34.08    1.02
  -5  -4  -1   36.46    1.01
   5   4   1   34.46    1.05
  -6  -4  -1    0.35    0.14
  -6  -4  -1   -0.02    0.15
  -6  -4  -1    0.12    0.11
  -6  -4  -1    0.22    0.11
   6   4   1    0.21    0.18
   6   4   1    0.35    0.13
  -7  -4  -1    9.18    0.42
  -7  -4  -1    9.01    0.45
  -7  -4  -1    9.97    0.50
   7   4   1    9.68    0.53
  -8  -4  -1    0.23    0.19
  -8  -4  -1   -0.07    0.20
  -8  -4  -1   -0.07    0.14
   8   4   1    0.23    0.23
  -9  -4  -1    6.92    0.48
  -9  -4  -1    7.18    0.56
  -9  -4  -1    6.82    0.44
   9   4   1    6.05    0.54
   7  -5  -1    0.09    0.17
  -7   5   1   -0.10    0.17
  -7   5   1   -0.09    0.20
  -7   5   1   -0.13    0.15
   6  -5  -1   15.12    0.61
  -6   5   1   14.83    0.64
  -6   5   1   16.49    0.58
  -6   5   1   14.93    0.59
  -6   5   1   15.46    0.60
   5  -5  -1   -0.01    0.13
  -5   5   1    0.21    0.15
  -5   5   1    0.06    0.15
  -5   5   1    0.12    0.10
  -5   5   1    0.02    0.11
  -5   5   1    0.13    0.12
   4  -5  -1   31.75    0.95
  -4   5   1   32.09    0.92
  -4   5   1   33.49    0.95
  -4   5   1   31.73    0.93
  -4   5   1   32.47    0.91
  -4   5   1   32.94    0.97
   3  -5  -1    0.60    0.13
  -3   5   1    0.65    0.11
  -3   5   1    0.69    0.13
  -3   5   1    0.60    0.13
  -3   5   1    0.47    0.10
   2  -5  -1  100.32    2.54
  -2   5   1  100.70    2.52
  -2   5   1   99.71    2.52
  -2   5   1   98.87    2.53
  -2   5   1  104.00    2.54
   1  -5  -1    0.35    0.09
  -1   5   1    0.37    0.08
  -1   5   1    0.39    0.09
  -1   5   1    0.42    0.08
   0  -5  -1  128.24    3.19
   0   5   1  129.15    3.18
  -1  -5  -1    3.18    0.20
   1   5   1    2.93    0.19
   2   5   1  159.07    3.94
  -3  -5  -1    1.97    0.15
  -3  -5  -1    1.83    0.18
   3   5   1    1.49    0.18
  -4  -5  -1   78.52    2.03
  -4  -5  -1   81.19    2.05
  -4  -5  -1   78.45    2.01
   4   5   1   78.14    2.09
  -5  -5  -1    0.77    0.15
  -5  -5  -1    0.58    0.11
  -5  -5  -1    0.63    0.13
   5   5   1    0.93    0.14
   5   5   1    0.76    0.18
  -6  -5  -1   55.62    1.56
  -6  -5  -1   52.79    1.52
  -6  -5  -1   56.60    1.54
  -6  -5  -1   58.84    1.59
   6   5   1   58.50    1.63
  -7  -5  -1    0.34    0.18
  -7  -5  -1   -0.07    0.17
  -7  -5  -1    0.08    0.14
   7   5   1   -0.12    0.19
  -8  -5  -1    6.19    0.42
  -8  -5  -1    6.36    0.44
  -8  -5  -1    5.51    0.36
   8   5   1    5.59    0.48
  -9  -5  -1   -0.14    0.20
   6  -6  -1    0.65    0.21
  -6   6   1    0.27    0.16
  -6   6   1    0.42    0.21
  -6   6   1    0.51    0.19
  -6   6   1    0.47    0.18
   5  -6  -1   11.28    0.51
  -5   6   1   11.07    0.45
  -5   6   1   10.62    0.50
  -5   6   1   10.56    0.47
  -5   6   1   10.86    0.47
   4  -6  -1    0.60    0.16
  -4   6   1    0.40    0.16
  -4   6   1    0.29    0.11
  -4   6   1    0.63    0.16
  -4   6   1    0.38    0.12
   3  -6  -1   49.12    1.38
  -3   6   1   49.77    1.34
  -3   6   1   50.03    1.35
  -3   6   1   50.06    1.37
  -3   6   1   51.38    1.37
   2  -6  -1    5.01    0.27
  -2   6   1    4.32    0.22
  -2   6   1    4.17    0.22
  -2   6   1    4.11    0.24
   1  -6  -1   86.33    2.20
  -1   6   1   85.64    2.16
  -1   6   1   85.83    2.15
  -1   6   1   84.68    2.18
   0  -6  -1   10.50    0.39
   0   6   1   10.60    0.35
   0   6   1   10.38    0.34
   0   6   1   10.22    0.38
  -1  -6  -1   58.34    1.56
   1   6   1   61.19    1.57
   1   6   1   60.03    1.53
  -2  -6  -1    2.73    0.20
   2   6   1    2.66    0.21
   2   6   1    3.26    0.21
  -3  -6  -1  141.69    3.64
  -3  -6  -1  150.23    3.63
  -3  -6  -1  148.51    3.59
   3   6   1  146.22    3.69
   3   6   1  145.21    3.65
  -4  -6  -1    0.48    0.13
  -4  -6  -1    0.35    0.09
  -4  -6  -1    0.38    0.13
   4   6   1    0.57    0.17
   4   6   1    0.45    0.12
   4   6   1    0.58    0.12
  -5  -6  -1   69.10    1.77
  -5  -6  -1   68.15    1.80
  -5  -6  -1   63.89    1.80
   5   6   1   66.61    1.86
   5   6   1   67.65    1.83
   5   6   1   68.54    1.78
  -6  -6  -1    0.06    0.09
  -6  -6  -1    0.17    0.13
  -6  -6  -1    0.12    0.14
   6   6   1    0.17    0.18
  -7  -6  -1   10.25    0.45
  -7  -6  -1    9.98    0.49
   7   6   1   10.16    0.58
  -8  -6  -1   -0.22    0.16
  -8  -6  -1   -0.08    0.18
   8   6   1    0.23    0.27
   6  -7  -1   11.33    0.57
  -6   7   1   10.08    0.48
  -6   7   1   10.65    0.52
   5  -7  -1    0.22    0.18
  -5   7   1    0.30    0.18
  -5   7   1    0.42    0.16
  -5   7   1    0.14    0.16
   4  -7  -1   25.83    0.87
  -4   7   1   26.97    0.83
  -4   7   1   26.48    0.86
  -4   7   1   27.49    0.85
   3  -7  -1   -0.13    0.13
  -3   7   1    0.23    0.11
  -3   7   1    0.05    0.10
  -3   7   1    0.00    0.13
   2  -7  -1   27.03    0.84
  -2   7   1   27.80    0.82
  -2   7   1   27.14    0.80
  -2   7   1   26.73    0.80
   1  -7  -1    0.64    0.15
  -1   7   1    0.58    0.12
  -1   7   1    0.76    0.12
  -1   7   1    0.74    0.12
   0  -7  -1   95.66    2.45
   0   7   1   96.43    2.39
   0   7   1   94.02    2.43
   0   7   1   94.63    2.40
  -1  -7  -1   11.60    0.43
   1   7   1   11.73    0.37
   1   7   1   11.31    0.43
   1   7   1   11.36    0.39
  -2  -7  -1   87.33    2.26
   2   7   1   86.34    2.27
   2   7   1   89.44    2.22
  -3  -7  -1    2.08    0.20
  -3  -7  -1    2.04    0.18
   3   7   1    2.23    0.20
   3   7   1    2.27    0.25
   3   7   1    2.38    0.18
  -4  -7  -1   14.89    0.56
  -4  -7  -1   15.63    0.54
  -4  -7  -1   15.72    0.50
   4   7   1   15.80    0.57
   4   7   1   14.83    0.52
   4   7   1   16.15    0.63
  -5  -7  -1   -0.05    0.08
  -5  -7  -1   -0.20    0.12
  -5  -7  -1   -0.03    0.13
   5   7   1   -0.13    0.16
   5   7   1   -0.03    0.13
   5   7   1   -0.05    0.11
  -6  -7  -1   34.77    1.05
  -6  -7  -1   33.57    1.00
   6   7   1   33.01    1.12
   6   7   1   34.11    1.08
  -7  -7  -1   -0.04    0.14
  -7  -7  -1    0.30    0.20
   7   7   1   -0.02    0.16
   7   7   1    0.21    0.24
  -8  -7  -1    7.06    0.43
  -8  -7  -1    6.64    0.46
   8   7   1    7.29    0.50
   8   7   1    7.36    0.58
   5  -8  -1   12.34    0.60
  -5   8   1   12.30    0.55
  -5   8   1   11.90    0.52
   4  -8  -1    0.16    0.19
  -4   8   1    0.25    0.17
  -4   8   1   -0.02    0.13
   3  -8  -1   28.39    0.94
  -3   8   1   28.86    0.88
  -3   8   1   28.69    0.88
   2  -8  -1    1.43    0.21
  -2   8   1    0.91    0.15
  -2   8   1    0.99    0.15
   1  -8  -1   53.19    1.49
  -1   8   1   53.45    1.43
  -1   8   1   53.17    1.42
   0  -8  -1    1.60    0.20
   0   8   1    1.37    0.17
   0   8   1    2.02    0.16
   0   8   1    1.87    0.17
  -1  -8  -1   49.67    1.38
   1   8   1   48.63    1.29
   1   8   1   50.61    1.33
   1   8   1   49.53    1.38
  -2  -8  -1    0.92    0.16
   2   8   1    0.84    0.13
   2   8   1    1.04    0.15
   2   8   1    1.08    0.18
   2   8   1    1.02    0.11
  -3  -8  -1   29.37    0.84
  -3  -8  -1   28.75    0.85
  -3  -8  -1   28.38    0.89
   3   8   1   29.18    0.85
   3   8   1   29.80    0.94
   3   8   1   29.61    0.88
  -4  -8  -1    0.26    0.10
  -4  -8  -1    0.46    0.16
  -4  -8  -1    0.13    0.13
   4   8   1    0.18    0.13
   4   8   1    0.23    0.18
   4   8   1    0.29    0.12
  -5  -8  -1   20.33    0.66
  -5  -8  -1   21.31    0.74
  -5  -8  -1   22.13    0.73
   5   8   1   21.52    0.75
   5   8   1   20.09    0.80
  -6  -8  -1    1.18    0.18
  -6  -8  -1    0.83    0.20
   6   8   1    0.95    0.22
   6   8   1    1.10    0.28
  -7  -8  -1    6.54    0.38
  -7  -8  -1    7.07    0.44
   7   8   1    7.19    0.56
   7   8   1    6.50    0.45
  -8  -8  -1    0.10    0.19
  -8  -8  -1   -0.07    0.22
   8   8   1   -0.17    0.29
   8   8   1   -0.15    0.19
   4  -9  -1   15.47    0.69
  -4   9   1   15.85    0.62
  -4   9   1   15.62    0.62
   3  -9  -1   -0.05    0.19
  -3   9   1    0.04    0.15
  -3   9   1    0.09    0.13
   2  -9  -1   18.71    0.70
  -2   9   1   18.12    0.64
  -2   9   1   17.86    0.62
   1  -9  -1    3.24    0.29
  -1   9   1    3.49    0.28
  -1   9   1    3.33    0.25
  -1   9   1    3.49    0.27
   0  -9  -1   42.41    1.22
   0   9   1   40.58    1.15
   0   9   1   40.46    1.13
  -1  -9  -1    0.49    0.16
   1   9   1    0.18    0.09
   1   9   1    0.25    0.12
   1   9   1    0.30    0.16
  -2  -9  -1   53.95    1.53
   2   9   1   55.20    1.42
   2   9   1   53.96    1.54
   2   9   1   55.93    1.48
  -3  -9  -1    0.95    0.19
   3   9   1    1.10    0.22
   3   9   1    0.63    0.14
   3   9   1    0.77    0.15
  -4  -9  -1   10.65    0.50
  -4  -9  -1   11.29    0.46
   4   9   1   10.35    0.48
   4   9   1   10.52    0.44
   4   9   1   10.66    0.56
  -5  -9  -1   -0.14    0.15
  -5  -9  -1    0.02    0.12
  -5  -9  -1    0.21    0.19
   5   9   1   -0.09    0.16
   5   9   1   -0.02    0.21
  -6  -9  -1   11.58    0.49
  -6  -9  -1   13.33    0.57
   6   9   1   12.43    0.58
   6   9   1   11.52    0.66
  -7  -9  -1   -0.18    0.15
  -7  -9  -1    0.09    0.20
   7   9   1    0.12    0.20
   7   9   1    0.32    0.30
   3 -10  -1    9.20    0.55
  -3  10   1    9.72    0.49
  -3  10   1   10.31    0.48
   2 -10  -1   -0.22    0.17
  -2  10   1   -0.03    0.13
  -2  10   1   -0.06    0.15
   1 -10  -1   25.18    0.91
  -1  10   1   27.27    0.83
  -1  10   1   25.69    0.84
   0 -10  -1    0.25    0.18
   0  10   1    0.34    0.12
   0  10   1    0.50    0.15
  -1 -10  -1   23.33    0.82
   1  10   1   22.33    0.73
   1  10   1   22.73    0.70
  -2 -10  -1    0.88    0.20
   2  10   1    1.03    0.18
   2  10   1    0.88    0.21
  -3 -10  -1   24.69    0.86
   3  10   1   23.27    0.86
   3  10   1   25.68    0.79
  -4 -10  -1    0.48    0.21
   4  10   1    0.13    0.18
   4  10   1   -0.04    0.20
   4  10   1    0.06    0.14
  -5 -10  -1   19.47    0.77
  -5 -10  -1   18.72    0.71
   5  10   1   17.95    0.80
   5  10   1   19.19    0.74
  -6 -10  -1   -0.07    0.19
  -6 -10  -1    0.05    0.14
   6  10   1    0.15    0.28
   6  10   1   -0.02    0.18
   2 -11  -1    8.10    0.56
  -2  11   1    7.87    0.45
  -2  11   1    7.93    0.43
   1 -11  -1    0.06    0.20
  -1  11   1    0.19    0.16
  -1  11   1    0.20    0.14
   0 -11  -1   12.10    0.60
   0  11   1   12.25    0.52
   0  11   1   12.08    0.48
  -1 -11  -1    0.59    0.23
   1  11   1    1.08    0.19
   1  11   1    0.53    0.14
  -2 -11  -1   16.62    0.71
   2  11   1   17.26    0.63
  -3 -11  -1   -0.35    0.19
   3  11   1    0.19    0.21
   3  11   1   -0.11    0.15
  -4 -11  -1   14.18    0.67
   4  11   1   14.52    0.58
   4  11   1   13.26    0.68
  -5 -11  -1   -0.03    0.22
   5  11   1    0.09    0.27
   0 -12  -1    0.27    0.23
   0  12   1    0.21    0.18
   0  12   1    0.45    0.16
  -1 -12  -1    5.35    0.45
   1  12   1    5.80    0.40
   1  12   1    6.14    0.46
  -2 -12  -1   -0.27    0.21
   2  12   1    0.06    0.17
  -3 -12  -1    7.70    0.55
   3  12   1    6.68    0.45
  -4 -12  -1    0.07    0.25
   4  11  -2    0.17    0.22
   3  11  -2    8.82    0.54
  -3 -11   2    9.47    0.53
   2  11  -2   -0.07    0.19
  -2 -11   2   -0.01    0.21
   1  11  -2   12.02    0.59
   1  11  -2   11.73    0.49
  -1 -11   2   13.26    0.62
   0  11  -2    0.26    0.20
   0  11  -2    0.17    0.15
   0 -11   2    0.44    0.22
  -1  11  -2    6.19    0.39
  -1  11  -2    6.31    0.45
   1 -11   2    5.61    0.45
   5  10  -2    0.33    0.23
   4  10  -2   10.83    0.57
   3  10  -2   -0.06    0.17
  -3 -10   2    0.07    0.19
   2  10  -2    6.51    0.46
  -2 -10   2    6.32    0.43
   1  10  -2   -0.09    0.10
   1  10  -2   -0.02    0.17
  -1 -10   2    0.15    0.18
   0  10  -2   18.73    0.65
   0  10  -2   19.73    0.73
   0 -10   2   18.55    0.73
  -1  10  -2    0.11    0.17
  -1  10  -2    0.14    0.14
   1 -10   2    0.09    0.19
  -2  10  -2   12.86    0.54
  -2  10  -2   12.52    0.57
   2 -10   2   12.62    0.62
  -3  10  -2    0.96    0.23
  -3  10  -2    0.87    0.21
   3 -10   2    0.80    0.26
   6   9  -2   -0.17    0.24
   6   9  -2   -0.05    0.22
  -6  -9   2   -0.18    0.16
  -6  -9   2   -0.09    0.18
   5   9  -2    8.12    0.45
   5   9  -2    7.37    0.48
   5   9  -2    8.22    0.53
  -5  -9   2    8.09    0.40
  -5  -9   2    8.16    0.44
   4   9  -2   -0.22    0.19
   4   9  -2    0.17    0.19
  -4  -9   2    0.32    0.13
   3   9  -2   13.40    0.59
  -3  -9   2   12.96    0.55
   2   9  -2   -0.03    0.09
   2   9  -2    0.01    0.15
  -2  -9   2    0.08    0.15
   1   9  -2   28.81    0.95
   1   9  -2   30.43    0.87
  -1  -9   2   29.11    0.94
   0   9  -2    0.26    0.12
   0   9  -2    0.29    0.15
   0  -9   2    0.20    0.15
  -1   9  -2   23.57    0.77
  -1   9  -2   25.03    0.82
   1  -9   2   24.37    0.84
  -2   9  -2    0.46    0.17
  -2   9  -2    0.39    0.15
   2  -9   2    0.30    0.19
  -3   9  -2    9.73    0.48
  -3   9  -2    9.89    0.47
  -3   9  -2   10.62    0.52
   3  -9   2    9.48    0.52
  -4   9  -2    0.24    0.17
  -4   9  -2   -0.14    0.15
  -4   9  -2   -0.21    0.20
   4  -9   2   -0.06    0.21
   7   8  -2    0.16    0.24
   7   8  -2    0.15    0.26
  -7  -8   2   -0.06    0.20
  -7  -8   2    0.10    0.19
   6   8  -2    6.75    0.47
   6   8  -2    6.19    0.49
  -6  -8   2    6.09    0.42
  -6  -8   2    6.32    0.38
   5   8  -2    0.29    0.20
   5   8  -2    0.62    0.21
  -5  -8   2    0.32    0.14
  -5  -8   2    0.38    0.16
   4   8  -2   43.71    1.33
   4   8  -2   43.62    1.31
  -4  -8   2   44.02    1.23
  -4  -8   2   44.01    1.24
   3   8  -2   -0.08    0.11
   3   8  -2   -0.12    0.13
  -3  -8   2   -0.04    0.09
  -3  -8   2    0.01    0.13
   2   8  -2   34.47    0.99
   2   8  -2   32.72    1.01
   2   8  -2   30.93    0.90
  -2  -8   2   32.03    0.97
   1   8  -2    1.39    0.15
   1   8  -2    1.29    0.18
  -1  -8   2    1.56    0.20
   0   8  -2   38.33    1.09
   0   8  -2   39.00    1.13
   0  -8   2   39.35    1.14
  -1   8  -2    3.52    0.27
  -1   8  -2    3.76    0.25
   1  -8   2    3.10    0.28
  -2   8  -2   28.27    0.91
  -2   8  -2   28.32    0.88
  -2   8  -2   29.97    0.90
   2  -8   2   28.64    0.93
  -3   8  -2    0.18    0.15
  -3   8  -2    0.02    0.16
  -3   8  -2    0.07    0.11
   3  -8   2   -0.31    0.15
  -4   8  -2    8.99    0.43
  -4   8  -2    8.30    0.47
  -4   8  -2    8.79    0.44
   4  -8   2    7.82    0.48
  -5   8  -2    0.08    0.22
  -5   8  -2    0.37    0.19
  -5   8  -2    0.02    0.16
   5  -8   2    0.21    0.20
   7   7  -2   14.63    0.68
   7   7  -2   12.81    0.70
  -7  -7   2   12.00    0.57
  -7  -7   2   14.06    0.66
  -7  -7   2   12.79    0.61
   6   7  -2    0.21    0.20
   6   7  -2    0.02    0.21
  -6  -7   2    0.08    0.16
  -6  -7   2    0.08    0.15
  -6  -7   2   -0.19    0.17
   5   7  -2   19.81    0.76
   5   7  -2   20.27    0.75
  -5  -7   2   19.96    0.68
  -5  -7   2   19.73    0.69
   4   7  -2    0.05    0.15
   4   7  -2    0.16    0.16
  -4  -7   2    0.09    0.12
  -4  -7   2    0.12    0.11
   3   7  -2   42.29    1.29
   3   7  -2   44.29    1.28
  -3  -7   2   45.81    1.22
  -3  -7   2   46.02    1.22
   2   7  -2   -0.04    0.07
   2   7  -2    0.05    0.12
   2   7  -2    0.03    0.13
  -2  -7   2   -0.04    0.07
  -2  -7   2    0.03    0.11
   1   7  -2   92.44    2.40
   1   7  -2   92.71    2.34
   1   7  -2   91.86    2.33
  -1  -7   2   91.85    2.37
   0   7  -2    3.79    0.21
   0   7  -2    2.46    0.21
   0  -7   2    3.68    0.26
  -1   7  -2   40.22    1.13
  -1   7  -2   40.55    1.15
  -1   7  -2   41.09    1.16
   1  -7   2   41.90    1.18
  -2   7  -2    0.64    0.14
  -2   7  -2    0.41    0.14
  -2   7  -2    0.63    0.14
   2  -7   2    0.29    0.15
  -3   7  -2   25.99    0.83
  -3   7  -2   26.57    0.81
  -3   7  -2   25.69    0.80
   3  -7   2   25.59    0.86
  -4   7  -2    0.07    0.13
  -4   7  -2    0.08    0.13
  -4   7  -2    0.18    0.18
   4  -7   2    0.13    0.17
  -5   7  -2   12.20    0.52
  -5   7  -2   12.80    0.57
  -5   7  -2   11.96    0.50
   5  -7   2   12.31    0.59
  -6   7  -2    0.26    0.22
  -6   7  -2    0.06    0.17
  -6   7  -2    0.07    0.18
   6  -7   2    0.21    0.23
   7   6  -2   -0.09    0.20
   7   6  -2   -0.15    0.24
  -7  -6   2   -0.06    0.18
  -7  -6   2    0.10    0.22
  -7  -6   2    0.40    0.19
   6   6  -2    6.26    0.46
   6   6  -2    6.34    0.42
  -6  -6   2    6.95    0.44
  -6  -6   2    6.60    0.37
  -6  -6   2    5.32    0.37
   5   6  -2    0.03    0.16
   5   6  -2    0.20    0.16
  -5  -6   2    0.17    0.13
  -5  -6   2    0.14    0.16
  -5  -6   2    0.00    0.11
   4   6  -2   41.83    1.22
   4   6  -2   41.99    1.24
  -4  -6   2   42.52    1.18
  -4  -6   2   41.32    1.18
  -4  -6   2   40.89    1.16
   3   6  -2    0.40    0.15
   3   6  -2    0.15    0.12
  -3  -6   2    0.25    0.09
  -3  -6   2    0.29    0.11
  -3  -6   2    0.31    0.10
   2   6  -2   72.88    1.95
   2   6  -2   74.81    1.89
   2   6  -2   76.39    1.99
  -2  -6   2   73.30    1.92
  -2  -6   2   77.50    1.91
   1   6  -2    2.54    0.21
   1   6  -2    2.41    0.19
   1   6  -2    2.08    0.15
  -1  -6   2    2.51    0.19
   0   6  -2   56.65    1.46
   0   6  -2   55.63    1.51
   0   6  -2   58.32    1.53
   0   6  -2   58.46    1.50
   0  -6   2   58.12    1.52
  -1   6  -2    6.56    0.31
  -1   6  -2    6.93    0.30
  -1   6  -2    6.76    0.23
  -1   6  -2    6.95    0.29
   1  -6   2    7.00    0.33
  -2   6  -2   69.45    1.80
  -2   6  -2   67.40    1.79
  -2   6  -2   69.51    1.82
   2  -6   2   70.17    1.84
  -3   6  -2    3.10    0.23
  -3   6  -2    3.01    0.24
  -3   6  -2    3.45    0.23
   3  -6   2    2.18    0.22
  -4   6  -2   53.17    1.45
  -4   6  -2   53.89    1.45
  -4   6  -2   52.80    1.48
   4  -6   2   52.54    1.51
  -5   6  -2    0.02    0.13
  -5   6  -2    0.10    0.15
  -5   6  -2    0.09    0.13
   5  -6   2    0.02    0.16
  -6   6  -2    7.00    0.38
  -6   6  -2    6.46    0.45
  -6   6  -2    6.00    0.38
   6  -6   2    6.63    0.48
   8   5  -2    0.15    0.25
   8   5  -2   -0.22    0.26
  -8  -5   2   -0.28    0.19
  -8  -5   2    0.03    0.23
  -8  -5   2   -0.09    0.23
   7   5  -2   15.27    0.74
   7   5  -2   18.11    0.73
  -7  -5   2   15.52    0.64
  -7  -5   2   15.69    0.69
  -7  -5   2   15.37    0.66
   6   5  -2   -0.04    0.18
   6   5  -2    0.02    0.15
  -6  -5   2    0.26    0.18
  -6  -5   2    0.28    0.14
  -6  -5   2   -0.04    0.12
   5   5  -2   14.47    0.59
   5   5  -2   14.99    0.59
  -5  -5   2   14.53    0.56
  -5  -5   2   13.20    0.53
  -5  -5   2   14.62    0.53
   4   5  -2    0.25    0.15
   4   5  -2    0.24    0.14
  -4  -5   2    0.44    0.13
  -4  -5   2    0.35    0.11
  -4  -5   2    0.22    0.10
   3   5  -2   14.96    0.56
   3   5  -2   14.86    0.53
  -3  -5   2   15.88    0.50
  -3  -5   2   15.98    0.50
  -3  -5   2   15.04    0.51
   2   5  -2    4.72    0.27
  -2  -5   2    4.89    0.26
   1   5  -2  128.76    3.12
   1   5  -2  123.61    3.16
   0   5  -2    0.02    0.05
   0   5  -2    0.02    0.06
   0   5  -2    0.10    0.09
   0   5  -2    0.00    0.06
   0  -5   2    0.04    0.08
  -1   5  -2  104.37    2.50
  -1   5  -2  104.99    2.56
  -1   5  -2  102.92    2.57
  -1   5  -2   97.78    2.57
   1  -5   2  102.43    2.59
  -2   5  -2   18.86    0.49
  -2   5  -2   18.07    0.55
  -2   5  -2   16.38    0.55
  -2   5  -2   17.54    0.55
   2  -5   2   17.81    0.58
  -3   5  -2   55.93    1.48
  -3   5  -2   56.66    1.43
  -3   5  -2   56.46    1.50
  -3   5  -2   54.66    1.47
   3  -5   2   56.62    1.52
  -4   5  -2    0.07    0.09
  -4   5  -2   -0.08    0.09
  -4   5  -2   -0.06    0.12
  -4   5  -2    0.04    0.10
   4  -5   2   -0.07    0.12
  -5   5  -2   36.66    1.07
  -5   5  -2   37.86    1.07
  -5   5  -2   38.42    1.11
   5  -5   2   38.00    1.15
  -6   5  -2   -0.09    0.12
  -6   5  -2   -0.13    0.13
  -6   5  -2    0.13    0.15
   6  -5   2    0.17    0.18
  -7   5  -2    6.26    0.40
  -7   5  -2    6.61    0.37
  -7   5  -2    7.04    0.46
   7  -5   2    6.98    0.50
   8   4  -2   10.08    0.62
   8   4  -2    9.41    0.67
  -8  -4   2    8.96    0.53
  -8  -4   2    8.99    0.50
  -8  -4   2    9.96    0.61
   7   4  -2    0.14    0.20
   7   4  -2   -0.21    0.20
  -7  -4   2    0.06    0.18
  -7  -4   2   -0.05    0.16
  -7  -4   2    0.11    0.21
   6   4  -2    6.54    0.44
   6   4  -2    6.12    0.41
  -6  -4   2    7.21    0.42
  -6  -4   2    6.91    0.38
  -6  -4   2    6.15    0.36
   5   4  -2    0.51    0.17
   5   4  -2    0.49    0.19
  -5  -4   2    0.44    0.14
  -5  -4   2    0.46    0.16
  -5  -4   2    0.45    0.15
   4   4  -2   63.01    1.70
   4   4  -2   61.14    1.68
  -4  -4   2   62.58    1.64
  -4  -4   2   62.04    1.65
  -4  -4   2   61.45    1.66
   3   4  -2    0.83    0.14
   3   4  -2    1.01    0.17
  -3  -4   2    0.60    0.12
  -3  -4   2    0.85    0.12
  -3  -4   2    0.86    0.11
   2   4  -2   94.86    2.37
   2   4  -2   94.15    2.42
  -2  -4   2   93.03    2.35
   1   4  -2    1.95    0.13
   0   4  -2   87.89    2.15
  -1   4  -2    5.04    0.22
  -1   4  -2    5.11    0.16
   1  -4   2    4.91    0.23
  -2   4  -2   89.77    2.28
  -2   4  -2   89.64    2.28
  -2   4  -2   92.95    2.23
  -2   4  -2   92.74    2.30
   2  -4   2   90.20    2.31
  -3   4  -2    3.18    0.21
  -3   4  -2    3.34    0.18
  -3   4  -2    3.25    0.16
  -3   4  -2    2.80    0.17
  -4   4  -2   63.78    1.66
  -4   4  -2   64.59    1.70
  -4   4  -2   63.84    1.67
  -4   4  -2   64.40    1.65
  -5   4  -2    0.05    0.13
  -5   4  -2    0.02    0.10
  -5   4  -2   -0.08    0.11
  -5   4  -2   -0.06    0.09
  -6   4  -2   12.12    0.46
  -6   4  -2   11.97    0.46
  -6   4  -2   11.49    0.51
  -6   4  -2   12.37    0.48
   6  -4   2   11.73    0.53
  -7   4  -2    0.51    0.15
  -7   4  -2    0.20    0.15
  -7   4  -2   -0.03    0.17
   7  -4   2    0.29    0.21
   8   3  -2   -0.12    0.23
   8   3  -2    0.04    0.25
  -8  -3   2    0.22    0.23
  -8  -3   2   -0.07    0.16
  -8  -3   2   -0.09    0.19
   7   3  -2   12.49    0.65
   7   3  -2   11.84    0.60
  -7  -3   2   12.90    0.61
  -7  -3   2   11.78    0.55
  -7  -3   2   10.66    0.51
   6   3  -2    0.19    0.16
   6   3  -2    0.00    0.18
  -6  -3   2    0.02    0.17
  -6  -3   2    0.30    0.16
  -6  -3   2    0.22    0.14
   5   3  -2   88.89    2.37
   5   3  -2   89.63    2.37
  -5  -3   2   86.94    2.30
  -5  -3   2   90.07    2.34
  -5  -3   2   87.70    2.32
   4   3  -2   -0.12    0.11
   4   3  -2   -0.26    0.10
  -4  -3   2   -0.10    0.09
  -4  -3   2    0.00    0.10
  -4  -3   2    0.09    0.08
   3   3  -2  108.95    2.81
  -3  -3   2  112.60    2.75
  -3  -3   2  111.95    2.75
  -3  -3   2  106.16    2.76
  -2  -3   2    1.64    0.13
   1   3  -2  102.48    2.48
  -1  -3   2   98.45    2.46
  -2   3  -2    4.25    0.23
  -2   3  -2    4.03    0.15
  -3   3  -2   37.34    0.98
  -3   3  -2   38.64    1.00
  -3   3  -2   37.44    1.00
  -3   3  -2   37.92    1.03
  -4   3  -2    0.89    0.12
  -4   3  -2    0.80    0.14
  -4   3  -2    1.06    0.12
  -4   3  -2    0.83    0.11
  -5   3  -2   24.68    0.73
  -5   3  -2   25.30    0.73
  -5   3  -2   24.89    0.77
  -5   3  -2   25.38    0.72
  -5   3  -2   25.20    0.76
  -6   3  -2    0.07    0.12
  -6   3  -2    0.15    0.10
  -6   3  -2    0.03    0.11
  -6   3  -2    0.23    0.10
  -6   3  -2    0.19    0.14
  -7   3  -2   19.62    0.70
  -7   3  -2   19.98    0.64
  -7   3  -2   19.16    0.65
  -7   3  -2   19.27    0.71
  -7   3  -2   19.50    0.66
   7  -3   2   18.77    0.74
  -8   3  -2    0.25    0.17
  -8   3  -2    0.25    0.20
  -8   3  -2    0.20    0.15
  -8   3  -2    0.11    0.21
   8  -3   2    0.14    0.22
   8   2  -2   11.54    0.71
   8   2  -2   11.80    0.65
  -8  -2   2   11.23    0.58
  -8  -2   2    9.80    0.51
  -8  -2   2   11.24    0.65
   7   2  -2    0.11    0.21
   7   2  -2   -0.13    0.18
  -7  -2   2    0.18    0.20
  -7  -2   2   -0.05    0.14
  -7  -2   2   -0.04    0.16
   6   2  -2   16.57    0.66
  -6  -2   2   17.79    0.67
  -6  -2   2   15.98    0.62
  -6  -2   2   16.67    0.60
   5   2  -2   -0.03    0.13
   5   2  -2    0.11    0.08
  -5  -2   2    0.03    0.14
  -5  -2   2   -0.14    0.08
  -5  -2   2    0.19    0.12
   4   2  -2  172.90    4.47
  -4  -2   2  181.75    4.43
  -4  -2   2  181.42    4.45
  -4  -2   2  180.17    4.43
   3   2  -2    0.27    0.11
  -3  -2   2    0.22    0.07
  -3  -2   2    0.18    0.08
  -3  -2   2    0.17    0.07
  -2  -2   2  217.39    5.29
  -1  -2   2   21.13    0.57
  -2   2  -2  168.67    4.07
  -3   2  -2    0.23    0.08
  -3   2  -2    0.27    0.07
  -4   2  -2  128.76    2.99
  -4   2  -2  126.49    2.98
  -4   2  -2  126.59    3.03
  -4   2  -2  102.54    2.99
  -5   2  -2    1.20    0.13
  -5   2  -2    1.06    0.15
  -5   2  -2    1.33    0.14
  -5   2  -2    1.22    0.12
  -5   2  -2    0.95    0.15
  -5   2  -2    1.64    0.14
  -6   2  -2   16.52    0.52
  -6   2  -2   16.00    0.57
  -6   2  -2   16.74    0.58
  -6   2  -2   14.62    0.51
  -6   2  -2   15.50    0.51
  -6   2  -2   16.04    0.54
   6  -2   2   16.14    0.61
  -7   2  -2    0.05    0.16
  -7   2  -2    0.18    0.13
  -7   2  -2    0.19    0.11
  -7   2  -2    0.20    0.14
  -7   2  -2    0.06    0.17
  -7   2  -2    0.18    0.13
   7  -2   2    0.06    0.17
  -8   2  -2    9.59    0.42
  -8   2  -2   10.79    0.53
  -8   2  -2   10.07    0.48
  -8   2  -2   10.00    0.44
  -8   2  -2   10.37    0.53
  -8   2  -2   10.48    0.47
   8  -2   2   10.86    0.61
   8   1  -2    0.66    0.25
   8   1  -2    0.84    0.32
  -8  -1   2    0.35    0.20
  -8  -1   2    0.27    0.23
  -8  -1   2    0.69    0.28
  -8  -1   2    0.24    0.18
   7   1  -2   10.43    0.52
  -7  -1   2    9.70    0.46
  -7  -1   2   10.44    0.50
  -7  -1   2   10.28    0.55
  -7  -1   2    9.40    0.47
   6   1  -2    0.07    0.13
   6   1  -2    0.03    0.09
  -6  -1   2   -0.20    0.11
  -6  -1   2   -0.03    0.12
  -6  -1   2   -0.09    0.14
  -6  -1   2   -0.04    0.12
   5   1  -2   71.06    1.85
   5   1  -2   71.09    1.93
  -5  -1   2   71.68    1.90
  -5  -1   2   74.79    1.95
  -5  -1   2   73.17    1.91
  -5  -1   2   73.27    1.92
   4   1  -2    0.24    0.10
  -4  -1   2    0.16    0.08
  -4  -1   2    0.13    0.09
  -4  -1   2    0.26    0.09
  -4  -1   2    0.15    0.11
   3   1  -2  127.77    3.46
  -3  -1   2  137.77    3.37
  -3  -1   2  133.36    3.38
  -3  -1   2  146.37    3.37
  -2  -1   2    0.37    0.07
  -1  -1   2  116.99    2.85
  -2   1  -2    0.27    0.05
   2  -1   2    0.20    0.05
  -4   1  -2    0.07    0.08
  -4   1  -2   -0.06    0.06
  -4   1  -2    0.10    0.08
  -5   1  -2   58.78    1.50
  -5   1  -2   57.83    1.51
  -5   1  -2   57.73    1.55
  -5   1  -2   57.38    1.54
  -5   1  -2   60.54    1.53
  -5   1  -2   59.23    1.49
   5  -1   2   57.43    1.58
  -6   1  -2    0.74    0.16
  -6   1  -2    0.57    0.11
  -6   1  -2    0.87    0.15
  -6   1  -2    0.67    0.13
  -6   1  -2    0.58    0.10
  -6   1  -2    0.99    0.15
   6  -1   2    0.63    0.18
  -7   1  -2   29.48    0.95
  -7   1  -2   29.50    0.92
  -7   1  -2   29.88    0.88
  -7   1  -2   29.36    0.84
  -7   1  -2   29.52    0.90
  -7   1  -2   29.85    0.86
   7  -1   2   29.56    0.99
  -8   1  -2    0.44    0.16
  -8   1  -2    0.43    0.21
  -8   1  -2    0.24    0.30
  -8   1  -2    0.62    0.16
  -8   1  -2    0.43    0.18
   8  -1   2    0.60    0.24
   8   0  -2   12.78    0.64
  -8   0   2   12.63    0.60
  -8   0   2   12.21    0.67
  -8   0   2   11.55    0.59
  -8   0   2   11.65    0.55
   7   0  -2    0.57    0.15
   7   0  -2    0.54    0.19
  -7   0   2    0.37    0.16
  -7   0   2    0.43    0.18
  -7   0   2    0.49    0.16
  -7   0   2    0.66    0.23
   6   0  -2   12.09    0.52
   6   0  -2   13.08    0.45
  -6   0   2   12.09    0.56
  -6   0   2   12.29    0.43
  -6   0   2   12.89    0.52
  -6   0   2   12.75    0.49
  -6   0   2   12.80    0.49
   5   0  -2    0.14    0.12
   5   0  -2    0.07    0.08
  -5   0   2    0.41    0.13
  -5   0   2    0.26    0.09
  -5   0   2    0.11    0.13
  -5   0   2    0.11    0.11
  -5   0   2    0.19    0.10
   4   0  -2   32.53    0.93
   4   0  -2   33.17    0.89
  -4   0   2   34.02    0.88
  -4   0   2   33.40    0.94
  -4   0   2   31.91    0.95
  -4   0   2   33.00    0.91
  -4   0   2   32.88    0.92
   3   0  -2    6.28    0.26
  -3   0   2    6.71    0.28
  -3   0   2    6.46    0.26
  -3   0   2    5.88    0.27
  -3   0   2    6.87    0.26
  -2   0   2  315.01    7.73
  -1   0   2    7.85    0.25
   0   0   2  424.78   10.36
  -2   0  -2   57.80    1.43
  -3   0  -2    0.72    0.09
   3   0   2    0.57    0.09
  -4   0  -2  293.84    7.29
  -4   0  -2  310.69    7.26
   4   0   2  296.27    7.31
  -5   0  -2    0.46    0.10
  -5   0  -2    0.54    0.12
  -5   0  -2    0.47    0.08
  -5   0  -2    0.33    0.10
  -5   0  -2    0.70    0.14
   5   0   2    0.48    0.14
  -6   0  -2   33.17    0.99
  -6   0  -2   32.84    0.90
  -6   0  -2   33.78    0.94
  -6   0  -2   32.19    0.95
  -6   0  -2   33.10    0.96
   6   0   2   33.24    1.02
  -7   0  -2    0.89    0.18
  -7   0  -2    0.87    0.14
  -7   0  -2    0.77    0.15
  -7   0  -2    1.10    0.18
  -7   0  -2    0.89    0.20
   7   0   2    0.73    0.21
  -8   0  -2    9.09    0.46
  -8   0  -2    9.29    0.51
  -8   0  -2    9.09    0.43
   8   0   2   10.04    0.58
  -9   0  -2   -0.22    0.15
  -9   0  -2   -0.04    0.18
  -9   0  -2    0.12    0.23
   9   0   2    0.23    0.26
   8  -1  -2   -0.12    0.20
  -8   1   2    0.04    0.21
  -8   1   2    0.17    0.19
  -8   1   2    0.11    0.17
  -8   1   2    0.16    0.25
   7  -1  -2   10.30    0.53
   7  -1  -2   10.66    0.44
  -7   1   2    8.75    0.39
  -7   1   2   10.84    0.47
  -7   1   2   10.28    0.46
  -7   1   2   10.33    0.56
  -7   1   2   10.01    0.49
   6  -1  -2    0.44    0.16
   6  -1  -2    0.35    0.12
  -6   1   2    0.31    0.13
  -6   1   2    0.31    0.15
  -6   1   2    0.10    0.18
  -6   1   2    0.39    0.14
  -6   1   2    0.25    0.10
   5  -1  -2   46.91    1.24
   5  -1  -2   44.09    1.28
  -5   1   2   44.89    1.22
  -5   1   2   46.49    1.29
  -5   1   2   48.31    1.26
  -5   1   2   46.39    1.27
  -5   1   2   46.46    1.32
   4  -1  -2    0.36    0.08
  -4   1   2    0.15    0.09
  -4   1   2    0.03    0.07
  -4   1   2    0.17    0.12
  -4   1   2    0.18    0.08
  -4   1   2    0.18    0.07
  -3   1   2  110.85    2.76
  -3   1   2  108.30    2.79
  -3   1   2  115.06    2.78
  -2   1   2    8.55    0.30
  -1   1   2  184.00    4.57
   0   1   2    7.40    0.23
   2   1   2    0.46    0.07
  -3  -1  -2   80.20    1.98
   3   1   2   78.20    2.00
  -4  -1  -2    4.21    0.19
  -4  -1  -2    4.08    0.21
  -4  -1  -2    4.06    0.20
   4   1   2    3.65    0.22
  -5  -1  -2   45.97    1.27
  -5  -1  -2   46.54    1.25
  -5  -1  -2   45.67    1.24
  -5  -1  -2   46.60    1.23
   5   1   2   46.78    1.30
  -6  -1  -2    0.38    0.08
  -6  -1  -2    0.28    0.12
  -6  -1  -2    0.33    0.14
  -6  -1  -2    0.47    0.13
  -6  -1  -2    0.49    0.13
   6   1   2    0.69    0.12
   6   1   2    0.26    0.15
  -7  -1  -2   33.48    1.00
  -7  -1  -2   34.29    1.02
  -7  -1  -2   33.57    1.03
  -7  -1  -2   33.94    1.07
   7   1   2   35.04    1.11
   7   1   2   35.82    1.00
  -8  -1  -2    0.58    0.21
  -8  -1  -2    0.32    0.16
  -8  -1  -2    0.26    0.16
   8   1   2    0.33    0.23
  -9  -1  -2    3.55    0.33
  -9  -1  -2    4.29    0.40
  -9  -1  -2    3.82    0.33
   9   1   2    3.90    0.42
  -8   2   2    6.30    0.44
   7  -2  -2   -0.10    0.17
   7  -2  -2   -0.18    0.12
  -7   2   2    0.06    0.12
  -7   2   2    0.01    0.14
  -7   2   2    0.05    0.17
  -7   2   2   -0.13    0.15
  -7   2   2   -0.27    0.20
   6  -2  -2   28.13    0.85
  -6   2   2   29.00    0.88
  -6   2   2   29.80    0.87
  -6   2   2   28.78    0.95
  -6   2   2   27.53    0.90
  -6   2   2   27.65    0.83
   5  -2  -2    0.75    0.12
  -5   2   2    0.74    0.11
  -5   2   2    0.70    0.15
  -5   2   2    0.70    0.13
  -5   2   2    0.89    0.19
  -5   2   2    0.86    0.14
   4  -2  -2   47.23    1.31
  -4   2   2   52.39    1.31
  -4   2   2   50.01    1.34
  -4   2   2   53.87    1.33
  -4   2   2   47.89    1.32
  -4   2   2   48.64    1.37
   3  -2  -2    8.74    0.31
  -3   2   2    8.97    0.35
  -3   2   2    8.89    0.31
  -3   2   2    9.22    0.33
  -2   2   2  172.13    4.22
  -1   2   2   -0.12    0.05
   0   2   2  358.51    8.90
   1   2   2    8.44    0.27
   2   2   2    7.37    0.26
  -3  -2  -2    3.32    0.17
   3   2   2    3.44    0.19
  -4  -2  -2  103.27    2.58
  -4  -2  -2  101.94    2.57
  -4  -2  -2  104.78    2.55
   4   2   2  100.10    2.60
  -5  -2  -2    1.58    0.17
  -5  -2  -2    1.57    0.15
  -5  -2  -2    2.00    0.18
  -5  -2  -2    1.51    0.14
   5   2   2    1.34    0.18
  -6  -2  -2   36.90    1.08
  -6  -2  -2   35.99    1.04
  -6  -2  -2   37.23    0.99
  -6  -2  -2   33.58    1.02
  -6  -2  -2   37.04    1.06
   6   2   2   36.65    1.11
   6   2   2   38.22    1.01
  -7  -2  -2    0.05    0.13
  -7  -2  -2   -0.15    0.11
  -7  -2  -2    0.11    0.17
  -7  -2  -2   -0.01    0.14
   7   2   2    0.04    0.17
  -8  -2  -2    8.02    0.47
  -8  -2  -2    7.36    0.42
  -8  -2  -2    7.26    0.39
   8   2   2    7.29    0.51
  -9  -2  -2    0.04    0.18
  -9  -2  -2    0.10    0.24
  -9  -2  -2   -0.03    0.18
   9   2   2   -0.02    0.25
   7  -3  -2    5.04    0.33
  -7   3   2    4.78    0.36
  -7   3   2    5.18    0.44
  -7   3   2    4.20    0.34
  -7   3   2    5.42    0.33
  -7   3   2    5.26    0.32
   6  -3  -2   -0.03    0.12
  -6   3   2    0.05    0.12
  -6   3   2   -0.14    0.14
  -6   3   2   -0.12    0.17
  -6   3   2   -0.03    0.13
  -6   3   2   -0.02    0.11
   5  -3  -2   59.74    1.60
   5  -3  -2   59.76    1.59
  -5   3   2   59.81    1.67
  -5   3   2   61.63    1.59
  -5   3   2   62.66    1.62
  -5   3   2   61.45    1.59
  -5   3   2   58.77    1.63
   4  -3  -2   -0.07    0.08
   4  -3  -2    0.13    0.08
  -4   3   2    0.06    0.09
  -4   3   2    0.22    0.08
  -4   3   2    0.00    0.03
  -4   3   2    0.03    0.08
  -4   3   2    0.10    0.09
  -4   3   2    0.12    0.12
   3  -3  -2  118.77    3.02
  -3   3   2  123.78    3.02
  -3   3   2  124.81    3.04
  -3   3   2  120.41    3.06
  -3   3   2  121.84    3.01
  -2   3   2   10.68    0.33
  -2   3   2   10.82    0.34
  -2   3   2   10.29    0.37
  -1   3   2   35.56    0.95
   0   3   2   16.95    0.49
   1   3   2  468.25   11.59
   2   3   2    0.75    0.10
   3   3   2  157.76    3.90
  -4  -3  -2    0.40    0.10
  -4  -3  -2    0.39    0.09
  -4  -3  -2    0.25    0.07
   4   3   2    0.33    0.11
  -5  -3  -2   13.82    0.51
  -5  -3  -2   15.04    0.51
  -5  -3  -2   16.22    0.54
  -5  -3  -2   14.98    0.49
   5   3   2   15.57    0.56
  -6  -3  -2   -0.07    0.10
  -6  -3  -2    0.08    0.10
  -6  -3  -2    0.09    0.12
  -6  -3  -2   -0.09    0.14
   6   3   2    0.00    0.15
  -7  -3  -2   30.39    0.98
  -7  -3  -2   28.78    0.91
  -7  -3  -2   30.48    0.95
  -7  -3  -2   29.94    0.91
   7   3   2   30.86    1.02
  -8  -3  -2    0.53    0.16
  -8  -3  -2    0.45    0.18
  -8  -3  -2    0.63    0.23
   8   3   2    0.87    0.26
  -9  -3  -2    4.45    0.38
  -9  -3  -2    4.14    0.41
  -9  -3  -2    3.72    0.34
   9   3   2    3.81    0.43
   7  -4  -2   -0.03    0.15
  -7   4   2   -0.02    0.16
  -7   4   2    0.22    0.23
  -7   4   2   -0.07    0.16
  -7   4   2   -0.14    0.14
   6  -4  -2   16.41    0.60
  -6   4   2   16.80    0.69
  -6   4   2   16.82    0.61
  -6   4   2   16.73    0.59
  -6   4   2   16.36    0.62
   5  -4  -2    1.01    0.16
   5  -4  -2    0.67    0.15
  -5   4   2    0.90    0.15
  -5   4   2    0.88    0.19
  -5   4   2    0.56    0.13
  -5   4   2    0.84    0.16
  -5   4   2    0.99    0.16
   4  -4  -2   41.98    1.17
  -4   4   2   45.00    1.14
  -4   4   2   43.48    1.18
  -4   4   2   42.65    1.18
  -4   4   2   42.46    1.16
  -4   4   2   41.96    1.23
  -4   4   2   42.93    1.16
   3  -4  -2   -0.14    0.07
  -3   4   2    0.05    0.07
  -3   4   2   -0.02    0.08
  -3   4   2    0.01    0.08
  -3   4   2   -0.01    0.08
  -3   4   2   -0.02    0.09
   2  -4  -2   73.09    1.83
  -2   4   2   72.23    1.82
  -2   4   2   70.64    1.81
  -2   4   2   71.59    1.85
  -1   4   2    9.68    0.36
  -1   4   2    9.79    0.34
   0   4   2  343.35    8.42
   1   4   2    1.07    0.12
   2   4   2  198.89    4.87
  -3  -4  -2    4.95    0.25
   3   4   2    5.55    0.27
  -4  -4  -2  119.62    3.06
  -4  -4  -2  122.65    3.01
  -4  -4  -2  122.44    3.03
   4   4   2  120.03    3.08
   4   4   2  121.61    3.05
  -5  -4  -2    1.33    0.14
  -5  -4  -2    1.69    0.17
  -5  -4  -2    1.94    0.20
  -5  -4  -2    1.39    0.17
   5   4   2    1.63    0.22
  -6  -4  -2   39.32    1.16
  -6  -4  -2   39.58    1.16
  -6  -4  -2   41.59    1.19
  -6  -4  -2   41.64    1.14
   6   4   2   40.42    1.22
  -7  -4  -2    0.92    0.18
  -7  -4  -2    0.54    0.13
  -7  -4  -2    1.15    0.17
  -7  -4  -2    1.11    0.22
   7   4   2    1.42    0.27
  -8  -4  -2    6.69    0.47
  -8  -4  -2    6.24    0.36
  -8  -4  -2    7.27    0.42
   8   4   2    7.17    0.53
  -9  -4  -2   -0.15    0.15
  -9  -4  -2   -0.03    0.24
  -9  -4  -2    0.09    0.19
   9   4   2    0.12    0.27
   6  -5  -2   -0.05    0.14
  -6   5   2   -0.04    0.14
  -6   5   2    0.01    0.20
  -6   5   2    0.01    0.13
  -6   5   2   -0.05    0.14
   5  -5  -2   19.05    0.65
   5  -5  -2   17.63    0.63
  -5   5   2   18.61    0.63
  -5   5   2   18.96    0.63
  -5   5   2   18.69    0.62
  -5   5   2   17.96    0.63
  -5   5   2   19.63    0.70
   4  -5  -2    0.85    0.15
  -4   5   2    0.98    0.14
  -4   5   2    0.82    0.14
  -4   5   2    0.57    0.17
  -4   5   2    0.90    0.14
  -4   5   2    0.78    0.15
   3  -5  -2   81.79    2.12
  -3   5   2   83.26    2.11
  -3   5   2   81.16    2.10
  -3   5   2   83.84    2.10
  -3   5   2   82.20    2.15
   2  -5  -2   13.86    0.46
  -2   5   2   13.15    0.43
  -2   5   2   13.21    0.47
  -2   5   2   13.36    0.43
   1  -5  -2   61.56    1.58
  -1   5   2   59.62    1.59
  -1   5   2   61.17    1.55
  -1   5   2   61.02    1.55
   0  -5  -2    1.08    0.11
   0   5   2    1.17    0.13
  -1  -5  -2  195.88    4.85
   1   5   2  200.51    4.86
  -2  -5  -2    0.26    0.08
   2   5   2    0.36    0.11
  -3  -5  -2  219.93    5.50
  -3  -5  -2  225.82    5.48
   3   5   2  224.73    5.49
   3   5   2  226.91    5.53
  -4  -5  -2    0.05    0.07
  -4  -5  -2    0.08    0.11
  -4  -5  -2    0.17    0.10
   4   5   2    0.25    0.11
   4   5   2    0.27    0.14
  -5  -5  -2   42.27    1.15
  -5  -5  -2   41.10    1.18
   5   5   2   42.07    1.20
   5   5   2   42.54    1.24
  -6  -5  -2    1.63    0.18
  -6  -5  -2    1.34    0.20
  -6  -5  -2    1.44    0.19
   6   5   2    1.77    0.26
  -7  -5  -2   22.14    0.75
  -7  -5  -2   19.73    0.69
   7   5   2   21.52    0.83
  -8  -5  -2   -0.14    0.12
  -8  -5  -2   -0.23    0.19
  -8  -5  -2   -0.07    0.17
   8   5   2   -0.01    0.22
  -9  -5  -2    5.65    0.48
  -9  -5  -2    6.11    0.41
  -9  -5  -2    5.80    0.45
   9   5   2    5.82    0.53
   6  -6  -2   14.26    0.61
   6  -6  -2   13.36    0.57
  -6   6   2   14.69    0.60
  -6   6   2   14.34    0.66
  -6   6   2   13.62    0.56
   5  -6  -2    0.25    0.16
   5  -6  -2   -0.08    0.13
  -5   6   2    0.00    0.12
  -5   6   2   -0.03    0.17
  -5   6   2    0.06    0.14
   4  -6  -2   17.52    0.62
  -4   6   2   17.48    0.59
  -4   6   2   18.07    0.65
  -4   6   2   17.17    0.60
   3  -6  -2    1.48    0.18
  -3   6   2    1.21    0.15
  -3   6   2    1.21    0.14
  -3   6   2    1.35    0.16
  -3   6   2    1.40    0.19
   2  -6  -2   65.78    1.72
  -2   6   2   63.69    1.67
  -2   6   2   65.99    1.69
  -2   6   2   64.39    1.72
  -2   6   2   65.30    1.68
   1  -6  -2    7.49    0.33
  -1   6   2    8.11    0.29
  -1   6   2    7.52    0.33
  -1   6   2    7.74    0.30
   0  -6  -2  142.04    3.54
   0   6   2  140.34    3.49
   0   6   2  143.56    3.55
   0   6   2  142.76    3.49
  -1  -6  -2    6.40    0.28
   1   6   2    6.15    0.29
   1   6   2    6.83    0.25
  -2  -6  -2   31.75    0.91
   2   6   2   32.83    0.93
   2   6   2   32.04    0.90
  -3  -6  -2    0.39    0.10
  -3  -6  -2    0.63    0.12
   3   6   2    0.60    0.12
   3   6   2    0.19    0.12
  -4  -6  -2   80.65    2.17
  -4  -6  -2   84.20    2.11
  -4  -6  -2   84.91    2.16
   4   6   2   84.31    2.22
   4   6   2   84.13    2.18
  -5  -6  -2   -0.10    0.08
  -5  -6  -2    0.00    0.12
  -5  -6  -2   -0.06    0.12
   5   6   2   -0.13    0.16
   5   6   2   -0.19    0.11
  -6  -6  -2   47.28    1.37
  -6  -6  -2   49.85    1.34
   6   6   2   48.04    1.45
   6   6   2   48.06    1.40
  -7  -6  -2   -0.01    0.14
  -7  -6  -2    0.21    0.17
   7   6   2    0.07    0.21
   7   6   2    0.15    0.17
  -8  -6  -2    5.58    0.36
  -8  -6  -2    5.71    0.42
   8   6   2    5.46    0.40
   8   6   2    5.18    0.49
   5  -7  -2   12.32    0.57
  -5   7   2   11.59    0.51
  -5   7   2   12.52    0.54
  -5   7   2   14.08    0.60
   4  -7  -2    1.44    0.21
  -4   7   2    1.48    0.19
  -4   7   2    1.18    0.21
  -4   7   2    1.22    0.19
   3  -7  -2   45.17    1.30
  -3   7   2   45.21    1.27
  -3   7   2   46.15    1.27
  -3   7   2   45.81    1.30
   2  -7  -2    1.61    0.19
  -2   7   2    1.88    0.21
  -2   7   2    1.96    0.17
  -2   7   2    2.07    0.18
   1  -7  -2   69.82    1.87
  -1   7   2   71.78    1.82
  -1   7   2   70.14    1.87
  -1   7   2   70.56    1.82
   0  -7  -2    4.29    0.27
   0   7   2    4.91    0.22
   0   7   2    5.09    0.23
   0   7   2    4.45    0.27
  -1  -7  -2   34.11    0.99
   1   7   2   34.89    0.91
   1   7   2   33.66    0.92
   1   7   2   34.03    0.99
  -2  -7  -2   -0.09    0.10
   2   7   2    0.10    0.08
   2   7   2    0.05    0.11
   2   7   2   -0.04    0.08
  -3  -7  -2   65.65    1.78
  -3  -7  -2   66.84    1.74
  -3  -7  -2   65.89    1.68
   3   7   2   67.60    1.81
   3   7   2   68.06    1.77
  -4  -7  -2    5.35    0.29
  -4  -7  -2    5.03    0.32
  -4  -7  -2    5.68    0.25
   4   7   2    5.95    0.32
   4   7   2    5.62    0.37
   4   7   2    5.46    0.25
  -5  -7  -2   38.62    1.15
  -5  -7  -2   40.48    1.08
  -5  -7  -2   37.66    1.12
   5   7   2   37.30    1.14
   5   7   2   38.33    1.21
  -6  -7  -2    0.34    0.14
  -6  -7  -2    0.31    0.16
  -6  -7  -2    0.48    0.17
   6   7   2    0.69    0.19
   6   7   2    0.84    0.22
  -7  -7  -2    8.90    0.41
  -7  -7  -2    8.27    0.46
   7   7   2    8.79    0.49
   7   7   2    8.18    0.54
  -8  -7  -2    0.01    0.16
  -8  -7  -2   -0.29    0.18
   8   7   2   -0.05    0.20
   8   7   2   -0.17    0.25
   5  -8  -2    0.08    0.21
  -5   8   2    0.11    0.16
  -5   8   2    0.21    0.18
   4  -8  -2   13.95    0.60
  -4   8   2   13.94    0.58
  -4   8   2   14.26    0.55
  -4   8   2   13.03    0.54
   3  -8  -2    0.61    0.19
  -3   8   2    0.49    0.15
  -3   8   2    1.01    0.20
  -3   8   2    0.84    0.17
   2  -8  -2   35.50    1.08
  -2   8   2   34.91    1.02
  -2   8   2   35.88    1.06
  -2   8   2   35.72    1.02
   1  -8  -2    1.26    0.19
  -1   8   2    1.18    0.15
  -1   8   2    1.20    0.19
  -1   8   2    1.16    0.15
   0  -8  -2   89.79    2.38
   0   8   2   91.59    2.38
   0   8   2   92.06    2.31
   0   8   2   90.80    2.32
  -1  -8  -2    1.76    0.20
   1   8   2    1.69    0.17
   1   8   2    1.21    0.19
   1   8   2    1.75    0.16
   1   8   2    1.50    0.13
  -2  -8  -2   40.51    1.14
   2   8   2   39.32    1.03
   2   8   2   39.12    1.06
   2   8   2   38.15    1.14
  -3  -8  -2    0.08    0.13
   3   8   2    0.11    0.10
   3   8   2   -0.04    0.15
   3   8   2    0.04    0.09
  -4  -8  -2   25.40    0.75
  -4  -8  -2   25.53    0.85
  -4  -8  -2   26.22    0.82
   4   8   2   25.61    0.84
   4   8   2   28.21    0.92
   4   8   2   26.81    0.76
  -5  -8  -2    0.06    0.15
  -5  -8  -2   -0.02    0.14
  -5  -8  -2    0.00    0.10
   5   8   2   -0.12    0.13
   5   8   2    0.02    0.19
  -6  -8  -2   21.57    0.78
  -6  -8  -2   22.33    0.81
  -6  -8  -2   22.07    0.72
   6   8   2   23.45    0.89
   6   8   2   23.47    0.82
  -7  -8  -2    0.77    0.17
  -7  -8  -2    1.04    0.24
   7   8   2    0.58    0.22
   7   8   2    0.59    0.29
  -8  -8  -2    3.33    0.36
  -8  -8  -2    3.26    0.30
   8   8   2    3.84    0.39
   8   8   2    3.09    0.42
   4  -9  -2    0.12    0.20
  -4   9   2    0.01    0.17
  -4   9   2    0.09    0.14
   3  -9  -2   21.33    0.78
  -3   9   2   20.21    0.71
  -3   9   2   19.76    0.71
   2  -9  -2    0.57    0.18
  -2   9   2    0.44    0.15
  -2   9   2    0.80    0.20
  -2   9   2    0.77    0.16
   1  -9  -2   30.57    0.99
  -1   9   2   33.24    0.99
  -1   9   2   31.53    0.93
  -1   9   2   30.83    0.93
   0  -9  -2    0.33    0.16
   0   9   2    0.15    0.16
   0   9   2    0.20    0.11
   0   9   2    0.10    0.09
  -1  -9  -2   41.98    1.22
   1   9   2   41.07    1.21
   1   9   2   40.23    1.10
   1   9   2   40.45    1.13
  -2  -9  -2    1.03    0.19
   2   9   2    1.65    0.19
   2   9   2    0.90    0.14
   2   9   2    0.88    0.20
   2   9   2    1.30    0.13
  -3  -9  -2   48.64    1.40
   3   9   2   49.33    1.43
   3   9   2   50.18    1.32
   3   9   2   47.25    1.37
  -4  -9  -2   -0.04    0.15
   4   9   2    0.05    0.18
   4   9   2    0.04    0.14
  -5  -9  -2   18.10    0.70
  -5  -9  -2   17.57    0.59
  -5  -9  -2   18.12    0.67
   5   9   2   18.43    0.78
   5   9   2   19.15    0.71
  -6  -9  -2   -0.07    0.12
  -6  -9  -2    0.01    0.18
  -6  -9  -2    0.02    0.19
   6   9   2   -0.06    0.16
   6   9   2    0.16    0.24
  -7  -9  -2    4.77    0.33
  -7  -9  -2    4.83    0.40
   7   9   2    4.74    0.48
   7   9   2    4.50    0.41
   3 -10  -2    0.61    0.24
  -3  10   2    0.51    0.18
  -3  10   2    0.56    0.17
   2 -10  -2   11.07    0.57
  -2  10   2   10.94    0.48
  -2  10   2   11.29    0.49
   1 -10  -2    1.00    0.23
  -1  10   2    0.97    0.17
  -1  10   2    1.41    0.19
   0 -10  -2   20.26    0.74
   0  10   2   19.92    0.65
   0  10   2   20.13    0.67
   0  10   2   19.82    0.72
  -1 -10  -2    0.08    0.16
   1  10   2    0.02    0.09
   1  10   2    0.04    0.10
   1  10   2   -0.13    0.17
  -2 -10  -2   39.67    1.19
   2  10   2   38.77    1.19
   2  10   2   37.47    1.09
  -3 -10  -2    0.27    0.18
   3  10   2    0.04    0.12
   3  10   2   -0.07    0.17
  -4 -10  -2   15.24    0.64
   4  10   2   14.89    0.68
   4  10   2   14.78    0.60
  -5 -10  -2    1.14    0.22
  -5 -10  -2    1.63    0.28
   5  10   2    1.43    0.31
   5  10   2    1.23    0.24
  -6 -10  -2   11.04    0.46
  -6 -10  -2   11.53    0.60
  -6 -10  -2   10.58    0.54
   6  10   2   10.90    0.56
   6  10   2   11.01    0.70
  -7 -10  -2   -0.04    0.15
  -7 -10  -2    0.35    0.23
   7  10   2   -0.16    0.20
   7  10   2   -0.29    0.27
   2 -11  -2   -0.08    0.20
  -2  11   2    0.13    0.15
  -2  11   2    0.16    0.17
   1 -11  -2    9.77    0.55
  -1  11   2    9.48    0.44
  -1  11   2    9.09    0.46
   0 -11  -2    0.23    0.21
   0  11   2    0.06    0.15
   0  11   2   -0.01    0.12
  -1 -11  -2   11.19    0.56
   1  11   2   10.37    0.41
   1  11   2   10.27    0.46
  -2 -11  -2    0.18    0.20
   2  11   2    0.33    0.21
   2  11   2   -0.09    0.12
  -3 -11  -2   19.50    0.77
   3  11   2   18.37    0.65
   3  11   2   18.14    0.76
  -4 -11  -2   -0.22    0.20
   4  11   2   -0.11    0.22
  -5 -11  -2   11.65    0.65
   5  11   2   12.22    0.67
   5  11   2   10.50    0.56
  -6 -11  -2    0.16    0.25
  -6 -11  -2   -0.19    0.20
   6  11   2   -0.07    0.20
   6  11   2   -0.67    0.26
   0 -12  -2    8.31    0.55
   0  12   2    8.44    0.45
   0  12   2    8.79    0.42
  -1 -12  -2   -0.04    0.20
   1  12   2    0.18    0.14
   1  12   2   -0.07    0.15
  -2 -12  -2   12.76    0.65
   2  12   2   13.03    0.54
  -3 -12  -2    0.82    0.27
   3  12   2    0.75    0.19
  -4 -12  -2    7.06    0.53
   4  12   2    5.64    0.50
   3  11  -3   -0.20    0.22
   2  11  -3    8.11    0.56
  -2 -11   3    8.62    0.53
   1  11  -3    0.31    0.22
   1  11  -3    0.22    0.15
  -1 -11   3    0.00    0.21
   0  11  -3    8.40    0.53
   0  11  -3    8.31    0.44
   0 -11   3    8.64    0.53
  -1  11  -3    0.28    0.22
  -1  11  -3    0.21    0.17
   1 -11   3    0.34    0.24
   4  10  -3   -0.15    0.21
   3  10  -3   11.60    0.61
   2  10  -3    0.17    0.21
  -2 -10   3    0.16    0.18
   1  10  -3   17.24    0.71
   1  10  -3   16.65    0.60
  -1 -10   3   16.34    0.68
   0  10  -3   -0.05    0.13
   0  10  -3   -0.03    0.18
   0 -10   3   -0.11    0.17
  -1  10  -3    5.67    0.43
  -1  10  -3    5.51    0.36
   1 -10   3    6.36    0.46
  -2  10  -3    0.12    0.18
  -2  10  -3   -0.24    0.13
   2 -10   3    0.21    0.21
  -3  10  -3    6.83    0.46
  -3  10  -3    6.58    0.43
   3 -10   3    5.62    0.46
   5   9  -3   -0.04    0.22
  -5  -9   3    0.02    0.14
   4   9  -3   15.56    0.68
  -4  -9   3   14.65    0.57
   3   9  -3    0.84    0.23
   2   9  -3   17.34    0.70
   2   9  -3   16.28    0.56
  -2  -9   3   17.16    0.64
   1   9  -3    1.35    0.18
   1   9  -3    1.22    0.22
  -1  -9   3    1.69    0.23
   0   9  -3   16.50    0.59
   0   9  -3   16.85    0.66
   0  -9   3   16.62    0.64
  -1   9  -3    0.20    0.15
  -1   9  -3   -0.12    0.12
   1  -9   3   -0.10    0.15
  -2   9  -3   11.11    0.53
  -2   9  -3   11.75    0.51
  -2   9  -3   11.26    0.53
   2  -9   3   12.61    0.57
  -3   9  -3    0.03    0.19
  -3   9  -3    0.11    0.18
  -3   9  -3    0.22    0.15
   3  -9   3    0.40    0.20
  -4   9  -3    6.06    0.42
  -4   9  -3    5.65    0.39
  -4   9  -3    4.65    0.39
   4  -9   3    5.37    0.44
   6   8  -3   -0.38    0.22
   6   8  -3    0.36    0.25
  -6  -8   3    0.20    0.18
  -6  -8   3    0.03    0.18
   5   8  -3   11.46    0.59
   5   8  -3   10.99    0.58
  -5  -8   3   11.07    0.49
  -5  -8   3   10.68    0.49
   4   8  -3   -0.30    0.16
   4   8  -3    0.11    0.19
  -4  -8   3    0.10    0.14
  -4  -8   3   -0.09    0.12
   3   8  -3   27.66    0.94
  -3  -8   3   27.19    0.83
   2   8  -3    0.47    0.11
   2   8  -3    0.68    0.20
  -2  -8   3    0.51    0.15
   1   8  -3   34.85    1.08
   1   8  -3   33.89    0.99
  -1  -8   3   35.20    1.03
   0   8  -3    0.47    0.12
   0   8  -3    0.63    0.16
   0  -8   3    0.59    0.17
  -1   8  -3   24.61    0.78
  -1   8  -3   24.72    0.81
  -1   8  -3   25.19    0.80
   1  -8   3   24.45    0.82
  -2   8  -3    0.00    0.15
  -2   8  -3    0.01    0.14
  -2   8  -3    0.07    0.13
   2  -8   3   -0.14    0.15
  -3   8  -3   17.58    0.66
  -3   8  -3   16.96    0.64
  -3   8  -3   17.11    0.63
   3  -8   3   17.17    0.68
  -4   8  -3    0.09    0.16
  -4   8  -3    0.13    0.15
  -4   8  -3   -0.01    0.16
   4  -8   3    0.02    0.18
  -5   8  -3    7.08    0.43
  -5   8  -3    7.95    0.47
   5  -8   3    8.38    0.54
   7   7  -3   -0.01    0.26
   7   7  -3   -0.16    0.24
  -7  -7   3   -0.07    0.20
  -7  -7   3    0.05    0.19
  -7  -7   3    0.14    0.23
   6   7  -3    6.97    0.50
   6   7  -3    7.86    0.51
  -6  -7   3    6.82    0.44
  -6  -7   3    6.28    0.41
  -6  -7   3    7.04    0.48
   5   7  -3    0.74    0.23
   5   7  -3    0.82    0.22
  -5  -7   3    0.50    0.17
  -5  -7   3    0.45    0.15
  -5  -7   3    0.24    0.17
   4   7  -3   35.18    1.11
   4   7  -3   34.34    1.07
  -4  -7   3   33.07    1.01
  -4  -7   3   34.04    1.01
   3   7  -3    0.59    0.12
   3   7  -3    0.50    0.19
  -3  -7   3    0.48    0.13
  -3  -7   3    0.77    0.14
   2   7  -3   29.94    0.85
   2   7  -3   31.64    0.97
   2   7  -3   28.29    0.89
  -2  -7   3   30.62    0.88
  -2  -7   3   29.75    0.85
   1   7  -3    2.70    0.26
   1   7  -3    2.84    0.21
  -1  -7   3    2.35    0.21
   0   7  -3   46.53    1.27
   0   7  -3   45.30    1.31
   0  -7   3   46.80    1.29
  -1   7  -3    1.36    0.18
  -1   7  -3    1.56    0.19
  -1   7  -3    1.57    0.17
   1  -7   3    1.44    0.20
  -2   7  -3   79.79    2.09
  -2   7  -3   81.07    2.11
  -2   7  -3   77.66    2.09
   2  -7   3   79.95    2.13
  -3   7  -3    0.00    0.12
  -3   7  -3    0.12    0.16
  -3   7  -3    0.18    0.12
   3  -7   3    0.11    0.14
  -4   7  -3   11.27    0.47
  -4   7  -3   11.18    0.51
  -4   7  -3   11.00    0.47
   4  -7   3   11.37    0.54
  -5   7  -3    0.49    0.17
  -5   7  -3    0.73    0.18
  -5   7  -3    0.31    0.21
   5  -7   3    0.48    0.22
  -6   7  -3    6.03    0.39
  -6   7  -3    5.92    0.45
  -6   7  -3    6.52    0.41
   6  -7   3    5.61    0.47
   7   6  -3    5.70    0.50
   7   6  -3    6.13    0.49
  -7  -6   3    6.25    0.46
  -7  -6   3    7.15    0.52
  -7  -6   3    5.89    0.43
   6   6  -3    0.24    0.21
   6   6  -3    0.00    0.20
  -6  -6   3    0.10    0.18
  -6  -6   3   -0.02    0.16
  -6  -6   3   -0.12    0.15
   5   6  -3    8.57    0.47
   5   6  -3    9.82    0.52
  -5  -6   3    9.51    0.46
  -5  -6   3    7.93    0.40
  -5  -6   3    8.92    0.42
   4   6  -3    1.49    0.25
   4   6  -3    1.47    0.23
  -4  -6   3    1.29    0.17
  -4  -6   3    1.90    0.22
  -4  -6   3    1.33    0.18
   3   6  -3   32.89    1.00
   3   6  -3   34.58    0.93
   3   6  -3   33.77    1.07
  -3  -6   3   32.74    0.96
  -3  -6   3   34.13    0.97
  -3  -6   3   35.36    0.96
   2   6  -3    0.43    0.10
   2   6  -3    0.32    0.13
   2   6  -3    0.43    0.16
  -2  -6   3    0.51    0.10
   1   6  -3   86.66    2.23
   1   6  -3   87.57    2.31
   1   6  -3   90.59    2.23
  -1  -6   3   87.49    2.24
   0   6  -3    8.90    0.34
   0   6  -3    8.04    0.38
   0   6  -3    8.92    0.35
   0  -6   3    8.73    0.36
  -1   6  -3   61.00    1.59
  -1   6  -3   60.12    1.60
  -1   6  -3   59.56    1.61
   1  -6   3   60.43    1.61
  -2   6  -3    0.14    0.12
  -2   6  -3    0.16    0.10
  -2   6  -3    0.02    0.10
   2  -6   3    0.15    0.13
  -3   6  -3   44.90    1.24
  -3   6  -3   46.19    1.27
  -3   6  -3   42.24    1.23
   3  -6   3   45.81    1.29
  -4   6  -3   -0.12    0.10
  -4   6  -3    0.13    0.15
  -4   6  -3    0.09    0.12
   4  -6   3    0.18    0.15
  -5   6  -3   15.24    0.59
  -5   6  -3   17.42    0.65
  -5   6  -3   17.01    0.61
   5  -6   3   17.19    0.68
  -6   6  -3    1.21    0.20
  -6   6  -3    0.99    0.20
  -6   6  -3    0.93    0.23
   6  -6   3    0.87    0.25
   7   5  -3    0.08    0.25
   7   5  -3    0.61    0.25
  -7  -5   3    0.25    0.20
  -7  -5   3    0.04    0.20
  -7  -5   3    0.09    0.24
   6   5  -3    8.88    0.52
   6   5  -3    9.56    0.54
  -6  -5   3    8.15    0.42
  -6  -5   3    8.90    0.46
  -6  -5   3    8.61    0.51
   5   5  -3    0.70    0.20
   5   5  -3    0.36    0.17
  -5  -5   3    0.39    0.15
  -5  -5   3    0.43    0.15
  -5  -5   3    0.79    0.19
   4   5  -3   44.98    1.29
   4   5  -3   44.01    1.33
  -4  -5   3   44.71    1.26
  -4  -5   3   44.24    1.26
  -4  -5   3   46.23    1.26
   3   5  -3    0.30    0.12
   3   5  -3    0.36    0.16
   3   5  -3    0.25    0.09
  -3  -5   3    0.31    0.10
  -3  -5   3    0.31    0.10
  -3  -5   3    0.34    0.10
   2   5  -3   62.38    1.63
   2   5  -3   61.31    1.70
   2   5  -3   63.77    1.60
  -2  -5   3   59.64    1.60
  -2  -5   3   63.67    1.61
   1   5  -3    1.93    0.20
   1   5  -3    2.26    0.16
   1   5  -3    1.76    0.14
   0   5  -3   35.88    0.99
   0   5  -3   37.46    1.04
   0   5  -3   36.26    0.94
   0   5  -3   36.50    1.00
   0  -5   3   38.01    1.01
  -1   5  -3    3.16    0.21
  -1   5  -3    3.07    0.19
  -1   5  -3    3.13    0.20
   1  -5   3    2.99    0.21
  -2   5  -3   81.00    2.08
  -2   5  -3   80.96    2.09
  -2   5  -3   82.31    2.09
   2  -5   3   81.40    2.11
  -3   5  -3   -0.11    0.08
  -3   5  -3    0.05    0.09
  -3   5  -3    0.23    0.12
   3  -5   3    0.10    0.12
  -4   5  -3   25.63    0.81
  -4   5  -3   25.35    0.77
  -4   5  -3   25.66    0.77
   4  -5   3   25.15    0.83
  -5   5  -3    1.33    0.18
  -5   5  -3    1.59    0.19
  -5   5  -3    1.76    0.23
   5  -5   3    1.44    0.23
  -6   5  -3   13.14    0.52
  -6   5  -3   12.64    0.56
  -6   5  -3   12.16    0.50
   6  -5   3   12.83    0.59
  -7   5  -3    0.51    0.18
  -7   5  -3    0.54    0.17
  -7   5  -3    0.59    0.23
   7  -5   3    0.25    0.23
  -8  -4   3   -0.07    0.22
   7   4  -3   19.48    0.82
   7   4  -3   18.50    0.83
  -7  -4   3   17.07    0.71
  -7  -4   3   18.01    0.77
  -7  -4   3   18.71    0.75
   6   4  -3    0.17    0.19
   6   4  -3    0.26    0.19
  -6  -4   3    0.05    0.14
  -6  -4   3   -0.16    0.14
  -6  -4   3   -0.11    0.17
   5   4  -3   33.94    1.11
   5   4  -3   35.91    1.12
  -5  -4   3   36.04    1.06
  -5  -4   3   35.15    1.06
  -5  -4   3   36.03    1.08
   4   4  -3    0.82    0.19
   4   4  -3    0.86    0.18
   4   4  -3    0.84    0.13
  -4  -4   3    0.83    0.16
  -4  -4   3    0.88    0.14
  -4  -4   3    1.00    0.16
   3   4  -3   23.76    0.75
   3   4  -3   24.45    0.81
  -3  -4   3   25.46    0.73
  -3  -4   3   24.41    0.73
  -3  -4   3   24.42    0.73
   2   4  -3    2.09    0.21
   2   4  -3    1.67    0.16
  -2  -4   3    1.86    0.15
  -2  -4   3    2.28    0.15
   1   4  -3  157.25    3.75
   1   4  -3  154.48    3.83
  -1  -4   3  147.31    3.73
   0   4  -3    1.14    0.09
   0   4  -3    1.57    0.16
   0   4  -3    1.14    0.11
  -1   4  -3   53.96    1.40
  -1   4  -3   56.38    1.41
  -1   4  -3   50.18    1.39
   1  -4   3   54.48    1.41
  -2   4  -3    3.54    0.21
  -2   4  -3    4.16    0.21
  -2   4  -3    3.60    0.19
  -3   4  -3   26.95    0.80
  -3   4  -3   27.75    0.72
  -3   4  -3   27.58    0.78
  -3   4  -3   27.20    0.78
  -4   4  -3    0.20    0.12
  -4   4  -3    0.21    0.09
  -4   4  -3    0.10    0.08
  -4   4  -3    0.16    0.10
  -5   4  -3   50.65    1.36
  -5   4  -3   49.78    1.40
  -5   4  -3   49.74    1.35
  -6   4  -3    0.13    0.12
  -6   4  -3    0.12    0.12
  -6   4  -3    0.00    0.15
  -7   4  -3    6.52    0.36
  -7   4  -3    6.59    0.44
  -7   4  -3    6.92    0.37
   8   3  -3    4.76    0.51
   8   3  -3    5.27    0.49
  -8  -3   3    4.27    0.41
  -8  -3   3    5.24    0.48
  -8  -3   3    3.94    0.35
   7   3  -3   -0.18    0.23
   7   3  -3   -0.19    0.20
  -7  -3   3   -0.03    0.23
  -7  -3   3    0.07    0.16
  -7  -3   3    0.19    0.20
   6   3  -3   18.11    0.74
   6   3  -3   19.30    0.77
  -6  -3   3   18.99    0.70
  -6  -3   3   18.92    0.71
  -6  -3   3   18.32    0.66
   5   3  -3   -0.01    0.15
   5   3  -3   -0.01    0.10
  -5  -3   3    0.01    0.13
  -5  -3   3    0.19    0.11
  -5  -3   3    0.00    0.11
   4   3  -3   79.27    1.99
   4   3  -3   73.20    2.08
  -4  -3   3   78.14    2.01
  -4  -3   3   76.62    2.03
  -4  -3   3   78.51    2.02
   3   3  -3    5.43    0.32
  -3  -3   3    5.11    0.26
  -3  -3   3    5.53    0.25
  -3  -3   3    5.25    0.25
   2   3  -3  107.37    2.83
  -2  -3   3  112.93    2.75
  -2  -3   3  111.38    2.75
  -1  -3   3    1.72    0.11
   0   3  -3   92.50    2.16
   0  -3   3   84.94    2.15
  -2   3  -3  214.87    5.21
  -2   3  -3  214.48    5.21
  -2   3  -3  211.88    5.21
  -3   3  -3    2.16    0.15
  -3   3  -3    2.16    0.16
  -3   3  -3    2.34    0.12
  -3   3  -3    2.16    0.14
  -4   3  -3   50.04    1.32
  -4   3  -3   49.85    1.36
  -4   3  -3   50.23    1.30
  -4   3  -3   51.66    1.33
   4  -3   3   50.90    1.30
  -5   3  -3    0.15    0.06
  -5   3  -3    0.11    0.10
  -5   3  -3    0.36    0.14
  -5   3  -3    0.08    0.09
  -5   3  -3    0.25    0.10
   5  -3   3    0.14    0.08
   5  -3   3    0.11    0.11
  -6   3  -3   22.20    0.69
  -6   3  -3   22.14    0.69
  -6   3  -3   23.73    0.77
  -6   3  -3   22.18    0.67
   6  -3   3   22.82    0.76
  -7   3  -3    0.77    0.15
  -7   3  -3    0.72    0.16
  -7   3  -3    0.71    0.16
  -7   3  -3    0.68    0.30
  -7   3  -3    0.81    0.21
   7  -3   3    0.73    0.21
  -8   3  -3    4.65    0.32
  -8   3  -3    5.42    0.36
  -8   3  -3    4.81    0.39
   8   2  -3    0.08    0.29
   8   2  -3   -0.07    0.25
  -8  -2   3   -0.44    0.18
  -8  -2   3    0.04    0.19
  -8  -2   3   -0.05    0.24
   7   2  -3   11.75    0.66
   7   2  -3   12.95    0.64
  -7  -2   3   11.49    0.57
  -7  -2   3   11.79    0.54
  -7  -2   3   10.99    0.60
   6   2  -3    0.09    0.17
  -6  -2   3    0.01    0.14
  -6  -2   3    0.08    0.13
  -6  -2   3   -0.17    0.16
   5   2  -3   61.95    1.75
   5   2  -3   61.42    1.64
  -5  -2   3   63.02    1.69
  -5  -2   3   62.62    1.72
  -5  -2   3   61.20    1.69
   4   2  -3    0.61    0.18
   4   2  -3    0.77    0.12
  -4  -2   3    1.01    0.17
  -4  -2   3    1.07    0.14
  -4  -2   3    0.64    0.13
   3   2  -3   45.51    1.31
  -3  -2   3   44.92    1.25
  -3  -2   3   47.58    1.24
  -3  -2   3   47.37    1.24
   2   2  -3    2.97    0.26
  -2  -2   3    2.54    0.16
  -2  -2   3    2.68    0.16
  -1  -2   3  273.29    6.73
   0  -2   3    0.02    0.03
   2  -2   3    0.19    0.04
  -3   2  -3   96.01    2.43
  -3   2  -3  104.24    2.42
  -3   2  -3   95.62    2.38
   3  -2   3   93.01    2.39
  -4   2  -3    3.59    0.18
  -4   2  -3    3.48    0.18
  -4   2  -3    3.54    0.22
  -4   2  -3    3.23    0.17
  -4   2  -3    3.49    0.17
   4  -2   3    3.62    0.20
  -5   2  -3   70.45    1.77
  -5   2  -3   69.39    1.82
  -5   2  -3   67.80    1.75
  -5   2  -3   66.50    1.76
  -5   2  -3   71.59    1.75
   5  -2   3   67.90    1.81
  -6   2  -3    0.43    0.15
  -6   2  -3    0.66    0.13
  -6   2  -3    0.53    0.12
  -6   2  -3    0.24    0.10
  -6   2  -3    0.73    0.15
  -6   2  -3    0.37    0.11
   6  -2   3    0.70    0.17
  -7   2  -3   15.50    0.53
  -7   2  -3   15.63    0.56
  -7   2  -3   15.46    0.61
  -7   2  -3   15.66    0.54
  -7   2  -3   14.98    0.53
  -7   2  -3   16.15    0.61
   7  -2   3   16.29    0.64
  -8   2  -3    0.06    0.19
  -8   2  -3    0.10    0.14
  -8   2  -3   -0.07    0.14
  -8   2  -3   -0.22    0.19
  -8   2  -3   -0.03    0.12
   8  -2   3   -0.18    0.19
   8   1  -3    4.73    0.51
   8   1  -3    5.47    0.48
  -8  -1   3    4.98    0.43
  -8  -1   3    3.81    0.42
  -8  -1   3    5.76    0.41
   7   1  -3    0.06    0.20
  -7  -1   3    0.48    0.23
  -7  -1   3    0.24    0.20
  -7  -1   3   -0.03    0.17
  -7  -1   3    0.28    0.19
   6   1  -3    8.13    0.35
   6   1  -3    7.96    0.44
  -6  -1   3    6.36    0.39
  -6  -1   3    7.38    0.37
  -6  -1   3    7.25    0.45
  -6  -1   3    7.64    0.41
   5   1  -3    2.65    0.20
   5   1  -3    2.82    0.28
  -5  -1   3    2.55    0.24
  -5  -1   3    2.62    0.24
  -5  -1   3    2.62    0.26
  -5  -1   3    3.14    0.26
   4   1  -3  104.86    2.62
   4   1  -3  101.30    2.69
  -4  -1   3  108.18    2.66
  -4  -1   3  104.33    2.68
  -4  -1   3  102.65    2.66
  -4  -1   3  105.94    2.67
   3   1  -3    4.06    0.25
  -3  -1   3    3.57    0.21
  -3  -1   3    3.49    0.20
  -3  -1   3    3.69    0.20
  -3  -1   3    3.26    0.21
  -2  -1   3  228.39    5.56
  -1  -1   3    0.01    0.05
   0  -1   3   73.64    1.80
   2  -1   3  428.69   10.45
  -3   1  -3    1.77    0.11
   3  -1   3    1.53    0.12
  -4   1  -3  120.06    2.88
  -4   1  -3  121.42    2.88
  -4   1  -3  113.53    2.92
   4  -1   3  112.42    2.91
  -5   1  -3    7.00    0.27
  -5   1  -3    7.25    0.31
  -5   1  -3    7.05    0.27
  -5   1  -3    7.78    0.30
  -5   1  -3    6.96    0.28
  -5   1  -3    7.63    0.33
   5  -1   3    7.11    0.33
  -6   1  -3   27.94    0.86
  -6   1  -3   29.12    0.82
  -6   1  -3   27.73    0.79
  -6   1  -3   28.68    0.87
  -6   1  -3   28.06    0.79
  -6   1  -3   28.74    0.83
   6  -1   3   27.38    0.88
  -7   1  -3    0.38    0.17
  -7   1  -3    0.06    0.11
  -7   1  -3    0.04    0.10
  -7   1  -3    0.12    0.15
  -7   1  -3   -0.01    0.12
  -7   1  -3    0.20    0.11
   7  -1   3    0.08    0.17
  -8   1  -3   13.21    0.52
  -8   1  -3   12.34    0.53
  -8   1  -3   13.16    0.58
  -8   1  -3   12.65    0.58
   8  -1   3   14.06    0.63
   8   0  -3    0.17    0.24
  -8   0   3    0.43    0.20
  -8   0   3    0.21    0.23
  -8   0   3    0.28    0.23
   7   0  -3    9.54    0.54
   7   0  -3    9.12    0.43
  -7   0   3    9.37    0.49
  -7   0   3    8.47    0.49
  -7   0   3    9.14    0.46
  -7   0   3    9.75    0.57
   6   0  -3    0.03    0.11
   6   0  -3    0.09    0.15
  -6   0   3    0.11    0.14
  -6   0   3   -0.01    0.14
  -6   0   3    0.01    0.11
  -6   0   3    0.02    0.17
   5   0  -3   63.24    1.60
   5   0  -3   56.18    1.66
  -5   0   3   61.33    1.67
  -5   0   3   62.95    1.69
  -5   0   3   62.12    1.65
  -5   0   3   59.91    1.63
   4   0  -3    3.45    0.19
   4   0  -3    3.34    0.25
  -4   0   3    3.41    0.21
  -4   0   3    3.48    0.23
  -4   0   3    3.29    0.26
  -4   0   3    3.31    0.22
   3   0  -3   62.00    1.60
   3   0  -3   61.49    1.64
  -3   0   3   60.12    1.64
  -3   0   3   64.70    1.62
  -3   0   3   63.23    1.63
  -3   0   3   64.53    1.62
  -2   0   3    5.18    0.23
  -1   0   3  147.12    3.59
   0   0   3   -0.09    0.04
   1   0   3  242.24    5.96
   2   0   3   21.61    0.57
  -3   0  -3   65.45    1.70
   3   0   3   71.44    1.73
  -4   0  -3    1.06    0.12
  -4   0  -3    1.13    0.11
  -4   0  -3    1.07    0.13
   4   0   3    0.85    0.12
  -5   0  -3   90.61    2.21
  -5   0  -3   87.44    2.22
  -5   0  -3   87.58    2.23
  -5   0  -3   86.22    2.24
   5   0   3   85.19    2.25
  -6   0  -3    3.67    0.22
  -6   0  -3    3.00    0.17
  -6   0  -3    4.00    0.28
  -6   0  -3    3.48    0.26
  -6   0  -3    3.77    0.24
   6   0   3    3.73    0.29
  -7   0  -3   28.85    0.91
  -7   0  -3   30.81    0.94
  -7   0  -3   31.00    0.90
  -7   0  -3   30.27    0.94
   7   0   3   28.76    0.97
  -8   0  -3    0.13    0.13
  -8   0  -3   -0.04    0.14
  -8   0  -3    0.04    0.18
  -8   0  -3    0.14    0.19
   8   0   3   -0.06    0.20
  -9   0  -3    5.21    0.36
  -9   0  -3    6.08    0.48
  -9   0  -3    4.94    0.37
   9   0   3    5.33    0.47
   7  -1  -3    0.37    0.16
   7  -1  -3    0.45    0.22
  -7   1   3    0.27    0.16
  -7   1   3    0.84    0.22
  -7   1   3    0.59    0.19
  -7   1   3    0.62    0.24
   6  -1  -3   15.53    0.55
   6  -1  -3   16.34    0.63
  -6   1   3   15.50    0.58
  -6   1   3   14.73    0.60
  -6   1   3   15.53    0.58
  -6   1   3   15.03    0.52
  -6   1   3   16.02    0.66
   5  -1  -3    0.41    0.14
   5  -1  -3    0.62    0.12
  -5   1   3    0.73    0.13
  -5   1   3    0.76    0.19
  -5   1   3    0.73    0.14
  -5   1   3    1.08    0.18
  -5   1   3    0.92    0.15
   4  -1  -3   43.88    1.21
   4  -1  -3   43.59    1.25
  -4   1   3   44.88    1.23
  -4   1   3   48.91    1.21
  -4   1   3   46.35    1.23
  -4   1   3   45.23    1.25
  -4   1   3   45.19    1.27
   3  -1  -3    0.39    0.10
   3  -1  -3    0.31    0.07
  -3   1   3    0.39    0.08
  -3   1   3    0.37    0.09
  -3   1   3    0.33    0.08
  -3   1   3    0.43    0.11
  -3   1   3    0.47    0.09
  -2   1   3  261.30    6.36
  -1   1   3    6.91    0.25
   0   1   3   54.24    1.36
   1   1   3    0.70    0.08
   2   1   3   67.13    1.68
   3   1   3    5.66    0.23
  -4  -1  -3  136.43    3.41
  -4  -1  -3  134.43    3.42
  -4  -1  -3  142.23    3.39
  -4  -1  -3  137.87    3.40
   4   1   3  143.12    3.42
   4   1   3  134.11    3.43
  -5  -1  -3    0.63    0.13
  -5  -1  -3    0.57    0.10
  -5  -1  -3    0.86    0.12
  -5  -1  -3    0.64    0.12
   5   1   3    0.52    0.14
  -6  -1  -3   29.09    0.79
  -6  -1  -3   29.95    0.85
  -6  -1  -3   29.44    0.87
  -6  -1  -3   29.02    0.88
  -6  -1  -3   28.43    0.87
   6   1   3   29.04    0.91
  -7  -1  -3    0.29    0.13
  -7  -1  -3    0.22    0.14
  -7  -1  -3    0.35    0.17
  -7  -1  -3    0.39    0.15
   7   1   3    0.44    0.19
  -8  -1  -3   11.00    0.53
  -8  -1  -3   10.21    0.45
  -8  -1  -3   10.48    0.50
  -8  -1  -3    9.93    0.47
   8   1   3   11.14    0.58
  -9  -1  -3    0.13    0.23
  -9  -1  -3    0.12    0.17
  -9  -1  -3   -0.15    0.16
   9   1   3    0.16    0.25
   7  -2  -3    9.79    0.56
   7  -2  -3   10.70    0.48
  -7   2   3   10.33    0.44
  -7   2   3   10.98    0.61
  -7   2   3   10.97    0.49
  -7   2   3   10.48    0.53
  -7   2   3   11.47    0.52
   6  -2  -3    0.04    0.12
   6  -2  -3   -0.10    0.15
  -6   2   3   -0.15    0.11
  -6   2   3   -0.12    0.14
  -6   2   3   -0.04    0.15
  -6   2   3   -0.03    0.12
  -6   2   3   -0.03    0.18
   5  -2  -3   53.81    1.42
   5  -2  -3   52.79    1.47
  -5   2   3   53.47    1.44
  -5   2   3   52.82    1.41
  -5   2   3   52.49    1.43
  -5   2   3   52.32    1.46
  -5   2   3   52.11    1.51
   4  -2  -3    2.40    0.18
  -4   2   3    2.16    0.24
  -4   2   3    2.49    0.21
  -4   2   3    2.37    0.19
  -4   2   3    2.30    0.19
  -4   2   3    2.24    0.17
   3  -2  -3   38.19    1.04
  -3   2   3   40.30    1.03
  -3   2   3   38.83    1.04
  -3   2   3   37.78    1.09
  -3   2   3   37.91    1.04
  -3   2   3   39.17    1.07
   2  -2  -3    2.64    0.15
  -2   2   3    2.80    0.26
  -2   2   3    2.77    0.15
  -2   2   3    2.72    0.15
  -2   2   3    2.63    0.18
  -1   2   3  311.04    7.72
   0   2   3    5.19    0.21
   1   2   3  329.42    8.13
   2   2   3    1.02    0.11
   3   2   3   23.88    0.68
  -4  -2  -3    0.79    0.12
  -4  -2  -3    0.81    0.11
  -4  -2  -3    1.02    0.11
   4   2   3    0.99    0.12
   4   2   3    0.61    0.12
  -5  -2  -3   68.18    1.77
  -5  -2  -3   68.64    1.76
  -5  -2  -3   68.81    1.73
  -5  -2  -3   67.09    1.77
   5   2   3   65.28    1.77
   5   2   3   66.37    1.79
  -6  -2  -3    1.28    0.19
  -6  -2  -3    1.60    0.18
  -6  -2  -3    1.71    0.19
  -6  -2  -3    0.86    0.13
   6   2   3    1.30    0.21
  -7  -2  -3   21.89    0.73
  -7  -2  -3   21.95    0.74
  -7  -2  -3   22.78    0.77
  -7  -2  -3   20.94    0.70
   7   2   3   23.57    0.83
  -8  -2  -3   -0.18    0.13
  -8  -2  -3   -0.04    0.16
  -8  -2  -3   -0.02    0.19
  -8  -2  -3    0.10    0.15
   8   2   3    0.16    0.22
  -9  -2  -3    3.12    0.30
  -9  -2  -3    3.54    0.39
  -9  -2  -3    3.63    0.34
   9   2   3    3.03    0.39
   7  -3  -3    0.05    0.21
   7  -3  -3    0.22    0.16
  -7   3   3    0.05    0.23
  -7   3   3    0.44    0.16
  -7   3   3    0.52    0.19
  -7   3   3    0.10    0.18
  -7   3   3    0.34    0.17
   6  -3  -3   15.13    0.57
  -6   3   3   15.47    0.56
  -6   3   3   16.07    0.56
  -6   3   3   14.84    0.61
  -6   3   3   16.71    0.69
  -6   3   3   15.61    0.59
   5  -3  -3    0.75    0.14
  -5   3   3    0.64    0.13
  -5   3   3    0.56    0.15
  -5   3   3    0.56    0.18
  -5   3   3    0.46    0.15
  -5   3   3    0.77    0.14
   4  -3  -3   22.72    0.70
   4  -3  -3   23.10    0.68
  -4   3   3   24.78    0.71
  -4   3   3   23.83    0.72
  -4   3   3   24.04    0.78
  -4   3   3   24.43    0.70
  -4   3   3   22.94    0.73
   3  -3  -3    5.10    0.23
  -3   3   3    5.23    0.29
  -3   3   3    5.29    0.24
  -3   3   3    5.16    0.23
  -3   3   3    5.38    0.26
  -3   3   3    4.96    0.22
   2  -3  -3  237.34    5.86
  -2   3   3  242.46    5.86
  -2   3   3  241.76    5.85
  -2   3   3  239.00    5.90
  -2   3   3  245.15    5.88
  -1   3   3    0.94    0.11
   0   3   3  307.93    7.68
   1   3   3    5.79    0.24
   2   3   3   96.92    2.42
   3   3   3   25.37    0.73
  -4  -3  -3  148.22    3.57
  -4  -3  -3  138.93    3.63
  -4  -3  -3  148.74    3.60
   4   3   3  144.08    3.64
   4   3   3  147.20    3.61
  -5  -3  -3    3.01    0.24
  -5  -3  -3    2.72    0.18
  -5  -3  -3    2.58    0.20
   5   3   3    2.36    0.20
   5   3   3    2.45    0.23
  -6  -3  -3   31.26    0.92
  -6  -3  -3   30.74    0.94
  -6  -3  -3   32.79    0.97
  -6  -3  -3   31.57    0.95
   6   3   3   32.13    1.01
   6   3   3   33.06    0.98
  -7  -3  -3   -0.09    0.11
  -7  -3  -3    0.08    0.14
  -7  -3  -3   -0.04    0.16
  -7  -3  -3   -0.16    0.13
   7   3   3    0.15    0.18
  -8  -3  -3    6.52    0.44
  -8  -3  -3    6.25    0.40
  -8  -3  -3    5.28    0.33
  -8  -3  -3    5.76    0.36
   8   3   3    6.80    0.51
  -9  -3  -3    0.38    0.24
  -9  -3  -3    0.15    0.16
  -9  -3  -3    0.11    0.20
   9   3   3    0.47    0.27
   9   3   3    0.01    0.20
   7  -4  -3    4.41    0.34
  -7   4   3    4.17    0.32
  -7   4   3    4.49    0.37
  -7   4   3    3.26    0.39
  -7   4   3    3.97    0.34
   6  -4  -3    0.16    0.14
  -6   4   3   -0.10    0.13
  -6   4   3    0.03    0.15
  -6   4   3    0.01    0.15
  -6   4   3    0.05    0.21
   5  -4  -3   35.93    1.04
  -5   4   3   35.79    1.06
  -5   4   3   35.01    1.11
  -5   4   3   36.30    1.04
  -5   4   3   34.53    1.01
   4  -4  -3    4.38    0.26
   4  -4  -3    4.21    0.25
  -4   4   3    3.96    0.24
  -4   4   3    4.22    0.32
  -4   4   3    4.69    0.23
  -4   4   3    4.49    0.26
  -4   4   3    4.52    0.26
   3  -4  -3   50.16    1.34
   3  -4  -3   50.44    1.32
  -3   4   3   49.90    1.33
  -3   4   3   50.23    1.39
  -3   4   3   49.79    1.35
  -3   4   3   50.58    1.32
   2  -4  -3    0.12    0.07
   2  -4  -3    0.13    0.08
  -2   4   3    0.12    0.09
  -2   4   3    0.17    0.06
  -2   4   3    0.11    0.08
  -2   4   3    0.13    0.07
   1  -4  -3   93.82    2.30
  -1   4   3   92.68    2.29
  -1   4   3   91.34    2.29
  -1   4   3   91.20    2.34
   0   4   3    3.41    0.19
   1   4   3  349.81    8.62
   2   4   3    0.23    0.10
  -3  -4  -3  171.68    4.20
  -3  -4  -3  166.53    4.23
   3   4   3  173.99    4.24
   3   4   3  172.70    4.21
  -4  -4  -3    3.88    0.21
  -4  -4  -3    4.23    0.19
  -4  -4  -3    3.83    0.24
   4   4   3    3.94    0.26
   4   4   3    3.90    0.23
  -5  -4  -3   46.85    1.32
  -5  -4  -3   49.92    1.27
  -5  -4  -3   47.29    1.29
   5   4   3   46.41    1.34
   5   4   3   45.04    1.30
  -6  -4  -3    0.11    0.11
  -6  -4  -3    0.21    0.13
  -6  -4  -3    0.15    0.13
   6   4   3    0.11    0.13
   6   4   3    0.33    0.18
  -7  -4  -3   33.33    1.02
  -7  -4  -3   34.34    1.03
  -7  -4  -3   30.30    0.96
   7   4   3   31.90    1.04
   7   4   3   34.76    1.10
  -8  -4  -3   -0.05    0.19
  -8  -4  -3   -0.08    0.15
  -8  -4  -3   -0.21    0.16
   8   4   3   -0.14    0.17
   8   4   3    0.22    0.22
  -9  -4  -3    4.43    0.35
  -9  -4  -3    4.12    0.38
   9   4   3    5.74    0.50
   9   4   3    4.32    0.40
   6  -5  -3    9.00    0.44
  -6   5   3   10.27    0.55
  -6   5   3    8.12    0.45
  -6   5   3    8.85    0.43
  -6   5   3    8.26    0.45
   5  -5  -3    1.33    0.20
   5  -5  -3    1.38    0.18
  -5   5   3    1.21    0.19
  -5   5   3    1.42    0.19
  -5   5   3    1.26    0.20
  -5   5   3    1.37    0.24
   4  -5  -3   27.78    0.83
   4  -5  -3   26.97    0.84
  -4   5   3   28.17    0.82
  -4   5   3   27.35    0.83
  -4   5   3   27.30    0.84
  -4   5   3   28.49    0.91
   3  -5  -3    3.32    0.23
   3  -5  -3    3.49    0.23
  -3   5   3    3.31    0.23
  -3   5   3    3.45    0.27
  -3   5   3    2.92    0.22
  -3   5   3    3.38    0.21
   2  -5  -3   92.81    2.29
   2  -5  -3   90.67    2.29
  -2   5   3   91.76    2.29
  -2   5   3   88.26    2.32
  -2   5   3   87.60    2.27
  -2   5   3   89.41    2.27
   1  -5  -3    2.51    0.18
   1  -5  -3    2.43    0.15
  -1   5   3    2.84    0.16
  -1   5   3    2.60    0.19
  -1   5   3    2.52    0.15
  -1   5   3    2.67    0.21
   0  -5  -3   73.61    1.91
   0  -5  -3   76.89    1.88
   0   5   3   74.90    1.92
   0   5   3   73.29    1.87
  -1  -5  -3    7.68    0.30
  -2  -5  -3  129.17    3.31
   2   5   3  135.52    3.31
   2   5   3  133.64    3.32
  -3  -5  -3    0.26    0.09
  -3  -5  -3    0.19    0.08
   3   5   3    0.26    0.09
   3   5   3    0.36    0.13
  -4  -5  -3  154.38    3.82
  -4  -5  -3  149.34    3.78
  -4  -5  -3  153.12    3.74
   4   5   3  152.43    3.80
   4   5   3  151.11    3.83
  -5  -5  -3    0.02    0.07
  -5  -5  -3    0.00    0.10
  -5  -5  -3    0.13    0.12
   5   5   3    0.11    0.10
   5   5   3    0.00    0.14
  -6  -5  -3   28.54    0.93
  -6  -5  -3   29.23    0.90
  -6  -5  -3   29.49    0.87
   6   5   3   30.40    0.97
   6   5   3   28.71    0.93
  -7  -5  -3    0.12    0.16
  -7  -5  -3    0.13    0.14
  -7  -5  -3    0.03    0.13
   7   5   3    0.27    0.16
   7   5   3    0.31    0.21
  -8  -5  -3   10.58    0.52
  -8  -5  -3   10.07    0.47
   8   5   3    9.78    0.53
   8   5   3   11.24    0.62
  -9  -5  -3   -0.14    0.21
  -9  -5  -3    0.03    0.16
   9   5   3   -0.02    0.25
   9   5   3    0.08    0.20
   6  -6  -3    0.48    0.20
  -6   6   3   -0.02    0.18
  -6   6   3    0.18    0.16
  -6   6   3    0.27    0.23
   5  -6  -3   18.60    0.67
   5  -6  -3   19.49    0.68
  -5   6   3   18.51    0.67
  -5   6   3   18.72    0.65
  -5   6   3   17.54    0.65
  -5   6   3   19.58    0.74
   4  -6  -3    0.70    0.16
   4  -6  -3    0.30    0.15
  -4   6   3    0.49    0.19
  -4   6   3    0.61    0.15
  -4   6   3    0.71    0.15
  -4   6   3    0.63    0.15
   3  -6  -3   62.41    1.70
   3  -6  -3   63.71    1.70
  -3   6   3   64.74    1.75
  -3   6   3   64.17    1.69
  -3   6   3   62.50    1.68
  -3   6   3   65.03    1.69
   2  -6  -3    7.81    0.35
  -2   6   3    7.92    0.38
  -2   6   3    7.80    0.33
  -2   6   3    7.96    0.32
  -2   6   3    8.03    0.32
   1  -6  -3   31.72    0.91
  -1   6   3   31.79    0.90
  -1   6   3   32.30    0.94
  -1   6   3   31.40    0.87
  -1   6   3   31.49    0.87
   0  -6  -3    0.20    0.09
   0   6   3    0.05    0.10
   0   6   3    0.11    0.06
   0   6   3    0.22    0.09
   0   6   3    0.08    0.07
  -1  -6  -3   96.83    2.49
   1   6   3   99.59    2.48
   1   6   3   97.96    2.51
  -2  -6  -3    9.62    0.38
   2   6   3    9.58    0.40
   2   6   3   10.14    0.37
  -3  -6  -3  146.15    3.54
  -3  -6  -3  138.70    3.62
   3   6   3  147.21    3.61
   3   6   3  146.39    3.65
  -4  -6  -3    8.47    0.31
  -4  -6  -3    7.67    0.34
  -4  -6  -3    8.07    0.37
   4   6   3    8.43    0.37
   4   6   3    8.29    0.41
  -5  -6  -3   16.95    0.55
  -5  -6  -3   16.84    0.62
  -5  -6  -3   17.53    0.59
   5   6   3   16.82    0.65
   5   6   3   16.97    0.61
  -6  -6  -3    0.53    0.14
  -6  -6  -3    0.78    0.18
  -6  -6  -3    0.91    0.19
   6   6   3    0.73    0.19
   6   6   3    1.10    0.25
  -7  -6  -3   20.78    0.70
  -7  -6  -3   20.32    0.74
  -7  -6  -3   19.61    0.75
   7   6   3   20.92    0.83
   7   6   3   21.37    0.77
  -8  -6  -3    0.11    0.16
  -8  -6  -3    0.61    0.22
   8   6   3    0.32    0.25
   8   6   3    0.02    0.16
  -9  -6  -3    5.48    0.44
  -9  -6  -3    5.69    0.38
   9   6   3    5.72    0.54
   9   6   3    6.80    0.49
   5  -7  -3   -0.10    0.17
   5  -7  -3    0.03    0.18
  -5   7   3    0.14    0.16
  -5   7   3    0.01    0.13
  -5   7   3    0.09    0.20
   4  -7  -3   17.59    0.66
   4  -7  -3   20.23    0.70
  -4   7   3   18.74    0.73
  -4   7   3   19.48    0.68
  -4   7   3   20.62    0.67
   3  -7  -3    0.31    0.15
  -3   7   3    0.39    0.13
  -3   7   3    0.18    0.13
  -3   7   3    0.41    0.16
   2  -7  -3   71.96    1.90
  -2   7   3   71.89    1.86
  -2   7   3   69.94    1.92
  -2   7   3   71.13    1.86
   1  -7  -3    0.37    0.13
  -1   7   3    0.22    0.14
  -1   7   3    0.46    0.11
  -1   7   3    0.27    0.09
   0  -7  -3   86.72    2.24
   0   7   3   85.32    2.25
   0   7   3   86.56    2.17
   0   7   3   86.13    2.17
  -1  -7  -3    1.45    0.18
   1   7   3    1.59    0.13
   1   7   3    1.68    0.20
   1   7   3    1.52    0.12
   1   7   3    1.62    0.17
  -2  -7  -3   41.08    1.17
   2   7   3   43.86    1.09
   2   7   3   40.98    1.15
   2   7   3   40.48    1.19
  -3  -7  -3    0.14    0.12
  -3  -7  -3    0.05    0.06
   3   7   3    0.31    0.11
   3   7   3    0.21    0.15
  -4  -7  -3   57.87    1.62
  -4  -7  -3   60.11    1.54
  -4  -7  -3   60.20    1.60
   4   7   3   59.62    1.62
   4   7   3   58.66    1.67
  -5  -7  -3    1.06    0.14
  -5  -7  -3    1.27    0.20
  -5  -7  -3    1.21    0.20
   5   7   3    1.05    0.18
   5   7   3    1.25    0.24
  -6  -7  -3   20.83    0.76
  -6  -7  -3   21.43    0.73
  -6  -7  -3   21.66    0.69
   6   7   3   20.50    0.80
   6   7   3   21.40    0.76
  -7  -7  -3    0.21    0.18
  -7  -7  -3    0.33    0.21
  -7  -7  -3    0.20    0.13
   7   7   3    0.30    0.19
   7   7   3    0.42    0.23
  -8  -7  -3    4.93    0.35
  -8  -7  -3    4.23    0.37
   8   7   3    5.45    0.51
   8   7   3    4.05    0.38
   5  -8  -3    9.15    0.50
   5  -8  -3    7.68    0.47
  -5   8   3    8.46    0.45
  -5   8   3    9.10    0.54
  -5   8   3    9.47    0.48
   4  -8  -3    0.24    0.18
   4  -8  -3    0.26    0.18
  -4   8   3    0.46    0.16
  -4   8   3    0.32    0.17
  -4   8   3    0.47    0.20
   3  -8  -3   26.69    0.89
  -3   8   3   27.27    0.90
  -3   8   3   27.46    0.85
  -3   8   3   26.39    0.84
   2  -8  -3    0.31    0.15
  -2   8   3    0.16    0.15
  -2   8   3    0.05    0.10
  -2   8   3    0.11    0.12
   1  -8  -3   49.23    1.37
  -1   8   3   49.99    1.31
  -1   8   3   46.58    1.30
  -1   8   3   46.96    1.37
   0  -8  -3    0.48    0.15
   0   8   3    0.37    0.10
   0   8   3    0.68    0.18
   0   8   3    0.70    0.14
   0   8   3    0.65    0.12
  -1  -8  -3   62.98    1.70
   1   8   3   62.61    1.60
   1   8   3   62.63    1.61
   1   8   3   61.22    1.70
  -2  -8  -3    2.06    0.22
   2   8   3    1.76    0.13
   2   8   3    1.63    0.21
   2   8   3    1.68    0.18
   2   8   3    1.89    0.15
  -3  -8  -3   64.98    1.76
   3   8   3   64.12    1.73
   3   8   3   66.04    1.65
   3   8   3   63.07    1.78
  -4  -8  -3    0.79    0.11
  -4  -8  -3    0.69    0.18
   4   8   3    0.62    0.16
   4   8   3    0.72    0.22
  -5  -8  -3   20.74    0.71
  -5  -8  -3   19.25    0.63
  -5  -8  -3   20.39    0.74
   5   8   3   20.56    0.73
   5   8   3   21.07    0.79
  -6  -8  -3    0.19    0.16
  -6  -8  -3   -0.18    0.17
  -6  -8  -3   -0.10    0.11
   6   8   3   -0.01    0.21
   6   8   3    0.22    0.16
  -7  -8  -3   12.37    0.50
  -7  -8  -3   11.43    0.56
  -7  -8  -3   12.43    0.61
   7   8   3   11.42    0.57
   7   8   3   11.82    0.66
  -8  -8  -3    0.21    0.18
  -8  -8  -3   -0.06    0.22
   8   8   3   -0.10    0.19
   8   8   3   -0.36    0.26
   4  -9  -3    6.18    0.42
   4  -9  -3    6.77    0.46
  -4   9   3    6.61    0.46
  -4   9   3    6.60    0.40
  -4   9   3    6.13    0.41
   3  -9  -3    0.31    0.20
  -3   9   3    0.34    0.15
  -3   9   3    0.49    0.20
  -3   9   3    0.27    0.15
   2  -9  -3   13.36    0.58
  -2   9   3   14.37    0.53
  -2   9   3   13.92    0.59
  -2   9   3   12.94    0.52
   1  -9  -3    0.07    0.15
  -1   9   3    0.16    0.12
  -1   9   3   -0.04    0.10
  -1   9   3    0.21    0.16
   0  -9  -3   61.22    1.68
   0   9   3   58.62    1.59
   0   9   3   59.16    1.68
   0   9   3   61.47    1.60
  -1  -9  -3    1.11    0.19
   1   9   3    0.93    0.14
   1   9   3    1.18    0.19
   1   9   3    0.74    0.20
   1   9   3    0.93    0.12
  -2  -9  -3   29.74    0.94
   2   9   3   30.50    0.84
   2   9   3   28.31    0.94
   2   9   3   29.31    0.81
   2   9   3   28.92    0.89
  -3  -9  -3    3.56    0.31
   3   9   3    3.13    0.26
   3   9   3    3.22    0.21
   3   9   3    3.05    0.31
  -4  -9  -3   30.31    0.98
   4   9   3   29.77    0.95
   4   9   3   30.06    1.02
  -5  -9  -3    0.34    0.12
  -5  -9  -3    0.51    0.18
  -5  -9  -3    0.23    0.19
   5   9   3    0.52    0.18
   5   9   3    0.33    0.24
  -6  -9  -3   23.72    0.85
  -6  -9  -3   25.85    0.91
  -6  -9  -3   23.53    0.77
   6   9   3   24.01    0.88
   6   9   3   25.74    0.97
  -7  -9  -3    0.25    0.17
  -7  -9  -3    0.08    0.22
  -7  -9  -3    0.27    0.22
   7   9   3    0.55    0.30
   7   9   3    0.57    0.23
   3 -10  -3    9.14    0.55
  -3  10   3    8.77    0.44
  -3  10   3    9.49    0.49
   2 -10  -3    0.34    0.21
  -2  10   3    0.16    0.13
  -2  10   3    0.26    0.16
  -2  10   3   -0.12    0.18
   1 -10  -3   12.31    0.57
  -1  10   3   12.88    0.50
  -1  10   3   11.60    0.48
  -1  10   3   12.70    0.56
   0 -10  -3    0.45    0.20
   0  10   3    0.37    0.13
   0  10   3    0.31    0.18
   0  10   3    0.21    0.13
  -1 -10  -3   25.58    0.87
   1  10   3   25.19    0.88
   1  10   3   24.53    0.74
   1  10   3   24.55    0.77
  -2 -10  -3    0.03    0.16
   2  10   3    0.06    0.11
   2  10   3   -0.05    0.17
  -3 -10  -3   31.66    1.03
   3  10   3   29.94    1.04
   3  10   3   32.58    0.91
  -4 -10  -3    0.26    0.19
   4  10   3    0.09    0.15
   4  10   3   -0.06    0.21
  -5 -10  -3   11.44    0.58
   5  10   3   11.47    0.65
   5  10   3   10.62    0.53
  -6 -10  -3   -0.10    0.13
  -6 -10  -3   -0.23    0.21
  -6 -10  -3   -0.05    0.19
   6  10   3    0.16    0.26
   6  10   3    0.13    0.20
  -7 -10  -3    7.57    0.49
  -7 -10  -3    7.34    0.42
  -7 -10  -3    6.71    0.52
   7  10   3    8.69    0.53
   7  10   3    7.13    0.62
   2 -11  -3    7.78    0.52
  -2  11   3    7.66    0.44
  -2  11   3    7.82    0.43
   1 -11  -3   -0.05    0.20
  -1  11   3   -0.13    0.12
  -1  11   3    0.18    0.16
   0 -11  -3   17.45    0.72
   0  11   3   18.27    0.64
   0  11   3   16.38    0.60
   0  11   3   17.26    0.71
  -1 -11  -3    1.17    0.23
   1  11   3    1.73    0.28
   1  11   3    1.48    0.18
   1  11   3    1.04    0.17
  -2 -11  -3   13.98    0.64
   2  11   3   13.83    0.65
   2  11   3   13.80    0.52
  -3 -11  -3    1.17    0.27
   3  11   3    0.81    0.25
  -4 -11  -3    9.42    0.53
   4  11   3    7.86    0.47
   4  11   3    8.18    0.55
  -5 -11  -3    0.16    0.23
   5  11   3    0.00    0.24
   5  11   3   -0.19    0.18
  -6 -11  -3    7.00    0.53
   6  11   3    7.30    0.59
   0 -12  -3    0.24    0.22
   0  12   3    0.11    0.16
   0  12   3    0.01    0.14
  -1 -12  -3    7.80    0.53
   1  12   3    7.99    0.42
   1  12   3    8.33    0.43
  -2 -12  -3   -0.05    0.22
   2  12   3   -0.01    0.23
   2  12   3   -0.13    0.13
  -3 -12  -3   14.44    0.70
   3  12   3   13.33    0.68
  -4 -12  -3    1.03    0.28
   4  12   3    1.53    0.33
   1  11  -4    2.45    0.35
   1  11  -4    3.00    0.28
  -1 -11   4    2.83    0.34
   4  10  -4    5.01    0.45
   3  10  -4   -0.24    0.22
   2  10  -4    5.80    0.46
  -2 -10   4    6.12    0.43
   1  10  -4    0.09    0.14
   1  10  -4    0.06    0.21
  -1 -10   4   -0.05    0.18
   0  10  -4    8.72    0.44
   0  10  -4    8.90    0.54
   0 -10   4    9.04    0.50
  -1  10  -4   -0.01    0.15
  -1  10  -4   -0.12    0.19
   1 -10   4    0.14    0.20
  -2  10  -4    5.84    0.41
  -2  10  -4    5.61    0.42
   2 -10   4    6.23    0.46
   5   9  -4    5.05    0.45
  -5  -9   4    5.24    0.37
   4   9  -4    0.04    0.23
  -4  -9   4    0.04    0.14
   3   9  -4   14.69    0.69
   2   9  -4    0.05    0.21
   2   9  -4   -0.03    0.12
  -2  -9   4    0.21    0.18
   1   9  -4   17.54    0.62
   1   9  -4   17.07    0.73
  -1  -9   4   17.88    0.66
   0   9  -4    0.03    0.13
   0   9  -4    0.20    0.18
   0  -9   4   -0.21    0.15
  -1   9  -4   14.10    0.61
  -1   9  -4   13.27    0.55
   1  -9   4   13.58    0.59
  -2   9  -4    0.12    0.16
  -2   9  -4    0.09    0.18
  -2   9  -4   -0.04    0.15
   2  -9   4   -0.03    0.17
  -3   9  -4    9.54    0.52
  -3   9  -4   10.23    0.50
  -3   9  -4    8.83    0.51
   3  -9   4    9.57    0.54
  -4   9  -4   -0.03    0.20
  -4   9  -4   -0.14    0.18
  -4   9  -4    0.16    0.17
   4  -9   4    0.22    0.22
   6   8  -4    8.04    0.62
  -6  -8   4    7.09    0.46
  -6  -8   4    7.66    0.46
   5   8  -4   -0.10    0.23
   5   8  -4   -0.13    0.20
  -5  -8   4   -0.25    0.15
  -5  -8   4    0.05    0.16
   4   8  -4   13.27    0.65
  -4  -8   4   11.99    0.51
   3   8  -4    0.62    0.23
  -3  -8   4    0.52    0.14
   2   8  -4   18.94    0.75
   2   8  -4   18.65    0.62
  -2  -8   4   19.11    0.65
   1   8  -4    0.68    0.21
   1   8  -4    0.16    0.12
  -1  -8   4    0.14    0.14
   0   8  -4   56.92    1.54
   0   8  -4   56.62    1.61
   0  -8   4   54.61    1.56
  -1   8  -4    0.13    0.12
  -1   8  -4    0.14    0.14
  -1   8  -4   -0.10    0.14
   1  -8   4   -0.04    0.15
  -2   8  -4   14.66    0.57
  -2   8  -4   14.60    0.60
  -2   8  -4   14.23    0.58
   2  -8   4   14.75    0.60
  -3   8  -4    1.19    0.19
  -3   8  -4    1.18    0.21
  -3   8  -4    1.28    0.25
   3  -8   4    1.40    0.24
  -4   8  -4    9.03    0.50
  -4   8  -4    8.62    0.48
  -4   8  -4    8.66    0.46
   4  -8   4    8.94    0.53
  -5   8  -4    0.30    0.19
  -5   8  -4   -0.31    0.19
  -5   8  -4    0.20    0.17
   5  -8   4   -0.03    0.23
   6   7  -4    0.10    0.25
   6   7  -4    0.26    0.24
  -6  -7   4    0.09    0.17
  -6  -7   4    0.18    0.19
  -6  -7   4    0.03    0.22
   5   7  -4    6.68    0.45
   5   7  -4    7.56    0.52
  -5  -7   4    6.36    0.38
  -5  -7   4    6.86    0.44
  -5  -7   4    6.09    0.39
   4   7  -4    0.33    0.19
   4   7  -4    0.29    0.22
  -4  -7   4    0.41    0.15
  -4  -7   4    0.24    0.15
  -4  -7   4    0.60    0.16
   3   7  -4   33.87    1.01
   3   7  -4   34.79    0.94
   3   7  -4   31.66    1.08
  -3  -7   4   33.17    0.97
  -3  -7   4   30.82    1.09
   2   7  -4    1.38    0.16
   2   7  -4    1.46    0.25
  -2  -7   4    1.45    0.16
   1   7  -4   40.63    1.14
   1   7  -4   40.90    1.24
  -1  -7   4   39.76    1.15
  -1  -7   4   41.83    1.12
   0   7  -4    0.17    0.11
   0   7  -4    0.09    0.12
   0   7  -4    0.19    0.14
   0  -7   4    0.32    0.14
  -1   7  -4   30.44    0.94
  -1   7  -4   31.51    0.94
  -1   7  -4   31.05    0.97
   1  -7   4   32.86    0.96
  -2   7  -4    0.18    0.11
  -2   7  -4    0.03    0.12
  -2   7  -4   -0.10    0.13
   2  -7   4   -0.05    0.13
  -3   7  -4   21.87    0.74
  -3   7  -4   23.41    0.76
  -3   7  -4   22.43    0.76
   3  -7   4   20.90    0.77
  -4   7  -4    2.20    0.24
  -4   7  -4    1.71    0.24
  -4   7  -4    1.75    0.22
   4  -7   4    2.66    0.29
  -5   7  -4   10.64    0.54
  -5   7  -4   10.40    0.49
  -5   7  -4    9.78    0.48
   5  -7   4    9.72    0.55
  -6   7  -4    0.44    0.19
  -6   7  -4    0.47    0.20
  -6   7  -4    0.68    0.24
   6  -7   4    0.60    0.25
   7   6  -4    0.07    0.25
  -7  -6   4    0.13    0.22
  -7  -6   4    0.18    0.22
   6   6  -4    9.19    0.56
   6   6  -4    9.18    0.58
  -6  -6   4    8.70    0.49
  -6  -6   4    9.68    0.53
  -6  -6   4    8.75    0.49
   5   6  -4    0.20    0.18
   5   6  -4   -0.16    0.19
  -5  -6   4    0.13    0.16
  -5  -6   4    0.10    0.16
  -5  -6   4    0.39    0.17
   4   6  -4   30.29    0.97
   4   6  -4   30.48    1.04
  -4  -6   4   30.85    0.92
  -4  -6   4   30.06    0.93
  -4  -6   4   29.25    0.93
   3   6  -4    0.41    0.11
   3   6  -4    0.52    0.20
   3   6  -4    0.29    0.14
  -3  -6   4    0.34    0.12
  -3  -6   4    0.34    0.13
  -3  -6   4    0.40    0.12
   2   6  -4   12.15    0.47
   2   6  -4   13.69    0.57
   2   6  -4   13.04    0.45
  -2  -6   4   12.55    0.44
  -2  -6   4   12.68    0.43
  -2  -6   4   12.58    0.44
   1   6  -4    1.51    0.15
   1   6  -4    2.14    0.25
  -1  -6   4    1.69    0.17
  -1  -6   4    1.75    0.15
   0   6  -4   48.16    1.34
   0   6  -4   46.22    1.27
   0   6  -4   46.72    1.28
   0  -6   4   46.44    1.28
   0  -6   4   46.54    1.24
  -1   6  -4    0.03    0.10
  -1   6  -4   -0.15    0.11
  -1   6  -4   -0.03    0.09
   1  -6   4   -0.01    0.10
  -2   6  -4   40.18    1.14
  -2   6  -4   40.45    1.14
  -2   6  -4   38.31    1.13
   2  -6   4   41.46    1.16
  -3   6  -4    1.68    0.19
  -3   6  -4    1.98    0.22
  -3   6  -4    1.80    0.19
   3  -6   4    2.13    0.24
  -4   6  -4   19.18    0.66
  -4   6  -4   19.65    0.69
  -4   6  -4   20.23    0.67
   4  -6   4   19.60    0.72
  -5   6  -4    1.36    0.24
  -5   6  -4    0.86    0.17
  -5   6  -4    1.08    0.18
   5  -6   4    0.68    0.21
  -6   6  -4    8.42    0.45
  -6   6  -4    9.88    0.47
  -6   6  -4    8.94    0.51
   6  -6   4    9.41    0.54
   7   5  -4    9.23    0.64
   7   5  -4    9.33    0.62
  -7  -5   4    9.18    0.58
  -7  -5   4    8.94    0.52
  -7  -5   4    8.32    0.52
   6   5  -4    0.01    0.21
   6   5  -4    0.13    0.23
  -6  -5   4   -0.05    0.15
  -6  -5   4    0.17    0.21
  -6  -5   4   -0.18    0.17
   5   5  -4    7.54    0.45
   5   5  -4    7.44    0.49
  -5  -5   4    8.63    0.44
  -5  -5   4    7.10    0.40
  -5  -5   4    7.08    0.39
   4   5  -4    0.40    0.17
   4   5  -4    0.50    0.19
   4   5  -4    0.44    0.12
  -4  -5   4    0.25    0.13
  -4  -5   4    0.24    0.13
  -4  -5   4    0.34    0.15
   3   5  -4   45.31    1.28
   3   5  -4   43.84    1.36
   3   5  -4   46.97    1.25
  -3  -5   4   44.93    1.26
  -3  -5   4   47.75    1.28
  -3  -5   4   46.47    1.26
   2   5  -4    0.66    0.11
   2   5  -4    0.46    0.12
   2   5  -4    0.48    0.17
  -2  -5   4    0.43    0.10
  -2  -5   4    0.56    0.11
  -2  -5   4    0.45    0.10
   1   5  -4   50.03    1.45
   1   5  -4   50.27    1.33
   1   5  -4   51.17    1.37
  -1  -5   4   53.54    1.34
   0   5  -4    3.59    0.22
   0   5  -4    2.99    0.19
   0   5  -4    3.94    0.28
   0  -5   4    3.24    0.21
  -1   5  -4   26.99    0.77
  -1   5  -4   24.94    0.75
  -1   5  -4   25.34    0.79
   1  -5   4   25.90    0.77
  -2   5  -4    0.07    0.09
  -2   5  -4   -0.01    0.09
  -2   5  -4   -0.05    0.09
   2  -5   4   -0.08    0.10
  -3   5  -4   58.90    1.60
  -3   5  -4   60.30    1.62
  -3   5  -4   61.48    1.61
   3  -5   4   60.44    1.64
  -4   5  -4    0.25    0.12
  -4   5  -4    0.18    0.15
  -4   5  -4    0.15    0.11
  -5   5  -4   18.17    0.67
  -5   5  -4   17.92    0.62
  -5   5  -4   17.63    0.61
  -6   5  -4    0.71    0.18
  -6   5  -4    0.48    0.21
  -6   5  -4    0.29    0.15
   6  -5   4    0.28    0.20
  -7   5  -4    4.93    0.37
  -7   5  -4    5.01    0.34
  -7   5  -4    5.29    0.42
   7  -5   4    4.45    0.41
   7   4  -4    0.10    0.24
   7   4  -4    0.09    0.26
  -7  -4   4    0.23    0.21
  -7  -4   4   -0.14    0.16
  -7  -4   4    0.07    0.23
   6   4  -4   14.75    0.68
   6   4  -4   14.62    0.68
  -6  -4   4   14.01    0.60
  -6  -4   4   12.47    0.61
  -6  -4   4   12.64    0.56
   5   4  -4    0.52    0.21
   5   4  -4    0.52    0.19
  -5  -4   4    0.38    0.15
  -5  -4   4    0.41    0.16
  -5  -4   4    0.44    0.17
   4   4  -4   55.45    1.42
   4   4  -4   48.58    1.51
  -4  -4   4   53.34    1.44
  -4  -4   4   50.98    1.44
  -4  -4   4   52.45    1.45
   3   4  -4    0.17    0.15
   3   4  -4    0.00    0.11
   3   4  -4    0.26    0.10
  -3  -4   4    0.28    0.11
  -3  -4   4    0.30    0.11
  -3  -4   4    0.18    0.10
   2   4  -4   46.36    1.37
   2   4  -4   49.50    1.28
  -2  -4   4   47.22    1.25
  -2  -4   4   47.84    1.27
  -2  -4   4   45.92    1.25
   1   4  -4    0.33    0.09
   1   4  -4    0.69    0.16
   1   4  -4    0.44    0.09
  -1  -4   4    0.41    0.08
  -1  -4   4    0.44    0.08
   0   4  -4  127.84    3.25
   0   4  -4  133.60    3.30
  -1   4  -4    1.72    0.15
  -1   4  -4    1.88    0.16
  -1   4  -4    1.68    0.17
   1  -4   4    1.20    0.13
  -2   4  -4   88.33    2.24
  -2   4  -4   87.19    2.24
  -2   4  -4   87.95    2.24
  -3   4  -4    0.07    0.09
  -3   4  -4   -0.03    0.10
  -3   4  -4    0.09    0.09
  -4   4  -4   37.34    0.96
  -4   4  -4   36.88    1.02
  -4   4  -4   34.15    1.04
  -4   4  -4   35.63    1.00
   4  -4   4   35.86    0.96
  -5   4  -4    1.12    0.15
  -5   4  -4    1.71    0.21
  -5   4  -4    1.16    0.14
  -6   4  -4    8.43    0.38
  -6   4  -4    9.81    0.48
  -6   4  -4    9.79    0.41
  -7   4  -4    0.36    0.14
  -7   4  -4    0.86    0.23
  -7   4  -4    0.21    0.15
   7   3  -4   17.79    0.82
   7   3  -4   17.23    0.82
  -7  -3   4   17.32    0.76
  -7  -3   4   15.75    0.68
  -7  -3   4   16.39    0.71
   6   3  -4    0.32    0.22
  -6  -3   4    0.28    0.18
  -6  -3   4    0.31    0.15
  -6  -3   4    0.31    0.21
   5   3  -4   17.13    0.70
   5   3  -4   17.47    0.60
  -5  -3   4   17.06    0.63
  -5  -3   4   16.66    0.62
  -5  -3   4   17.55    0.65
   4   3  -4    0.06    0.11
   4   3  -4   -0.16    0.14
  -4  -3   4    0.39    0.15
  -4  -3   4    0.23    0.13
  -4  -3   4    0.12    0.11
   3   3  -4   59.67    1.55
   3   3  -4   56.37    1.63
  -3  -3   4   59.06    1.54
  -3  -3   4   57.21    1.54
  -3  -3   4   58.17    1.55
   2   3  -4   -0.02    0.07
   2   3  -4   -0.06    0.10
  -2  -3   4    0.06    0.08
  -2  -3   4    0.05    0.07
  -2  -3   4   -0.03    0.07
   1   3  -4  305.25    7.25
   1   3  -4  285.49    7.31
  -1  -3   4  289.18    7.23
  -1  -3   4  311.75    7.23
   0   3  -4    0.07    0.05
   0   3  -4    0.03    0.09
   0   3  -4   -0.01    0.06
   0  -3   4    0.01    0.04
  -1   3  -4  111.87    2.84
  -1   3  -4  114.61    2.83
  -2   3  -4    7.12    0.29
  -2   3  -4    7.40    0.29
  -2   3  -4    7.38    0.29
  -3   3  -4   75.33    1.87
  -3   3  -4   72.18    1.89
  -3   3  -4   76.29    1.89
   3  -3   4   70.19    1.80
  -4   3  -4   -0.03    0.10
  -4   3  -4    0.05    0.05
  -4   3  -4   -0.09    0.08
  -4   3  -4    0.02    0.08
  -4   3  -4    0.04    0.06
   4  -3   4   -0.06    0.07
   4  -3   4    0.03    0.07
  -5   3  -4   49.36    1.32
  -5   3  -4   47.20    1.37
  -5   3  -4   48.73    1.31
  -5   3  -4   51.16    1.29
   5  -3   4   50.51    1.30
   5  -3   4   47.93    1.33
  -6   3  -4   -0.02    0.15
  -6   3  -4    0.10    0.10
  -6   3  -4    0.04    0.11
  -6   3  -4    0.02    0.10
   6  -3   4    0.04    0.10
  -7   3  -4    7.21    0.36
  -7   3  -4    6.89    0.45
  -7   3  -4    7.69    0.36
  -7   3  -4    6.66    0.34
   7  -3   4    7.76    0.36
  -8   3  -4    0.22    0.14
  -8   3  -4    0.52    0.25
  -8   3  -4    0.30    0.22
   7   2  -4    0.39    0.26
  -7  -2   4    1.06    0.24
  -7  -2   4    1.06    0.27
  -7  -2   4    0.83    0.24
   6   2  -4   16.13    0.73
  -6  -2   4   17.76    0.66
  -6  -2   4   17.43    0.71
  -6  -2   4   16.97    0.67
   5   2  -4    0.76    0.15
   5   2  -4    0.76    0.21
  -5  -2   4    0.76    0.16
  -5  -2   4    1.02    0.19
  -5  -2   4    1.14    0.21
   4   2  -4   73.21    2.01
   4   2  -4   69.15    1.90
  -4  -2   4   74.86    1.93
  -4  -2   4   71.76    1.93
  -4  -2   4   74.76    1.93
   3   2  -4    0.03    0.12
   3   2  -4    0.10    0.08
  -3  -2   4    0.04    0.08
  -3  -2   4    0.07    0.09
  -3  -2   4    0.09    0.07
   2   2  -4   61.74    1.67
   2   2  -4   63.03    1.72
  -2  -2   4   62.98    1.63
  -2  -2   4   63.78    1.64
  -2  -2   4   65.67    1.64
   1   2  -4    1.50    0.18
  -1  -2   4    1.56    0.12
   0  -2   4  228.47    5.59
  -2   2  -4  185.90    4.60
  -2   2  -4  190.34    4.60
  -3   2  -4   20.71    0.63
  -3   2  -4   22.58    0.62
   3  -2   4   19.96    0.56
  -4   2  -4   73.40    2.00
  -4   2  -4   78.83    1.95
  -4   2  -4   76.79    1.94
  -4   2  -4   80.17    1.97
  -4   2  -4   79.64    1.95
   4  -2   4   78.40    1.95
   4  -2   4   75.65    1.95
  -5   2  -4    0.56    0.10
  -5   2  -4    0.35    0.10
  -5   2  -4    0.44    0.10
  -5   2  -4    0.81    0.16
  -5   2  -4    0.80    0.11
  -5   2  -4    0.39    0.11
   5  -2   4    0.60    0.13
   5  -2   4    0.90    0.11
   5  -2   4    0.47    0.11
  -6   2  -4   33.27    0.93
  -6   2  -4   32.30    0.95
  -6   2  -4   33.97    1.02
  -6   2  -4   33.67    0.94
  -6   2  -4   34.12    0.95
   6  -2   4   34.34    1.00
   6  -2   4   33.35    0.95
   6  -2   4   34.48    0.97
  -7   2  -4    0.00    0.14
  -7   2  -4    0.01    0.10
  -7   2  -4    0.06    0.12
  -7   2  -4    0.41    0.19
  -7   2  -4   -0.14    0.11
   7  -2   4    0.14    0.15
  -8   2  -4    8.43    0.40
  -8   2  -4    9.51    0.55
  -8   2  -4    9.18    0.41
   7   1  -4   16.57    0.76
  -7  -1   4   14.30    0.67
  -7  -1   4   15.91    0.71
  -7  -1   4   14.59    0.64
   6   1  -4    0.67    0.15
   6   1  -4    0.70    0.22
  -6  -1   4    0.34    0.18
  -6  -1   4    0.75    0.23
  -6  -1   4    0.40    0.17
   5   1  -4   25.11    0.76
   5   1  -4   23.00    0.85
  -5  -1   4   24.21    0.81
  -5  -1   4   23.49    0.78
  -5  -1   4   25.38    0.82
  -5  -1   4   25.51    0.84
   4   1  -4    2.96    0.22
   4   1  -4    3.01    0.29
  -4  -1   4    2.38    0.23
  -4  -1   4    3.06    0.22
  -4  -1   4    3.10    0.24
   3   1  -4   34.45    0.98
   3   1  -4   34.24    1.04
  -3  -1   4   35.17    0.99
  -3  -1   4   35.21    0.98
  -3  -1   4   35.43    0.98
   2   1  -4   -0.06    0.06
   2   1  -4   -0.05    0.10
  -2  -1   4    0.05    0.07
  -2  -1   4   -0.02    0.06
  -2  -1   4    0.05    0.06
  -1  -1   4  202.98    4.93
   0  -1   4   22.21    0.59
   1  -1   4  127.32    3.08
   2  -1   4    0.02    0.04
  -3   1  -4  117.56    2.86
   3  -1   4  112.39    2.81
  -4   1  -4   11.78    0.38
  -4   1  -4   11.64    0.37
  -4   1  -4   11.30    0.41
  -4   1  -4   12.59    0.38
   4  -1   4   10.99    0.38
   4  -1   4   11.84    0.38
  -5   1  -4   99.28    2.48
  -5   1  -4   98.24    2.53
  -5   1  -4  100.73    2.47
  -5   1  -4   99.81    2.48
   5  -1   4   95.76    2.51
   5  -1   4   99.99    2.49
  -6   1  -4    0.06    0.10
  -6   1  -4    0.18    0.14
  -6   1  -4    0.08    0.10
  -6   1  -4   -0.12    0.08
  -6   1  -4   -0.05    0.11
  -6   1  -4   -0.04    0.03
   6  -1   4   -0.01    0.10
  -7   1  -4   23.66    0.81
  -7   1  -4   23.12    0.73
  -7   1  -4   23.07    0.77
  -7   1  -4   23.54    0.70
  -7   1  -4   23.97    0.75
   7  -1   4   24.83    0.82
   7  -1   4   23.07    0.77
  -8   1  -4   -0.13    0.15
  -8   1  -4    0.22    0.21
  -8   1  -4    0.24    0.18
  -8   1  -4    0.19    0.15
   8  -1   4    0.31    0.21
   8  -1   4    0.04    0.16
   7   0  -4   -0.33    0.19
   7   0  -4   -0.07    0.15
  -7   0   4    0.34    0.19
  -7   0   4    0.13    0.24
  -7   0   4   -0.20    0.18
  -7   0   4    0.13    0.19
   6   0  -4    8.34    0.38
   6   0  -4    7.86    0.47
  -6   0   4    8.36    0.49
  -6   0   4    7.19    0.39
  -6   0   4    8.36    0.45
  -6   0   4    7.60    0.43
   5   0  -4   -0.02    0.14
   5   0  -4    0.03    0.10
  -5   0   4   -0.17    0.13
  -5   0   4   -0.17    0.11
  -5   0   4   -0.03    0.13
  -5   0   4    0.19    0.17
   4   0  -4   95.54    2.38
   4   0  -4   93.81    2.44
  -4   0   4   93.36    2.40
  -4   0   4   92.32    2.40
  -4   0   4   91.75    2.41
  -4   0   4   91.40    2.42
   3   0  -4    1.72    0.15
   3   0  -4    1.74    0.19
  -3   0   4    1.78    0.16
  -3   0   4    1.85    0.18
  -3   0   4    1.99    0.17
  -3   0   4    2.00    0.19
   2   0  -4  118.52    2.94
   2   0  -4  126.13    2.97
  -2   0   4  120.11    2.94
  -2   0   4  113.30    2.93
  -2   0   4  106.53    2.92
  -2   0   4  120.87    2.92
  -1   0   4    0.75    0.10
   0   0   4   15.30    0.44
   1   0   4    8.95    0.27
   2   0   4  237.10    5.85
  -3   0  -4    2.61    0.18
   3   0   4    2.55    0.14
  -4   0  -4  106.15    2.51
  -4   0  -4   99.50    2.55
   4   0   4   99.53    2.52
   4   0   4   99.21    2.53
  -5   0  -4    0.81    0.12
  -5   0  -4    0.80    0.10
  -5   0  -4    0.56    0.10
  -5   0  -4    0.34    0.11
  -5   0  -4    0.44    0.11
   5   0   4    0.35    0.12
   5   0   4    0.51    0.11
  -6   0  -4   20.83    0.66
  -6   0  -4   19.79    0.62
  -6   0  -4   20.83    0.64
  -6   0  -4   19.30    0.63
  -6   0  -4   20.87    0.68
   6   0   4   20.71    0.66
   6   0   4   20.05    0.68
  -7   0  -4    0.44    0.13
  -7   0  -4    0.42    0.15
  -7   0  -4    0.37    0.17
  -7   0  -4    0.33    0.16
   7   0   4    0.15    0.14
   7   0   4    0.30    0.18
  -8   0  -4   17.35    0.67
  -8   0  -4   16.72    0.64
  -8   0  -4   17.55    0.62
  -8   0  -4   18.05    0.70
   8   0   4   16.87    0.67
   8   0   4   16.94    0.72
  -9   0  -4    0.07    0.22
  -9   0  -4   -0.10    0.16
  -9   0  -4    0.10    0.21
  -9   0  -4   -0.09    0.17
   9   0   4    0.18    0.20
   9   0   4    0.05    0.24
   7  -1  -4   12.37    0.64
   7  -1  -4   12.45    0.53
  -7   1   4   11.90    0.65
  -7   1   4   10.67    0.53
  -7   1   4   11.56    0.57
  -7   1   4   10.63    0.56
   6  -1  -4    0.44    0.15
   6  -1  -4    0.34    0.19
  -6   1   4    0.63    0.20
  -6   1   4    0.23    0.21
  -6   1   4    0.46    0.18
  -6   1   4    0.23    0.15
   5  -1  -4   26.45    0.87
   5  -1  -4   25.75    0.80
  -5   1   4   27.65    0.84
  -5   1   4   26.91    0.84
  -5   1   4   26.80    0.89
  -5   1   4   25.53    0.85
   4  -1  -4   -0.02    0.12
   4  -1  -4    0.13    0.09
  -4   1   4    0.04    0.10
  -4   1   4   -0.02    0.09
  -4   1   4    0.19    0.11
  -4   1   4    0.16    0.14
   3  -1  -4   99.95    2.51
   3  -1  -4   97.28    2.54
  -3   1   4  102.85    2.52
  -3   1   4   97.67    2.55
  -3   1   4   98.09    2.52
  -3   1   4  101.96    2.54
   2  -1  -4    1.90    0.16
   2  -1  -4    1.58    0.13
  -2   1   4    1.60    0.16
  -2   1   4    1.67    0.16
  -2   1   4    1.33    0.12
  -2   1   4    1.93    0.14
  -1   1   4  197.28    4.82
   0   1   4    4.85    0.20
   1   1   4   71.88    1.79
   2   1   4    3.98    0.17
   3   1   4   86.85    2.17
  -4  -1  -4    2.79    0.15
  -4  -1  -4    2.75    0.19
  -4  -1  -4    2.73    0.16
   4   1   4    2.48    0.17
   4   1   4    2.73    0.19
  -5  -1  -4   55.56    1.41
  -5  -1  -4   53.33    1.42
  -5  -1  -4   54.41    1.46
   5   1   4   52.44    1.46
   5   1   4   54.49    1.44
  -6  -1  -4    0.60    0.12
  -6  -1  -4    0.78    0.16
  -6  -1  -4    0.43    0.12
  -6  -1  -4    0.50    0.14
   6   1   4    0.43    0.15
   6   1   4    0.55    0.13
  -7  -1  -4   16.96    0.61
  -7  -1  -4   15.50    0.62
  -7  -1  -4   16.40    0.57
  -7  -1  -4   16.29    0.58
   7   1   4   15.92    0.64
   7   1   4   16.35    0.61
  -8  -1  -4    0.15    0.18
  -8  -1  -4    0.10    0.15
  -8  -1  -4    0.00    0.18
  -8  -1  -4    0.05    0.15
   8   1   4    0.00    0.15
   8   1   4   -0.06    0.20
  -9  -1  -4    3.82    0.33
  -9  -1  -4    4.96    0.41
  -9  -1  -4    4.31    0.40
  -9  -1  -4    4.52    0.38
   9   1   4    4.82    0.40
   9   1   4    4.83    0.45
   7  -2  -4    0.43    0.19
   7  -2  -4    0.48    0.24
  -7   2   4    0.39    0.27
  -7   2   4    0.46    0.21
  -7   2   4    0.52    0.22
  -7   2   4    0.25    0.18
   6  -2  -4    6.30    0.41
   6  -2  -4    6.96    0.38
  -6   2   4    5.93    0.39
  -6   2   4    6.73    0.47
  -6   2   4    6.21    0.36
  -6   2   4    6.44    0.40
   5  -2  -4    0.52    0.14
   5  -2  -4    0.61    0.17
  -5   2   4    0.59    0.16
  -5   2   4    0.20    0.15
  -5   2   4    0.52    0.16
  -5   2   4    0.83    0.14
  -5   2   4    0.58    0.19
   4  -2  -4   66.10    1.78
   4  -2  -4   67.30    1.75
  -4   2   4   66.60    1.78
  -4   2   4   65.99    1.76
  -4   2   4   64.32    1.74
  -4   2   4   68.18    1.82
  -4   2   4   67.74    1.73
   3  -2  -4    0.60    0.12
   3  -2  -4    0.73    0.11
  -3   2   4    0.78    0.12
  -3   2   4    1.02    0.12
  -3   2   4    0.98    0.15
  -3   2   4    0.94    0.12
  -3   2   4    1.09    0.15
   2  -2  -4  236.09    5.77
   2  -2  -4  226.34    5.75
  -2   2   4  232.07    5.75
  -2   2   4  230.83    5.79
  -2   2   4  245.20    5.77
  -2   2   4  240.12    5.75
  -2   2   4  243.92    5.79
  -1   2   4    0.17    0.08
   0   2   4   48.27    1.25
   1   2   4   55.79    1.42
   2   2   4  264.88    6.48
   3   2   4    1.53    0.14
  -4  -2  -4  121.26    2.95
  -4  -2  -4  112.31    2.98
  -4  -2  -4  121.82    2.94
   4   2   4  116.03    2.98
   4   2   4  122.36    2.97
  -5  -2  -4    0.98    0.15
  -5  -2  -4    1.07    0.13
  -5  -2  -4    1.10    0.13
   5   2   4    1.05    0.16
   5   2   4    1.10    0.15
  -6  -2  -4   14.03    0.48
  -6  -2  -4   13.53    0.53
  -6  -2  -4   14.21    0.50
   6   2   4   14.04    0.52
   6   2   4   13.18    0.54
  -7  -2  -4    2.37    0.26
  -7  -2  -4    1.86    0.24
  -7  -2  -4    1.94    0.21
  -7  -2  -4    2.46    0.24
   7   2   4    2.30    0.29
   7   2   4    1.57    0.21
  -8  -2  -4   12.90    0.51
  -8  -2  -4   12.56    0.58
  -8  -2  -4   14.08    0.61
  -8  -2  -4   13.24    0.56
   8   2   4   12.39    0.62
   8   2   4   14.20    0.59
  -9  -2  -4    0.06    0.19
  -9  -2  -4   -0.18    0.21
  -9  -2  -4    0.21    0.22
  -9  -2  -4   -0.12    0.16
   9   2   4   -0.27    0.22
   9   2   4    0.09    0.20
   7  -3  -4    8.48    0.55
   7  -3  -4    8.18    0.45
  -7   3   4    8.08    0.57
  -7   3   4    7.92    0.49
  -7   3   4    6.85    0.39
  -7   3   4    8.16    0.43
  -7   3   4    7.85    0.47
   6  -3  -4    0.45    0.21
   6  -3  -4    0.57    0.17
  -6   3   4    0.84    0.27
  -6   3   4    0.63    0.16
  -6   3   4    1.00    0.18
  -6   3   4    0.40    0.18
  -6   3   4    0.60    0.20
   5  -3  -4   25.21    0.81
   5  -3  -4   27.39    0.88
  -5   3   4   26.86    0.86
  -5   3   4   27.14    0.81
  -5   3   4   25.44    0.83
  -5   3   4   26.80    0.92
  -5   3   4   26.84    0.82
   4  -3  -4    0.62    0.13
  -4   3   4    0.83    0.19
  -4   3   4    0.62    0.13
  -4   3   4    0.43    0.12
  -4   3   4    0.51    0.13
  -4   3   4    0.40    0.11
   3  -3  -4   31.07    0.87
  -3   3   4   31.08    0.86
  -3   3   4   30.96    0.86
  -3   3   4   30.84    0.90
  -3   3   4   31.06    0.93
  -3   3   4   28.90    0.86
   2  -3  -4    0.41    0.08
  -2   3   4    0.29    0.11
  -2   3   4    0.42    0.08
  -2   3   4    0.41    0.11
  -2   3   4    0.37    0.08
   1  -3  -4  211.58    5.12
  -1   3   4  203.99    5.15
  -1   3   4  213.72    5.11
  -1   3   4  207.38    5.11
  -1   3   4  213.50    5.15
   0   3   4    2.70    0.17
   1   3   4  359.67    8.90
   2   3   4    4.94    0.23
  -3  -3  -4   74.67    1.94
   3   3   4   74.61    1.92
   3   3   4   76.01    1.91
  -4  -3  -4    0.89    0.11
  -4  -3  -4    0.98    0.14
  -4  -3  -4    1.07    0.11
   4   3   4    0.84    0.14
   4   3   4    0.98    0.12
  -5  -3  -4   82.90    2.09
  -5  -3  -4   83.34    2.12
  -5  -3  -4   81.52    2.16
   5   3   4   81.33    2.16
   5   3   4   81.66    2.13
  -6  -3  -4    0.21    0.13
  -6  -3  -4    0.28    0.11
  -6  -3  -4    0.47    0.15
   6   3   4    0.26    0.15
   6   3   4    0.38    0.14
  -7  -3  -4   30.84    0.95
  -7  -3  -4   30.11    0.91
  -7  -3  -4   29.79    0.97
   7   3   4   29.37    0.96
   7   3   4   32.63    1.02
  -8  -3  -4   -0.21    0.14
  -8  -3  -4   -0.10    0.17
  -8  -3  -4   -0.16    0.14
   8   3   4    0.13    0.20
   8   3   4    0.20    0.17
  -9  -3  -4    3.60    0.35
  -9  -3  -4    3.20    0.31
   9   3   4    3.04    0.35
   9   3   4    3.65    0.42
   6  -4  -4    9.25    0.52
   6  -4  -4   10.23    0.46
  -6   4   4    8.64    0.42
  -6   4   4    9.44    0.48
  -6   4   4    9.44    0.56
  -6   4   4    9.53    0.49
   5  -4  -4    1.54    0.20
  -5   4   4    1.96    0.22
  -5   4   4    1.63    0.25
  -5   4   4    1.91    0.23
  -5   4   4    2.15    0.28
  -5   4   4    1.99    0.20
   4  -4  -4   26.11    0.81
  -4   4   4   26.84    0.89
  -4   4   4   26.84    0.80
  -4   4   4   27.33    0.84
  -4   4   4   26.48    0.81
   3  -4  -4   -0.05    0.08
   3  -4  -4    0.00    0.09
  -3   4   4    0.08    0.09
  -3   4   4    0.03    0.08
  -3   4   4   -0.05    0.09
  -3   4   4    0.01    0.13
  -3   4   4   -0.08    0.06
   2  -4  -4   87.77    2.24
   2  -4  -4   88.44    2.23
  -2   4   4   88.69    2.23
  -2   4   4   91.32    2.24
  -2   4   4   87.08    2.29
  -2   4   4   88.10    2.27
   1  -4  -4   12.56    0.41
  -1   4   4   12.41    0.45
  -1   4   4   12.34    0.44
  -1   4   4   13.52    0.40
  -1   4   4   12.99    0.41
   0  -4  -4  133.98    3.35
   0   4   4  139.25    3.42
   0   4   4  137.30    3.38
   0   4   4  132.86    3.34
   1   4   4    0.22    0.09
  -2  -4  -4  197.60    5.03
   2   4   4  200.56    5.03
   2   4   4  217.11    5.02
  -3  -4  -4    1.31    0.10
  -3  -4  -4    1.49    0.15
   3   4   4    1.47    0.12
   3   4   4    1.29    0.13
   3   4   4    1.36    0.16
  -4  -4  -4   91.09    2.29
  -4  -4  -4   88.46    2.33
  -4  -4  -4   90.41    2.26
   4   4   4   89.54    2.31
   4   4   4   91.36    2.34
  -5  -4  -4    0.22    0.11
  -5  -4  -4    0.09    0.08
  -5  -4  -4    0.14    0.12
   5   4   4    0.26    0.14
   5   4   4    0.10    0.09
  -6  -4  -4   39.50    1.19
  -6  -4  -4   40.67    1.15
  -6  -4  -4   41.52    1.13
   6   4   4   39.14    1.18
   6   4   4   40.40    1.22
  -7  -4  -4    0.26    0.14
  -7  -4  -4    0.25    0.16
  -7  -4  -4    0.11    0.16
   7   4   4    0.07    0.15
   7   4   4    0.32    0.21
  -8  -4  -4   15.01    0.64
  -8  -4  -4   12.81    0.54
  -8  -4  -4   13.33    0.58
   8   4   4   14.81    0.63
   8   4   4   14.89    0.68
  -9  -4  -4    0.08    0.19
  -9  -4  -4    0.11    0.18
   9   4   4    0.10    0.25
   9   4   4    0.01    0.20
   6  -5  -4    0.21    0.18
  -6   5   4   -0.01    0.15
  -6   5   4    0.34    0.17
  -6   5   4    0.14    0.24
  -6   5   4    0.14    0.18
   5  -5  -4   31.00    0.97
  -5   5   4   32.81    0.98
  -5   5   4   30.00    0.94
  -5   5   4   30.92    0.98
  -5   5   4   31.30    1.05
   4  -5  -4    4.27    0.27
   4  -5  -4    4.36    0.29
  -4   5   4    4.26    0.29
  -4   5   4    3.60    0.33
  -4   5   4    3.97    0.29
  -4   5   4    4.22    0.26
   3  -5  -4   27.64    0.80
   3  -5  -4   27.40    0.82
  -3   5   4   27.20    0.84
  -3   5   4   25.94    0.80
  -3   5   4   28.84    0.81
  -3   5   4   27.40    0.88
   2  -5  -4    0.30    0.10
   2  -5  -4    0.15    0.09
  -2   5   4    0.15    0.08
  -2   5   4    0.19    0.08
  -2   5   4    0.17    0.10
  -2   5   4    0.14    0.13
   1  -5  -4   63.81    1.64
   1  -5  -4   62.50    1.63
  -1   5   4   63.74    1.62
  -1   5   4   62.67    1.62
  -1   5   4   62.87    1.67
  -1   5   4   63.51    1.68
   0  -5  -4    4.73    0.23
   0  -5  -4    4.49    0.20
   0   5   4    4.41    0.24
   0   5   4    4.01    0.24
   0   5   4    4.10    0.19
   0   5   4    4.54    0.19
  -1  -5  -4  236.68    6.00
   1   5   4  253.24    6.01
   1   5   4  247.38    6.02
  -2  -5  -4   24.15    0.73
   2   5   4   24.63    0.72
   2   5   4   24.82    0.74
  -3  -5  -4   34.47    1.02
  -3  -5  -4   37.00    0.95
   3   5   4   36.51    1.03
   3   5   4   35.89    1.00
  -4  -5  -4    0.86    0.11
  -4  -5  -4    0.80    0.15
  -4  -5  -4    0.86    0.13
   4   5   4    0.88    0.16
   4   5   4    0.82    0.13
  -5  -5  -4   45.45    1.21
  -5  -5  -4   44.13    1.25
  -5  -5  -4   44.92    1.30
   5   5   4   44.78    1.27
   5   5   4   45.67    1.31
  -6  -5  -4   -0.13    0.08
  -6  -5  -4   -0.26    0.11
  -6  -5  -4   -0.20    0.13
   6   5   4    0.01    0.15
   6   5   4    0.02    0.12
  -7  -5  -4   37.90    1.17
  -7  -5  -4   37.62    1.14
  -7  -5  -4   35.93    1.09
   7   5   4   39.09    1.22
   7   5   4   37.60    1.17
  -8  -5  -4    0.46    0.17
  -8  -5  -4    0.43    0.21
  -8  -5  -4    0.73    0.22
   8   5   4    0.36    0.20
   8   5   4    0.87    0.26
  -9  -5  -4    3.97    0.37
  -9  -5  -4    3.32    0.32
   9   5   4    3.11    0.35
   9   5   4    4.22    0.46
   5  -6  -4    0.04    0.14
  -5   6   4    0.12    0.21
  -5   6   4    0.11    0.15
  -5   6   4    0.07    0.15
  -5   6   4    0.07    0.15
   4  -6  -4   28.36    0.87
   4  -6  -4   28.84    0.89
  -4   6   4   27.50    0.89
  -4   6   4   28.97    0.88
  -4   6   4   27.93    0.95
   3  -6  -4    0.11    0.12
   3  -6  -4   -0.09    0.10
  -3   6   4    0.03    0.11
  -3   6   4    0.03    0.15
  -3   6   4    0.03    0.10
  -3   6   4    0.11    0.12
   2  -6  -4   86.58    2.21
   2  -6  -4   85.81    2.21
  -2   6   4   84.14    2.19
  -2   6   4   85.72    2.20
  -2   6   4   86.00    2.27
  -2   6   4   86.65    2.23
   1  -6  -4    1.44    0.17
   1  -6  -4    1.71    0.15
  -1   6   4    1.24    0.19
  -1   6   4    1.34    0.14
  -1   6   4    1.49    0.14
  -1   6   4    1.24    0.16
   0  -6  -4   50.32    1.40
   0  -6  -4   52.23    1.37
   0   6   4   52.35    1.36
   0   6   4   53.72    1.42
   0   6   4   52.65    1.43
   0   6   4   52.58    1.35
  -1  -6  -4    2.01    0.18
  -1  -6  -4    2.70    0.15
   1   6   4    2.68    0.14
   1   6   4    2.51    0.17
   1   6   4    2.67    0.20
   1   6   4    2.65    0.23
  -2  -6  -4   99.53    2.55
   2   6   4   99.98    2.53
   2   6   4   99.13    2.56
  -3  -6  -4    1.06    0.10
  -3  -6  -4    0.93    0.15
   3   6   4    0.94    0.11
   3   6   4    1.11    0.15
   3   6   4    1.08    0.17
  -4  -6  -4   71.27    1.83
  -4  -6  -4   73.15    1.93
   4   6   4   71.06    1.90
   4   6   4   72.52    1.95
  -5  -6  -4    2.32    0.23
  -5  -6  -4    2.11    0.18
  -5  -6  -4    2.00    0.24
   5   6   4    2.05    0.22
   5   6   4    2.14    0.27
  -6  -6  -4   22.60    0.75
  -6  -6  -4   21.72    0.78
  -6  -6  -4   21.14    0.70
   6   6   4   24.06    0.78
   6   6   4   22.38    0.83
  -7  -6  -4    0.76    0.21
  -7  -6  -4    0.76    0.17
  -7  -6  -4    0.68    0.19
   7   6   4    0.85    0.27
   7   6   4    1.05    0.21
  -8  -6  -4    7.18    0.48
  -8  -6  -4    7.00    0.43
  -8  -6  -4    7.03    0.40
   8   6   4    8.24    0.49
   8   6   4    7.99    0.57
  -9  -6  -4   -0.24    0.18
  -9  -6  -4   -0.06    0.20
   9   6   4   -0.10    0.21
   9   6   4    0.06    0.29
   5  -7  -4   13.65    0.58
  -5   7   4   12.50    0.57
  -5   7   4   13.55    0.65
  -5   7   4   12.06    0.54
   4  -7  -4   -0.06    0.13
   4  -7  -4    0.22    0.16
  -4   7   4   -0.07    0.18
  -4   7   4    0.14    0.14
  -4   7   4    0.15    0.15
  -4   7   4    0.18    0.14
   3  -7  -4   36.38    1.06
   3  -7  -4   35.34    1.06
  -3   7   4   36.46    1.05
  -3   7   4   35.35    1.11
  -3   7   4   34.57    1.05
  -3   7   4   35.69    1.04
   2  -7  -4    0.54    0.15
   2  -7  -4    0.38    0.14
  -2   7   4    0.31    0.10
  -2   7   4    0.49    0.13
  -2   7   4    0.49    0.13
  -2   7   4    0.49    0.17
   1  -7  -4   43.22    1.16
   1  -7  -4   41.23    1.19
  -1   7   4   41.87    1.14
  -1   7   4   41.58    1.19
  -1   7   4   41.88    1.23
  -1   7   4   42.78    1.15
   0  -7  -4    6.16    0.27
   0  -7  -4    5.92    0.31
   0   7   4    6.11    0.26
   0   7   4    5.90    0.26
   0   7   4    5.62    0.30
   0   7   4    5.51    0.33
  -1  -7  -4  111.70    2.75
  -1  -7  -4  105.86    2.81
   1   7   4  113.51    2.81
   1   7   4  109.40    2.83
   1   7   4  107.45    2.73
   1   7   4  113.18    2.73
  -2  -7  -4    0.91    0.15
  -2  -7  -4    0.87    0.12
   2   7   4    0.75    0.14
   2   7   4    1.23    0.11
   2   7   4    1.11    0.10
   2   7   4    1.12    0.19
  -3  -7  -4   81.05    2.05
  -3  -7  -4   83.95    2.17
   3   7   4   81.67    2.14
   3   7   4   81.75    2.18
  -4  -7  -4    0.45    0.09
  -4  -7  -4    0.48    0.16
   4   7   4    0.45    0.14
   4   7   4    0.40    0.16
  -5  -7  -4   29.15    0.93
  -5  -7  -4   28.85    0.84
  -5  -7  -4   28.50    0.89
   5   7   4   28.93    0.97
   5   7   4   29.42    0.92
  -6  -7  -4   -0.10    0.13
  -6  -7  -4   -0.18    0.13
  -6  -7  -4   -0.19    0.10
   6   7   4   -0.04    0.19
   6   7   4    0.03    0.14
  -7  -7  -4   13.70    0.59
  -7  -7  -4   13.25    0.53
  -7  -7  -4   13.71    0.62
   7   7   4   13.31    0.60
   7   7   4   14.35    0.69
  -8  -7  -4    0.50    0.22
  -8  -7  -4    0.57    0.24
  -8  -7  -4    0.68    0.19
   8   7   4    0.56    0.22
   8   7   4    0.84    0.31
   4  -8  -4    5.67    0.41
   4  -8  -4    6.65    0.41
  -4   8   4    6.51    0.47
  -4   8   4    5.94    0.37
   3  -8  -4    0.08    0.16
   3  -8  -4   -0.14    0.14
  -3   8   4    0.01    0.13
  -3   8   4    0.16    0.17
  -3   8   4    0.05    0.12
   2  -8  -4   48.56    1.34
   2  -8  -4   48.34    1.36
  -2   8   4   44.43    1.33
  -2   8   4   46.24    1.39
  -2   8   4   48.13    1.31
  -2   8   4   48.28    1.32
   1  -8  -4    0.91    0.16
   1  -8  -4    1.23    0.20
  -1   8   4    1.28    0.22
  -1   8   4    1.29    0.16
  -1   8   4    1.27    0.16
  -1   8   4    0.86    0.16
   0  -8  -4   44.30    1.22
   0  -8  -4   44.82    1.28
   0   8   4   44.81    1.21
   0   8   4   44.39    1.27
   0   8   4   45.40    1.31
   0   8   4   45.29    1.21
  -1  -8  -4    1.44    0.15
  -1  -8  -4    1.22    0.19
   1   8   4    1.37    0.14
   1   8   4    1.85    0.23
   1   8   4    1.71    0.19
   1   8   4    1.33    0.13
  -2  -8  -4   54.62    1.41
  -2  -8  -4   56.76    1.53
   2   8   4   53.78    1.40
   2   8   4   53.74    1.49
   2   8   4   54.02    1.41
   2   8   4   54.74    1.54
  -3  -8  -4    2.85    0.26
  -3  -8  -4    2.82    0.19
   3   8   4    3.17    0.26
   3   8   4    3.38    0.30
  -4  -8  -4   66.14    1.82
  -4  -8  -4   66.64    1.70
   4   8   4   66.97    1.81
   4   8   4   64.54    1.85
  -5  -8  -4    0.23    0.10
  -5  -8  -4    0.10    0.16
   5   8   4    0.11    0.15
   5   8   4   -0.02    0.19
  -6  -8  -4   19.33    0.65
  -6  -8  -4   21.01    0.74
  -6  -8  -4   20.76    0.78
   6   8   4   20.03    0.76
   6   8   4   18.96    0.80
  -7  -8  -4    0.11    0.13
  -7  -8  -4   -0.08    0.18
  -7  -8  -4    0.18    0.21
   7   8   4   -0.10    0.17
   7   8   4   -0.17    0.22
  -8  -8  -4    2.92    0.28
  -8  -8  -4    3.37    0.35
  -8  -8  -4    3.85    0.40
   8   8   4    3.07    0.36
   8   8   4    3.58    0.45
   3  -9  -4   10.37    0.48
   3  -9  -4    9.71    0.51
  -3   9   4    9.16    0.46
  -3   9   4   10.83    0.48
  -3   9   4   11.90    0.58
   2  -9  -4    1.19    0.23
   2  -9  -4    1.06    0.19
  -2   9   4    1.40    0.19
  -2   9   4    1.37    0.25
  -2   9   4    1.35    0.19
   1  -9  -4   22.80    0.72
   1  -9  -4   21.75    0.77
  -1   9   4   21.09    0.69
  -1   9   4   21.05    0.78
  -1   9   4   21.66    0.70
   0  -9  -4   -0.17    0.13
   0  -9  -4   -0.03    0.10
   0   9   4   -0.01    0.09
   0   9   4    0.26    0.18
   0   9   4    0.02    0.09
   0   9   4    0.03    0.06
  -1  -9  -4   44.63    1.19
  -1  -9  -4   41.15    1.27
   1   9   4   45.22    1.31
   1   9   4   43.91    1.18
   1   9   4   42.00    1.17
   1   9   4   43.72    1.26
  -2  -9  -4    0.22    0.14
  -2  -9  -4   -0.12    0.07
   2   9   4   -0.05    0.07
   2   9   4   -0.10    0.08
   2   9   4    0.04    0.12
   2   9   4   -0.28    0.14
  -3  -9  -4   30.27    0.97
   3   9   4   28.92    0.98
   3   9   4   30.81    0.94
  -4  -9  -4   -0.09    0.16
   4   9   4    0.02    0.18
   4   9   4   -0.12    0.13
  -5  -9  -4   20.65    0.66
  -5  -9  -4   21.22    0.79
   5   9   4   21.75    0.77
   5   9   4   21.67    0.85
  -6  -9  -4    1.17    0.25
  -6  -9  -4    0.84    0.17
  -6  -9  -4    0.98    0.22
   6   9   4    0.68    0.22
   6   9   4    1.69    0.34
  -7  -9  -4   10.94    0.49
  -7  -9  -4   12.15    0.58
  -7  -9  -4   12.15    0.64
   7   9   4   12.51    0.70
   7   9   4   11.72    0.60
  -8  -9  -4    0.15    0.23
  -8  -9  -4   -0.15    0.17
  -8  -9  -4   -0.16    0.23
   8   9   4   -0.08    0.20
   3 -10  -4   -0.01    0.19
   3 -10  -4    0.14    0.21
  -3  10   4    0.12    0.17
  -3  10   4   -0.01    0.16
   2 -10  -4   12.97    0.62
   2 -10  -4   13.98    0.58
  -2  10   4   14.14    0.56
  -2  10   4   12.75    0.54
  -2  10   4   13.78    0.65
   1 -10  -4    0.50    0.17
   1 -10  -4    0.43    0.19
  -1  10   4    0.54    0.21
  -1  10   4    0.47    0.14
  -1  10   4    0.65    0.16
   0 -10  -4   21.03    0.79
   0 -10  -4   21.72    0.72
   0  10   4   21.79    0.82
   0  10   4   21.54    0.70
   0  10   4   22.77    0.70
  -1 -10  -4    3.44    0.25
  -1 -10  -4    3.01    0.30
   1  10   4    3.77    0.36
   1  10   4    3.74    0.24
   1  10   4    3.66    0.25
  -2 -10  -4   12.70    0.56
   2  10   4   13.20    0.46
   2  10   4   13.03    0.60
   2  10   4   12.23    0.53
  -3 -10  -4    0.31    0.20
   3  10   4    0.61    0.22
   3  10   4    0.44    0.17
  -4 -10  -4   15.10    0.64
   4  10   4   13.52    0.66
   4  10   4   13.67    0.59
  -5 -10  -4   -0.12    0.19
   5  10   4   -0.12    0.17
   5  10   4   -0.02    0.24
  -6 -10  -4   17.45    0.62
  -6 -10  -4   18.75    0.78
   6  10   4   18.29    0.86
  -7 -10  -4    0.41    0.17
  -7 -10  -4    0.18    0.22
  -7 -10  -4    0.21    0.27
   7  10   4    0.15    0.20
   7  10   4   -0.07    0.30
   1 -11  -4    9.85    0.48
   1 -11  -4   10.09    0.55
  -1  11   4    9.22    0.44
  -1  11   4    9.15    0.47
  -1  11   4    9.07    0.55
   0 -11  -4    0.07    0.15
   0 -11  -4   -0.16    0.18
   0  11   4    0.16    0.14
   0  11   4    0.02    0.13
   0  11   4    0.19    0.21
  -1 -11  -4   18.30    0.77
  -1 -11  -4   20.24    0.67
   1  11   4   19.73    0.79
   1  11   4   20.06    0.65
   1  11   4   20.27    0.67
  -2 -11  -4    0.76    0.22
   2  11   4    1.16    0.17
   2  11   4    1.30    0.28
  -3 -11  -4   14.56    0.67
   3  11   4   14.13    0.67
  -4 -11  -4    0.72    0.25
   4  11   4    0.93    0.23
   4  11   4    1.26    0.30
  -5 -11  -4    9.08    0.59
   5  11   4    9.86    0.62
   5  11   4    9.39    0.54
  -6 -11  -4   -0.11    0.23
   6  11   4    0.00    0.21
   6  11   4   -0.22    0.29
   0 -12  -4   13.84    0.68
   0  12   4   13.61    0.54
  -1 -12  -4    0.50    0.26
   1  12   4    0.50    0.15
   1  12   4    0.73    0.27
   1  12   4    0.18    0.16
  -2 -12  -4   16.70    0.76
   2  12   4   18.20    0.80
   2  12   4   17.25    0.63
  -3 -12  -4    0.40    0.25
   3  12   4    0.45    0.27
  -4 -12  -4    9.27    0.61
   4  12   4    8.57    0.60
  -5 -12  -4    0.28    0.28
   2  10  -5   -0.21    0.24
   1  10  -5    7.43    0.42
   1  10  -5    7.82    0.57
  -1 -10   5    6.88    0.47
   0  10  -5    0.19    0.23
   0  10  -5    0.17    0.16
   0 -10   5    0.13    0.20
  -1  10  -5    7.04    0.52
  -1  10  -5    6.65    0.43
   1 -10   5    6.89    0.50
   4   9  -5    5.99    0.50
  -4  -9   5    5.69    0.38
   3   9  -5   -0.06    0.23
   2   9  -5   19.08    0.82
   2   9  -5   18.79    0.66
   1   9  -5   -0.06    0.13
   1   9  -5    0.30    0.21
  -1  -9   5    0.06    0.17
   0   9  -5   12.87    0.62
   0   9  -5   13.03    0.55
   0  -9   5   12.77    0.58
  -1   9  -5    1.04    0.23
  -1   9  -5    1.26    0.24
  -1   9  -5    1.05    0.21
   1  -9   5    1.35    0.24
  -2   9  -5    9.14    0.50
  -2   9  -5    8.43    0.51
  -2   9  -5    7.49    0.45
   2  -9   5    7.98    0.49
  -3   9  -5   -0.09    0.19
  -3   9  -5    0.18    0.20
  -3   9  -5    0.07    0.17
   3  -9   5    0.11    0.21
   5   8  -5    6.34    0.53
  -5  -8   5    5.21    0.49
  -5  -8   5    6.66    0.43
   4   8  -5    0.00    0.23
  -4  -8   5    0.07    0.15
   3   8  -5   16.56    0.75
  -3  -8   5   15.72    0.59
   2   8  -5    0.25    0.20
   2   8  -5    0.25    0.14
   1   8  -5   17.32    0.73
   1   8  -5   17.46    0.61
  -1  -8   5   16.09    0.61
   0   8  -5    0.34    0.19
   0   8  -5   -0.02    0.13
   0  -8   5    0.03    0.15
  -1   8  -5   17.31    0.68
  -1   8  -5   15.40    0.62
  -1   8  -5   16.27    0.62
   1  -8   5   17.78    0.65
  -2   8  -5    1.25    0.23
  -2   8  -5    2.05    0.25
  -2   8  -5    1.50    0.22
   2  -8   5    1.34    0.23
  -3   8  -5   14.38    0.62
  -3   8  -5   15.45    0.64
  -3   8  -5   15.75    0.65
   3  -8   5   16.31    0.67
  -4   8  -5    1.03    0.22
  -4   8  -5    0.79    0.24
  -4   8  -5    0.80    0.19
   4  -8   5    0.49    0.23
  -5   8  -5    7.46    0.50
  -6  -7   5    7.73    0.47
   5   7  -5    0.28    0.26
   5   7  -5    0.06    0.21
  -5  -7   5   -0.08    0.17
  -5  -7   5    0.33    0.21
  -5  -7   5    0.09    0.16
   4   7  -5    5.07    0.45
  -4  -7   5    4.44    0.46
  -4  -7   5    4.99    0.32
  -4  -7   5    5.25    0.35
   3   7  -5   -0.12    0.20
   3   7  -5    0.25    0.13
  -3  -7   5    0.33    0.14
   2   7  -5   14.68    0.52
   2   7  -5   13.17    0.64
  -2  -7   5   14.51    0.51
   1   7  -5    0.20    0.12
   1   7  -5    0.21    0.16
  -1  -7   5    0.40    0.11
  -1  -7   5    0.29    0.14
   0   7  -5   36.87    1.05
   0   7  -5   37.31    1.14
   0   7  -5   34.67    1.05
   0  -7   5   35.49    1.05
  -1   7  -5    0.71    0.19
  -1   7  -5    0.71    0.17
  -1   7  -5    0.73    0.16
   1  -7   5    0.55    0.15
  -2   7  -5   20.06    0.69
  -2   7  -5   19.60    0.69
  -2   7  -5   19.03    0.70
   2  -7   5   19.60    0.71
  -3   7  -5    1.82    0.24
  -3   7  -5    1.53    0.21
  -3   7  -5    1.74    0.23
   3  -7   5    1.91    0.26
  -4   7  -5   12.86    0.54
  -4   7  -5   11.97    0.53
  -4   7  -5   12.23    0.56
   4  -7   5   12.36    0.58
  -5   7  -5    0.65    0.19
  -5   7  -5    0.52    0.22
  -5   7  -5    0.56    0.20
   5  -7   5    0.75    0.23
   6   6  -5   -0.34    0.23
   6   6  -5   -0.06    0.25
  -6  -6   5    0.00    0.18
  -6  -6   5   -0.18    0.20
  -6  -6   5   -0.08    0.18
   5   6  -5    8.26    0.55
   5   6  -5    6.82    0.47
  -5  -6   5    8.15    0.45
  -5  -6   5    7.88    0.44
  -5  -6   5    7.51    0.46
   4   6  -5    0.01    0.16
   4   6  -5    0.18    0.21
  -4  -6   5    0.34    0.16
  -4  -6   5    0.15    0.15
  -4  -6   5    0.10    0.14
   3   6  -5   26.71    0.78
   3   6  -5   26.51    0.95
  -3  -6   5   24.33    0.80
  -3  -6   5   24.98    0.78
  -3  -6   5   25.32    0.78
   2   6  -5    1.09    0.24
   2   6  -5    0.91    0.15
  -2  -6   5    0.89    0.14
   1   6  -5   23.58    0.73
   1   6  -5   22.31    0.83
  -1  -6   5   23.59    0.70
   0   6  -5    0.07    0.11
   0   6  -5    0.11    0.16
   0   6  -5    0.06    0.10
   0  -6   5    0.08    0.11
   0  -6   5    0.08    0.08
  -1   6  -5   34.46    1.00
  -1   6  -5   35.35    1.06
  -1   6  -5   34.66    1.03
   1  -6   5   35.00    1.02
  -2   6  -5    0.27    0.13
  -2   6  -5    0.21    0.14
  -2   6  -5    0.37    0.14
   2  -6   5    0.15    0.13
  -3   6  -5   23.03    0.75
  -3   6  -5   23.58    0.76
  -3   6  -5   21.84    0.75
   3  -6   5   23.61    0.79
  -4   6  -5    1.29    0.21
  -4   6  -5    0.94    0.18
  -4   6  -5    1.47    0.21
   4  -6   5    0.92    0.21
  -5   6  -5    9.11    0.45
  -5   6  -5    9.19    0.43
  -5   6  -5    8.82    0.49
   5  -6   5    9.47    0.52
  -6   6  -5   -0.05    0.20
  -6   6  -5    0.26    0.18
  -6   6  -5   -0.04    0.15
   6  -6   5    0.44    0.24
   6   5  -5   13.33    0.68
   6   5  -5   12.38    0.69
  -6  -5   5   12.36    0.59
  -6  -5   5   12.16    0.58
  -6  -5   5   13.43    0.63
   5   5  -5   -0.32    0.19
   5   5  -5    0.01    0.19
  -5  -5   5    0.11    0.15
  -5  -5   5    0.05    0.15
  -5  -5   5    0.01    0.17
   4   5  -5   20.72    0.82
   4   5  -5   21.28    0.75
   4   5  -5   20.79    0.68
  -4  -5   5   20.11    0.71
  -4  -5   5   19.65    0.70
  -4  -5   5   21.36    0.70
   3   5  -5    0.07    0.18
   3   5  -5    0.20    0.14
   3   5  -5    0.14    0.11
  -3  -5   5    0.15    0.11
  -3  -5   5    0.27    0.13
  -3  -5   5    0.04    0.11
   2   5  -5   37.33    1.22
   2   5  -5   40.32    1.10
   2   5  -5   40.54    1.12
  -2  -5   5   39.96    1.08
  -2  -5   5   38.66    1.10
  -2  -5   5   39.23    1.08
   1   5  -5    0.38    0.15
   1   5  -5    0.43    0.12
   1   5  -5    0.47    0.10
  -1  -5   5    0.54    0.11
  -1  -5   5    0.58    0.10
  -1  -5   5    0.65    0.11
   0   5  -5   65.97    1.69
   0   5  -5   66.33    1.79
   0   5  -5   61.39    1.72
   0  -5   5   64.73    1.68
   0  -5   5   67.61    1.71
  -1   5  -5    0.13    0.10
  -1   5  -5    0.03    0.12
  -1   5  -5    0.05    0.10
   1  -5   5    0.10    0.11
   1  -5   5    0.14    0.08
  -2   5  -5   38.93    1.12
  -2   5  -5   39.37    1.13
  -2   5  -5   39.75    1.14
   2  -5   5   39.92    1.07
   2  -5   5   41.39    1.14
  -3   5  -5    0.73    0.16
  -3   5  -5    1.01    0.17
  -3   5  -5    1.02    0.16
  -4   5  -5   11.26    0.45
  -4   5  -5   11.33    0.48
  -4   5  -5   10.47    0.44
  -5   5  -5    0.61    0.16
  -5   5  -5    0.52    0.20
  -5   5  -5    0.91    0.17
  -6   5  -5    9.73    0.46
  -6   5  -5   10.25    0.47
  -6   5  -5   10.78    0.54
  -7   5  -5    0.29    0.23
  -7   5  -5    0.04    0.16
  -7   5  -5   -0.02    0.16
   7   4  -5    5.12    0.49
   7   4  -5    5.72    0.53
  -7  -4   5    5.81    0.50
  -7  -4   5    4.91    0.42
  -7  -4   5    5.42    0.46
   6   4  -5    0.08    0.24
   6   4  -5    0.14    0.24
  -6  -4   5   -0.08    0.17
  -6  -4   5   -0.15    0.17
  -6  -4   5    0.16    0.21
   5   4  -5    8.35    0.52
  -5  -4   5    8.30    0.43
  -5  -4   5    8.03    0.45
  -5  -4   5    7.53    0.43
   4   4  -5    0.13    0.18
   4   4  -5   -0.03    0.14
   4   4  -5    0.03    0.12
  -4  -4   5   -0.07    0.14
  -4  -4   5    0.13    0.13
  -4  -4   5    0.03    0.12
   3   4  -5   86.10    2.47
   3   4  -5   93.98    2.38
  -3  -4   5   91.15    2.38
  -3  -4   5   95.86    2.37
  -3  -4   5   92.07    2.37
   2   4  -5    0.09    0.10
   2   4  -5    0.10    0.09
   2   4  -5    0.04    0.15
  -2  -4   5   -0.01    0.08
  -2  -4   5    0.11    0.09
  -2  -4   5    0.11    0.09
   1   4  -5   83.56    2.15
   1   4  -5   81.87    2.23
  -1  -4   5   84.32    2.12
  -1  -4   5   81.82    2.07
   0   4  -5    6.36    0.22
   0   4  -5    5.79    0.28
   0   4  -5    5.87    0.25
   0   4  -5    6.26    0.33
   0  -4   5    5.40    0.19
   0  -4   5    5.76    0.25
   0  -4   5    6.04    0.26
  -1   4  -5   40.64    1.16
  -1   4  -5   41.18    1.11
  -1   4  -5   39.89    1.13
   1  -4   5   41.39    1.09
  -2   4  -5    0.62    0.13
  -2   4  -5    0.34    0.11
  -2   4  -5    0.50    0.12
   2  -4   5    0.41    0.10
  -3   4  -5   75.09    1.97
  -3   4  -5   76.76    2.00
  -3   4  -5   75.48    2.00
   3  -4   5   78.04    1.94
  -4   4  -5    0.12    0.11
  -4   4  -5    0.10    0.14
  -4   4  -5    0.30    0.11
   4  -4   5    0.31    0.10
  -5   4  -5   17.95    0.66
  -5   4  -5   17.96    0.61
  -5   4  -5   17.62    0.59
  -6   4  -5    0.57    0.16
  -6   4  -5    0.36    0.14
  -6   4  -5    0.44    0.20
  -7   4  -5    4.63    0.34
  -7   4  -5    5.13    0.35
  -7   4  -5    6.19    0.47
   7   3  -5    0.15    0.26
   7   3  -5    0.55    0.31
  -7  -3   5    0.66    0.25
  -7  -3   5    0.40    0.22
  -7  -3   5   -0.01    0.26
   6   3  -5   12.65    0.67
  -6  -3   5   11.81    0.59
  -6  -3   5   10.72    0.55
  -6  -3   5   11.99    0.55
   5   3  -5   -0.17    0.18
   5   3  -5    0.13    0.13
  -5  -3   5   -0.01    0.14
  -5  -3   5    0.14    0.17
  -5  -3   5   -0.05    0.14
   4   3  -5   36.03    1.17
   4   3  -5   36.73    1.07
  -4  -3   5   37.72    1.09
  -4  -3   5   35.46    1.07
  -4  -3   5   36.34    1.09
   3   3  -5    0.75    0.14
   3   3  -5    1.18    0.22
  -3  -3   5    1.43    0.17
  -3  -3   5    1.20    0.15
  -3  -3   5    1.12    0.17
   2   3  -5   68.45    1.80
   2   3  -5   62.94    1.86
  -2  -3   5   68.62    1.75
  -2  -3   5   67.43    1.76
  -2  -3   5   70.36    1.75
   1   3  -5    0.68    0.16
   1   3  -5    0.66    0.12
  -1  -3   5    0.69    0.11
  -1  -3   5    0.69    0.10
   0   3  -5  120.07    3.09
   0   3  -5  116.75    3.04
   0  -3   5  124.12    3.01
   0  -3   5  122.47    2.95
  -1   3  -5   17.99    0.58
  -1   3  -5   19.03    0.60
  -1   3  -5   17.98    0.55
   1  -3   5   18.84    0.56
  -2   3  -5  131.91    3.27
  -2   3  -5  130.44    3.27
  -2   3  -5  130.45    3.28
   2  -3   5  132.21    3.24
  -3   3  -5    1.00    0.14
  -3   3  -5    0.70    0.12
  -3   3  -5    0.67    0.11
   3  -3   5    0.76    0.10
  -4   3  -5   56.32    1.50
  -4   3  -5   55.28    1.52
  -4   3  -5   56.16    1.47
   4  -3   5   56.36    1.46
  -5   3  -5    0.10    0.10
  -5   3  -5    0.08    0.10
  -5   3  -5    0.08    0.14
  -5   3  -5   -0.06    0.08
   5  -3   5    0.00    0.09
  -6   3  -5   20.84    0.66
  -6   3  -5   22.09    0.66
  -6   3  -5   22.01    0.76
  -6   3  -5   21.01    0.69
   6  -3   5   21.41    0.67
  -7   3  -5   -0.03    0.12
  -7   3  -5    0.20    0.12
  -7   3  -5    0.46    0.20
  -7   3  -5    0.12    0.13
   7  -3   5    0.13    0.14
  -8   3  -5    4.55    0.31
  -8   3  -5    4.32    0.40
   7   2  -5    6.81    0.56
  -7  -2   5    8.49    0.53
  -7  -2   5    8.78    0.58
  -7  -2   5    7.88    0.49
   6   2  -5    1.53    0.30
  -6  -2   5    0.81    0.23
  -6  -2   5    0.87    0.23
  -6  -2   5    1.13    0.26
   5   2  -5    9.66    0.42
   5   2  -5    6.78    0.48
  -5  -2   5    7.53    0.42
  -5  -2   5    8.93    0.43
  -5  -2   5    8.01    0.45
   4   2  -5    0.26    0.13
   4   2  -5    0.16    0.18
  -4  -2   5    0.38    0.15
  -4  -2   5    0.21    0.11
  -4  -2   5    0.10    0.11
   3   2  -5   61.53    1.81
   3   2  -5   66.77    1.75
  -3  -2   5   64.55    1.72
  -3  -2   5   66.62    1.72
  -3  -2   5   65.53    1.73
   2   2  -5    6.69    0.37
   2   2  -5    6.75    0.32
  -2  -2   5    6.75    0.29
  -2  -2   5    6.28    0.28
  -2  -2   5    6.76    0.29
   1   2  -5  114.09    3.04
   1   2  -5  121.32    3.01
  -1  -2   5  123.28    2.96
  -1  -2   5  115.20    2.92
   0   2  -5    1.32    0.15
   0   2  -5    1.46    0.18
   0  -2   5    1.42    0.10
   0  -2   5    1.22    0.12
  -1   2  -5   91.66    2.30
  -1   2  -5   89.81    2.29
   1  -2   5   88.71    2.32
   1  -2   5   87.81    2.17
  -2   2  -5   12.56    0.48
  -2   2  -5   12.89    0.44
  -2   2  -5   12.55    0.42
   2  -2   5   13.06    0.41
  -3   2  -5  146.28    3.50
  -3   2  -5  140.74    3.53
  -3   2  -5  142.99    3.52
   3  -2   5  142.45    3.49
   3  -2   5  137.38    3.43
  -4   2  -5    0.00    0.07
  -4   2  -5    0.14    0.11
  -4   2  -5    0.25    0.09
  -4   2  -5    0.22    0.08
   4  -2   5    0.13    0.07
   4  -2   5   -0.05    0.07
  -5   2  -5   67.52    1.74
  -5   2  -5   65.41    1.79
  -5   2  -5   65.29    1.71
  -5   2  -5   69.19    1.72
   5  -2   5   67.31    1.73
   5  -2   5   66.47    1.72
  -6   2  -5    0.00    0.09
  -6   2  -5    0.12    0.10
  -6   2  -5    0.03    0.09
  -6   2  -5    0.43    0.16
   6  -2   5   -0.09    0.10
  -7   2  -5    9.25    0.39
  -7   2  -5    9.39    0.40
  -7   2  -5    9.10    0.50
   7  -2   5    9.56    0.40
  -8   2  -5    0.66    0.17
  -8   2  -5    0.24    0.13
  -8   2  -5    0.63    0.24
   8  -2   5    0.28    0.17
   7   1  -5    0.13    0.26
  -7  -1   5   -0.02    0.22
  -7  -1   5    0.29    0.20
  -7  -1   5    0.31    0.24
   6   1  -5   18.80    0.65
   6   1  -5   15.80    0.75
  -6  -1   5   16.23    0.65
  -6  -1   5   15.23    0.65
  -6  -1   5   16.86    0.72
   5   1  -5    0.48    0.15
   5   1  -5    0.42    0.21
  -5  -1   5    0.40    0.15
  -5  -1   5    0.31    0.16
  -5  -1   5    0.36    0.17
   4   1  -5   62.68    1.71
   4   1  -5   64.46    1.80
  -4  -1   5   62.50    1.71
  -4  -1   5   63.46    1.73
  -4  -1   5   63.96    1.72
   3   1  -5    0.61    0.16
   3   1  -5    0.82    0.14
  -3  -1   5    0.99    0.15
  -3  -1   5    0.93    0.16
  -3  -1   5    0.99    0.14
   2   1  -5   11.30    0.49
   2   1  -5   12.10    0.45
  -2  -1   5   11.12    0.41
  -2  -1   5   12.21    0.42
  -2  -1   5   12.23    0.42
   1   1  -5    5.16    0.27
   1   1  -5    4.38    0.28
  -1  -1   5    4.90    0.22
  -1  -1   5    4.80    0.22
  -1  -1   5    4.66    0.22
   0   1  -5  129.34    3.36
   0  -1   5  133.82    3.27
   0  -1   5  138.18    3.32
  -1   1  -5    3.81    0.21
   1  -1   5    3.28    0.14
  -2   1  -5  186.31    4.46
  -2   1  -5  175.18    4.46
   2  -1   5  182.28    4.42
  -3   1  -5    0.32    0.09
  -3   1  -5    0.38    0.09
  -3   1  -5    0.29    0.08
   3  -1   5    0.24    0.06
   3  -1   5    0.36    0.07
  -4   1  -5   33.72    0.88
  -4   1  -5   31.07    0.92
  -4   1  -5   32.72    0.89
   4  -1   5   34.14    0.89
   4  -1   5   30.82    0.87
  -5   1  -5    1.11    0.13
  -5   1  -5    1.23    0.13
  -5   1  -5    1.38    0.18
  -5   1  -5    1.37    0.12
   5  -1   5    1.07    0.13
   5  -1   5    1.45    0.15
   5  -1   5    1.14    0.14
  -6   1  -5   44.09    1.19
  -6   1  -5   43.86    1.27
  -6   1  -5   42.23    1.17
  -6   1  -5   44.34    1.18
  -6   1  -5   41.77    1.18
   6  -1   5   44.94    1.21
   6  -1   5   44.17    1.23
  -7   1  -5   -0.09    0.11
  -7   1  -5    0.06    0.10
  -7   1  -5   -0.03    0.13
  -7   1  -5    0.18    0.13
  -7   1  -5    0.05    0.17
   7  -1   5    0.22    0.16
   7  -1   5    0.16    0.13
   7  -1   5   -0.05    0.12
  -8   1  -5    8.66    0.42
  -8   1  -5   10.77    0.55
   8  -1   5    9.99    0.61
   7   0  -5   10.64    0.68
   7   0  -5    9.88    0.51
  -7   0   5   10.54    0.63
  -7   0   5    9.79    0.57
  -7   0   5    8.88    0.48
  -7   0   5    8.68    0.54
   6   0  -5    0.16    0.15
   6   0  -5    0.21    0.20
  -6   0   5   -0.02    0.18
  -6   0   5    0.32    0.19
  -6   0   5    0.26    0.17
  -6   0   5    0.27    0.20
   5   0  -5   25.98    0.82
   5   0  -5   24.28    0.89
  -5   0   5   25.81    0.88
  -5   0   5   24.81    0.82
  -5   0   5   25.63    0.85
  -5   0   5   25.69    0.85
   4   0  -5   -0.04    0.11
   4   0  -5   -0.02    0.14
  -4   0   5   -0.06    0.12
  -4   0   5    0.12    0.11
  -4   0   5    0.24    0.15
  -4   0   5   -0.03    0.12
   3   0  -5   50.44    1.39
   3   0  -5   49.10    1.44
  -3   0   5   52.85    1.40
  -3   0   5   53.09    1.39
  -3   0   5   50.41    1.40
  -3   0   5   51.42    1.41
   2   0  -5    3.39    0.21
   2   0  -5    3.26    0.25
  -2   0   5    3.09    0.20
  -2   0   5    2.80    0.20
  -2   0   5    2.95    0.19
   1   0  -5   98.18    2.54
   1   0  -5   97.59    2.56
  -1   0   5  102.18    2.50
  -1   0   5  102.52    2.51
  -1   0   5   96.91    2.49
   0   0   5    5.34    0.21
   1   0   5  111.71    2.74
   2   0   5    5.76    0.21
  -3   0  -5   67.22    1.60
  -3   0  -5   58.16    1.62
   3   0   5   61.23    1.58
   3   0   5   64.03    1.60
  -4   0  -5    2.84    0.20
  -4   0  -5    3.26    0.18
  -4   0  -5    3.35    0.18
  -4   0  -5    3.32    0.18
   4   0   5    3.39    0.18
   4   0   5    3.36    0.19
   4   0   5    3.36    0.19
  -5   0  -5   54.82    1.40
  -5   0  -5   55.30    1.40
  -5   0  -5   56.01    1.39
  -5   0  -5   52.44    1.45
   5   0   5   51.10    1.42
   5   0   5   52.36    1.41
   5   0   5   51.30    1.40
  -6   0  -5   -0.01    0.07
  -6   0  -5   -0.09    0.10
  -6   0  -5    0.13    0.10
  -6   0  -5    0.05    0.13
   6   0   5    0.01    0.10
   6   0   5    0.07    0.10
   6   0   5   -0.02    0.12
  -7   0  -5   15.86    0.58
  -7   0  -5   16.17    0.57
  -7   0  -5   16.00    0.63
  -7   0  -5   15.62    0.55
   7   0   5   16.39    0.63
   7   0   5   15.34    0.58
  -8   0  -5    0.04    0.20
  -8   0  -5    0.05    0.15
  -8   0  -5   -0.17    0.11
  -8   0  -5   -0.19    0.15
   8   0   5    0.20    0.17
   8   0   5   -0.09    0.18
  -9   0  -5    4.32    0.41
  -9   0  -5    4.55    0.38
  -9   0  -5    3.75    0.32
  -9   0  -5    3.75    0.32
   9   0   5    3.73    0.40
   9   0   5    5.04    0.39
   7  -1  -5    0.08    0.19
   7  -1  -5    0.03    0.22
  -7   1   5   -0.20    0.21
  -7   1   5    0.19    0.27
  -7   1   5   -0.07    0.18
  -7   1   5   -0.09    0.19
   6  -1  -5    9.57    0.55
   6  -1  -5    9.44    0.47
  -6   1   5   10.48    0.57
  -6   1   5   11.05    0.53
  -6   1   5    9.51    0.50
  -6   1   5    9.28    0.48
   5  -1  -5    0.11    0.13
   5  -1  -5    0.15    0.15
  -5   1   5    0.19    0.19
  -5   1   5    0.31    0.13
  -5   1   5    0.21    0.16
  -5   1   5    0.15    0.16
   4  -1  -5   91.59    2.33
   4  -1  -5   85.85    2.37
  -4   1   5   90.73    2.34
  -4   1   5   91.15    2.38
  -4   1   5   89.70    2.36
  -4   1   5   90.04    2.34
   3  -1  -5    0.27    0.13
   3  -1  -5    0.20    0.10
  -3   1   5    0.15    0.09
  -3   1   5    0.16    0.11
  -3   1   5    0.26    0.10
  -3   1   5    0.14    0.13
   2  -1  -5   44.58    1.19
   2  -1  -5   44.12    1.21
  -2   1   5   41.84    1.17
  -2   1   5   42.76    1.19
  -2   1   5   44.04    1.17
  -2   1   5   43.41    1.19
   1  -1  -5   18.42    0.59
   1  -1  -5   16.98    0.57
  -1   1   5   18.99    0.56
  -1   1   5   19.05    0.57
  -1   1   5   18.07    0.56
  -1   1   5   18.09    0.55
   0   1   5  158.18    3.88
   1   1   5    0.11    0.06
   2   1   5  233.01    5.76
  -3  -1  -5    2.97    0.16
  -3  -1  -5    2.52    0.18
   3   1   5    2.63    0.16
   3   1   5    3.06    0.16
  -4  -1  -5   34.76    1.01
  -4  -1  -5   38.34    0.97
  -4  -1  -5   35.80    0.97
   4   1   5   35.16    0.98
   4   1   5   37.27    0.98
   4   1   5   35.13    0.98
  -5  -1  -5    4.94    0.23
  -5  -1  -5    4.81    0.28
  -5  -1  -5    5.72    0.26
   5   1   5    5.19    0.25
   5   1   5    5.32    0.28
   5   1   5    5.52    0.27
  -6  -1  -5   27.29    0.80
  -6  -1  -5   27.07    0.81
  -6  -1  -5   27.21    0.75
  -6  -1  -5   28.22    0.87
   6   1   5   27.35    0.83
   6   1   5   27.05    0.86
  -7  -1  -5   -0.03    0.11
  -7  -1  -5    0.23    0.14
  -7  -1  -5    0.05    0.15
   7   1   5    0.18    0.16
   7   1   5   -0.12    0.12
  -8  -1  -5   12.75    0.60
  -8  -1  -5   12.52    0.51
  -8  -1  -5   12.82    0.53
   8   1   5   13.84    0.62
   8   1   5   12.63    0.56
  -9  -1  -5    0.23    0.18
  -9  -1  -5   -0.04    0.15
  -9  -1  -5   -0.23    0.20
   9   1   5   -0.30    0.22
   9   1   5    0.16    0.19
   6  -2  -5   -0.06    0.15
   6  -2  -5    0.45    0.21
  -6   2   5   -0.02    0.22
  -6   2   5    0.14    0.18
  -6   2   5   -0.02    0.15
  -6   2   5    0.06    0.16
   5  -2  -5   12.46    0.49
   5  -2  -5   11.69    0.55
  -5   2   5   12.01    0.49
  -5   2   5   11.23    0.51
  -5   2   5   11.34    0.50
  -5   2   5   11.90    0.56
   4  -2  -5    0.34    0.16
   4  -2  -5    0.59    0.14
  -4   2   5    0.81    0.14
  -4   2   5    0.72    0.16
  -4   2   5    0.53    0.19
  -4   2   5    0.48    0.13
   3  -2  -5   64.38    1.67
   3  -2  -5   61.57    1.63
  -3   2   5   61.61    1.66
  -3   2   5   59.91    1.67
  -3   2   5   61.83    1.62
  -3   2   5   61.13    1.63
   2  -2  -5    1.17    0.13
   2  -2  -5    1.40    0.15
  -2   2   5    1.65    0.18
  -2   2   5    1.31    0.13
  -2   2   5    1.46    0.14
  -2   2   5    1.29    0.15
   1  -2  -5  249.32    6.21
   1  -2  -5  255.93    6.22
  -1   2   5  254.28    6.20
  -1   2   5  254.41    6.21
  -1   2   5  252.94    6.23
  -1   2   5  263.60    6.24
   0  -2  -5    5.97    0.27
   0   2   5    5.26    0.24
   0   2   5    5.15    0.24
   1   2   5  114.54    2.84
   2   2   5    0.50    0.09
  -3  -2  -5  109.22    2.70
  -3  -2  -5  107.07    2.75
   3   2   5  111.12    2.71
   3   2   5  109.49    2.72
   3   2   5  108.75    2.72
  -4  -2  -5    3.33    0.23
  -4  -2  -5    3.55    0.19
  -4  -2  -5    3.68    0.18
   4   2   5    3.58    0.18
   4   2   5    3.67    0.21
   4   2   5    3.59    0.22
  -5  -2  -5   96.42    2.42
  -5  -2  -5   90.77    2.48
  -5  -2  -5   98.10    2.44
   5   2   5   98.01    2.46
   5   2   5   96.21    2.47
  -6  -2  -5    0.72    0.17
  -6  -2  -5    0.49    0.13
  -6  -2  -5    0.76    0.13
   6   2   5    0.49    0.13
   6   2   5    0.82    0.18
  -7  -2  -5   12.99    0.52
  -7  -2  -5   14.99    0.59
  -7  -2  -5   12.91    0.49
   7   2   5   14.09    0.55
   7   2   5   14.94    0.60
  -8  -2  -5    0.05    0.14
  -8  -2  -5   -0.02    0.16
  -8  -2  -5    0.06    0.17
   8   2   5   -0.21    0.18
   8   2   5    0.15    0.17
  -9  -2  -5    5.22    0.44
  -9  -2  -5    4.56    0.37
  -9  -2  -5    4.41    0.35
   9   2   5    4.60    0.39
   9   2   5    5.21    0.46
   6  -3  -5    5.37    0.36
   6  -3  -5    3.92    0.38
  -6   3   5    4.54    0.36
  -6   3   5    4.38    0.37
  -6   3   5    4.22    0.42
  -6   3   5    4.83    0.34
   5  -3  -5   -0.07    0.11
   5  -3  -5    0.36    0.19
  -5   3   5   -0.02    0.13
  -5   3   5   -0.06    0.13
  -5   3   5    0.16    0.15
  -5   3   5   -0.04    0.17
   4  -3  -5   44.53    1.29
   4  -3  -5   41.69    1.24
  -4   3   5   44.77    1.34
  -4   3   5   46.43    1.24
  -4   3   5   46.01    1.27
  -4   3   5   44.75    1.29
  -4   3   5   45.38    1.25
   3  -3  -5    4.76    0.26
   3  -3  -5    4.43    0.28
  -3   3   5    4.09    0.25
  -3   3   5    4.89    0.32
  -3   3   5    4.65    0.25
  -3   3   5    3.79    0.27
  -3   3   5    3.72    0.22
   2  -3  -5   92.15    2.40
  -2   3   5   93.44    2.38
  -2   3   5   95.63    2.38
  -2   3   5   94.89    2.44
  -2   3   5   96.21    2.43
   1  -3  -5    2.99    0.18
  -1   3   5    2.91    0.21
  -1   3   5    2.97    0.21
  -1   3   5    2.96    0.19
  -1   3   5    3.14    0.17
   0  -3  -5  104.78    2.58
   0   3   5   98.62    2.58
   0   3   5  105.10    2.60
   1   3   5    6.59    0.27
   1   3   5    6.51    0.27
  -2  -3  -5  121.54    3.05
   2   3   5  122.55    3.04
  -3  -3  -5    0.02    0.08
  -3  -3  -5    0.05    0.06
   3   3   5   -0.09    0.06
   3   3   5    0.00    0.09
   3   3   5    0.11    0.06
  -4  -3  -5  136.73    3.28
  -4  -3  -5  129.88    3.35
   4   3   5  133.30    3.31
   4   3   5  133.51    3.28
   4   3   5  128.72    3.32
  -5  -3  -5    0.25    0.14
  -5  -3  -5    0.26    0.11
  -5  -3  -5    0.17    0.08
   5   3   5    0.29    0.14
   5   3   5    0.18    0.09
  -6  -3  -5   32.78    1.04
  -6  -3  -5   34.13    1.00
  -6  -3  -5   35.64    0.98
   6   3   5   33.98    1.02
   6   3   5   34.00    1.04
  -7  -3  -5    2.36    0.27
  -7  -3  -5    2.10    0.21
  -7  -3  -5    2.29    0.23
   7   3   5    1.79    0.23
   7   3   5    2.32    0.29
  -8  -3  -5   15.72    0.63
  -8  -3  -5   15.05    0.59
  -8  -3  -5   16.16    0.68
   8   3   5   16.51    0.67
   8   3   5   18.47    0.74
  -9  -3  -5    0.12    0.19
  -9  -3  -5   -0.08    0.17
  -9  -3  -5    0.35    0.24
   9   3   5    0.04    0.19
   9   3   5   -0.01    0.23
   6  -4  -5    0.52    0.24
   6  -4  -5    0.51    0.19
  -6   4   5    0.76    0.28
  -6   4   5    1.30    0.24
  -6   4   5    0.66    0.17
  -6   4   5    0.33    0.20
   5  -4  -5   16.17    0.66
   5  -4  -5   16.32    0.61
  -5   4   5   16.92    0.71
  -5   4   5   14.83    0.62
  -5   4   5   15.99    0.57
  -5   4   5   15.81    0.59
  -5   4   5   16.14    0.62
   4  -4  -5    0.64    0.15
  -4   4   5    0.80    0.14
  -4   4   5    0.71    0.19
  -4   4   5    0.48    0.15
  -4   4   5    0.53    0.14
  -4   4   5    0.74    0.16
   3  -4  -5   19.43    0.70
   3  -4  -5   23.86    0.72
  -3   4   5   24.44    0.79
  -3   4   5   23.48    0.70
  -3   4   5   22.00    0.68
  -3   4   5   23.90    0.75
  -3   4   5   23.27    0.71
   2  -4  -5    0.98    0.12
   2  -4  -5    0.87    0.12
  -2   4   5    1.25    0.14
  -2   4   5    1.03    0.11
  -2   4   5    1.04    0.13
  -2   4   5    0.76    0.17
  -2   4   5    0.86    0.15
   1  -4  -5  156.78    3.82
   1  -4  -5  154.97    3.84
  -1   4   5  152.42    3.82
  -1   4   5  156.38    3.87
  -1   4   5  154.87    3.88
  -1   4   5  155.68    3.81
   0  -4  -5   15.81    0.52
   0  -4  -5   17.31    0.52
   0   4   5   16.12    0.54
   0   4   5   17.04    0.55
  -1  -4  -5   82.10    2.14
   1   4   5   82.46    2.14
   1   4   5   86.90    2.15
  -2  -4  -5    0.22    0.09
   2   4   5    0.21    0.09
   2   4   5    0.33    0.10
  -3  -4  -5   56.08    1.53
  -3  -4  -5   57.17    1.46
   3   4   5   59.54    1.47
   3   4   5   55.29    1.52
   3   4   5   57.62    1.51
  -4  -4  -5   -0.02    0.07
   4   4   5   -0.02    0.08
   4   4   5   -0.08    0.07
   4   4   5    0.06    0.11
  -5  -4  -5  106.52    2.81
  -5  -4  -5  108.33    2.75
  -5  -4  -5  108.54    2.72
   5   4   5  109.60    2.80
   5   4   5  108.63    2.78
  -6  -4  -5    1.23    0.21
  -6  -4  -5    0.88    0.14
  -6  -4  -5    1.28    0.19
   6   4   5    0.86    0.16
   6   4   5    0.77    0.19
  -7  -4  -5   23.11    0.82
  -7  -4  -5   22.60    0.77
  -7  -4  -5   22.53    0.74
   7   4   5   22.79    0.80
   7   4   5   23.54    0.85
  -8  -4  -5    0.39    0.17
  -8  -4  -5    0.24    0.17
  -8  -4  -5    0.59    0.21
   8   4   5    0.43    0.23
   8   4   5    0.32    0.19
  -9  -4  -5    4.49    0.34
  -9  -4  -5    6.00    0.46
  -9  -4  -5    4.05    0.36
   9   4   5    5.51    0.49
   9   4   5    5.23    0.43
   6  -5  -5    7.95    0.45
   6  -5  -5    8.41    0.53
  -6   5   5    6.30    0.43
  -6   5   5    6.95    0.46
  -6   5   5    7.45    0.56
  -6   5   5    6.86    0.41
   5  -5  -5    0.05    0.16
  -5   5   5    0.10    0.14
  -5   5   5    0.21    0.16
  -5   5   5    0.00    0.21
  -5   5   5    0.20    0.16
   4  -5  -5   34.60    1.06
  -4   5   5   38.50    1.06
  -4   5   5   35.50    1.07
  -4   5   5   36.43    1.10
  -4   5   5   36.29    1.16
   3  -5  -5    0.15    0.10
   3  -5  -5    0.03    0.10
  -3   5   5   -0.01    0.11
  -3   5   5    0.06    0.10
  -3   5   5    0.03    0.16
  -3   5   5    0.01    0.12
   2  -5  -5   43.57    1.19
   2  -5  -5   45.41    1.21
  -2   5   5   43.51    1.19
  -2   5   5   44.04    1.16
  -2   5   5   42.06    1.24
  -2   5   5   43.60    1.19
  -2   5   5   44.83    1.27
   1  -5  -5    5.88    0.27
   1  -5  -5    5.48    0.27
  -1   5   5    6.54    0.31
  -1   5   5    5.43    0.31
  -1   5   5    6.06    0.26
  -1   5   5    6.14    0.26
   0  -5  -5  100.33    2.54
   0  -5  -5   99.73    2.55
   0   5   5   99.73    2.53
   0   5   5  100.23    2.59
   0   5   5  102.31    2.51
   0   5   5  103.93    2.59
  -1  -5  -5    2.16    0.18
  -1  -5  -5    2.17    0.15
   1   5   5    1.43    0.15
   1   5   5    1.70    0.18
  -2  -5  -5  118.92    3.04
   2   5   5  120.99    3.04
   2   5   5  121.66    3.03
  -3  -5  -5    2.35    0.14
  -3  -5  -5    1.98    0.19
   3   5   5    2.22    0.15
   3   5   5    2.41    0.20
   3   5   5    2.30    0.21
  -4  -5  -5   75.59    1.92
  -4  -5  -5   75.36    2.02
   4   5   5   77.59    1.99
   4   5   5   74.31    1.93
   4   5   5   75.35    2.01
  -5  -5  -5    8.68    0.37
  -5  -5  -5    8.79    0.34
  -5  -5  -5    8.81    0.43
   5   5   5    9.82    0.41
   5   5   5    8.37    0.41
  -6  -5  -5   19.14    0.66
  -6  -5  -5   19.19    0.61
  -6  -5  -5   19.72    0.71
   6   5   5   19.48    0.72
   6   5   5   16.66    0.65
  -7  -5  -5   -0.04    0.17
  -7  -5  -5   -0.07    0.11
  -7  -5  -5   -0.08    0.16
   7   5   5    0.11    0.20
   7   5   5    0.09    0.15
  -8  -5  -5   14.33    0.64
  -8  -5  -5   13.55    0.60
  -8  -5  -5   13.67    0.56
   8   5   5   14.81    0.71
   8   5   5   13.65    0.62
  -9  -5  -5    0.12    0.19
  -9  -5  -5    0.03    0.20
  -9  -5  -5    0.19    0.23
   9   5   5   -0.13    0.20
   9   5   5    0.03    0.26
   5  -6  -5   16.22    0.66
  -5   6   5   18.65    0.78
  -5   6   5   16.31    0.67
  -5   6   5   18.38    0.68
  -5   6   5   16.95    0.63
   4  -6  -5    1.81    0.23
  -4   6   5    1.55    0.26
  -4   6   5    1.79    0.23
  -4   6   5    1.53    0.19
  -4   6   5    1.51    0.21
   3  -6  -5   21.39    0.69
   3  -6  -5   20.52    0.67
  -3   6   5   19.75    0.66
  -3   6   5   20.94    0.68
  -3   6   5   20.79    0.71
  -3   6   5   19.47    0.74
   2  -6  -5    2.40    0.20
   2  -6  -5    2.02    0.19
  -2   6   5    2.10    0.18
  -2   6   5    2.20    0.25
  -2   6   5    2.78    0.24
  -2   6   5    2.43    0.20
   1  -6  -5   89.03    2.27
   1  -6  -5   87.36    2.25
  -1   6   5   90.44    2.23
  -1   6   5   86.40    2.29
  -1   6   5   87.79    2.32
  -1   6   5   86.64    2.24
   0  -6  -5    0.05    0.08
   0  -6  -5   -0.03    0.09
   0   6   5   -0.11    0.12
   0   6   5    0.16    0.08
   0   6   5    0.00    0.10
   0   6   5    0.03    0.07
  -1  -6  -5  181.74    4.50
  -1  -6  -5  181.10    4.55
   1   6   5  182.42    4.49
   1   6   5  184.94    4.58
   1   6   5  184.25    4.47
   1   6   5  186.91    4.57
  -2  -6  -5    5.34    0.30
   2   6   5    5.87    0.30
   2   6   5    6.16    0.32
  -3  -6  -5   51.15    1.41
  -3  -6  -5   51.06    1.32
   3   6   5   51.73    1.42
   3   6   5   50.69    1.33
   3   6   5   50.84    1.40
  -4  -6  -5    0.18    0.13
  -4  -6  -5    0.09    0.08
   4   6   5    0.08    0.10
   4   6   5    0.08    0.08
   4   6   5    0.28    0.15
  -5  -6  -5   29.67    0.89
  -5  -6  -5   28.34    0.93
  -5  -6  -5   31.22    0.85
   5   6   5   29.33    0.91
   5   6   5   27.94    0.94
  -6  -6  -5    1.31    0.23
  -6  -6  -5    1.32    0.17
  -6  -6  -5    1.17    0.19
   6   6   5    1.50    0.23
   6   6   5    1.52    0.26
  -7  -6  -5   19.09    0.65
  -7  -6  -5   18.24    0.74
  -7  -6  -5   18.03    0.70
   7   6   5   19.76    0.79
   7   6   5   19.31    0.73
  -8  -6  -5    0.46    0.19
  -8  -6  -5    0.71    0.23
  -8  -6  -5    0.50    0.19
   8   6   5    0.40    0.20
   8   6   5    0.56    0.28
  -9  -6  -5    2.32    0.32
  -9  -6  -5    2.80    0.36
  -9  -6  -5    2.74    0.30
   9   6   5    2.23    0.34
   9   6   5    2.35    0.40
   5  -7  -5    0.19    0.20
  -5   7   5    0.13    0.18
  -5   7   5    0.10    0.25
  -5   7   5   -0.33    0.16
  -5   7   5    0.00    0.17
   4  -7  -5   21.67    0.77
  -4   7   5   22.88    0.76
  -4   7   5   21.43    0.77
  -4   7   5   21.47    0.76
  -4   7   5   22.29    0.85
   3  -7  -5    0.69    0.17
   3  -7  -5    0.51    0.16
  -3   7   5    0.50    0.15
  -3   7   5    0.47    0.21
  -3   7   5    0.62    0.15
  -3   7   5    0.64    0.17
   2  -7  -5   41.36    1.21
   2  -7  -5   43.38    1.22
  -2   7   5   42.03    1.19
  -2   7   5   42.40    1.29
  -2   7   5   42.55    1.24
  -2   7   5   43.42    1.19
   1  -7  -5    0.13    0.11
   1  -7  -5   -0.09    0.11
  -1   7   5    0.10    0.12
  -1   7   5    0.19    0.10
  -1   7   5    0.10    0.15
  -1   7   5    0.05    0.09
   0  -7  -5   65.50    1.72
   0  -7  -5   65.19    1.68
   0   7   5   61.42    1.73
   0   7   5   64.55    1.75
   0   7   5   63.24    1.65
   0   7   5   63.67    1.66
  -1  -7  -5    1.74    0.19
  -1  -7  -5    1.84    0.16
   1   7   5    1.78    0.14
   1   7   5    2.05    0.22
   1   7   5    1.97    0.21
   1   7   5    1.90    0.14
  -2  -7  -5   87.25    2.35
   2   7   5   91.74    2.25
   2   7   5   91.94    2.27
   2   7   5   89.81    2.34
   2   7   5   89.31    2.37
  -3  -7  -5    0.48    0.14
  -3  -7  -5    0.57    0.10
   3   7   5    0.51    0.10
   3   7   5    0.76    0.15
   3   7   5    0.98    0.18
  -4  -7  -5   67.94    1.89
  -4  -7  -5   71.91    1.79
   4   7   5   71.16    1.88
   4   7   5   70.62    1.92
   4   7   5   67.72    1.80
  -5  -7  -5    0.05    0.09
  -5  -7  -5   -0.10    0.14
   5   7   5    0.07    0.12
   5   7   5   -0.16    0.15
  -6  -7  -5   10.79    0.49
  -6  -7  -5   10.41    0.42
  -6  -7  -5   11.88    0.55
   6   7   5   11.77    0.57
   6   7   5   10.70    0.51
  -7  -7  -5    0.12    0.13
  -7  -7  -5    0.14    0.19
  -7  -7  -5   -0.12    0.19
   7   7   5    0.21    0.22
   7   7   5    0.24    0.17
  -8  -7  -5    9.56    0.53
  -8  -7  -5    9.24    0.56
  -8  -7  -5   10.11    0.47
   8   7   5    9.12    0.53
   8   7   5   10.45    0.65
   4  -8  -5    1.48    0.24
   4  -8  -5    1.11    0.23
  -4   8   5    1.31    0.23
  -4   8   5    1.19    0.27
  -4   8   5    0.97    0.20
   3  -8  -5   14.56    0.59
   3  -8  -5   15.30    0.60
  -3   8   5   14.19    0.59
  -3   8   5   15.38    0.58
  -3   8   5   14.38    0.66
  -3   8   5   14.77    0.56
   2  -8  -5    0.34    0.16
   2  -8  -5    0.33    0.16
  -2   8   5    0.32    0.20
  -2   8   5    0.23    0.12
  -2   8   5    0.63    0.16
  -2   8   5    0.40    0.14
   1  -8  -5   28.69    0.88
   1  -8  -5   31.47    0.93
  -1   8   5   29.02    0.86
  -1   8   5   28.46    0.96
  -1   8   5   30.78    0.88
  -1   8   5   29.00    0.92
   0  -8  -5    0.70    0.14
   0  -8  -5    0.77    0.17
   0   8   5    0.70    0.12
   0   8   5    0.69    0.15
   0   8   5    0.66    0.18
   0   8   5    0.64    0.12
  -1  -8  -5   43.03    1.17
  -1  -8  -5   43.52    1.24
   1   8   5   42.53    1.24
   1   8   5   43.97    1.15
   1   8   5   41.70    1.15
   1   8   5   42.79    1.27
  -2  -8  -5    0.10    0.14
   2   8   5    0.20    0.13
   2   8   5    0.22    0.16
   2   8   5    0.44    0.09
   2   8   5    0.28    0.08
  -3  -8  -5   49.65    1.28
  -3  -8  -5   50.18    1.41
   3   8   5   47.73    1.31
   3   8   5   49.61    1.39
   3   8   5   47.87    1.42
  -4  -8  -5    1.84    0.23
  -4  -8  -5    1.98    0.17
   4   8   5    2.15    0.23
   4   8   5    2.26    0.18
   4   8   5    2.23    0.28
  -5  -8  -5   33.30    1.06
  -5  -8  -5   32.44    0.93
   5   8   5   31.81    1.03
   5   8   5   32.71    1.08
  -6  -8  -5    1.40    0.26
  -6  -8  -5    1.28    0.17
   6   8   5    1.49    0.30
   6   8   5    0.99    0.20
  -7  -8  -5   17.02    0.61
  -7  -8  -5   16.05    0.67
  -7  -8  -5   16.41    0.72
   7   8   5   16.46    0.69
   7   8   5   16.38    0.76
  -8  -8  -5    0.26    0.18
  -8  -8  -5    0.36    0.26
  -8  -8  -5    0.35    0.23
   8   8   5    0.02    0.24
   8   8   5    0.21    0.21
   3  -9  -5   -0.10    0.18
   3  -9  -5    0.05    0.18
  -3   9   5    0.07    0.21
  -3   9   5   -0.06    0.15
  -3   9   5    0.05    0.15
   2  -9  -5   19.34    0.73
   2  -9  -5   19.83    0.71
  -2   9   5   19.04    0.79
  -2   9   5   19.97    0.69
  -2   9   5   19.69    0.68
   1  -9  -5    3.09    0.29
   1  -9  -5    4.19    0.30
  -1   9   5    4.45    0.38
  -1   9   5    4.13    0.32
  -1   9   5    4.27    0.28
  -1   9   5    4.51    0.29
   0  -9  -5   14.95    0.61
   0  -9  -5   16.85    0.57
   0   9   5   15.97    0.65
   0   9   5   15.42    0.54
   0   9   5   15.53    0.60
   0   9   5   15.48    0.54
  -1  -9  -5   -0.13    0.13
  -1  -9  -5    0.00    0.10
   1   9   5   -0.01    0.16
   1   9   5    0.10    0.13
   1   9   5    0.00    0.09
   1   9   5    0.01    0.08
  -2  -9  -5   14.65    0.60
   2   9   5   15.38    0.48
   2   9   5   14.06    0.61
   2   9   5   14.15    0.56
   2   9   5   15.20    0.48
  -3  -9  -5    0.32    0.16
   3   9   5    0.20    0.13
   3   9   5    0.26    0.20
  -4  -9  -5   61.12    1.73
   4   9   5   59.73    1.75
   4   9   5   60.35    1.70
  -5  -9  -5    1.08    0.24
  -5  -9  -5    0.96    0.15
   5   9   5    0.81    0.27
   5   9   5    1.22    0.17
   5   9   5    1.19    0.21
  -6  -9  -5   12.16    0.62
  -6  -9  -5   11.51    0.46
   6   9   5   12.96    0.67
   6   9   5   10.82    0.55
  -7  -9  -5    0.61    0.26
  -7  -9  -5    0.50    0.17
  -7  -9  -5    0.09    0.22
   7   9   5    0.04    0.21
   7   9   5   -0.01    0.26
  -8  -9  -5    4.88    0.46
  -8  -9  -5    4.93    0.36
  -8  -9  -5    4.89    0.43
   8   9   5    4.71    0.44
   2 -10  -5    0.18    0.19
   2 -10  -5    0.12    0.20
  -2  10   5    0.08    0.23
  -2  10   5    0.20    0.15
  -2  10   5    0.15    0.13
   1 -10  -5   18.26    0.72
   1 -10  -5   18.65    0.67
  -1  10   5   17.90    0.64
  -1  10   5   17.47    0.74
  -1  10   5   17.88    0.64
   0 -10  -5    0.98    0.22
   0 -10  -5    0.37    0.15
   0  10   5    0.37    0.13
   0  10   5    0.48    0.13
   0  10   5    0.25    0.21
  -1 -10  -5   22.04    0.70
  -1 -10  -5   22.12    0.80
   1  10   5   21.28    0.77
   1  10   5   21.33    0.68
   1  10   5   22.25    0.68
   1  10   5   20.99    0.81
  -2 -10  -5    1.52    0.26
   2  10   5    1.73    0.28
   2  10   5    1.62    0.18
   2  10   5    1.52    0.23
  -3 -10  -5   22.78    0.83
   3  10   5   22.35    0.85
   3  10   5   22.37    0.79
  -4 -10  -5    1.07    0.24
   4  10   5    1.54    0.24
   4  10   5    1.45    0.30
  -5 -10  -5   11.25    0.59
   5  10   5   10.75    0.63
   5  10   5   11.04    0.55
  -6 -10  -5    0.01    0.21
  -6 -10  -5    0.03    0.14
   6  10   5    0.00    0.19
   6  10   5   -0.28    0.24
  -7 -10  -5    8.37    0.59
  -7 -10  -5    7.54    0.41
   7  10   5    7.60    0.51
   7  10   5    7.87    0.63
   1 -11  -5    0.53    0.22
   1 -11  -5    0.45    0.19
  -1  11   5    0.09    0.23
  -1  11   5    0.46    0.17
  -1  11   5    0.16    0.16
   0 -11  -5   24.72    0.83
   0 -11  -5   25.04    0.93
   0  11   5   25.38    0.82
   0  11   5   26.89    0.99
   0  11   5   26.23    0.84
  -1 -11  -5    0.87    0.25
  -1 -11  -5    0.66    0.17
   1  11   5    0.67    0.16
   1  11   5    0.81    0.26
   1  11   5    0.60    0.14
  -2 -11  -5   14.05    0.64
   2  11   5   14.57    0.70
  -3 -11  -5   -0.17    0.19
   3  11   5   -0.01    0.15
   3  11   5   -0.16    0.21
  -4 -11  -5   17.93    0.76
   4  11   5   16.71    0.71
   4  11   5   16.12    0.77
  -5 -11  -5    0.94    0.27
   5  11   5    1.35    0.33
   5  11   5    1.55    0.28
  -6 -11  -5    6.03    0.51
   6  11   5    5.63    0.56
   6  11   5    5.73    0.46
  -1 -12  -5   19.29    0.81
   1  12   5   18.73    0.66
   1  12   5   17.62    0.64
   1  12   5   18.24    0.81
  -2 -12  -5    0.29    0.24
   2  12   5    0.24    0.26
  -3 -12  -5   15.61    0.73
   3  12   5   15.22    0.75
  -4 -12  -5    0.48    0.26
   4  12   5    0.37    0.28
   4  12   5    0.42    0.20
   3   9  -6    8.22    0.62
   2   9  -6    0.10    0.16
   2   9  -6    0.01    0.24
   1   9  -6    7.14    0.41
   1   9  -6    7.26    0.55
   0   9  -6    0.65    0.20
   0   9  -6    0.10    0.21
   0  -9   6    0.80    0.21
  -1   9  -6   11.32    0.55
  -1   9  -6   11.00    0.62
  -1   9  -6   11.94    0.57
   1  -9   6   11.94    0.57
  -2   9  -6    0.44    0.22
  -2   9  -6    0.48    0.21
  -2   9  -6    0.72    0.24
   2  -9   6    0.37    0.23
  -3   9  -6    9.79    0.54
  -3   9  -6    9.31    0.53
  -3   9  -6    9.40    0.57
   3  -9   6    9.22    0.55
   4   8  -6    3.96    0.44
  -4  -8   6    3.23    0.33
   3   8  -6    0.11    0.24
  -3  -8   6    0.37    0.17
   2   8  -6   15.80    0.58
   2   8  -6   14.90    0.74
  -2  -8   6   15.18    0.60
   1   8  -6    0.09    0.14
   1   8  -6   -0.08    0.21
   0   8  -6   12.94    0.54
   0   8  -6   14.62    0.68
   0   8  -6   13.66    0.56
   0  -8   6   13.30    0.55
  -1   8  -6    0.99    0.21
  -1   8  -6    1.24    0.22
  -1   8  -6    1.03    0.23
   1  -8   6    1.51    0.23
  -2   8  -6    9.47    0.53
  -2   8  -6   10.33    0.51
  -2   8  -6   10.54    0.51
   2  -8   6   10.19    0.51
  -3   8  -6    0.65    0.22
  -3   8  -6    0.88    0.23
  -3   8  -6    0.50    0.21
   3  -8   6    0.40    0.21
  -4   8  -6   12.34    0.60
  -4   8  -6   12.44    0.60
  -4   8  -6   11.03    0.57
   4  -8   6   11.80    0.62
   5   7  -6    6.54    0.54
  -5  -7   6    5.41    0.43
  -5  -7   6    5.69    0.41
   4   7  -6    0.04    0.24
  -4  -7   6   -0.17    0.13
   3   7  -6   14.99    0.73
   3   7  -6   14.48    0.55
  -3  -7   6   13.53    0.56
   2   7  -6    0.17    0.13
   2   7  -6    0.03    0.18
  -2  -7   6    0.04    0.12
   1   7  -6   13.09    0.52
   1   7  -6   12.82    0.64
  -1  -7   6   13.80    0.49
   0   7  -6   -0.08    0.17
   0   7  -6    0.12    0.11
   0   7  -6    0.24    0.14
   0  -7   6    0.17    0.14
  -1   7  -6   16.39    0.68
  -1   7  -6   15.09    0.60
  -1   7  -6   16.75    0.60
   1  -7   6   15.76    0.61
  -2   7  -6    0.72    0.19
  -2   7  -6    0.80    0.19
  -2   7  -6    0.39    0.17
   2  -7   6    0.66    0.18
  -3   7  -6   12.01    0.54
  -3   7  -6   12.68    0.56
  -3   7  -6   12.21    0.54
   3  -7   6   13.35    0.58
  -4   7  -6    0.57    0.20
  -4   7  -6    0.65    0.20
  -4   7  -6    0.46    0.18
   4  -7   6    0.68    0.23
  -5   7  -6    7.88    0.47
  -5   7  -6    9.42    0.51
  -5   7  -6    8.64    0.52
   5  -7   6    8.83    0.55
   5   6  -6   -0.04    0.21
   5   6  -6    0.01    0.25
  -5  -6   6   -0.11    0.19
  -5  -6   6    0.11    0.20
  -5  -6   6    0.22    0.20
   4   6  -6    8.43    0.58
   4   6  -6   10.23    0.52
  -4  -6   6    9.64    0.47
  -4  -6   6    8.80    0.44
  -4  -6   6    9.10    0.45
   3   6  -6    0.19    0.14
   3   6  -6    0.14    0.22
  -3  -6   6    0.07    0.12
  -3  -6   6    0.01    0.13
   2   6  -6   22.02    0.87
   2   6  -6   22.61    0.73
  -2  -6   6   22.18    0.72
   1   6  -6   -0.01    0.09
   1   6  -6   -0.13    0.15
   1   6  -6   -0.11    0.10
  -1  -6   6    0.02    0.09
   0   6  -6   31.56    0.93
   0   6  -6   32.03    0.98
   0   6  -6   34.72    1.07
   0  -6   6   31.27    0.94
   0  -6   6   32.18    0.92
  -1   6  -6    0.15    0.17
  -1   6  -6    0.34    0.15
  -1   6  -6    0.13    0.13
   1  -6   6    0.19    0.13
   1  -6   6    0.13    0.09
  -2   6  -6   10.00    0.43
  -2   6  -6   10.56    0.49
  -2   6  -6   10.37    0.46
   2  -6   6   10.26    0.46
  -3   6  -6    0.45    0.16
  -3   6  -6    0.51    0.16
  -3   6  -6    0.86    0.18
   3  -6   6    0.68    0.19
  -4   6  -6   12.57    0.55
  -4   6  -6   13.46    0.57
  -4   6  -6   13.35    0.55
   4  -6   6   12.26    0.58
  -5   6  -6    0.17    0.17
  -5   6  -6    0.30    0.21
  -5   6  -6    0.23    0.17
   5  -6   6    0.18    0.21
  -6   6  -6    8.47    0.47
  -6   6  -6    7.77    0.51
  -6   6  -6    8.39    0.46
   6  -6   6    9.42    0.58
   6   5  -6   -0.10    0.26
   6   5  -6   -0.15    0.26
  -6  -5   6   -0.09    0.21
  -6  -5   6    0.00    0.23
  -6  -5   6   -0.11    0.19
   5   5  -6   16.84    0.72
   5   5  -6   16.37    0.78
  -5  -5   6   17.35    0.70
  -5  -5   6   15.25    0.64
  -5  -5   6   15.54    0.65
   4   5  -6    0.05    0.14
   4   5  -6   -0.28    0.20
   4   5  -6   -0.07    0.17
  -4  -5   6    0.17    0.17
  -4  -5   6    0.07    0.16
  -4  -5   6   -0.15    0.12
   3   5  -6   34.45    1.19
   3   5  -6   33.49    1.05
   3   5  -6   35.00    1.05
  -3  -5   6   36.31    1.04
  -3  -5   6   35.74    1.06
  -3  -5   6   36.03    1.03
   2   5  -6    1.53    0.19
   2   5  -6    2.03    0.30
  -2  -5   6    1.93    0.20
  -2  -5   6    2.14    0.20
  -2  -5   6    2.10    0.18
   1   5  -6   20.43    0.79
   1   5  -6   20.56    0.64
   1   5  -6   20.25    0.68
  -1  -5   6   21.71    0.66
   0   5  -6    0.32    0.11
   0   5  -6    0.70    0.20
   0   5  -6    0.78    0.15
   0  -5   6    0.50    0.10
   0  -5   6    0.46    0.12
  -1   5  -6   54.60    1.54
  -1   5  -6   52.18    1.49
  -1   5  -6   53.79    1.46
   1  -5   6   56.76    1.48
   1  -5   6   54.28    1.44
  -2   5  -6    0.14    0.15
  -2   5  -6    0.12    0.11
  -2   5  -6    0.38    0.14
   2  -5   6    0.13    0.10
  -3   5  -6   26.21    0.82
  -3   5  -6   24.58    0.80
  -3   5  -6   25.94    0.82
  -4   5  -6    0.64    0.16
  -4   5  -6    0.95    0.20
  -4   5  -6    0.67    0.17
  -5   5  -6    7.08    0.44
  -5   5  -6    8.15    0.41
  -5   5  -6    8.00    0.41
  -6   5  -6    0.32    0.16
  -6   5  -6    0.50    0.23
  -6   5  -6    0.19    0.16
  -7   5  -6    7.32    0.52
   6   4  -6   12.09    0.67
   6   4  -6   11.26    0.69
  -6  -4   6   11.04    0.58
  -6  -4   6   11.22    0.61
  -6  -4   6   11.06    0.57
   5   4  -6    0.32    0.21
   5   4  -6    0.73    0.26
  -5  -4   6    0.67    0.18
  -5  -4   6    0.27    0.18
  -5  -4   6    0.39    0.21
   4   4  -6   20.41    0.69
   4   4  -6   19.56    0.81
  -4  -4   6   19.89    0.71
  -4  -4   6   19.64    0.69
  -4  -4   6   18.49    0.69
   3   4  -6    0.32    0.14
   3   4  -6    0.41    0.21
  -3  -4   6    0.35    0.14
  -3  -4   6    0.30    0.13
  -3  -4   6    0.16    0.14
   2   4  -6   33.19    1.14
   2   4  -6   36.57    1.06
  -2  -4   6   35.53    1.03
  -2  -4   6   34.87    0.99
  -2  -4   6   37.31    1.00
   1   4  -6    5.40    0.31
   1   4  -6    5.59    0.40
  -1  -4   6    5.20    0.27
  -1  -4   6    5.37    0.24
  -1  -4   6    5.46    0.24
   0   4  -6   93.06    2.52
   0   4  -6  100.12    2.60
   0  -4   6  100.71    2.49
  -1   4  -6    0.45    0.12
  -1   4  -6    0.39    0.16
  -1   4  -6    0.39    0.11
   1  -4   6    0.53    0.11
  -2   4  -6   60.60    1.66
  -2   4  -6   62.13    1.63
  -2   4  -6   61.31    1.66
   2  -4   6   62.07    1.61
  -3   4  -6    0.21    0.11
  -3   4  -6    0.24    0.11
  -3   4  -6    0.19    0.12
   3  -4   6    0.32    0.11
  -4   4  -6   26.58    0.85
  -4   4  -6   26.69    0.84
  -4   4  -6   26.42    0.81
   4  -4   6   27.53    0.79
  -5   4  -6    1.09    0.18
  -5   4  -6    1.09    0.21
  -5   4  -6    1.15    0.16
   5  -4   6    1.16    0.16
  -6   4  -6   12.95    0.60
  -6   4  -6   12.21    0.51
  -6   4  -6   12.77    0.50
  -7   4  -6    0.23    0.17
  -7   4  -6   -0.02    0.14
  -7   4  -6   -0.06    0.20
   6   3  -6   -0.21    0.24
  -6  -3   6    0.09    0.18
  -6  -3   6    0.16    0.20
  -6  -3   6    0.15    0.23
   5   3  -6   11.57    0.51
   5   3  -6   10.65    0.61
  -5  -3   6   11.73    0.53
  -5  -3   6   10.82    0.52
  -5  -3   6   11.69    0.56
   4   3  -6    1.17    0.19
   4   3  -6    0.98    0.24
  -4  -3   6    0.74    0.17
  -4  -3   6    1.20    0.21
  -4  -3   6    1.10    0.20
   3   3  -6   51.88    1.57
   3   3  -6   56.47    1.49
  -3  -3   6   50.29    1.45
  -3  -3   6   52.26    1.45
  -3  -3   6   53.12    1.45
   2   3  -6    0.63    0.20
   2   3  -6    0.81    0.16
  -2  -3   6    0.99    0.14
  -2  -3   6    0.95    0.14
  -2  -3   6    0.90    0.13
   1   3  -6   52.40    1.43
   1   3  -6   49.03    1.49
  -1  -3   6   52.38    1.39
  -1  -3   6   51.61    1.35
  -1  -3   6   51.55    1.34
   0   3  -6    3.42    0.24
   0   3  -6    3.91    0.31
   0  -3   6    3.82    0.17
   0  -3   6    4.11    0.22
  -1   3  -6   80.39    2.12
  -1   3  -6   81.23    2.07
  -1   3  -6   83.08    2.15
   1  -3   6   81.27    2.09
  -2   3  -6    0.23    0.12
  -2   3  -6    0.11    0.10
  -2   3  -6    0.26    0.10
   2  -3   6    0.23    0.09
  -3   3  -6   99.89    2.56
  -3   3  -6  100.82    2.55
  -3   3  -6   98.34    2.57
   3  -3   6  102.05    2.53
  -4   3  -6    0.19    0.13
  -4   3  -6    0.13    0.10
  -4   3  -6    0.03    0.09
   4  -3   6    0.21    0.10
  -5   3  -6   22.29    0.68
  -5   3  -6   21.26    0.75
  -5   3  -6   23.10    0.72
   5  -3   6   22.72    0.69
  -6   3  -6    1.48    0.19
  -6   3  -6    1.98    0.27
  -6   3  -6    1.82    0.19
  -6   3  -6    1.39    0.17
   6  -3   6    1.57    0.18
  -7   3  -6   10.47    0.45
  -7   3  -6   10.18    0.55
  -7   3  -6    9.34    0.42
   7  -3   6    9.95    0.43
  -8   3  -6    0.17    0.24
  -8   3  -6    0.02    0.15
   6   2  -6   17.11    0.70
   6   2  -6   17.21    0.82
  -6  -2   6   16.88    0.75
  -6  -2   6   17.07    0.72
  -6  -2   6   17.41    0.72
   5   2  -6    0.19    0.16
   5   2  -6    0.08    0.21
  -5  -2   6    0.07    0.14
  -5  -2   6    0.15    0.16
  -5  -2   6    0.34    0.20
   4   2  -6   11.01    0.47
   4   2  -6    9.06    0.52
  -4  -2   6   10.21    0.47
  -4  -2   6   10.49    0.46
  -4  -2   6   10.91    0.47
   3   2  -6    2.16    0.28
   3   2  -6    2.20    0.23
  -3  -2   6    1.81    0.19
  -3  -2   6    2.44    0.22
  -3  -2   6    2.34    0.23
   2   2  -6   40.59    1.26
   2   2  -6   44.53    1.22
  -2  -2   6   40.32    1.14
  -2  -2   6   42.72    1.16
  -2  -2   6   40.87    1.16
   1   2  -6    2.48    0.25
   1   2  -6    1.99    0.20
  -1  -2   6    2.55    0.17
  -1  -2   6    2.66    0.18
  -1  -2   6    2.33    0.19
   0   2  -6  122.73    3.18
   0   2  -6  122.01    3.15
   0  -2   6  126.56    3.10
   0  -2   6  123.64    3.04
  -1   2  -6    0.45    0.09
  -1   2  -6    0.32    0.13
  -1   2  -6    0.20    0.10
   1  -2   6    0.25    0.08
   1  -2   6    0.18    0.05
  -2   2  -6   49.48    1.34
  -2   2  -6   49.35    1.35
  -2   2  -6   49.90    1.32
   2  -2   6   48.44    1.22
   2  -2   6   51.12    1.32
  -3   2  -6    0.44    0.12
  -3   2  -6    0.76    0.13
  -3   2  -6    0.72    0.11
   3  -2   6    0.68    0.11
  -4   2  -6   58.74    1.58
  -4   2  -6   59.59    1.54
  -4   2  -6   58.29    1.60
   4  -2   6   60.84    1.55
  -5   2  -6    0.10    0.14
  -5   2  -6    0.13    0.08
  -5   2  -6    0.02    0.09
  -5   2  -6    0.15    0.10
   5  -2   6    0.24    0.10
  -6   2  -6   26.91    0.80
  -6   2  -6   27.19    0.90
  -6   2  -6   27.83    0.82
   6  -2   6   26.94    0.82
  -7   2  -6    0.77    0.16
  -7   2  -6    0.85    0.23
  -7   2  -6    0.44    0.14
   7  -2   6    0.27    0.14
  -8   2  -6    5.55    0.34
  -8   2  -6    5.96    0.35
  -8   2  -6    5.83    0.47
   8  -2   6    5.89    0.36
   6   1  -6    0.01    0.26
   6   1  -6    0.03    0.19
  -6  -1   6    0.25    0.24
  -6  -1   6    0.27    0.21
  -6  -1   6    0.20    0.20
   5   1  -6   10.18    0.47
   5   1  -6    8.80    0.56
  -5  -1   6    9.47    0.51
  -5  -1   6    9.52    0.46
  -5  -1   6    9.38    0.48
   4   1  -6    0.17    0.17
   4   1  -6    0.18    0.14
  -4  -1   6    0.22    0.15
  -4  -1   6    0.43    0.17
  -4  -1   6    0.46    0.15
   3   1  -6   49.19    1.44
   3   1  -6   48.77    1.37
  -3  -1   6   48.82    1.35
  -3  -1   6   48.26    1.34
  -3  -1   6   46.04    1.33
   2   1  -6    1.80    0.23
   2   1  -6    1.54    0.19
  -2  -1   6    1.46    0.16
  -2  -1   6    2.19    0.19
  -2  -1   6    1.58    0.17
   1   1  -6  102.60    2.64
   1   1  -6  103.55    2.67
  -1  -1   6  102.40    2.58
  -1  -1   6  103.34    2.57
  -1  -1   6   97.31    2.55
   0   1  -6    5.93    0.30
   0   1  -6    6.41    0.34
   0  -1   6    5.43    0.23
   0  -1   6    6.51    0.28
   0  -1   6    6.26    0.25
  -1   1  -6   41.95    1.16
  -1   1  -6   41.51    1.16
   1  -1   6   40.61    1.06
   1  -1   6   41.74    1.13
  -2   1  -6    3.82    0.21
  -2   1  -6    4.07    0.24
   2  -1   6    3.97    0.21
   2  -1   6    4.07    0.16
  -3   1  -6   83.57    2.18
  -3   1  -6   86.08    2.18
   3  -1   6   84.14    2.10
   3  -1   6   87.05    2.16
  -4   1  -6    0.18    0.08
  -4   1  -6    0.26    0.11
  -4   1  -6    0.20    0.09
  -4   1  -6    0.24    0.10
   4  -1   6    0.14    0.08
   4  -1   6    0.17    0.08
  -5   1  -6   40.49    1.19
  -5   1  -6   41.48    1.09
  -5   1  -6   43.21    1.14
  -5   1  -6   42.17    1.13
   5  -1   6   41.93    1.14
   5  -1   6   39.95    1.11
  -6   1  -6    0.01    0.10
  -6   1  -6    0.05    0.09
  -6   1  -6   -0.01    0.02
  -6   1  -6    0.05    0.15
   6  -1   6    0.26    0.11
   6  -1   6   -0.02    0.12
   6  -1   6    0.06    0.10
  -7   1  -6    9.29    0.38
  -7   1  -6    9.31    0.40
  -7   1  -6    9.65    0.51
   7  -1   6    9.34    0.41
  -8   1  -6    0.99    0.26
  -8   1  -6    0.41    0.17
   8  -1   6    0.64    0.18
   6   0  -6   19.25    0.74
   6   0  -6   18.60    0.84
  -6   0   6   18.27    0.74
  -6   0   6   19.36    0.80
  -6   0   6   18.79    0.77
   5   0  -6    0.05    0.19
   5   0  -6    0.19    0.15
  -5   0   6   -0.02    0.19
  -5   0   6    0.18    0.16
  -5   0   6    0.18    0.15
   4   0  -6   29.32    0.98
   4   0  -6   28.65    0.90
  -4   0   6   27.63    0.90
  -4   0   6   27.85    0.89
  -4   0   6   28.58    0.92
   3   0  -6    1.10    0.21
   3   0  -6    1.12    0.18
  -3   0   6    1.13    0.19
  -3   0   6    1.37    0.18
  -3   0   6    1.48    0.18
   2   0  -6   52.48    1.45
   2   0  -6   53.05    1.49
  -2   0   6   53.26    1.41
  -2   0   6   52.22    1.42
  -2   0   6   50.27    1.41
   1   0  -6   -0.18    0.11
   1   0  -6    0.07    0.09
  -1   0   6    0.03    0.08
  -1   0   6    0.03    0.07
  -1   0   6    0.04    0.07
   0   0  -6  170.35    4.33
   0   0  -6  171.33    4.34
   0   0   6  172.20    4.24
   0   0   6  177.82    4.27
   0   0   6  174.82    4.28
  -1   0  -6    0.33    0.10
   1   0   6    0.45    0.10
   1   0   6    0.48    0.08
  -2   0  -6   85.52    2.22
  -2   0  -6   89.03    2.27
   2   0   6   88.17    2.23
   2   0   6   90.74    2.19
  -3   0  -6    4.15    0.24
  -3   0  -6    4.74    0.23
   3   0   6    4.81    0.20
   3   0   6    4.68    0.22
  -4   0  -6   30.45    0.91
  -4   0  -6   31.71    0.88
  -4   0  -6   31.77    0.87
   4   0   6   31.70    0.88
   4   0   6   32.36    0.87
   4   0   6   30.54    0.86
  -5   0  -6    0.13    0.08
  -5   0  -6    0.14    0.08
  -5   0  -6    0.23    0.13
   5   0   6    0.14    0.09
   5   0   6    0.06    0.08
   5   0   6    0.02    0.10
  -6   0  -6   34.31    0.94
  -6   0  -6   34.12    1.04
  -6   0  -6   33.08    0.96
  -6   0  -6   34.05    0.96
   6   0   6   33.17    0.97
   6   0   6   34.12    0.99
   6   0   6   34.06    0.98
  -7   0  -6    0.05    0.11
  -7   0  -6    0.01    0.13
  -7   0  -6    0.13    0.18
   7   0   6    0.16    0.12
   7   0   6    0.04    0.13
   7   0   6    0.31    0.17
  -8   0  -6    5.25    0.33
  -8   0  -6    5.57    0.34
  -8   0  -6    5.74    0.45
   8   0   6    5.23    0.37
   8   0   6    5.49    0.42
   8   0   6    5.50    0.35
  -9   0  -6   -0.10    0.21
  -9   0  -6    0.32    0.26
   6  -1  -6    0.41    0.24
   6  -1  -6    0.51    0.20
  -6   1   6    0.76    0.28
  -6   1   6    0.86    0.22
  -6   1   6    0.33    0.22
  -6   1   6    0.67    0.22
   5  -1  -6   14.11    0.59
   5  -1  -6   16.32    0.69
  -5   1   6   14.35    0.59
  -5   1   6   15.32    0.63
  -5   1   6   16.38    0.68
  -5   1   6   15.67    0.64
   4  -1  -6   -0.18    0.16
   4  -1  -6   -0.02    0.12
  -4   1   6   -0.03    0.13
  -4   1   6   -0.07    0.13
  -4   1   6    0.00    0.16
  -4   1   6    0.05    0.13
   3  -1  -6   74.64    1.96
   3  -1  -6   74.27    2.00
  -3   1   6   73.97    1.96
  -3   1   6   74.79    1.98
  -3   1   6   71.75    1.94
  -3   1   6   72.57    1.96
   2  -1  -6    3.49    0.27
   2  -1  -6    3.93    0.26
  -2   1   6    3.66    0.24
  -2   1   6    3.39    0.23
  -2   1   6    3.82    0.23
  -2   1   6    3.91    0.26
   1  -1  -6   94.79    2.57
   1  -1  -6  100.81    2.59
  -1   1   6  103.39    2.54
  -1   1   6   99.11    2.53
  -1   1   6  101.54    2.54
   0  -1  -6    0.06    0.10
   0  -1  -6    0.06    0.09
   0   1   6    0.00    0.07
   0   1   6   -0.06    0.07
   0   1   6    0.06    0.07
  -1  -1  -6   78.53    2.10
   1   1   6   79.96    2.05
   1   1   6   79.95    2.02
   1   1   6   83.63    2.06
  -2  -1  -6    5.54    0.25
  -2  -1  -6    6.08    0.28
   2   1   6    5.88    0.23
   2   1   6    5.90    0.25
   2   1   6    6.03    0.25
  -3  -1  -6  131.95    3.31
  -3  -1  -6  134.67    3.31
   3   1   6  133.67    3.27
   3   1   6  130.79    3.29
  -4  -1  -6    6.84    0.31
  -4  -1  -6    7.29    0.28
  -4  -1  -6    6.91    0.27
   4   1   6    6.88    0.29
   4   1   6    6.90    0.29
   4   1   6    6.59    0.28
  -5  -1  -6   47.06    1.24
  -5  -1  -6   47.62    1.32
   5   1   6   46.36    1.26
   5   1   6   47.00    1.26
   5   1   6   44.48    1.26
  -6  -1  -6    0.08    0.09
  -6  -1  -6    0.00    0.14
  -6  -1  -6    0.00    0.10
  -6  -1  -6    0.03    0.08
   6   1   6    0.08    0.11
   6   1   6   -0.05    0.10
   6   1   6    0.13    0.13
  -7  -1  -6   13.09    0.50
  -7  -1  -6   14.96    0.60
  -7  -1  -6   13.49    0.52
   7   1   6   13.87    0.54
   7   1   6   13.57    0.52
   7   1   6   14.23    0.58
  -8  -1  -6    0.11    0.15
  -8  -1  -6    0.08    0.16
  -8  -1  -6   -0.12    0.19
   8   1   6   -0.12    0.15
   8   1   6   -0.13    0.15
   8   1   6    0.04    0.19
  -9  -1  -6    3.61    0.31
  -9  -1  -6    4.64    0.43
  -9  -1  -6    4.02    0.34
   9   1   6    3.67    0.32
   9   1   6    3.99    0.40
   9   1   6    3.68    0.35
   6  -2  -6   10.60    0.63
   6  -2  -6   12.25    0.55
  -6   2   6   13.17    0.61
  -6   2   6   10.89    0.54
  -6   2   6   11.17    0.57
  -6   2   6   11.95    0.65
   5  -2  -6    0.56    0.17
   5  -2  -6    0.45    0.19
  -5   2   6    0.31    0.17
  -5   2   6    0.25    0.16
  -5   2   6    0.49    0.18
  -5   2   6    0.51    0.24
   4  -2  -6   42.96    1.26
   4  -2  -6   40.80    1.19
  -4   2   6   42.53    1.26
  -4   2   6   39.75    1.18
  -4   2   6   40.81    1.22
  -4   2   6   39.92    1.19
   3  -2  -6    2.77    0.23
   3  -2  -6    3.42    0.29
  -3   2   6    3.44    0.27
  -3   2   6    2.43    0.21
  -3   2   6    3.10    0.28
  -3   2   6    3.50    0.24
   2  -2  -6   36.81    1.02
   2  -2  -6   33.49    1.00
  -2   2   6   32.91    1.01
  -2   2   6   35.11    0.98
  -2   2   6   34.97    1.02
  -2   2   6   34.62    0.98
   1  -2  -6    2.48    0.21
   1  -2  -6    2.11    0.19
  -1   2   6    2.38    0.21
  -1   2   6    2.27    0.19
  -1   2   6    1.80    0.15
  -1   2   6    2.42    0.19
   0  -2  -6   70.62    1.82
   0  -2  -6   68.97    1.84
   0   2   6   68.81    1.82
   0   2   6   69.88    1.81
   0   2   6   70.48    1.84
   0   2   6   71.06    1.82
  -1  -2  -6    0.98    0.14
   1   2   6    1.11    0.13
   1   2   6    1.16    0.13
   1   2   6    0.89    0.12
  -2  -2  -6  239.97    6.05
   2   2   6  249.89    6.05
   2   2   6  254.15    6.04
   2   2   6  247.89    6.03
  -3  -2  -6    0.07    0.07
  -3  -2  -6    0.01    0.08
   3   2   6    0.39    0.09
   3   2   6    0.07    0.07
   3   2   6    0.15    0.09
  -4  -2  -6   61.15    1.57
  -4  -2  -6   59.81    1.63
   4   2   6   61.36    1.58
   4   2   6   62.05    1.60
   4   2   6   60.01    1.60
  -5  -2  -6   11.75    0.41
  -5  -2  -6   11.34    0.46
   5   2   6   11.44    0.42
   5   2   6   10.87    0.44
   5   2   6   11.64    0.43
  -6  -2  -6   45.63    1.25
  -6  -2  -6   44.79    1.23
  -6  -2  -6   44.12    1.31
   6   2   6   43.38    1.24
   6   2   6   44.71    1.27
   6   2   6   46.60    1.29
  -7  -2  -6   -0.13    0.13
  -7  -2  -6    0.13    0.16
  -7  -2  -6   -0.02    0.11
   7   2   6   -0.28    0.11
   7   2   6    0.21    0.17
   7   2   6    0.00    0.13
  -8  -2  -6   15.64    0.67
  -8  -2  -6   14.98    0.57
  -8  -2  -6   14.01    0.58
   8   2   6   15.32    0.67
   8   2   6   13.69    0.60
  -9  -2  -6    0.22    0.25
  -9  -2  -6   -0.01    0.18
  -9  -2  -6   -0.17    0.15
   9   2   6   -0.04    0.18
   9   2   6   -0.11    0.22
   6  -3  -6    0.42    0.20
   6  -3  -6    0.34    0.25
  -6   3   6    0.48    0.18
  -6   3   6    0.30    0.26
  -6   3   6    0.38    0.21
  -6   3   6   -0.10    0.17
   5  -3  -6    7.81    0.42
   5  -3  -6    7.38    0.47
  -5   3   6    6.89    0.43
  -5   3   6    7.14    0.50
  -5   3   6    6.55    0.38
  -5   3   6    7.23    0.43
   4  -3  -6    0.84    0.20
   4  -3  -6    1.12    0.18
  -4   3   6    0.80    0.24
  -4   3   6    0.94    0.17
  -4   3   6    0.74    0.17
  -4   3   6    0.68    0.18
   3  -3  -6   43.78    1.27
   3  -3  -6   43.14    1.25
  -3   3   6   44.33    1.28
  -3   3   6   44.82    1.30
  -3   3   6   44.51    1.24
  -3   3   6   45.25    1.23
   2  -3  -6    3.13    0.23
   2  -3  -6    3.07    0.22
  -2   3   6    3.47    0.22
  -2   3   6    2.97    0.24
  -2   3   6    2.59    0.24
  -2   3   6    3.20    0.21
   1  -3  -6   95.28    2.48
   1  -3  -6   98.91    2.50
  -1   3   6  100.55    2.52
  -1   3   6   96.50    2.48
  -1   3   6   98.99    2.46
  -1   3   6   96.34    2.51
   0  -3  -6    2.87    0.20
   0  -3  -6    2.94    0.19
   0   3   6    2.99    0.17
   0   3   6    3.23    0.22
   0   3   6    2.98    0.19
   0   3   6    3.09    0.21
  -1  -3  -6   52.75    1.42
  -1  -3  -6   52.29    1.39
   1   3   6   52.72    1.39
   1   3   6   53.08    1.40
   1   3   6   53.49    1.41
  -2  -3  -6    1.08    0.13
   2   3   6    0.92    0.11
   2   3   6    1.04    0.14
   2   3   6    0.86    0.12
  -3  -3  -6  151.29    3.74
  -3  -3  -6  148.36    3.80
   3   3   6  154.47    3.78
   3   3   6  151.50    3.78
   3   3   6  155.24    3.76
  -4  -3  -6    0.25    0.12
  -4  -3  -6    0.41    0.09
   4   3   6    0.32    0.12
   4   3   6    0.50    0.10
   4   3   6    0.24    0.10
  -5  -3  -6   82.48    2.18
  -5  -3  -6   81.42    2.09
   5   3   6   83.09    2.10
   5   3   6   81.04    2.14
   5   3   6   80.24    2.12
  -6  -3  -6    0.30    0.11
  -6  -3  -6    0.37    0.17
  -6  -3  -6    0.52    0.14
   6   3   6    0.37    0.13
   6   3   6    0.53    0.17
   6   3   6    0.51    0.14
  -7  -3  -6   17.24    0.63
  -7  -3  -6   17.57    0.69
  -7  -3  -6   16.97    0.60
   7   3   6   17.33    0.68
   7   3   6   17.43    0.65
  -8  -3  -6    0.59    0.24
  -8  -3  -6    0.50    0.16
  -8  -3  -6    0.61    0.20
   8   3   6    0.31    0.23
   8   3   6    0.65    0.20
  -9  -3  -6    8.14    0.47
  -9  -3  -6    8.24    0.45
  -9  -3  -6    8.29    0.55
   9   3   6    7.56    0.49
   9   3   6    9.13    0.57
  -6   4   6    7.38    0.48
   5  -4  -6   -0.19    0.19
   5  -4  -6    0.02    0.16
  -5   4   6    0.07    0.16
  -5   4   6    0.08    0.17
  -5   4   6    0.00    0.23
  -5   4   6    0.00    0.14
   4  -4  -6   23.26    0.79
   4  -4  -6   23.26    0.76
  -4   4   6   21.79    0.73
  -4   4   6   22.44    0.76
  -4   4   6   22.73    0.83
  -4   4   6   21.87    0.79
   3  -4  -6    2.82    0.25
   3  -4  -6    3.48    0.26
  -3   4   6    3.00    0.22
  -3   4   6    2.72    0.28
  -3   4   6    3.08    0.27
  -3   4   6    3.44    0.25
   2  -4  -6   74.33    1.92
   2  -4  -6   72.38    1.86
   2  -4  -6   69.31    1.90
  -2   4   6   71.62    1.94
  -2   4   6   75.14    1.88
  -2   4   6   72.60    1.89
   1  -4  -6    5.33    0.27
   1  -4  -6    5.54    0.26
  -1   4   6    5.29    0.26
  -1   4   6    5.01    0.29
  -1   4   6    5.12    0.30
  -1   4   6    5.02    0.24
   0  -4  -6   80.30    2.07
   0  -4  -6   81.25    2.09
   0  -4  -6   79.63    2.05
   0   4   6   78.38    2.10
   0   4   6   82.48    2.08
   0   4   6   82.32    2.04
   0   4   6   83.18    2.12
  -1  -4  -6    0.10    0.08
  -1  -4  -6    0.01    0.08
   1   4   6    0.24    0.11
   1   4   6    0.09    0.09
   1   4   6    0.09    0.07
  -2  -4  -6  122.54    3.24
   2   4   6  133.44    3.21
   2   4   6  129.66    3.25
   2   4   6  132.07    3.25
  -3  -4  -6   26.03    0.80
  -3  -4  -6   25.81    0.73
   3   4   6   26.53    0.78
   3   4   6   25.68    0.74
   3   4   6   26.36    0.79
  -4  -4  -6   41.25    1.11
  -4  -4  -6   42.14    1.20
   4   4   6   41.31    1.16
   4   4   6   40.49    1.17
   4   4   6   42.03    1.12
  -5  -4  -6    0.31    0.11
  -5  -4  -6    0.28    0.15
   5   4   6    0.45    0.15
   5   4   6    0.36    0.12
   5   4   6    0.43    0.13
  -6  -4  -6   32.39    0.93
  -6  -4  -6   32.26    1.03
  -6  -4  -6   32.69    0.97
   6   4   6   31.36    0.98
   6   4   6   30.96    1.01
   6   4   6   32.49    0.95
  -7  -4  -6    0.22    0.16
  -7  -4  -6    0.73    0.21
  -7  -4  -6    0.36    0.15
   7   4   6    0.90    0.24
   7   4   6    0.47    0.16
  -8  -4  -6   12.95    0.57
  -8  -4  -6   14.09    0.66
  -8  -4  -6   12.24    0.52
   8   4   6   13.82    0.60
   8   4   6   13.23    0.66
  -9  -4  -6    0.04    0.20
  -9  -4  -6    0.06    0.19
  -9  -4  -6   -0.15    0.24
   9   4   6    0.23    0.19
   9   4   6    0.20    0.27
   5  -5  -6    8.76    0.50
   5  -5  -6    8.49    0.47
  -5   5   6    8.36    0.47
  -5   5   6    9.67    0.59
  -5   5   6    9.04    0.44
  -5   5   6    9.63    0.49
   4  -5  -6    0.00    0.14
  -4   5   6    0.08    0.14
  -4   5   6   -0.17    0.14
  -4   5   6    0.04    0.14
  -4   5   6    0.01    0.20
   3  -5  -6   32.80    1.01
  -3   5   6   33.56    1.00
  -3   5   6   34.61    1.00
  -3   5   6   33.58    1.06
  -3   5   6   36.22    1.10
   2  -5  -6    0.17    0.10
   2  -5  -6    0.24    0.12
  -2   5   6    0.11    0.13
  -2   5   6    0.27    0.11
  -2   5   6    0.02    0.10
  -2   5   6    0.04    0.04
  -2   5   6    0.05    0.15
   1  -5  -6  168.94    4.10
   1  -5  -6  160.28    4.11
  -1   5   6  164.62    4.16
  -1   5   6  167.67    4.15
  -1   5   6  162.65    4.09
  -1   5   6  166.96    4.08
   0  -5  -6    6.91    0.31
   0  -5  -6    6.87    0.31
   0   5   6    6.63    0.34
   0   5   6    7.40    0.28
   0   5   6    7.53    0.36
  -1  -5  -6   66.78    1.72
  -1  -5  -6   65.56    1.74
   1   5   6   66.51    1.71
   1   5   6   65.62    1.76
   1   5   6   65.60    1.76
  -2  -5  -6    0.14    0.09
  -2  -5  -6    0.01    0.10
   2   5   6   -0.06    0.09
   2   5   6    0.01    0.11
   2   5   6   -0.06    0.06
  -3  -5  -6   33.91    1.02
  -3  -5  -6   34.69    0.95
   3   5   6   36.01    1.02
   3   5   6   34.77    1.03
   3   5   6   36.67    0.97
  -4  -5  -6    0.76    0.16
  -4  -5  -6    1.20    0.13
   4   5   6    0.95    0.18
   4   5   6    1.13    0.13
   4   5   6    0.76    0.13
  -5  -5  -6   61.20    1.70
  -5  -5  -6   59.99    1.59
   5   5   6   61.25    1.61
   5   5   6   60.10    1.68
   5   5   6   60.75    1.65
  -6  -5  -6    3.54    0.29
  -6  -5  -6    3.40    0.24
  -6  -5  -6    3.26    0.32
   6   5   6    3.54    0.25
   6   5   6    2.90    0.26
   6   5   6    3.03    0.31
  -7  -5  -6   10.23    0.48
  -7  -5  -6    9.80    0.44
  -7  -5  -6   10.92    0.56
   7   5   6   10.44    0.56
   7   5   6   10.08    0.48
  -8  -5  -6    0.07    0.14
  -8  -5  -6    0.34    0.18
  -8  -5  -6    0.33    0.23
   8   5   6    0.40    0.25
   8   5   6    0.53    0.20
  -9  -5  -6    4.11    0.39
  -9  -5  -6    3.55    0.31
  -9  -5  -6    4.65    0.45
   9   5   6    5.26    0.50
   9   5   6    4.51    0.41
   5  -6  -6   -0.04    0.19
  -5   6   6    0.15    0.25
  -5   6   6   -0.09    0.16
  -5   6   6    0.10    0.18
  -5   6   6    0.09    0.16
   4  -6  -6   20.93    0.74
  -4   6   6   20.39    0.72
  -4   6   6   20.36    0.82
  -4   6   6   19.40    0.69
  -4   6   6   19.99    0.75
   3  -6  -6    0.02    0.14
  -3   6   6   -0.04    0.12
  -3   6   6    0.04    0.18
  -3   6   6    0.23    0.15
  -3   6   6    0.02    0.11
   2  -6  -6   47.98    1.31
   2  -6  -6   47.29    1.32
  -2   6   6   46.41    1.30
  -2   6   6   48.84    1.30
  -2   6   6   45.94    1.36
  -2   6   6   46.68    1.39
   1  -6  -6    0.04    0.10
   1  -6  -6    0.13    0.10
  -1   6   6    0.12    0.12
  -1   6   6    0.03    0.09
  -1   6   6    0.14    0.09
  -1   6   6    0.21    0.15
   0  -6  -6   59.19    1.58
   0  -6  -6   59.59    1.60
   0   6   6   58.56    1.56
   0   6   6   58.91    1.54
   0   6   6   60.11    1.64
   0   6   6   58.37    1.55
   0   6   6   61.47    1.64
  -1  -6  -6    3.37    0.25
  -1  -6  -6    3.47    0.22
   1   6   6    3.66    0.25
   1   6   6    3.72    0.21
   1   6   6    3.42    0.27
   1   6   6    3.61    0.18
  -2  -6  -6  125.05    3.15
  -2  -6  -6  127.53    3.22
   2   6   6  124.82    3.21
   2   6   6  127.81    3.21
   2   6   6  126.45    3.14
  -3  -6  -6    0.01    0.07
  -3  -6  -6    0.13    0.11
   3   6   6   -0.01    0.13
   3   6   6    0.06    0.11
   3   6   6   -0.08    0.07
  -4  -6  -6   38.34    1.14
  -4  -6  -6   37.69    1.03
   4   6   6   38.36    1.13
   4   6   6   38.33    1.05
   4   6   6   36.88    1.10
  -5  -6  -6    0.12    0.14
  -5  -6  -6   -0.03    0.09
   5   6   6    0.01    0.13
   5   6   6    0.03    0.16
   5   6   6    0.17    0.11
  -6  -6  -6   27.66    0.92
  -6  -6  -6   26.00    0.80
   6   6   6   25.29    0.90
   6   6   6   26.15    0.87
  -7  -6  -6   -0.18    0.18
  -7  -6  -6   -0.14    0.14
  -7  -6  -6   -0.12    0.13
   7   6   6    0.00    0.16
   7   6   6    0.06    0.20
  -8  -6  -6   10.07    0.57
  -8  -6  -6    9.39    0.46
  -8  -6  -6    9.62    0.52
   8   6   6   10.06    0.62
   8   6   6    9.19    0.53
  -9  -6  -6   -0.04    0.24
  -9  -6  -6    0.14    0.24
  -9  -6  -6    0.01    0.19
   9   6   6   -0.25    0.27
   9   6   6    0.13    0.21
   4  -7  -6    0.83    0.20
  -4   7   6    0.77    0.19
  -4   7   6    0.95    0.21
  -4   7   6    1.08    0.28
  -4   7   6    0.90    0.20
   3  -7  -6   12.44    0.51
   3  -7  -6   12.62    0.53
  -3   7   6   13.01    0.61
  -3   7   6   12.26    0.51
  -3   7   6   12.13    0.50
  -3   7   6   11.40    0.53
   2  -7  -6    0.80    0.16
   2  -7  -6    0.49    0.14
  -2   7   6    0.71    0.15
  -2   7   6    0.73    0.22
  -2   7   6    0.63    0.18
  -2   7   6    0.51    0.14
   1  -7  -6   32.94    0.98
   1  -7  -6   32.47    0.97
  -1   7   6   33.17    1.04
  -1   7   6   31.17    1.00
  -1   7   6   33.17    0.95
  -1   7   6   33.70    0.94
   0  -7  -6    0.29    0.11
   0  -7  -6    0.22    0.12
   0   7   6    0.29    0.16
   0   7   6    0.26    0.10
   0   7   6    0.22    0.14
   0   7   6    0.28    0.09
  -1  -7  -6   79.55    2.03
  -1  -7  -6   78.73    2.09
   1   7   6   78.00    2.10
   1   7   6   81.16    1.99
   1   7   6   77.70    2.11
   1   7   6   77.64    2.01
  -2  -7  -6    0.04    0.13
  -2  -7  -6    0.06    0.09
   2   7   6    0.39    0.14
   2   7   6   -0.16    0.14
   2   7   6    0.00    0.07
   2   7   6    0.13    0.09
  -3  -7  -6   61.15    1.59
  -3  -7  -6   59.94    1.69
   3   7   6   61.39    1.60
   3   7   6   62.41    1.71
   3   7   6   62.26    1.68
  -4  -7  -6    5.94    0.27
  -4  -7  -6    5.74    0.37
   4   7   6    6.62    0.29
   4   7   6    6.27    0.36
   4   7   6    6.15    0.39
  -5  -7  -6   47.39    1.27
  -5  -7  -6   47.72    1.39
   5   7   6   45.61    1.35
   5   7   6   45.83    1.39
   5   7   6   46.99    1.28
  -6  -7  -6    0.25    0.12
  -6  -7  -6    0.36    0.19
   6   7   6    0.27    0.22
   6   7   6    0.11    0.15
   6   7   6    0.32    0.14
  -7  -7  -6   14.72    0.63
  -7  -7  -6   15.64    0.58
  -7  -7  -6   16.03    0.71
   7   7   6   14.65    0.65
   7   7   6   16.35    0.72
  -8  -7  -6    0.07    0.24
  -8  -7  -6   -0.13    0.16
  -8  -7  -6    0.03    0.20
   8   7   6    0.12    0.20
   8   7   6    0.83    0.26
   3  -8  -6    1.56    0.22
   3  -8  -6    1.71    0.24
  -3   8   6    1.61    0.21
  -3   8   6    1.50    0.28
  -3   8   6    1.61    0.22
  -3   8   6    1.65    0.25
   2  -8  -6   14.88    0.59
   2  -8  -6   15.89    0.60
  -2   8   6   15.87    0.69
  -2   8   6   15.70    0.58
  -2   8   6   15.50    0.57
  -2   8   6   15.01    0.61
   1  -8  -6    0.85    0.17
   1  -8  -6    1.00    0.16
  -1   8   6    0.92    0.15
  -1   8   6    0.97    0.21
  -1   8   6    1.29    0.21
  -1   8   6    1.04    0.16
   0  -8  -6   12.28    0.46
   0  -8  -6   12.52    0.50
   0   8   6   11.35    0.54
   0   8   6   11.65    0.44
   0   8   6   11.63    0.51
   0   8   6   11.50    0.43
  -1  -8  -6    0.38    0.12
  -1  -8  -6    0.42    0.16
   1   8   6    0.33    0.09
   1   8   6    0.47    0.19
   1   8   6    0.15    0.13
   1   8   6    0.41    0.11
  -2  -8  -6   92.69    2.33
  -2  -8  -6   91.52    2.42
   2   8   6   90.49    2.44
   2   8   6   92.00    2.31
   2   8   6   90.69    2.42
  -3  -8  -6    1.21    0.20
   3   8   6    1.53    0.15
   3   8   6    2.05    0.27
   3   8   6    1.70    0.21
  -4  -8  -6   32.52    0.90
  -4  -8  -6   32.52    1.03
   4   8   6   31.89    1.00
   4   8   6   30.55    1.04
   4   8   6   32.67    0.92
  -5  -8  -6   -0.05    0.10
  -5  -8  -6    0.42    0.19
   5   8   6   -0.08    0.13
   5   8   6    0.16    0.19
   5   8   6    0.34    0.12
  -6  -8  -6   12.58    0.62
  -6  -8  -6   13.73    0.51
   6   8   6   13.09    0.65
   6   8   6   14.37    0.53
   6   8   6   13.39    0.60
  -7  -8  -6    0.66    0.25
  -7  -8  -6    0.38    0.15
   7   8   6    0.26    0.19
   7   8   6    0.23    0.27
  -8  -8  -6    9.49    0.54
  -8  -8  -6    9.00    0.46
  -8  -8  -6    9.11    0.61
   8   8   6    8.60    0.54
   8   8   6    9.13    0.65
   3  -9  -6   10.58    0.53
   3  -9  -6   10.61    0.53
  -3   9   6   10.47    0.50
  -3   9   6    9.90    0.61
  -3   9   6   10.09    0.49
   2  -9  -6    0.35    0.18
   2  -9  -6    0.25    0.17
  -2   9   6    0.59    0.17
  -2   9   6    0.04    0.22
  -2   9   6    0.27    0.15
  -2   9   6    0.58    0.19
   1  -9  -6   19.82    0.70
   1  -9  -6   20.58    0.74
  -1   9   6   19.75    0.67
  -1   9   6   19.83    0.68
  -1   9   6   20.86    0.80
  -1   9   6   19.31    0.74
   0  -9  -6    0.42    0.14
   0  -9  -6    0.45    0.17
   0   9   6    0.43    0.18
   0   9   6    0.39    0.12
   0   9   6    0.26    0.12
   0   9   6    0.67    0.23
  -1  -9  -6   30.49    1.01
  -1  -9  -6   32.98    0.93
   1   9   6   32.14    0.92
   1   9   6   32.33    0.90
   1   9   6   30.41    1.04
   1   9   6   31.65    1.01
  -2  -9  -6    5.54    0.28
  -2  -9  -6    5.94    0.39
   2   9   6    5.20    0.35
   2   9   6    5.68    0.27
   2   9   6    5.61    0.41
  -3  -9  -6   18.64    0.72
   3   9   6   18.70    0.69
   3   9   6   19.10    0.74
  -4  -9  -6    0.22    0.18
   4   9   6    0.04    0.19
   4   9   6    0.25    0.17
  -5  -9  -6   15.44    0.53
  -5  -9  -6   16.17    0.68
   5   9   6   15.75    0.55
   5   9   6   15.23    0.64
   5   9   6   15.09    0.68
  -6  -9  -6   -0.14    0.13
  -6  -9  -6    0.14    0.21
   6   9   6   -0.13    0.23
   6   9   6    0.09    0.14
   6   9   6   -0.26    0.17
  -7  -9  -6    9.27    0.58
  -7  -9  -6    9.63    0.45
   7   9   6    9.83    0.65
   2 -10  -6   21.11    0.80
   2 -10  -6   20.39    0.77
  -2  10   6   19.85    0.74
  -2  10   6   20.68    0.74
  -2  10   6   21.73    0.89
   1 -10  -6    1.33    0.21
   1 -10  -6    1.34    0.25
  -1  10   6    1.27    0.21
  -1  10   6    1.92    0.33
  -1  10   6    1.65    0.21
   0 -10  -6   15.19    0.65
   0 -10  -6   15.21    0.59
   0  10   6   16.57    0.67
   0  10   6   15.25    0.71
   0  10   6   16.03    0.57
   0  10   6   15.99    0.57
  -1 -10  -6    0.05    0.12
   1  10   6   -0.06    0.10
   1  10   6    0.39    0.22
   1  10   6    0.06    0.11
   1  10   6    0.28    0.17
  -2 -10  -6   21.69    0.81
   2  10   6   20.87    0.78
   2  10   6   21.10    0.82
  -3 -10  -6    1.22    0.25
   3  10   6    0.76    0.24
   3  10   6    0.78    0.20
  -4 -10  -6   17.09    0.73
   4  10   6   16.39    0.74
   4  10   6   17.45    0.69
  -5 -10  -6    1.42    0.28
   5  10   6    1.34    0.32
   5  10   6    1.00    0.24
  -6 -10  -6    9.52    0.59
  -6 -10  -6    9.67    0.43
   6  10   6    9.86    0.43
   6  10   6   10.08    0.65
   6  10   6    8.59    0.53
  -7 -10  -6   -0.05    0.16
  -7 -10  -6    0.01    0.24
   7  10   6    0.02    0.22
   7  10   6   -0.02    0.30
   7  10   6   -0.02    0.16
   0 -11  -6    0.01    0.20
   0 -11  -6   -0.03    0.16
   0  11   6    0.13    0.14
   0  11   6    0.76    0.27
   0  11   6    0.23    0.15
  -1 -11  -6   23.24    0.77
  -1 -11  -6   24.12    0.89
   1  11   6   22.74    0.93
   1  11   6   23.23    0.75
   1  11   6   23.46    0.75
  -2 -11  -6    0.30    0.23
   2  11   6    0.37    0.23
   2  11   6    0.02    0.19
  -3 -11  -6   13.14    0.65
   3  11   6   13.73    0.67
   3  11   6   12.01    0.59
  -4 -11  -6    0.04    0.22
   4  11   6   -0.04    0.25
   4  11   6   -0.06    0.18
  -5 -11  -6   16.37    0.74
   5  11   6   14.67    0.69
   5  11   6   16.66    0.80
  -6 -11  -6    0.12    0.24
   6  11   6    0.56    0.25
   6  11   6   -0.05    0.30
  -2 -12  -6   16.95    0.78
   2  12   6   16.09    0.79
  -3 -12  -6    0.36    0.26
   3  12   6   -0.15    0.25
  -4 -12  -6   15.68    0.77
   4  12   6   15.21    0.70
   4  12   6   15.11    0.77
   1   9  -7    0.60    0.20
   1   9  -7    0.82    0.29
   0   9  -7    5.49    0.49
   0   9  -7    5.33    0.40
   0  -9   7    5.41    0.40
  -1   9  -7    0.35    0.22
  -1   9  -7    0.43    0.22
  -1   9  -7    0.50    0.27
   1  -9   7    0.35    0.21
  -2   9  -7   10.59    0.56
   3   8  -7    4.82    0.48
  -3  -8   7    5.05    0.37
   2   8  -7    0.00    0.24
   2   8  -7   -0.35    0.14
  -2  -8   7    0.04    0.15
   1   8  -7    5.57    0.47
   1   8  -7    6.72    0.40
   0   8  -7   -0.04    0.16
   0   8  -7    0.25    0.24
   0   8  -7    0.48    0.18
   0  -8   7    0.04    0.17
  -1   8  -7   10.55    0.61
  -1   8  -7   10.26    0.52
  -1   8  -7   10.09    0.49
   1  -8   7   10.35    0.52
  -2   8  -7    0.29    0.21
  -2   8  -7    0.08    0.19
  -2   8  -7    0.05    0.20
   2  -8   7    0.05    0.19
  -3   8  -7    9.08    0.51
  -3   8  -7    7.66    0.50
  -3   8  -7    9.24    0.55
   3  -8   7    9.08    0.54
   4   7  -7    4.05    0.46
  -4  -7   7    4.48    0.37
   3   7  -7    0.04    0.25
   3   7  -7   -0.02    0.16
  -3  -7   7   -0.14    0.15
   2   7  -7   16.00    0.61
   2   7  -7   13.40    0.73
  -2  -7   7   15.43    0.58
   1   7  -7    0.08    0.14
   1   7  -7   -0.18    0.22
  -1  -7   7   -0.14    0.12
   0   7  -7    8.78    0.42
   0   7  -7    7.89    0.54
   0   7  -7    8.38    0.44
   0  -7   7    8.67    0.43
  -1   7  -7    0.37    0.21
  -1   7  -7    0.03    0.16
  -1   7  -7    0.15    0.16
   1  -7   7    0.08    0.15
  -2   7  -7    9.08    0.47
  -2   7  -7    9.06    0.46
  -2   7  -7    7.85    0.50
   2  -7   7    8.22    0.46
  -3   7  -7   -0.03    0.16
  -3   7  -7    0.31    0.18
  -3   7  -7    0.38    0.20
   3  -7   7    0.00    0.18
  -4   7  -7   11.70    0.57
  -4   7  -7   10.56    0.55
  -4   7  -7   11.34    0.58
   4  -7   7   10.98    0.59
  -5   7  -7    0.28    0.22
   5  -7   7    0.48    0.26
   5   6  -7    8.76    0.66
  -5  -6   7    8.10    0.51
  -5  -6   7    8.35    0.49
   4   6  -7    0.46    0.28
  -4  -6   7   -0.15    0.15
  -4  -6   7    0.23    0.19
   3   6  -7   10.87    0.64
   3   6  -7   10.58    0.49
  -3  -6   7    9.71    0.48
   2   6  -7    0.01    0.14
   2   6  -7    0.05    0.20
  -2  -6   7    0.10    0.13
   1   6  -7   20.88    0.86
   1   6  -7   21.43    0.74
  -1  -6   7   21.65    0.70
   0   6  -7    0.31    0.21
   0   6  -7   -0.06    0.12
   0   6  -7   -0.03    0.13
   0  -6   7   -0.02    0.12
   0  -6   7    0.08    0.11
  -1   6  -7   19.04    0.76
  -1   6  -7   21.01    0.68
  -1   6  -7   20.01    0.72
   1  -6   7   21.42    0.70
   1  -6   7   20.51    0.65
  -2   6  -7    0.64    0.18
  -2   6  -7    0.69    0.18
  -2   6  -7    0.63    0.16
   2  -6   7    0.73    0.18
  -3   6  -7    8.46    0.46
  -3   6  -7    9.21    0.48
  -3   6  -7    9.73    0.47
   3  -6   7    9.43    0.48
  -4   6  -7    0.61    0.20
  -4   6  -7    0.21    0.20
  -4   6  -7    0.55    0.20
   4  -6   7    0.82    0.23
  -5   6  -7   10.33    0.53
  -5   6  -7   10.77    0.56
  -5   6  -7    9.00    0.50
   5  -6   7   10.20    0.58
  -6   6  -7    0.10    0.21
   5   5  -7    0.20    0.28
   5   5  -7    0.25    0.25
  -5  -5   7    0.20    0.20
  -5  -5   7   -0.01    0.18
  -5  -5   7    0.00    0.21
   4   5  -7    7.35    0.47
   4   5  -7    7.28    0.42
   4   5  -7    7.23    0.56
  -4  -5   7    6.46    0.40
  -4  -5   7    6.84    0.43
  -4  -5   7    7.78    0.46
   3   5  -7    0.48    0.16
   3   5  -7    0.69    0.27
  -3  -5   7    0.47    0.16
  -3  -5   7    0.36    0.16
   2   5  -7   35.71    1.23
   2   5  -7   38.49    1.11
  -2  -5   7   35.72    1.03
  -2  -5   7   34.82    1.07
   1   5  -7    0.26    0.19
   1   5  -7    0.13    0.13
  -1  -5   7    0.12    0.12
   0   5  -7   42.56    1.15
   0   5  -7   42.94    1.31
   0   5  -7   41.25    1.22
   0  -5   7   41.23    1.17
  -1   5  -7    0.16    0.12
  -1   5  -7    0.07    0.13
  -1   5  -7    0.20    0.15
   1  -5   7    0.15    0.09
   1  -5   7    0.22    0.13
  -2   5  -7   19.21    0.70
  -2   5  -7   18.86    0.64
  -2   5  -7   19.22    0.69
   2  -5   7   19.21    0.61
  -3   5  -7    1.84    0.23
  -3   5  -7    2.25    0.25
  -3   5  -7    2.46    0.24
   3  -5   7    2.08    0.20
  -4   5  -7   19.07    0.70
  -4   5  -7   19.15    0.68
  -4   5  -7   18.54    0.70
  -5   5  -7    0.15    0.16
  -5   5  -7    0.13    0.16
  -5   5  -7    0.24    0.19
  -6   5  -7    8.85    0.47
  -6   5  -7    8.72    0.53
  -6   5  -7    8.64    0.46
   5   4  -7   11.38    0.67
   5   4  -7   10.99    0.64
  -5  -4   7   10.83    0.54
  -5  -4   7   11.25    0.56
  -5  -4   7   12.53    0.61
   4   4  -7    0.07    0.21
   4   4  -7    0.36    0.17
  -4  -4   7    0.56    0.17
  -4  -4   7    0.25    0.15
  -4  -4   7    0.14    0.17
   3   4  -7   23.13    0.90
   3   4  -7   23.16    0.79
  -3  -4   7   22.25    0.74
  -3  -4   7   23.15    0.76
  -3  -4   7   22.71    0.77
   2   4  -7    0.25    0.22
   2   4  -7    0.61    0.17
  -2  -4   7    0.43    0.12
  -2  -4   7    0.35    0.12
  -2  -4   7    0.55    0.14
   1   4  -7   26.60    0.85
   1   4  -7   24.67    0.92
  -1  -4   7   27.13    0.76
  -1  -4   7   24.95    0.80
   0   4  -7    0.17    0.09
   0   4  -7   -0.01    0.12
   0   4  -7    0.30    0.17
   0  -4   7    0.17    0.09
   0  -4   7    0.17    0.10
  -1   4  -7   70.12    1.94
  -1   4  -7   68.42    1.90
  -1   4  -7   72.24    1.84
   1  -4   7   71.36    1.85
  -2   4  -7   -0.05    0.10
  -2   4  -7    0.09    0.11
  -2   4  -7    0.12    0.14
   2  -4   7    0.24    0.11
  -3   4  -7   33.27    1.02
  -3   4  -7   34.49    1.02
  -3   4  -7   33.99    1.04
   3  -4   7   35.33    0.98
  -4   4  -7    1.90    0.23
  -4   4  -7    1.75    0.21
  -4   4  -7    1.67    0.19
   4  -4   7    2.16    0.19
  -5   4  -7   14.51    0.58
  -5   4  -7   14.16    0.54
  -5   4  -7   14.98    0.62
   5  -4   7   15.39    0.54
  -6   4  -7    0.75    0.23
  -6   4  -7    0.38    0.16
  -6   4  -7    0.01    0.15
  -7   4  -7    8.89    0.56
  -7   4  -7    8.53    0.45
   6   3  -7    5.40    0.52
  -6  -3   7    5.33    0.46
  -6  -3   7    5.08    0.42
  -6  -3   7    3.88    0.38
   5   3  -7    0.41    0.27
   5   3  -7    0.53    0.20
  -5  -3   7    0.50    0.20
  -5  -3   7    0.89    0.22
  -5  -3   7    0.76    0.24
   4   3  -7   10.38    0.59
   4   3  -7    8.88    0.47
  -4  -3   7   10.17    0.49
  -4  -3   7    9.87    0.46
  -4  -3   7   10.33    0.49
   3   3  -7    1.48    0.22
   3   3  -7    1.24    0.26
  -3  -3   7    1.24    0.20
  -3  -3   7    1.63    0.21
  -3  -3   7    1.53    0.20
   2   3  -7   40.69    1.29
   2   3  -7   42.65    1.21
  -2  -3   7   39.98    1.13
  -2  -3   7   40.16    1.13
  -2  -3   7   39.06    1.16
   1   3  -7    0.16    0.12
   1   3  -7   -0.21    0.14
  -1  -3   7    0.26    0.10
  -1  -3   7    0.19    0.10
  -1  -3   7    0.08    0.11
   0   3  -7   53.84    1.36
   0   3  -7   50.12    1.51
   0   3  -7   50.81    1.46
   0  -3   7   52.60    1.36
   0  -3   7   51.19    1.40
  -1   3  -7   -0.10    0.10
  -1   3  -7    0.25    0.10
  -1   3  -7    0.05    0.13
   1  -3   7    0.13    0.09
  -2   3  -7   49.93    1.40
  -2   3  -7   50.05    1.40
  -2   3  -7   48.74    1.35
   2  -3   7   51.11    1.36
  -3   3  -7    0.13    0.12
  -3   3  -7    0.15    0.12
  -3   3  -7    0.12    0.11
   3  -3   7   -0.06    0.09
  -4   3  -7   37.64    1.11
  -4   3  -7   39.14    1.11
  -4   3  -7   36.59    1.06
   4  -3   7   38.02    1.06
  -5   3  -7    0.78    0.16
  -5   3  -7    1.11    0.21
  -5   3  -7    1.06    0.15
   5  -3   7    1.08    0.16
  -6   3  -7   13.66    0.62
  -6   3  -7   14.00    0.51
  -6   3  -7   13.72    0.54
   6  -3   7   14.44    0.52
  -7   3  -7    0.78    0.17
  -7   3  -7    0.70    0.25
  -7   3  -7    0.67    0.17
   7  -3   7    0.81    0.18
   6   2  -7    0.49    0.30
   6   2  -7    0.02    0.20
  -6  -2   7    0.12    0.22
  -6  -2   7    0.10    0.22
  -6  -2   7    0.26    0.25
   5   2  -7    9.59    0.51
   5   2  -7   10.57    0.64
  -5  -2   7   10.39    0.55
  -5  -2   7    9.72    0.50
  -5  -2   7   10.64    0.52
   4   2  -7    0.43    0.22
   4   2  -7    0.48    0.17
  -4  -2   7    0.37    0.18
  -4  -2   7    0.16    0.15
  -4  -2   7    0.24    0.17
   3   2  -7   54.68    1.57
   3   2  -7   50.73    1.47
  -3  -2   7   47.96    1.43
  -3  -2   7   51.25    1.43
  -3  -2   7   52.16    1.44
   2   2  -7    2.72    0.32
   2   2  -7    2.42    0.24
  -2  -2   7    2.40    0.23
  -2  -2   7    2.99    0.23
  -2  -2   7    2.62    0.22
   1   2  -7   24.08    0.80
   1   2  -7   25.04    0.85
  -1  -2   7   24.39    0.75
  -1  -2   7   22.49    0.70
  -1  -2   7   24.63    0.72
   0   2  -7    1.30    0.22
   0   2  -7    0.86    0.16
   0  -2   7    0.97    0.15
   0  -2   7    1.08    0.13
   0  -2   7    0.92    0.11
  -1   2  -7   55.67    1.43
  -1   2  -7   55.44    1.53
  -1   2  -7   53.78    1.52
   1  -2   7   56.77    1.47
   1  -2   7   52.04    1.37
  -2   2  -7    0.59    0.11
  -2   2  -7    0.38    0.13
  -2   2  -7    0.41    0.12
   2  -2   7    0.53    0.12
  -3   2  -7   64.71    1.71
  -3   2  -7   62.25    1.67
  -3   2  -7   63.41    1.69
   3  -2   7   64.63    1.68
  -4   2  -7    0.80    0.17
  -4   2  -7    0.75    0.15
  -4   2  -7    0.61    0.12
   4  -2   7    0.68    0.13
  -5   2  -7   14.50    0.58
  -5   2  -7   14.84    0.54
   5  -2   7   15.53    0.52
  -6   2  -7    1.84    0.26
  -6   2  -7    1.57    0.18
  -6   2  -7    2.07    0.20
   6  -2   7    1.90    0.20
  -7   2  -7   10.54    0.56
  -7   2  -7    9.97    0.44
  -7   2  -7   10.48    0.44
   7  -2   7   10.39    0.45
  -8   2  -7    0.41    0.24
  -8   2  -7    0.31    0.16
  -8   2  -7    0.11    0.14
   8  -2   7    0.36    0.18
   6   1  -7   10.79    0.70
   6   1  -7   11.30    0.57
  -6  -1   7    9.67    0.56
  -6  -1   7   11.78    0.65
  -6  -1   7   10.91    0.60
   5   1  -7   -0.21    0.21
   5   1  -7    0.22    0.18
  -5  -1   7   -0.06    0.19
  -5  -1   7   -0.14    0.17
  -5  -1   7   -0.05    0.17
   4   1  -7   13.47    0.65
   4   1  -7   14.25    0.59
  -4  -1   7   14.25    0.59
  -4  -1   7   14.18    0.58
  -4  -1   7   14.08    0.58
   3   1  -7    0.01    0.14
   3   1  -7   -0.13    0.18
  -3  -1   7    0.09    0.12
  -3  -1   7    0.18    0.14
  -3  -1   7    0.13    0.14
   2   1  -7   59.75    1.65
   2   1  -7   56.31    1.59
  -2  -1   7   54.84    1.54
  -2  -1   7   56.76    1.53
  -2  -1   7   54.77    1.52
   1   1  -7    0.06    0.11
   1   1  -7   -0.05    0.15
  -1  -1   7   -0.11    0.09
  -1  -1   7    0.17    0.10
  -1  -1   7    0.08    0.08
   0   1  -7   89.90    2.36
   0   1  -7   87.93    2.35
   0  -1   7   89.63    2.29
   0  -1   7   85.63    2.23
   0  -1   7   90.73    2.26
  -1   1  -7    0.95    0.16
  -1   1  -7    1.12    0.12
  -1   1  -7    1.30    0.18
   1  -1   7    1.20    0.15
   1  -1   7    1.18    0.13
   1  -1   7    1.10    0.11
  -2   1  -7   27.18    0.81
  -2   1  -7   26.89    0.78
  -2   1  -7   27.16    0.84
   2  -1   7   27.05    0.72
   2  -1   7   27.88    0.80
  -3   1  -7    0.60    0.13
  -3   1  -7    0.41    0.10
  -3   1  -7    0.44    0.12
   3  -1   7    0.60    0.09
   3  -1   7    0.58    0.11
   3  -1   7    0.54    0.12
  -4   1  -7   48.53    1.24
  -4   1  -7   45.81    1.30
  -4   1  -7   46.67    1.32
   4  -1   7   48.05    1.25
   4  -1   7   46.96    1.28
   4  -1   7   47.89    1.28
  -5   1  -7    0.32    0.12
  -5   1  -7    0.31    0.15
  -5   1  -7    0.36    0.12
   5  -1   7    0.39    0.12
   5  -1   7    0.40    0.11
  -6   1  -7   16.90    0.56
  -6   1  -7   15.46    0.56
  -6   1  -7   17.36    0.66
   6  -1   7   16.51    0.57
  -7   1  -7    0.45    0.14
  -7   1  -7    0.09    0.20
  -7   1  -7    0.48    0.13
   7  -1   7    0.26    0.14
  -8   1  -7    5.11    0.45
  -8   1  -7    5.15    0.34
   8  -1   7    4.68    0.34
   6   0  -7    0.12    0.27
   6   0  -7    0.30    0.22
  -6   0   7    0.16    0.22
  -6   0   7    0.57    0.28
  -6   0   7    0.31    0.19
   5   0  -7   10.85    0.63
   5   0  -7   10.76    0.53
  -5   0   7   10.93    0.57
  -5   0   7   10.36    0.53
  -5   0   7   10.07    0.51
   4   0  -7    1.11    0.20
   4   0  -7    1.60    0.28
  -4   0   7    1.28    0.20
  -4   0   7    0.72    0.22
  -4   0   7    0.97    0.21
   3   0  -7   46.32    1.45
   3   0  -7   49.55    1.41
  -3   0   7   48.10    1.38
  -3   0   7   48.44    1.38
  -3   0   7   48.74    1.37
   2   0  -7    0.11    0.15
   2   0  -7    0.18    0.12
  -2   0   7    0.32    0.13
  -2   0   7    0.35    0.12
  -2   0   7    0.34    0.13
   1   0  -7   51.44    1.51
   1   0  -7   54.03    1.49
  -1   0   7   55.22    1.44
  -1   0   7   52.50    1.44
  -1   0   7   51.46    1.41
   0   0  -7    1.00    0.17
   0   0  -7    0.75    0.17
   0   0   7    0.93    0.14
   0   0   7    0.83    0.13
   0   0   7    0.89    0.12
  -1   0  -7   81.28    2.10
  -1   0  -7   77.91    2.10
  -1   0  -7   71.54    2.09
   1   0   7   82.30    2.03
   1   0   7   81.45    2.00
   1   0   7   81.22    2.06
  -2   0  -7   17.10    0.58
  -2   0  -7   17.17    0.53
   2   0   7   16.64    0.48
   2   0   7   15.75    0.53
   2   0   7   16.00    0.51
  -3   0  -7   89.73    2.27
  -3   0  -7   86.24    2.25
   3   0   7   87.97    2.19
   3   0   7   88.59    2.22
   3   0   7   85.75    2.23
  -4   0  -7    0.18    0.10
  -4   0  -7    0.13    0.11
   4   0   7    0.04    0.08
   4   0   7    0.01    0.08
   4   0   7    0.04    0.08
  -5   0  -7   34.14    0.94
  -5   0  -7   32.01    1.00
  -5   0  -7   32.29    0.93
   5   0   7   32.55    0.93
   5   0   7   33.88    0.94
   5   0   7   33.36    0.95
  -6   0  -7   -0.02    0.10
  -6   0  -7   -0.04    0.11
  -6   0  -7   -0.11    0.14
   6   0   7   -0.07    0.11
   6   0   7    0.02    0.11
   6   0   7   -0.04    0.11
  -7   0  -7    9.39    0.55
  -7   0  -7    9.84    0.42
  -7   0  -7    9.37    0.40
  -7   0  -7   10.17    0.52
   7   0   7   11.00    0.45
   7   0   7    9.86    0.44
  -8   0  -7   -0.05    0.22
  -8   0  -7    0.08    0.14
  -8   0  -7   -0.01    0.19
   8   0   7   -0.09    0.15
   8   0   7    0.04    0.17
   6  -1  -7   10.65    0.68
   6  -1  -7   11.30    0.58
  -6   1   7   10.95    0.61
  -6   1   7   10.48    0.65
  -6   1   7   10.01    0.55
  -6   1   7   10.70    0.58
   5  -1  -7    0.70    0.24
   5  -1  -7    0.51    0.20
  -5   1   7    0.39    0.19
  -5   1   7    0.60    0.24
  -5   1   7    0.55    0.17
  -5   1   7    0.77    0.22
   4  -1  -7   13.18    0.55
   4  -1  -7   12.32    0.62
  -4   1   7   12.30    0.56
  -4   1   7   13.16    0.56
  -4   1   7   11.90    0.51
  -4   1   7   12.62    0.56
   3  -1  -7   -0.08    0.17
   3  -1  -7   -0.01    0.12
  -3   1   7    0.05    0.14
  -3   1   7   -0.03    0.11
  -3   1   7   -0.20    0.14
  -3   1   7   -0.05    0.13
   2  -1  -7   22.06    0.78
   2  -1  -7   23.19    0.76
  -2   1   7   22.22    0.73
  -2   1   7   22.56    0.73
  -2   1   7   22.57    0.72
   1  -1  -7    0.94    0.17
   1  -1  -7    0.61    0.14
  -1   1   7    0.66    0.14
  -1   1   7    0.87    0.15
  -1   1   7    0.63    0.13
   0  -1  -7  168.58    4.55
   0  -1  -7  180.09    4.57
   0   1   7  186.71    4.51
   0   1   7  189.79    4.51
   0   1   7  184.62    4.49
  -1  -1  -7    0.47    0.12
  -1  -1  -7    0.62    0.17
  -1  -1  -7    0.58    0.16
   1   1   7    0.63    0.10
   1   1   7    0.50    0.11
   1   1   7    0.59    0.11
  -2  -1  -7   84.22    2.15
  -2  -1  -7   80.95    2.20
   2   1   7   87.09    2.16
   2   1   7   85.57    2.17
   2   1   7   84.51    2.13
  -3  -1  -7   17.93    0.59
  -3  -1  -7   18.14    0.60
   3   1   7   18.44    0.57
   3   1   7   18.84    0.58
  -4  -1  -7   69.76    1.80
  -4  -1  -7   72.33    1.80
  -4  -1  -7   67.16    1.83
   4   1   7   66.98    1.78
   4   1   7   69.50    1.80
   4   1   7   69.12    1.80
  -5  -1  -7    0.76    0.12
  -5  -1  -7    0.35    0.16
  -5  -1  -7    0.57    0.13
   5   1   7    0.66    0.13
   5   1   7    0.56    0.13
   5   1   7    0.90    0.15
  -6  -1  -7   41.31    1.16
  -6  -1  -7   42.39    1.26
   6   1   7   41.20    1.18
   6   1   7   41.86    1.19
   6   1   7   43.14    1.19
  -7  -1  -7    0.18    0.12
  -7  -1  -7    0.11    0.17
  -7  -1  -7   -0.21    0.12
   7   1   7   -0.01    0.13
   7   1   7    0.04    0.13
   7   1   7   -0.14    0.15
  -8  -1  -7    6.36    0.36
  -8  -1  -7    5.63    0.36
  -8  -1  -7    5.65    0.45
   8   1   7    5.39    0.43
   8   1   7    6.19    0.40
   8   1   7    5.75    0.36
  -9  -1  -7    0.11    0.19
  -9  -1  -7    0.37    0.28
   9   1   7    0.16    0.19
  -6   2   7    0.52    0.24
   5  -2  -7    6.63    0.51
   5  -2  -7    7.19    0.44
  -5   2   7    8.03    0.43
  -5   2   7    6.93    0.46
  -5   2   7    8.03    0.53
  -5   2   7    7.27    0.46
   4  -2  -7    0.28    0.19
   4  -2  -7    0.41    0.16
  -4   2   7    0.74    0.17
  -4   2   7    0.82    0.24
  -4   2   7    0.40    0.18
  -4   2   7    0.41    0.18
   3  -2  -7   50.77    1.46
   3  -2  -7   51.50    1.50
  -3   2   7   49.32    1.47
  -3   2   7   55.44    1.45
  -3   2   7   50.64    1.45
  -3   2   7   52.71    1.49
   2  -2  -7    1.23    0.20
   2  -2  -7    1.46    0.19
  -2   2   7    1.50    0.19
  -2   2   7    1.50    0.18
  -2   2   7    1.35    0.17
  -2   2   7    1.19    0.18
   1  -2  -7   41.00    1.18
   1  -2  -7   41.46    1.18
  -1   2   7   40.18    1.15
  -1   2   7   40.14    1.15
  -1   2   7   41.02    1.14
  -1   2   7   40.86    1.16
   0  -2  -7    4.12    0.27
   0  -2  -7    4.75    0.28
   0   2   7    4.07    0.23
   0   2   7    4.09    0.24
   0   2   7    4.12    0.24
  -1  -2  -7   91.64    2.44
  -1  -2  -7   92.26    2.36
   1   2   7   92.55    2.37
   1   2   7   97.82    2.41
   1   2   7   95.01    2.40
  -2  -2  -7    0.01    0.08
  -2  -2  -7    0.04    0.09
   2   2   7   -0.01    0.08
   2   2   7    0.00    0.07
   2   2   7    0.13    0.09
  -3  -2  -7  135.44    3.43
  -3  -2  -7  133.51    3.42
   3   2   7  138.23    3.40
   3   2   7  136.87    3.39
   3   2   7  138.04    3.41
  -4  -2  -7    0.76    0.15
  -4  -2  -7    0.87    0.13
  -4  -2  -7    1.16    0.13
   4   2   7    1.03    0.14
   4   2   7    0.74    0.12
   4   2   7    1.44    0.16
  -5  -2  -7   40.63    1.10
  -5  -2  -7   41.47    1.13
   5   2   7   41.61    1.16
   5   2   7   40.91    1.16
   5   2   7   41.28    1.14
  -6  -2  -7    1.26    0.16
  -6  -2  -7    1.69    0.25
   6   2   7    1.46    0.19
   6   2   7    1.47    0.18
   6   2   7    1.46    0.21
  -7  -2  -7   19.96    0.79
  -7  -2  -7   20.71    0.69
  -7  -2  -7   21.88    0.71
   7   2   7   21.56    0.73
   7   2   7   21.73    0.76
   7   2   7   20.37    0.70
  -8  -2  -7    0.07    0.16
  -8  -2  -7    0.81    0.25
  -8  -2  -7    0.39    0.19
   8   2   7    0.46    0.20
   8   2   7    0.65    0.19
   8   2   7    0.51    0.22
  -9  -2  -7    4.60    0.34
  -9  -2  -7    5.33    0.40
  -9  -2  -7    6.37    0.51
   9   2   7    4.76    0.40
   9   2   7    5.58    0.47
   9   2   7    5.70    0.40
   5  -3  -7    0.64    0.25
   5  -3  -7    0.75    0.21
  -5   3   7    0.70    0.22
  -5   3   7    0.57    0.19
  -5   3   7    0.68    0.21
  -5   3   7    0.35    0.26
   4  -3  -7   36.35    1.15
   4  -3  -7   34.34    1.09
  -4   3   7   34.61    1.15
  -4   3   7   35.34    1.12
  -4   3   7   35.28    1.07
  -4   3   7   35.82    1.09
   3  -3  -7    6.37    0.36
   3  -3  -7    5.41    0.38
  -3   3   7    6.05    0.33
  -3   3   7    6.11    0.40
  -3   3   7    5.55    0.34
  -3   3   7    5.95    0.37
   2  -3  -7   29.17    0.92
   2  -3  -7   29.14    0.92
  -2   3   7   31.09    0.94
  -2   3   7   29.43    0.93
  -2   3   7   31.09    0.90
  -2   3   7   28.92    0.88
   1  -3  -7    0.14    0.12
   1  -3  -7    0.47    0.13
  -1   3   7    0.23    0.10
  -1   3   7    0.36    0.13
  -1   3   7    0.18    0.09
  -1   3   7    0.54    0.15
   0  -3  -7   85.56    2.14
   0  -3  -7   82.34    2.21
   0  -3  -7   85.93    2.19
   0   3   7   85.66    2.19
   0   3   7   82.59    2.18
   0   3   7   85.16    2.20
   0   3   7   84.38    2.15
  -1  -3  -7   18.49    0.57
  -1  -3  -7   18.07    0.61
   1   3   7   17.69    0.58
   1   3   7   18.33    0.60
   1   3   7   17.48    0.58
  -2  -3  -7   73.20    1.96
  -2  -3  -7   73.64    1.93
   2   3   7   76.07    1.92
   2   3   7   73.63    1.93
   2   3   7   74.16    1.92
  -3  -3  -7    5.17    0.28
  -3  -3  -7    5.33    0.29
   3   3   7    5.47    0.25
   3   3   7    5.58    0.28
   3   3   7    4.73    0.27
  -4  -3  -7   42.00    1.14
  -4  -3  -7   41.72    1.21
  -4  -3  -7   41.25    1.14
   4   3   7   42.66    1.15
   4   3   7   42.46    1.17
   4   3   7   42.10    1.17
  -5  -3  -7    3.04    0.27
  -5  -3  -7    3.01    0.21
   5   3   7    2.85    0.25
   5   3   7    2.81    0.23
   5   3   7    2.77    0.22
  -6  -3  -7   33.84    0.95
   6   3   7   33.60    1.00
   6   3   7   31.97    0.96
   6   3   7   31.55    1.00
  -7  -3  -7    0.24    0.14
  -7  -3  -7    0.14    0.18
  -7  -3  -7    0.42    0.16
   7   3   7    0.20    0.14
   7   3   7    0.09    0.18
   7   3   7    0.35    0.16
  -8  -3  -7   15.65    0.59
  -8  -3  -7   13.98    0.69
  -8  -3  -7   14.22    0.60
   8   3   7   15.34    0.69
   8   3   7   15.67    0.60
   8   3   7   14.49    0.63
  -9  -3  -7    0.24    0.17
  -9  -3  -7    0.10    0.19
  -9  -3  -7   -0.20    0.25
   9   3   7   -0.21    0.22
   9   3   7   -0.11    0.19
   9   3   7   -0.21    0.18
   5  -4  -7    6.78    0.45
   5  -4  -7    8.55    0.54
  -5   4   7    8.69    0.45
  -5   4   7    7.97    0.48
  -5   4   7    8.16    0.57
  -5   4   7    7.08    0.46
   4  -4  -7    0.12    0.17
   4  -4  -7   -0.02    0.18
  -4   4   7   -0.10    0.16
  -4   4   7    0.00    0.14
  -4   4   7    0.10    0.13
  -4   4   7    0.03    0.22
   3  -4  -7   71.83    1.94
   3  -4  -7   71.72    1.92
  -3   4   7   69.95    1.87
  -3   4   7   68.83    1.88
  -3   4   7   70.40    1.97
  -3   4   7   69.65    1.95
   2  -4  -7    1.44    0.19
   2  -4  -7    1.47    0.19
  -2   4   7    1.67    0.24
  -2   4   7    1.92    0.19
  -2   4   7    1.81    0.23
  -2   4   7    1.72    0.19
   1  -4  -7   54.52    1.46
   1  -4  -7   54.82    1.42
   1  -4  -7   52.41    1.47
  -1   4   7   52.71    1.45
  -1   4   7   53.26    1.43
  -1   4   7   51.52    1.49
  -1   4   7   55.62    1.50
   0  -4  -7    0.62    0.12
   0  -4  -7    0.81    0.15
   0  -4  -7    1.08    0.14
   0   4   7    0.74    0.13
   0   4   7    0.97    0.16
   0   4   7    0.75    0.16
   0   4   7    0.69    0.11
  -1  -4  -7   32.55    0.94
  -1  -4  -7   31.63    0.96
   1   4   7   33.41    0.97
   1   4   7   33.10    0.95
   1   4   7   33.10    0.94
  -2  -4  -7    0.89    0.14
  -2  -4  -7    0.86    0.15
   2   4   7    0.85    0.13
   2   4   7    0.85    0.12
   2   4   7    0.96    0.15
  -3  -4  -7   99.21    2.52
  -3  -4  -7   94.92    2.54
   3   4   7   98.18    2.49
   3   4   7   98.85    2.53
   3   4   7  101.20    2.53
  -4  -4  -7    6.86    0.29
  -4  -4  -7    6.50    0.35
   4   4   7    6.79    0.30
   4   4   7    6.73    0.33
   4   4   7    6.82    0.34
  -5  -4  -7   35.38    1.08
  -5  -4  -7   35.40    0.98
   5   4   7   34.38    1.04
   5   4   7   34.85    1.00
   5   4   7   34.17    1.03
  -6  -4  -7    0.05    0.12
  -6  -4  -7    0.08    0.17
   6   4   7    0.21    0.17
   6   4   7    0.14    0.13
   6   4   7    0.09    0.13
  -7  -4  -7   14.16    0.64
  -7  -4  -7   14.29    0.56
  -7  -4  -7   13.41    0.52
   7   4   7   13.22    0.57
   7   4   7   14.57    0.62
   7   4   7   13.42    0.54
  -8  -4  -7   -0.27    0.20
  -8  -4  -7   -0.27    0.15
  -8  -4  -7    0.15    0.17
   8   4   7   -0.24    0.16
   8   4   7   -0.04    0.14
   8   4   7   -0.12    0.21
  -9  -4  -7    6.49    0.40
  -9  -4  -7    8.10    0.60
  -9  -4  -7    5.77    0.43
   9   4   7    6.93    0.44
   9   4   7    7.84    0.57
   9   4   7    6.27    0.47
   5  -5  -7    0.01    0.19
   5  -5  -7    0.10    0.24
  -5   5   7   -0.13    0.17
  -5   5   7    0.11    0.18
  -5   5   7    0.14    0.27
   4  -5  -7   20.90    0.78
   4  -5  -7   22.45    0.82
  -4   5   7   21.06    0.80
  -4   5   7   21.72    0.77
  -4   5   7   22.13    0.87
   3  -5  -7    1.18    0.22
   3  -5  -7    1.43    0.21
  -3   5   7    1.46    0.20
  -3   5   7    1.19    0.16
  -3   5   7    1.37    0.22
  -3   5   7    1.26    0.27
   2  -5  -7   27.11    0.85
   2  -5  -7   26.16    0.84
  -2   5   7   25.57    0.90
  -2   5   7   27.05    0.89
  -2   5   7   27.02    0.81
  -2   5   7   27.29    0.82
   1  -5  -7    1.10    0.15
   1  -5  -7    0.88    0.15
   1  -5  -7    0.97    0.15
  -1   5   7    0.93    0.13
  -1   5   7    0.79    0.18
  -1   5   7    0.99    0.14
  -1   5   7    1.22    0.19
   0  -5  -7  102.27    2.63
   0  -5  -7  103.29    2.61
   0  -5  -7  101.90    2.65
   0   5   7  104.06    2.68
   0   5   7  104.20    2.64
   0   5   7  103.33    2.59
   0   5   7  104.04    2.68
  -1  -5  -7    0.63    0.13
  -1  -5  -7    0.86    0.14
   1   5   7    0.65    0.10
   1   5   7    1.03    0.17
   1   5   7    0.95    0.14
   1   5   7    0.88    0.16
  -2  -5  -7   81.49    2.20
  -2  -5  -7   84.37    2.19
   2   5   7   88.16    2.17
   2   5   7   84.34    2.21
   2   5   7   83.40    2.21
  -3  -5  -7    2.89    0.25
   3   5   7    2.71    0.19
   3   5   7    2.30    0.20
   3   5   7    2.74    0.25
  -4  -5  -7   50.39    1.34
  -4  -5  -7   49.40    1.43
   4   5   7   49.82    1.36
   4   5   7   52.34    1.42
   4   5   7   50.68    1.41
  -5  -5  -7    0.29    0.17
  -5  -5  -7   -0.02    0.08
   5   5   7    0.11    0.11
   5   5   7    0.02    0.13
   5   5   7    0.01    0.14
  -6  -5  -7   27.72    0.84
  -6  -5  -7   28.51    0.96
   6   5   7   28.46    0.94
   6   5   7   27.80    0.90
   6   5   7   26.87    0.85
  -7  -5  -7    0.19    0.20
  -7  -5  -7    0.11    0.13
   7   5   7    0.06    0.14
   7   5   7    0.00    0.13
   7   5   7    0.27    0.20
  -8  -5  -7    9.68    0.47
  -8  -5  -7   10.54    0.59
  -8  -5  -7    9.09    0.49
   8   5   7   10.11    0.61
   8   5   7    9.39    0.48
   8   5   7   10.31    0.53
  -9  -5  -7    0.20    0.26
  -9  -5  -7    0.12    0.21
  -9  -5  -7    0.07    0.19
   9   5   7    0.21    0.28
   9   5   7    0.80    0.26
   9   5   7   -0.17    0.15
   4  -6  -7    0.09    0.18
   4  -6  -7   -0.07    0.18
  -4   6   7   -0.11    0.16
  -4   6   7    0.07    0.23
  -4   6   7   -0.02    0.18
   3  -6  -7   14.74    0.59
  -3   6   7   13.67    0.61
  -3   6   7   14.90    0.67
  -3   6   7   14.52    0.56
   2  -6  -7   -0.09    0.13
   2  -6  -7   -0.01    0.11
  -2   6   7    0.05    0.11
  -2   6   7    0.07    0.14
  -2   6   7   -0.26    0.16
   1  -6  -7   69.84    1.90
   1  -6  -7   72.97    1.89
  -1   6   7   72.54    1.86
  -1   6   7   71.32    1.96
  -1   6   7   69.27    1.94
   0  -6  -7    1.83    0.20
   0  -6  -7    1.57    0.19
   0   6   7    1.77    0.23
   0   6   7    2.02    0.25
   0   6   7    1.75    0.16
  -1  -6  -7   76.20    1.98
  -1  -6  -7   75.26    2.01
   1   6   7   76.26    2.03
   1   6   7   74.78    1.98
   1   6   7   76.06    2.03
   1   6   7   76.07    1.92
  -2  -6  -7    5.84    0.30
  -2  -6  -7    6.34    0.34
   2   6   7    5.94    0.29
   2   6   7    5.96    0.35
   2   6   7    5.96    0.33
  -3  -6  -7   63.65    1.66
  -3  -6  -7   62.52    1.72
   3   6   7   62.72    1.71
   3   6   7   61.28    1.71
   3   6   7   62.76    1.64
  -4  -6  -7    0.03    0.08
  -4  -6  -7    0.26    0.14
   4   6   7   -0.09    0.10
   4   6   7    0.03    0.09
   4   6   7    0.15    0.16
  -5  -6  -7   53.58    1.43
  -5  -6  -7   54.70    1.55
   5   6   7   53.68    1.53
   5   6   7   51.80    1.44
   5   6   7   53.02    1.51
  -6  -6  -7    0.11    0.19
  -6  -6  -7    0.64    0.15
   6   6   7    0.45    0.20
   6   6   7    0.42    0.15
   6   6   7    0.46    0.17
  -7  -6  -7   12.94    0.63
  -7  -6  -7   12.06    0.49
   7   6   7   12.00    0.56
   7   6   7   12.93    0.52
   7   6   7   12.21    0.62
  -8  -6  -7   -0.02    0.15
  -8  -6  -7    0.23    0.24
  -8  -6  -7    0.18    0.20
   8   6   7    0.29    0.25
   8   6   7    0.27    0.18
   8   6   7    0.23    0.20
   4  -7  -7   10.99    0.54
  -4   7   7    9.45    0.61
  -4   7   7    8.43    0.51
  -4   7   7    8.79    0.47
  -4   7   7    9.99    0.50
   3  -7  -7    1.05    0.21
  -3   7   7    1.43    0.28
  -3   7   7    1.41    0.24
  -3   7   7    1.42    0.20
  -3   7   7    1.26    0.20
   2  -7  -7    9.14    0.43
   2  -7  -7    9.60    0.43
  -2   7   7    9.30    0.42
  -2   7   7    9.19    0.52
  -2   7   7    8.61    0.46
  -2   7   7    8.28    0.39
   1  -7  -7    0.21    0.14
   1  -7  -7    0.11    0.13
  -1   7   7    0.11    0.17
  -1   7   7    0.34    0.16
  -1   7   7    0.26    0.11
  -1   7   7    0.07    0.10
   0  -7  -7   69.58    1.93
   0  -7  -7   72.56    1.91
   0   7   7   72.04    1.98
   0   7   7   72.15    1.86
   0   7   7   73.62    1.98
  -1  -7  -7    0.62    0.14
  -1  -7  -7    0.69    0.16
   1   7   7    0.52    0.15
   1   7   7    0.81    0.19
   1   7   7    0.64    0.11
  -2  -7  -7   50.34    1.34
  -2  -7  -7   48.01    1.40
   2   7   7   48.87    1.40
   2   7   7   48.51    1.41
  -3  -7  -7    0.22    0.12
  -3  -7  -7    0.11    0.13
   3   7   7   -0.04    0.15
   3   7   7    0.01    0.14
   3   7   7   -0.11    0.08
  -4  -7  -7   27.27    0.90
  -4  -7  -7   26.38    0.78
   4   7   7   26.68    0.88
   4   7   7   26.65    0.90
   4   7   7   27.59    0.80
  -5  -7  -7    1.38    0.16
  -5  -7  -7    1.34    0.24
   5   7   7    1.22    0.17
   5   7   7    1.76    0.26
   5   7   7    0.99    0.20
  -6  -7  -7   26.02    0.92
  -6  -7  -7   24.45    0.78
   6   7   7   25.44    0.92
   6   7   7   25.70    0.81
  -7  -7  -7   -0.02    0.15
  -7  -7  -7   -0.15    0.20
   7   7   7    0.05    0.17
   7   7   7    0.02    0.24
   7   7   7    0.31    0.16
  -8  -7  -7   10.20    0.50
  -8  -7  -7   10.00    0.61
   8   7   7    9.75    0.56
   8   7   7   10.32    0.51
   8   7   7   11.85    0.67
   3  -8  -7   10.42    0.52
  -3   8   7   10.88    0.56
  -3   8   7   10.73    0.50
  -3   8   7   11.22    0.51
  -3   8   7   11.66    0.64
   2  -8  -7    0.18    0.15
   2  -8  -7    0.04    0.16
  -2   8   7    0.02    0.13
  -2   8   7    0.04    0.16
  -2   8   7    0.00    0.14
  -2   8   7   -0.16    0.20
   1  -8  -7   24.50    0.83
   1  -8  -7   26.61    0.83
  -1   8   7   25.93    0.79
  -1   8   7   24.78    0.91
  -1   8   7   23.74    0.86
  -1   8   7   25.18    0.80
   0  -8  -7    5.73    0.37
   0  -8  -7    5.65    0.32
   0   8   7    5.44    0.30
   0   8   7    5.91    0.39
   0   8   7    5.12    0.40
   0   8   7    5.84    0.29
  -1  -8  -7   23.92    0.76
  -1  -8  -7   23.63    0.81
   1   8   7   24.96    0.71
   1   8   7   24.09    0.83
   1   8   7   24.42    0.85
  -2  -8  -7    0.51    0.18
  -2  -8  -7    0.49    0.13
   2   8   7    0.78    0.22
   2   8   7    0.44    0.16
  -3  -8  -7   18.66    0.70
   3   8   7   18.09    0.70
   3   8   7   18.20    0.67
  -4  -8  -7    0.95    0.14
  -4  -8  -7    0.74    0.19
   4   8   7    0.95    0.19
   4   8   7    1.06    0.15
   4   8   7    1.03    0.21
  -5  -8  -7   27.11    0.93
  -5  -8  -7   25.89    0.79
   5   8   7   25.09    0.89
   5   8   7   25.67    0.80
   5   8   7   27.36    0.94
  -6  -8  -7    0.29    0.21
  -6  -8  -7    0.60    0.15
   6   8   7    0.66    0.21
   6   8   7    0.77    0.26
   6   8   7    0.52    0.16
  -7  -8  -7   12.39    0.64
  -7  -8  -7   12.10    0.50
   7   8   7   11.34    0.66
   7   8   7   12.15    0.52
  -8  -8  -7   -0.36    0.23
  -8  -8  -7    0.22    0.19
   8   8   7   -0.01    0.20
   8   8   7    0.06    0.17
   8   8   7   -0.27    0.26
   2  -9  -7   10.80    0.52
   2  -9  -7   12.48    0.56
  -2   9   7   10.45    0.56
  -2   9   7   11.15    0.51
  -2   9   7   11.35    0.64
  -2   9   7   10.76    0.50
   1  -9  -7    0.15    0.16
   1  -9  -7    0.15    0.17
  -1   9   7   -0.12    0.21
  -1   9   7   -0.07    0.12
  -1   9   7    0.10    0.17
  -1   9   7    0.05    0.14
   0  -9  -7   16.41    0.65
   0  -9  -7   16.61    0.60
   0   9   7   15.01    0.57
   0   9   7   16.74    0.67
   0   9   7   17.02    0.72
   0   9   7   16.07    0.56
  -1  -9  -7    0.17    0.17
  -1  -9  -7    0.03    0.13
   1   9   7    0.11    0.11
   1   9   7    0.18    0.11
   1   9   7    0.22    0.16
   1   9   7    0.20    0.21
  -2  -9  -7   27.72    0.93
  -2  -9  -7   27.39    0.83
   2   9   7   25.50    0.93
   2   9   7   27.82    0.93
  -3  -9  -7    3.36    0.33
   3   9   7    2.84    0.32
   3   9   7    2.97    0.29
  -4  -9  -7   24.97    0.88
   4   9   7   23.66    0.88
   4   9   7   23.57    0.84
  -5  -9  -7    0.39    0.14
  -5  -9  -7    0.40    0.21
   5   9   7    0.25    0.22
   5   9   7    0.77    0.16
   5   9   7    0.33    0.19
  -6  -9  -7    7.20    0.36
  -6  -9  -7    7.87    0.52
   6   9   7    7.78    0.52
   6   9   7    6.86    0.37
   6   9   7    7.96    0.49
  -7  -9  -7   -0.24    0.22
  -7  -9  -7    0.07    0.17
   7   9   7    0.10    0.27
   7   9   7    0.07    0.22
   7   9   7   -0.06    0.15
   1 -10  -7   18.00    0.70
   1 -10  -7   18.90    0.75
  -1  10   7   18.33    0.66
  -1  10   7   17.72    0.74
  -1  10   7   18.57    0.83
  -1  10   7   17.86    0.67
   0 -10  -7    0.09    0.19
   0 -10  -7    0.20    0.16
   0  10   7    0.37    0.24
   0  10   7    0.11    0.19
   0  10   7    0.16    0.14
   0  10   7    0.18    0.14
  -1 -10  -7   21.53    0.83
  -1 -10  -7   21.67    0.74
   1  10   7   22.66    0.88
   1  10   7   22.25    0.83
   1  10   7   22.09    0.71
   1  10   7   21.86    0.72
  -2 -10  -7    0.50    0.21
   2  10   7    0.10    0.17
   2  10   7    0.45    0.24
  -3 -10  -7   27.26    0.98
   3  10   7   28.79    0.97
   3  10   7   27.89    1.00
  -4 -10  -7    0.20    0.19
   4  10   7    0.29    0.24
   4  10   7    0.12    0.19
  -5 -10  -7   19.42    0.81
   5  10   7   18.59    0.78
   5  10   7   21.25    0.87
  -6 -10  -7    0.71    0.18
  -6 -10  -7    0.75    0.27
   6  10   7    1.35    0.21
   6  10   7    0.77    0.24
   6  10   7    1.21    0.31
  -7 -10  -7    4.56    0.44
  -7 -10  -7    5.13    0.37
   7  10   7    4.87    0.45
   0 -11  -7   15.44    0.72
   0 -11  -7   16.24    0.65
   0  11   7   16.07    0.61
   0  11   7   16.04    0.78
   0  11   7   16.66    0.62
  -1 -11  -7    0.28    0.17
  -1 -11  -7    0.45    0.23
   1  11   7    0.66    0.28
   1  11   7    0.71    0.17
   1  11   7    0.48    0.22
  -2 -11  -7   21.86    0.86
   2  11   7   22.08    0.88
   2  11   7   20.69    0.82
  -3 -11  -7    0.75    0.26
   3  11   7    0.40    0.21
   3  11   7    0.56    0.26
  -4 -11  -7   25.33    0.95
   4  11   7   24.26    0.97
   4  11   7   23.55    0.90
  -5 -11  -7    0.25    0.25
   5  11   7    0.40    0.21
   5  11   7    0.50    0.31
  -6 -11  -7    4.97    0.47
  -2  -8   8    3.95    0.33
   1   8  -8    0.14    0.27
   1   8  -8    0.15    0.19
   0   8  -8    4.30    0.45
   0   8  -8    3.84    0.36
  -1   8  -8    0.22    0.20
  -1   8  -8    0.10    0.20
  -1   8  -8    0.11    0.24
   1  -8   8    0.14    0.19
  -2   8  -8    8.04    0.57
  -2   8  -8    8.70    0.51
  -2   8  -8    7.72    0.50
   2  -8   8    7.53    0.51
   3   7  -8    4.87    0.37
   3   7  -8    4.51    0.46
  -3  -7   8    5.51    0.40
   2   7  -8    0.15    0.27
   2   7  -8   -0.24    0.16
  -2  -7   8   -0.24    0.15
   1   7  -8    9.44    0.49
   1   7  -8    9.54    0.60
  -1  -7   8    9.01    0.44
   0   7  -8    0.11    0.17
   0   7  -8   -0.01    0.24
  -1   7  -8    7.91    0.55
  -1   7  -8    8.08    0.43
  -1   7  -8    8.27    0.47
   1  -7   8    8.30    0.46
  -2   7  -8    0.30    0.22
  -2   7  -8    0.13    0.17
  -2   7  -8    0.38    0.19
   2  -7   8    0.32    0.19
  -3   7  -8    9.24    0.57
  -3   7  -8    9.78    0.51
  -3   7  -8    8.59    0.52
   3  -7   8    8.95    0.54
  -4   7  -8    0.09    0.22
  -4   7  -8    0.19    0.22
  -4   7  -8    0.11    0.20
   4  -7   8    0.17    0.22
   4   6  -8    6.59    0.56
   4   6  -8    7.01    0.51
  -4  -6   8    6.33    0.45
  -4  -6   8    5.91    0.42
   3   6  -8    0.08    0.25
   3   6  -8   -0.09    0.17
  -3  -6   8   -0.04    0.17
   2   6  -8   19.37    0.71
   2   6  -8   18.51    0.85
  -2  -6   8   17.28    0.66
   1   6  -8   -0.27    0.15
   1   6  -8   -0.26    0.23
  -1  -6   8   -0.02    0.13
   0   6  -8   10.45    0.60
   0   6  -8   10.61    0.50
   0  -6   8    9.45    0.42
  -1   6  -8    2.01    0.22
  -1   6  -8    1.84    0.27
  -1   6  -8    1.36    0.23
   1  -6   8    1.68    0.22
   1  -6   8    1.66    0.20
  -2   6  -8   15.73    0.59
  -2   6  -8   14.87    0.68
  -2   6  -8   15.14    0.64
   2  -6   8   15.00    0.61
  -3   6  -8    0.02    0.18
  -3   6  -8    0.25    0.19
  -3   6  -8    0.20    0.19
   3  -6   8    0.20    0.18
  -4   6  -8   13.86    0.64
  -4   6  -8   12.94    0.62
  -4   6  -8   12.09    0.58
   4  -6   8   13.52    0.63
  -5   6  -8    0.21    0.19
  -5   6  -8    0.29    0.19
  -5   6  -8    0.21    0.23
   4   5  -8    0.05    0.17
   4   5  -8    0.05    0.27
  -4  -5   8    0.11    0.20
  -4  -5   8    0.21    0.19
   3   5  -8    8.29    0.45
   3   5  -8    7.64    0.57
  -3  -5   8    6.44    0.42
  -3  -5   8    7.18    0.39
   2   5  -8   -0.02    0.23
   2   5  -8   -0.06    0.14
  -2  -5   8    0.03    0.13
   1   5  -8   28.20    0.92
   1   5  -8   26.35    1.02
  -1  -5   8   27.21    0.87
   0   5  -8    0.09    0.15
   0   5  -8    0.06    0.21
   0  -5   8    0.02    0.12
  -1   5  -8   27.21    0.93
  -1   5  -8   29.10    0.99
  -1   5  -8   29.26    0.87
   1  -5   8   28.61    0.87
   1  -5   8   28.98    0.88
  -2   5  -8    1.71    0.22
  -2   5  -8    1.32    0.22
  -2   5  -8    1.48    0.23
   2  -5   8    1.61    0.19
  -3   5  -8   14.49    0.58
  -3   5  -8   14.04    0.59
  -3   5  -8   15.11    0.62
   3  -5   8   14.41    0.54
  -4   5  -8    0.73    0.20
  -4   5  -8    0.72    0.19
  -4   5  -8    0.41    0.18
  -5   5  -8   13.79    0.62
  -5   5  -8   13.20    0.63
  -5   5  -8   13.60    0.60
  -6   5  -8    0.64    0.20
  -6   5  -8    0.36    0.20
  -6   5  -8    0.74    0.26
   5   4  -8    0.35    0.21
   5   4  -8    0.40    0.28
  -5  -4   8    0.47    0.22
  -5  -4   8    0.54    0.25
  -5  -4   8    0.45    0.23
   4   4  -8    7.19    0.43
   4   4  -8    7.32    0.57
  -4  -4   8    7.59    0.46
  -4  -4   8    6.95    0.42
  -4  -4   8    7.05    0.45
   3   4  -8    0.05    0.17
   3   4  -8   -0.03    0.22
  -3  -4   8   -0.16    0.15
  -3  -4   8   -0.13    0.13
  -3  -4   8    0.08    0.17
   2   4  -8   28.44    1.05
   2   4  -8   29.66    0.94
  -2  -4   8   28.58    0.86
  -2  -4   8   25.79    0.88
   1   4  -8    0.64    0.18
   1   4  -8    0.35    0.23
  -1  -4   8    0.41    0.15
  -1  -4   8    0.48    0.13
   0   4  -8   27.74    0.94
   0   4  -8   30.08    1.02
   0  -4   8   28.50    0.88
  -1   4  -8    0.01    0.14
  -1   4  -8    0.01    0.17
  -1   4  -8    0.08    0.11
   1  -4   8    0.21    0.12
  -2   4  -8   25.57    0.85
  -2   4  -8   24.57    0.79
  -2   4  -8   25.71    0.86
   2  -4   8   25.19    0.79
  -3   4  -8    1.08    0.18
  -3   4  -8    1.18    0.20
  -3   4  -8    1.28    0.19
   3  -4   8    1.16    0.17
  -4   4  -8   20.28    0.70
  -4   4  -8   20.99    0.75
  -4   4  -8   20.26    0.74
   4  -4   8   21.19    0.69
  -5   4  -8    1.36    0.21
  -5   4  -8    1.41    0.26
  -5   4  -8    1.94    0.25
   5  -4   8    2.05    0.22
  -6   4  -8   11.43    0.54
  -6   4  -8   11.53    0.51
  -6   4  -8   12.42    0.61
   5   3  -8   12.93    0.75
   5   3  -8   14.01    0.62
  -5  -3   8   15.31    0.70
  -5  -3   8   14.33    0.64
  -5  -3   8   12.29    0.62
   4   3  -8    0.39    0.20
   4   3  -8    0.45    0.27
  -4  -3   8    0.26    0.20
  -4  -3   8    0.25    0.20
  -4  -3   8    0.43    0.19
   3   3  -8   12.79    0.66
   3   3  -8   12.67    0.56
  -3  -3   8   12.29    0.51
  -3  -3   8   11.84    0.52
  -3  -3   8   12.37    0.52
   2   3  -8   -0.25    0.19
   2   3  -8   -0.07    0.15
  -2  -3   8    0.00    0.13
  -2  -3   8    0.01    0.14
  -2  -3   8    0.08    0.11
   1   3  -8   19.45    0.71
   1   3  -8   18.92    0.79
  -1  -3   8   18.44    0.65
  -1  -3   8   19.34    0.62
   0   3  -8    0.38    0.15
   0   3  -8    0.36    0.18
   0  -3   8    0.11    0.11
   0  -3   8    0.16    0.10
  -1   3  -8   44.60    1.37
  -1   3  -8   48.57    1.28
  -1   3  -8   47.96    1.40
   1  -3   8   46.71    1.31
  -2   3  -8    0.63    0.17
  -2   3  -8    0.63    0.16
  -2   3  -8    0.81    0.14
   2  -3   8    0.66    0.13
  -3   3  -8   18.45    0.66
  -3   3  -8   18.14    0.64
  -3   3  -8   17.15    0.62
   3  -3   8   18.17    0.61
  -4   3  -8    1.91    0.20
  -4   3  -8    1.90    0.23
  -4   3  -8    1.78    0.23
   4  -3   8    1.87    0.19
  -5   3  -8   14.73    0.53
  -5   3  -8   13.76    0.60
  -5   3  -8   13.31    0.56
   5  -3   8   14.31    0.53
  -6   3  -8    0.59    0.22
  -6   3  -8    0.34    0.15
   6  -3   8    0.60    0.16
  -7   3  -8   10.21    0.61
  -7   3  -8   11.26    0.52
   7  -3   8   12.36    0.52
   5   2  -8    0.43    0.22
   5   2  -8    0.32    0.28
  -5  -2   8    0.18    0.21
  -5  -2   8    0.16    0.21
  -5  -2   8    0.27    0.24
   4   2  -8   11.76    0.55
   4   2  -8   12.54    0.67
  -4  -2   8   11.60    0.56
  -4  -2   8   10.99    0.54
  -4  -2   8   11.74    0.54
   3   2  -8   -0.14    0.20
   3   2  -8   -0.13    0.15
  -3  -2   8   -0.09    0.15
  -3  -2   8   -0.06    0.15
  -3  -2   8    0.01    0.14
   2   2  -8   42.06    1.25
   2   2  -8   42.12    1.32
  -2  -2   8   39.47    1.17
  -2  -2   8   40.54    1.16
  -2  -2   8   39.46    1.19
   1   2  -8   -0.02    0.14
   1   2  -8   -0.10    0.17
  -1  -2   8    0.12    0.13
  -1  -2   8    0.10    0.11
  -1  -2   8   -0.03    0.10
   0   2  -8   22.37    0.78
   0   2  -8   22.75    0.82
   0  -2   8   21.81    0.67
   0  -2   8   22.06    0.71
   0  -2   8   21.77    0.65
  -1   2  -8    0.30    0.11
  -1   2  -8    0.17    0.15
  -1   2  -8    0.19    0.14
   1  -2   8    0.30    0.11
   1  -2   8    0.34    0.09
  -2   2  -8   39.53    1.11
  -2   2  -8   38.53    1.16
  -2   2  -8   39.30    1.18
   2  -2   8   40.27    1.13
   2  -2   8   40.46    1.07
  -3   2  -8    0.80    0.14
  -3   2  -8    0.65    0.15
  -3   2  -8    0.69    0.15
   3  -2   8    0.64    0.14
  -4   2  -8   26.40    0.85
  -4   2  -8   27.28    0.85
  -4   2  -8   27.38    0.80
   4  -2   8   24.83    0.80
  -5   2  -8    0.33    0.14
  -5   2  -8    0.39    0.17
   5  -2   8    0.55    0.14
  -6   2  -8   10.11    0.53
  -6   2  -8   10.34    0.46
   6  -2   8   10.72    0.46
  -7   2  -8    0.29    0.16
  -7   2  -8    0.60    0.23
  -7   2  -8   -0.07    0.15
   7  -2   8    0.00    0.15
   5   1  -8   12.61    0.62
   5   1  -8   11.96    0.68
  -5  -1   8   11.74    0.57
  -5  -1   8   11.86    0.59
  -5  -1   8   11.47    0.61
   4   1  -8   -0.29    0.21
   4   1  -8    0.15    0.17
  -4  -1   8    0.03    0.18
  -4  -1   8    0.11    0.18
  -4  -1   8    0.12    0.17
   3   1  -8   29.27    0.96
   3   1  -8   29.07    1.04
  -3  -1   8   29.06    0.91
  -3  -1   8   27.48    0.92
  -3  -1   8   27.54    0.91
   2   1  -8   -0.08    0.18
   2   1  -8    0.15    0.14
  -2  -1   8    0.26    0.14
  -2  -1   8    0.07    0.13
  -2  -1   8    0.20    0.12
   1   1  -8   26.41    0.95
   1   1  -8   28.38    0.92
  -1  -1   8   28.19    0.83
  -1  -1   8   27.73    0.87
  -1  -1   8   28.73    0.85
   0   1  -8    9.69    0.49
   0   1  -8    9.10    0.45
   0  -1   8    9.85    0.38
   0  -1   8    9.19    0.35
   0  -1   8    8.49    0.38
  -1   1  -8   73.56    2.01
  -1   1  -8   71.93    2.00
  -1   1  -8   73.46    1.88
   1  -1   8   72.04    1.86
   1  -1   8   75.13    1.95
   1  -1   8   75.53    1.90
  -2   1  -8    0.17    0.09
  -2   1  -8    0.09    0.12
  -2   1  -8    0.13    0.13
   2  -1   8    0.20    0.09
   2  -1   8    0.13    0.10
   2  -1   8   -0.03    0.07
  -3   1  -8   57.01    1.53
  -3   1  -8   56.69    1.58
  -3   1  -8   57.06    1.54
   3  -1   8   57.86    1.50
   3  -1   8   57.74    1.54
  -4   1  -8    0.49    0.15
  -4   1  -8    0.76    0.13
  -4   1  -8    0.73    0.15
   4  -1   8    0.74    0.12
   4  -1   8    0.36    0.12
  -5   1  -8   12.96    0.50
  -5   1  -8   13.07    0.53
   5  -1   8   13.00    0.49
  -6   1  -8    0.58    0.21
  -6   1  -8    0.52    0.13
  -6   1  -8    0.50    0.15
   6  -1   8    0.46    0.15
  -7   1  -8    8.61    0.41
  -7   1  -8    8.73    0.41
  -7   1  -8    9.10    0.53
   7  -1   8    8.16    0.41
  -8   1  -8    0.05    0.23
  -8   1  -8   -0.06    0.15
   8  -1   8    0.15    0.17
   5   0  -8   -0.14    0.26
   5   0  -8    0.51    0.23
  -5   0   8    0.53    0.22
  -5   0   8    0.20    0.20
  -5   0   8   -0.04    0.22
   4   0  -8    7.38    0.44
   4   0  -8    6.44    0.48
  -4   0   8    6.20    0.41
  -4   0   8    5.94    0.38
  -4   0   8    6.31    0.44
   3   0  -8   -0.01    0.20
   3   0  -8    0.01    0.14
  -3   0   8   -0.01    0.16
  -3   0   8   -0.06    0.14
  -3   0   8   -0.14    0.13
   2   0  -8   62.88    1.78
   2   0  -8   64.72    1.84
  -2   0   8   63.22    1.74
  -2   0   8   64.63    1.74
  -2   0   8   62.48    1.73
   1   0  -8    0.06    0.14
   1   0  -8    0.11    0.16
  -1   0   8    0.13    0.12
  -1   0   8    0.35    0.13
  -1   0   8    0.20    0.13
   0   0  -8   70.08    1.97
   0   0  -8   72.80    1.99
   0   0   8   73.85    1.90
   0   0   8   74.45    1.93
   0   0   8   70.99    1.87
  -1   0  -8    9.47    0.45
  -1   0  -8    9.66    0.44
  -1   0  -8    9.30    0.34
   1   0   8    9.07    0.38
   1   0   8    9.18    0.34
   1   0   8    9.57    0.38
  -2   0  -8   56.41    1.60
  -2   0  -8   54.49    1.56
  -2   0  -8   59.73    1.53
   2   0   8   59.32    1.52
   2   0   8   59.58    1.48
   2   0   8   56.06    1.55
  -3   0  -8    0.80    0.13
  -3   0  -8    0.90    0.13
  -3   0  -8    0.46    0.13
   3   0   8    0.62    0.12
   3   0   8    0.75    0.14
   3   0   8    0.73    0.11
  -4   0  -8   57.03    1.59
  -4   0  -8   58.46    1.59
   4   0   8   59.18    1.57
   4   0   8   59.46    1.51
   4   0   8   57.85    1.54
  -5   0  -8    0.50    0.15
  -5   0  -8    0.13    0.11
   5   0   8    0.27    0.12
   5   0   8    0.49    0.13
  -6   0  -8   16.63    0.58
  -6   0  -8   16.51    0.66
  -6   0  -8   16.09    0.57
   6   0   8   17.10    0.58
   6   0   8   16.30    0.59
  -7   0  -8    0.66    0.14
  -7   0  -8    0.58    0.16
  -7   0  -8    0.66    0.23
   7   0   8    0.91    0.18
   7   0   8    0.62    0.19
  -8   0  -8    4.12    0.41
  -8   0  -8    3.26    0.27
   8   0   8    3.64    0.31
   5  -1  -8   12.53    0.68
   5  -1  -8   14.30    0.64
  -5   1   8   12.91    0.61
  -5   1   8   12.39    0.66
  -5   1   8   12.03    0.59
   4  -1  -8    0.21    0.17
   4  -1  -8   -0.17    0.21
  -4   1   8    0.22    0.21
  -4   1   8    0.19    0.16
  -4   1   8    0.10    0.16
   3  -1  -8   21.46    0.81
   3  -1  -8   22.84    0.87
  -3   1   8   23.10    0.78
  -3   1   8   23.15    0.81
  -3   1   8   23.44    0.80
   2  -1  -8    3.06    0.30
   2  -1  -8    3.59    0.31
  -2   1   8    3.17    0.28
  -2   1   8    2.81    0.25
  -2   1   8    2.80    0.25
   1  -1  -8   38.89    1.19
   1  -1  -8   38.29    1.17
  -1   1   8   37.57    1.09
  -1   1   8   38.00    1.12
  -1   1   8   39.06    1.12
   0  -1  -8    0.03    0.13
   0  -1  -8   -0.03    0.14
   0   1   8   -0.05    0.10
   0   1   8   -0.06    0.09
   0   1   8   -0.08    0.09
  -1  -1  -8   90.30    2.23
  -1  -1  -8   86.20    2.34
  -1  -1  -8   86.84    2.32
   1   1   8   89.99    2.29
   1   1   8   87.38    2.24
   1   1   8   88.48    2.27
  -2  -1  -8    2.54    0.24
  -2  -1  -8    2.14    0.18
  -2  -1  -8    2.66    0.22
   2   1   8    2.52    0.21
   2   1   8    2.46    0.19
   2   1   8    2.50    0.18
  -3  -1  -8   62.13    1.67
  -3  -1  -8   61.20    1.63
   3   1   8   61.05    1.62
   3   1   8   61.17    1.63
   3   1   8   61.33    1.59
  -4  -1  -8    1.65    0.18
  -4  -1  -8    1.73    0.21
   4   1   8    2.07    0.19
   4   1   8    1.78    0.18
   4   1   8    2.17    0.18
  -5  -1  -8   36.40    1.03
  -5  -1  -8   36.36    1.10
  -5  -1  -8   36.29    1.03
   5   1   8   36.08    1.02
   5   1   8   35.03    1.04
   5   1   8   36.39    1.03
  -6  -1  -8    1.72    0.19
  -6  -1  -8    1.85    0.25
  -6  -1  -8    2.04    0.19
   6   1   8    2.22    0.23
   6   1   8    1.74    0.20
   6   1   8    1.92    0.21
  -7  -1  -8   15.38    0.57
  -7  -1  -8   16.51    0.68
   7   1   8   15.45    0.59
   7   1   8   15.09    0.58
   7   1   8   15.24    0.60
  -8  -1  -8    0.62    0.24
  -8  -1  -8    0.29    0.17
   8   1   8    0.08    0.17
   8   1   8    0.32    0.18
   5  -2  -8    1.81    0.34
   5  -2  -8    1.74    0.28
  -5   2   8    1.56    0.28
  -5   2   8    1.64    0.29
  -5   2   8    1.95    0.33
  -5   2   8    2.14    0.29
   4  -2  -8    8.92    0.55
   4  -2  -8    9.24    0.50
  -4   2   8    8.88    0.50
  -4   2   8    8.61    0.47
  -4   2   8    8.85    0.54
  -4   2   8    8.89    0.44
   3  -2  -8    0.20    0.19
   3  -2  -8   -0.12    0.15
  -3   2   8   -0.15    0.13
  -3   2   8    0.20    0.14
  -3   2   8    0.00    0.17
  -3   2   8    0.03    0.15
   2  -2  -8   24.61    0.88
   2  -2  -8   26.39    0.87
  -2   2   8   25.32    0.82
  -2   2   8   25.98    0.84
  -2   2   8   25.83    0.84
  -2   2   8   25.54    0.85
   1  -2  -8    3.25    0.30
   1  -2  -8    2.61    0.25
  -1   2   8    2.91    0.25
  -1   2   8    3.08    0.23
  -1   2   8    3.21    0.27
   0  -2  -8   78.77    1.95
   0  -2  -8   75.48    2.07
   0  -2  -8   75.61    2.07
   0   2   8   79.62    2.03
   0   2   8   75.22    2.02
   0   2   8   75.21    2.00
  -1  -2  -8    8.65    0.42
  -1  -2  -8    8.49    0.41
  -1  -2  -8    8.81    0.33
   1   2   8    8.57    0.35
   1   2   8    8.07    0.36
   1   2   8    8.83    0.37
  -2  -2  -8   39.03    1.15
  -2  -2  -8   38.17    1.08
   2   2   8   37.74    1.07
   2   2   8   40.24    1.11
   2   2   8   40.24    1.11
  -3  -2  -8    2.48    0.21
  -3  -2  -8    2.81    0.24
   3   2   8    2.57    0.20
   3   2   8    2.63    0.20
   3   2   8    2.86    0.21
  -4  -2  -8   42.16    1.23
  -4  -2  -8   42.56    1.21
   4   2   8   43.57    1.20
   4   2   8   42.91    1.18
   4   2   8   43.99    1.20
  -5  -2  -8    1.73    0.21
  -5  -2  -8    1.77    0.19
  -5  -2  -8    2.05    0.18
   5   2   8    2.16    0.21
   5   2   8    1.75    0.19
   5   2   8    2.36    0.21
  -6  -2  -8   45.52    1.28
  -6  -2  -8   47.27    1.39
   6   2   8   45.51    1.30
   6   2   8   46.23    1.31
   6   2   8   46.12    1.31
  -7  -2  -8    0.49    0.22
  -7  -2  -8    0.36    0.15
   7   2   8    0.56    0.18
   7   2   8    0.54    0.20
   7   2   8    0.31    0.14
  -8  -2  -8    6.52    0.38
  -8  -2  -8    5.60    0.46
   8   2   8    6.17    0.46
   8   2   8    5.97    0.39
   8   2   8    6.91    0.41
   5  -3  -8   14.84    0.75
   5  -3  -8   15.26    0.68
  -5   3   8   12.84    0.65
  -5   3   8   15.42    0.64
  -5   3   8   16.33    0.76
  -5   3   8   14.36    0.67
   4  -3  -8    0.04    0.18
   4  -3  -8   -0.06    0.20
  -4   3   8    0.12    0.17
  -4   3   8    0.02    0.23
  -4   3   8   -0.01    0.18
  -4   3   8    0.20    0.16
   3  -3  -8   26.07    0.90
   3  -3  -8   26.86    0.93
  -3   3   8   27.35    0.92
  -3   3   8   27.23    0.87
  -3   3   8   25.62    0.91
  -3   3   8   25.35    0.87
   2  -3  -8    0.60    0.18
   2  -3  -8    0.81    0.19
  -2   3   8    0.82    0.17
  -2   3   8    0.57    0.16
  -2   3   8    0.82    0.17
  -2   3   8    0.92    0.20
   1  -3  -8   27.18    0.87
   1  -3  -8   27.61    0.89
  -1   3   8   27.62    0.84
  -1   3   8   26.98    0.85
  -1   3   8   26.57    0.86
  -1   3   8   27.81    0.88
   0  -3  -8    2.68    0.25
   0  -3  -8    2.26    0.17
   0  -3  -8    1.87    0.21
   0   3   8    2.15    0.21
   0   3   8    1.89    0.19
   0   3   8    2.38    0.22
   0   3   8    2.37    0.20
  -1  -3  -8   72.40    1.96
  -1  -3  -8   73.54    1.99
  -1  -3  -8   72.50    1.91
   1   3   8   74.86    1.93
   1   3   8   73.24    1.95
   1   3   8   76.74    1.96
  -2  -3  -8    4.76    0.30
  -2  -3  -8    4.58    0.27
   2   3   8    4.45    0.26
   2   3   8    5.00    0.27
   2   3   8    4.26    0.27
  -3  -3  -8   65.36    1.79
  -3  -3  -8   66.50    1.81
   3   3   8   69.02    1.78
   3   3   8   66.79    1.77
   3   3   8   68.69    1.79
  -4  -3  -8   -0.12    0.11
  -4  -3  -8   -0.06    0.08
   4   3   8    0.10    0.10
   4   3   8    0.06    0.11
   4   3   8    0.07    0.13
  -5  -3  -8   30.08    0.86
  -5  -3  -8   30.45    0.96
  -5  -3  -8   30.85    0.88
   5   3   8   30.03    0.92
   5   3   8   28.55    0.90
   5   3   8   30.34    0.90
  -6  -3  -8    0.59    0.19
  -6  -3  -8    0.40    0.14
   6   3   8    0.33    0.12
   6   3   8    0.26    0.14
   6   3   8    0.22    0.15
  -7  -3  -8   17.04    0.61
  -7  -3  -8   19.80    0.76
   7   3   8   17.86    0.69
   7   3   8   17.93    0.67
   7   3   8   15.63    0.61
  -8  -3  -8    0.04    0.16
  -8  -3  -8    0.22    0.24
   8   3   8   -0.09    0.20
   8   3   8   -0.22    0.15
   8   3   8    0.20    0.17
  -9  -3  -8    3.88    0.44
   4  -4  -8   11.52    0.61
   4  -4  -8    9.99    0.51
  -4   4   8   10.71    0.50
  -4   4   8   11.36    0.54
  -4   4   8   11.85    0.63
  -4   4   8   10.72    0.56
   3  -4  -8   -0.14    0.18
   3  -4  -8    0.36    0.19
  -3   4   8    0.38    0.18
  -3   4   8    0.25    0.15
  -3   4   8    0.15    0.20
  -3   4   8    0.47    0.16
   2  -4  -8   42.59    1.26
   2  -4  -8   42.12    1.26
  -2   4   8   43.31    1.22
  -2   4   8   42.28    1.28
  -2   4   8   41.56    1.22
  -2   4   8   42.22    1.27
   1  -4  -8    1.29    0.19
   1  -4  -8    1.10    0.18
  -1   4   8    1.15    0.19
  -1   4   8    1.35    0.19
  -1   4   8    1.10    0.16
  -1   4   8    1.16    0.17
   0  -4  -8   83.33    2.24
   0  -4  -8   85.27    2.20
   0  -4  -8   85.52    2.16
   0   4   8   83.38    2.20
   0   4   8   83.80    2.16
   0   4   8   85.00    2.22
   0   4   8   81.30    2.22
  -1  -4  -8    4.27    0.29
  -1  -4  -8    4.62    0.26
   1   4   8    3.75    0.27
   1   4   8    3.86    0.27
   1   4   8    4.44    0.23
   1   4   8    4.18    0.27
  -2  -4  -8   70.08    1.89
  -2  -4  -8   73.16    1.93
   2   4   8   72.34    1.89
   2   4   8   72.03    1.89
   2   4   8   70.20    1.91
  -3  -4  -8    1.22    0.17
  -3  -4  -8    1.15    0.17
   3   4   8    1.34    0.18
   3   4   8    1.19    0.16
   3   4   8    1.13    0.15
  -4  -4  -8   39.78    1.21
   4   4   8   41.34    1.19
   4   4   8   42.12    1.19
   4   4   8   41.97    1.16
  -5  -4  -8    0.55    0.13
  -5  -4  -8    0.23    0.16
   5   4   8    0.27    0.15
   5   4   8    0.09    0.13
   5   4   8    0.31    0.12
  -6  -4  -8   29.33    0.95
  -6  -4  -8   26.92    0.83
   6   4   8   26.48    0.90
   6   4   8   27.42    0.85
   6   4   8   27.24    0.88
  -7  -4  -8    1.28    0.20
  -7  -4  -8    1.78    0.30
   7   4   8    1.06    0.18
   7   4   8    1.53    0.23
   7   4   8    1.70    0.28
  -8  -4  -8    6.79    0.51
  -8  -4  -8    5.87    0.36
   8   4   8    6.29    0.40
   8   4   8    6.10    0.42
   8   4   8    6.85    0.49
  -9  -4  -8    0.16    0.27
   4  -5  -8   -0.13    0.16
   4  -5  -8    0.18    0.21
  -4   5   8    0.08    0.21
  -4   5   8   -0.04    0.17
  -4   5   8   -0.12    0.24
   3  -5  -8   34.53    1.11
   3  -5  -8   36.20    1.13
  -3   5   8   35.71    1.18
  -3   5   8   35.98    1.07
  -3   5   8   33.99    1.14
  -3   5   8   34.50    1.07
   2  -5  -8    1.63    0.23
   2  -5  -8    2.11    0.24
  -2   5   8    2.36    0.28
  -2   5   8    1.47    0.19
  -2   5   8    1.62    0.19
  -2   5   8    2.16    0.28
   1  -5  -8   57.21    1.56
   1  -5  -8   56.67    1.50
   1  -5  -8   55.41    1.53
  -1   5   8   54.55    1.58
  -1   5   8   54.65    1.50
  -1   5   8   54.42    1.58
  -1   5   8   55.14    1.52
   0  -5  -8    0.89    0.15
   0  -5  -8    0.70    0.15
   0  -5  -8    0.86    0.16
   0   5   8    0.68    0.12
   0   5   8    0.84    0.20
   0   5   8    1.02    0.19
   0   5   8    0.73    0.15
  -1  -5  -8   42.05    1.22
  -1  -5  -8   41.40    1.19
   1   5   8   42.19    1.13
   1   5   8   42.49    1.23
   1   5   8   41.00    1.21
   1   5   8   42.29    1.19
  -2  -5  -8    1.16    0.18
  -2  -5  -8    1.34    0.19
   2   5   8    1.21    0.18
   2   5   8    1.41    0.16
   2   5   8    1.18    0.18
  -3  -5  -8   97.74    2.46
  -3  -5  -8   90.97    2.47
   3   5   8   95.87    2.43
   3   5   8   95.70    2.46
   3   5   8   92.00    2.46
  -4  -5  -8    1.25    0.19
  -4  -5  -8    0.96    0.16
   4   5   8    0.82    0.14
   4   5   8    1.27    0.19
   4   5   8    0.92    0.19
  -5  -5  -8   32.94    0.96
  -5  -5  -8   34.58    1.08
   5   5   8   33.40    0.99
   5   5   8   33.20    1.02
   5   5   8   33.27    1.04
  -6  -5  -8    0.26    0.19
  -6  -5  -8    0.38    0.14
   6   5   8    0.38    0.17
   6   5   8    0.62    0.16
   6   5   8    0.54    0.20
  -7  -5  -8    9.35    0.54
  -7  -5  -8    8.79    0.42
   7   5   8    9.25    0.44
   7   5   8    8.31    0.52
   7   5   8    8.75    0.46
  -8  -5  -8    0.63    0.19
  -8  -5  -8    0.56    0.27
   8   5   8    0.78    0.19
   8   5   8    0.64    0.26
   8   5   8    0.33    0.20
   4  -6  -8    6.03    0.44
   4  -6  -8    5.01    0.42
  -4   6   8    5.92    0.41
  -4   6   8    6.00    0.44
  -4   6   8    5.92    0.52
   3  -6  -8    1.18    0.23
   3  -6  -8    1.23    0.25
  -3   6   8    0.94    0.28
  -3   6   8    1.13    0.20
  -3   6   8    1.11    0.24
   2  -6  -8   30.07    0.97
   2  -6  -8   29.29    0.95
  -2   6   8   30.90    1.04
  -2   6   8   28.71    0.91
  -2   6   8   29.71    1.00
   1  -6  -8    0.25    0.14
   1  -6  -8    0.26    0.13
   1  -6  -8    0.10    0.13
  -1   6   8    0.74    0.21
  -1   6   8    0.28    0.16
  -1   6   8    0.17    0.11
  -1   6   8    0.21    0.12
   0  -6  -8   39.32    1.16
   0  -6  -8   39.62    1.12
   0  -6  -8   40.81    1.15
   0   6   8   39.46    1.20
   0   6   8   39.65    1.09
   0   6   8   37.89    1.18
   0   6   8   38.66    1.13
  -1  -6  -8    0.13    0.12
  -1  -6  -8    0.07    0.12
  -1  -6  -8   -0.12    0.05
   1   6   8    0.02    0.11
   1   6   8    0.11    0.08
   1   6   8    0.15    0.14
   1   6   8    0.02    0.15
  -2  -6  -8   40.47    1.17
  -2  -6  -8   40.51    1.19
   2   6   8   40.27    1.20
   2   6   8   40.41    1.15
   2   6   8   40.87    1.21
  -3  -6  -8    0.09    0.14
  -3  -6  -8    0.12    0.11
   3   6   8    0.00    0.12
   3   6   8    0.14    0.11
   3   6   8    0.09    0.15
  -4  -6  -8   42.28    1.26
   4   6   8   41.48    1.25
   4   6   8   41.93    1.24
   4   6   8   42.49    1.18
  -5  -6  -8    1.11    0.15
  -5  -6  -8    1.86    0.26
   5   6   8    1.63    0.25
   5   6   8    1.45    0.17
   5   6   8    1.47    0.21
  -6  -6  -8   30.97    1.03
  -6  -6  -8   28.43    0.89
   6   6   8   30.32    1.00
   6   6   8   29.31    0.91
   6   6   8   29.02    0.97
  -7  -6  -8    0.32    0.16
  -7  -6  -8    0.66    0.25
   7   6   8    0.68    0.18
   7   6   8    0.54    0.19
   7   6   8    0.21    0.21
  -8  -6  -8    7.92    0.43
  -8  -6  -8    8.04    0.56
   8   6   8    7.31    0.46
   8   6   8    7.33    0.56
   8   6   8    6.85    0.43
   3  -7  -8   11.12    0.56
   3  -7  -8   10.19    0.51
  -3   7   8    9.66    0.50
  -3   7   8   11.39    0.63
  -3   7   8    9.90    0.55
   2  -7  -8    1.45    0.23
  -2   7   8    1.49    0.27
  -2   7   8    1.38    0.25
  -2   7   8    1.41    0.20
   1  -7  -8   22.58    0.79
   1  -7  -8   23.22    0.77
  -1   7   8   23.05    0.73
  -1   7   8   23.79    0.86
  -1   7   8   22.42    0.83
   0  -7  -8    3.65    0.30
   0  -7  -8    3.71    0.30
   0   7   8    3.43    0.35
   0   7   8    3.63    0.24
   0   7   8    3.38    0.30
  -1  -7  -8   15.86    0.57
  -1  -7  -8   14.95    0.59
   1   7   8   15.36    0.50
   1   7   8   15.44    0.61
   1   7   8   14.87    0.61
  -2  -7  -8    1.76    0.20
  -2  -7  -8    1.82    0.22
   2   7   8    1.95    0.19
   2   7   8    1.57    0.21
   2   7   8    1.60    0.24
  -3  -7  -8   38.58    1.18
   3   7   8   37.61    1.17
   3   7   8   39.30    1.17
   3   7   8   39.06    1.10
  -4  -7  -8    0.62    0.20
   4   7   8    0.75    0.15
   4   7   8    0.98    0.21
   4   7   8    0.79    0.19
  -5  -7  -8   32.48    0.95
  -5  -7  -8   34.77    1.09
   5   7   8   32.88    1.07
   5   7   8   31.23    0.96
   5   7   8   32.78    1.04
  -6  -7  -8    0.07    0.19
  -6  -7  -8   -0.03    0.13
   6   7   8    0.27    0.22
   6   7   8    0.30    0.17
   6   7   8    0.12    0.13
  -7  -7  -8    9.51    0.58
  -7  -7  -8    9.09    0.44
   7   7   8   11.10    0.61
   7   7   8   10.36    0.53
   7   7   8    9.52    0.46
  -8  -7  -8    0.73    0.28
  -8  -7  -8    1.07    0.23
   8   7   8    0.69    0.21
   8   7   8    1.18    0.27
   8   7   8    1.51    0.36
   2  -8  -8    8.74    0.48
  -2   8   8    9.13    0.52
  -2   8   8    9.77    0.60
  -2   8   8    8.65    0.43
   1  -8  -8    0.01    0.16
   1  -8  -8    0.31    0.17
  -1   8   8    0.19    0.13
  -1   8   8   -0.08    0.20
  -1   8   8   -0.14    0.17
   0  -8  -8   29.08    0.94
   0  -8  -8   28.86    0.92
   0   8   8   28.31    0.85
   0   8   8   28.56    0.98
   0   8   8   28.75    1.00
  -1  -8  -8    1.74    0.24
  -1  -8  -8    1.65    0.21
   1   8   8    1.64    0.17
   1   8   8    1.76    0.25
   1   8   8    1.71    0.26
  -2  -8  -8   36.97    1.16
  -2  -8  -8   38.24    1.11
   2   8   8   38.52    1.18
   2   8   8   37.27    1.18
  -3  -8  -8    1.98    0.26
   3   8   8    2.29    0.21
   3   8   8    2.49    0.29
   3   8   8    2.34    0.27
  -4  -8  -8   11.79    0.56
   4   8   8   10.81    0.56
   4   8   8   11.67    0.45
   4   8   8   11.97    0.54
  -5  -8  -8   -0.03    0.12
  -5  -8  -8    0.00    0.19
   5   8   8    0.01    0.20
   5   8   8   -0.06    0.11
   5   8   8    0.08    0.17
  -6  -8  -8   16.31    0.59
  -6  -8  -8   17.13    0.74
   6   8   8   16.27    0.61
   6   8   8   16.75    0.70
   6   8   8   17.02    0.74
  -7  -8  -8    0.41    0.17
  -7  -8  -8    0.09    0.23
   7   8   8    0.19    0.20
   7   8   8    0.35    0.26
   7   8   8    0.43    0.17
  -8  -8  -8    6.18    0.52
  -8  -8  -8    5.82    0.40
   8   8   8    5.50    0.51
   8   8   8    6.53    0.49
  -2   9   8   -0.16    0.19
   1  -9  -8   21.95    0.82
   1  -9  -8   22.38    0.80
  -1   9   8   21.25    0.84
  -1   9   8   21.30    0.73
  -1   9   8   23.16    0.91
   0  -9  -8    1.44    0.22
   0  -9  -8    1.18    0.23
   0   9   8    0.96    0.24
   0   9   8    1.28    0.18
   0   9   8    1.15    0.27
  -1  -9  -8   31.45    1.04
  -1  -9  -8   30.99    0.97
   1   9   8   31.09    1.05
   1   9   8   31.64    1.07
  -2  -9  -8    0.23    0.19
  -2  -9  -8    0.27    0.15
   2   9   8    0.57    0.22
   2   9   8    0.53    0.20
  -3  -9  -8   25.25    0.89
   3   9   8   24.29    0.87
   3   9   8   24.39    0.90
  -4  -9  -8    0.19    0.21
   4   9   8    0.33    0.17
   4   9   8    0.62    0.25
  -5  -9  -8   13.96    0.52
  -5  -9  -8   13.64    0.65
   5   9   8   13.60    0.63
   5   9   8   13.59    0.53
   5   9   8   13.97    0.67
  -6  -9  -8    1.63    0.30
  -6  -9  -8    1.66    0.22
   6   9   8    1.59    0.22
   6   9   8    1.26    0.29
   6   9   8    1.67    0.29
  -7  -9  -8    6.51    0.52
  -7  -9  -8    6.31    0.37
   7   9   8    5.84    0.52
   7   9   8    5.90    0.38
   7   9   8    4.97    0.42
   0 -10  -8   18.02    0.68
   0 -10  -8   17.76    0.75
   0  10   8   16.21    0.73
   0  10   8   18.53    0.82
   0  10   8   17.52    0.63
  -1 -10  -8    0.06    0.16
  -1 -10  -8    0.16    0.20
   1  10   8    0.19    0.24
   1  10   8    0.18    0.20
  -2 -10  -8   36.46    1.19
   2  10   8   36.76    1.21
   2  10   8   35.14    1.18
  -3 -10  -8    1.47    0.28
   3  10   8    1.46    0.31
   3  10   8    1.08    0.23
  -4 -10  -8   13.73    0.66
   4  10   8   14.77    0.69
   4  10   8   12.97    0.63
  -5 -10  -8    0.25    0.22
   5  10   8    0.20    0.22
   5  10   8    0.46    0.26
  -6 -10  -8    9.51    0.43
  -6 -10  -8    9.05    0.59
   6  10   8    8.55    0.44
   6  10   8    8.27    0.53
   6  10   8   10.08    0.66
  -1 -11  -8   11.11    0.61
  -1 -11  -8   10.67    0.50
   1  11   8    9.51    0.58
   1  11   8   11.44    0.67
  -2 -11  -8   -0.03    0.21
   2  11   8    0.31    0.22
   2  11   8    0.09    0.25
  -3 -11  -8   20.66    0.85
   3  11   8   19.64    0.86
   3  11   8   19.97    0.82
  -4 -11  -8    0.30    0.24
   4  11   8    0.42    0.27
   4  11   8   -0.19    0.19
  -5 -11  -8   16.27    0.78
   5  11   8   16.89    0.83
   5  11   8   16.71    0.75
   1   7  -9    0.81    0.24
   1   7  -9    0.59    0.32
  -1  -7   9    0.30    0.19
   0   7  -9    6.79    0.46
   0   7  -9    6.28    0.53
   0  -7   9    5.78    0.37
  -1   7  -9    0.11    0.20
  -1   7  -9   -0.17    0.17
  -1   7  -9   -0.04    0.24
  -2   7  -9   10.57    0.53
  -2   7  -9    9.51    0.62
  -2   7  -9    9.32    0.53
   2  -7   9   10.71    0.54
  -3   7  -9   -0.07    0.21
  -3   7  -9   -0.27    0.19
  -3   7  -9    0.53    0.24
   3  -7   9    0.11    0.22
  -3  -6   9    6.96    0.46
   2   6  -9    0.47    0.29
   2   6  -9    0.27    0.19
  -2  -6   9    0.03    0.18
   1   6  -9   13.13    0.72
   1   6  -9   12.25    0.58
  -1  -6   9   11.09    0.52
   0   6  -9    0.67    0.22
   0   6  -9    0.57    0.28
   0  -6   9    0.56    0.16
  -1   6  -9   10.07    0.47
  -1   6  -9   10.47    0.54
  -1   6  -9   10.07    0.60
   1  -6   9   10.36    0.45
  -2   6  -9    0.45    0.24
  -2   6  -9    0.52    0.19
  -2   6  -9    0.28    0.19
   2  -6   9    0.41    0.19
  -3   6  -9   12.41    0.61
  -3   6  -9   13.25    0.63
  -3   6  -9   10.94    0.56
   3  -6   9   11.80    0.58
  -4   6  -9    0.36    0.22
  -4   6  -9    0.55    0.23
  -4   6  -9    0.98    0.26
   4  -6   9    0.61    0.24
   3   5  -9   -0.10    0.19
   3   5  -9   -0.01    0.25
  -3  -5   9    0.28    0.18
  -3  -5   9    0.44    0.19
   2   5  -9   13.59    0.60
   2   5  -9   12.12    0.73
  -2  -5   9   10.91    0.54
   1   5  -9    0.19    0.23
   1   5  -9    0.19    0.19
  -1  -5   9   -0.01    0.14
   0   5  -9   10.28    0.61
   0   5  -9    9.95    0.51
   0  -5   9    8.89    0.44
  -1   5  -9    0.63    0.21
  -1   5  -9    0.52    0.16
  -1   5  -9    0.58    0.24
   1  -5   9    0.50    0.19
   1  -5   9    0.41    0.16
  -2   5  -9   15.59    0.66
  -2   5  -9   15.53    0.59
  -2   5  -9   15.30    0.68
   2  -5   9   15.36    0.57
  -3   5  -9    0.72    0.20
  -3   5  -9    0.92    0.23
  -3   5  -9    1.67    0.25
   3  -5   9    0.75    0.18
  -4   5  -9   16.36    0.69
  -4   5  -9   15.90    0.67
  -4   5  -9   15.94    0.67
  -5   5  -9    0.65    0.22
  -5   5  -9    0.24    0.19
  -5   5  -9    0.61    0.24
   4   4  -9   -0.13    0.24
   4   4  -9   -0.21    0.18
  -4  -4   9   -0.15    0.18
  -4  -4   9    0.18    0.21
   3   4  -9    5.26    0.51
   3   4  -9    4.24    0.37
  -3  -4   9    5.18    0.37
  -3  -4   9    5.05    0.35
   2   4  -9   -0.10    0.23
   2   4  -9    0.28    0.19
  -2  -4   9    0.33    0.16
  -2  -4   9    0.07    0.14
   1   4  -9   18.23    0.73
   1   4  -9   18.11    0.84
  -1  -4   9   18.92    0.68
   0   4  -9    0.14    0.22
   0   4  -9    0.43    0.18
   0  -4   9    0.24    0.15
  -1   4  -9   16.57    0.72
  -1   4  -9   16.57    0.58
  -1   4  -9   16.58    0.67
   1  -4   9   17.57    0.61
  -2   4  -9    0.50    0.18
  -2   4  -9    0.63    0.17
  -2   4  -9    0.66    0.20
   2  -4   9    0.90    0.17
  -3   4  -9   12.66    0.56
  -3   4  -9   12.05    0.53
  -3   4  -9   12.53    0.57
   3  -4   9   12.74    0.51
  -4   4  -9    0.74    0.20
  -4   4  -9    0.63    0.18
  -4   4  -9    0.79    0.21
   4  -4   9    0.82    0.18
  -5   4  -9   16.99    0.72
  -5   4  -9   17.58    0.66
  -5   4  -9   16.44    0.68
   5  -4   9   16.60    0.63
  -6   4  -9    0.26    0.20
  -6   4  -9    0.35    0.25
   4   3  -9    9.52    0.64
   4   3  -9    8.49    0.53
  -4  -3   9    8.78    0.52
  -4  -3   9    8.21    0.50
  -4  -3   9   10.43    0.54
   3   3  -9   -0.25    0.16
   3   3  -9   -0.08    0.23
  -3  -3   9   -0.02    0.16
  -3  -3   9   -0.07    0.17
  -3  -3   9   -0.14    0.17
   2   3  -9   12.09    0.68
   2   3  -9   13.90    0.60
  -2  -3   9   13.17    0.55
  -2  -3   9   12.60    0.52
   1   3  -9    0.10    0.16
   1   3  -9    0.12    0.23
  -1  -3   9    0.02    0.14
  -1  -3   9   -0.10    0.11
   0   3  -9   23.10    0.89
   0   3  -9   22.02    0.82
   0  -3   9   23.66    0.70
   0  -3   9   20.74    0.74
  -1   3  -9    0.68    0.21
  -1   3  -9    0.71    0.18
  -1   3  -9    0.75    0.14
   1  -3   9    0.69    0.15
  -2   3  -9   20.93    0.76
  -2   3  -9   21.70    0.69
  -2   3  -9   20.24    0.75
   2  -3   9   20.51    0.70
  -3   3  -9    0.26    0.15
  -3   3  -9    0.44    0.17
  -3   3  -9    0.30    0.16
   3  -3   9    0.05    0.12
  -4   3  -9   14.17    0.57
  -4   3  -9   15.56    0.62
  -4   3  -9   14.63    0.61
   4  -3   9   14.31    0.55
  -5   3  -9    0.00    0.14
  -5   3  -9    0.28    0.21
   5  -3   9    0.05    0.15
  -6   3  -9   10.31    0.57
  -6   3  -9    9.53    0.50
   6  -3   9   10.33    0.48
  -7   3  -9    0.35    0.25
   4   2  -9   -0.19    0.25
   4   2  -9    0.27    0.21
  -4  -2   9    0.12    0.20
  -4  -2   9    0.45    0.22
  -4  -2   9    0.45    0.21
   3   2  -9    8.88    0.49
   3   2  -9   10.12    0.61
  -3  -2   9    8.98    0.47
  -3  -2   9    8.25    0.44
  -3  -2   9    7.68    0.44
   2   2  -9    1.30    0.29
   2   2  -9    1.73    0.26
  -2  -2   9    1.63    0.24
  -2  -2   9    1.20    0.20
  -2  -2   9    1.68    0.22
   1   2  -9   30.02    1.00
   1   2  -9   29.63    1.06
  -1  -2   9   29.25    0.94
  -1  -2   9   30.47    0.91
  -1  -2   9   29.63    0.88
   0   2  -9    0.13    0.18
   0   2  -9    0.02    0.16
   0  -2   9   -0.01    0.10
   0  -2   9    0.19    0.12
  -1   2  -9   53.57    1.41
  -1   2  -9   52.30    1.56
  -1   2  -9   50.98    1.55
   1  -2   9   55.85    1.43
   1  -2   9   51.92    1.47
  -2   2  -9    0.95    0.19
  -2   2  -9    1.12    0.21
  -2   2  -9    1.49    0.19
   2  -2   9    1.12    0.18
  -3   2  -9   12.77    0.54
  -3   2  -9   12.91    0.52
  -3   2  -9   12.11    0.50
   3  -2   9   12.14    0.49
  -4   2  -9    1.03    0.17
  -4   2  -9    1.08    0.19
  -4   2  -9    1.76    0.25
   4  -2   9    1.62    0.20
  -5   2  -9   10.28    0.51
  -5   2  -9   10.30    0.48
   5  -2   9   10.19    0.46
  -6   2  -9    0.40    0.22
  -6   2  -9    0.53    0.17
   6  -2   9    0.11    0.15
  -7   2  -9    8.00    0.54
  -7   2  -9    8.00    0.43
   7  -2   9    8.49    0.44
   4   1  -9   10.35    0.67
   4   1  -9   11.36    0.58
  -4  -1   9   12.59    0.61
  -4  -1   9   11.30    0.57
  -4  -1   9   11.28    0.56
   3   1  -9    0.00    0.17
   3   1  -9   -0.17    0.20
  -3  -1   9    0.16    0.17
  -3  -1   9    0.09    0.15
  -3  -1   9   -0.19    0.16
   2   1  -9   33.75    1.11
   2   1  -9   34.86    1.18
  -2  -1   9   33.54    1.03
  -2  -1   9   35.20    1.06
  -2  -1   9   34.13    1.06
   1   1  -9    2.37    0.31
   1   1  -9    2.40    0.27
  -1  -1   9    1.86    0.22
  -1  -1   9    2.44    0.23
  -1  -1   9    2.49    0.23
   0   1  -9   34.32    1.10
   0   1  -9   32.75    1.06
   0  -1   9   33.47    1.00
   0  -1   9   33.17    0.97
   0  -1   9   31.80    0.94
  -1   1  -9    0.14    0.10
  -1   1  -9    0.08    0.13
  -1   1  -9    0.12    0.16
   1  -1   9    0.07    0.09
   1  -1   9   -0.11    0.08
   1  -1   9    0.08    0.11
  -2   1  -9   36.33    1.13
  -2   1  -9   39.74    1.07
  -2   1  -9   36.97    1.16
   2  -1   9   36.14    1.10
   2  -1   9   39.41    1.06
  -3   1  -9    1.49    0.18
  -3   1  -9    1.47    0.21
  -3   1  -9    1.29    0.18
   3  -1   9    1.41    0.19
   3  -1   9    1.61    0.16
  -4   1  -9   26.59    0.84
  -4   1  -9   26.52    0.86
   4  -1   9   25.36    0.82
  -5   1  -9    1.17    0.23
  -5   1  -9    1.33    0.19
   5  -1   9    1.12    0.18
  -6   1  -9    7.72    0.40
  -6   1  -9    7.94    0.48
   6  -1   9    8.58    0.41
  -7   1  -9    0.79    0.18
  -7   1  -9    0.48    0.25
   7  -1   9    0.86    0.20
   4   0  -9    0.57    0.28
   4   0  -9    0.77    0.22
  -4   0   9    0.93    0.25
  -4   0   9    0.89    0.22
  -4   0   9    0.46    0.21
   3   0  -9   15.75    0.65
   3   0  -9   13.66    0.69
  -3   0   9   12.96    0.59
  -3   0   9   13.73    0.60
  -3   0   9   14.27    0.60
   2   0  -9    0.14    0.20
   2   0  -9    0.37    0.18
  -2   0   9    0.35    0.17
  -2   0   9    0.22    0.16
  -2   0   9    0.73    0.18
   1   0  -9   28.38    0.95
   1   0  -9   28.55    0.99
  -1   0   9   28.40    0.88
  -1   0   9   27.19    0.86
  -1   0   9   28.41    0.90
   0   0  -9    1.40    0.24
   0   0  -9    1.73    0.24
   0   0   9    2.04    0.19
   0   0   9    1.72    0.21
   0   0   9    1.29    0.17
  -1   0  -9   43.82    1.38
  -1   0  -9   48.05    1.25
  -1   0  -9   47.97    1.39
   1   0   9   48.35    1.26
   1   0   9   48.00    1.30
   1   0   9   44.58    1.32
  -2   0  -9    1.07    0.18
  -2   0  -9    1.14    0.15
  -2   0  -9    0.53    0.16
   2   0   9    1.23    0.16
   2   0   9    1.00    0.14
   2   0   9    1.18    0.16
  -3   0  -9   44.73    1.25
  -3   0  -9   44.31    1.31
  -3   0  -9   44.96    1.25
   3   0   9   45.80    1.24
   3   0   9   43.44    1.26
   3   0   9   45.49    1.19
  -4   0  -9    1.54    0.20
  -4   0  -9    1.96    0.22
   4   0   9    2.02    0.19
   4   0   9    2.04    0.21
  -5   0  -9   23.39    0.77
  -5   0  -9   24.72    0.82
   5   0   9   23.75    0.77
   5   0   9   23.99    0.75
  -6   0  -9    1.55    0.26
  -6   0  -9    1.66    0.20
   6   0   9    0.92    0.17
   6   0   9    1.88    0.23
  -7   0  -9   10.98    0.58
  -7   0  -9   10.46    0.46
  -7   0  -9   10.43    0.47
   7   0   9   11.25    0.50
  -8   0  -9   -0.26    0.21
  -8   0  -9    0.08    0.17
   8   0   9    0.30    0.18
   4  -1  -9    4.12    0.37
   4  -1  -9    3.78    0.42
  -4   1   9    5.22    0.44
  -4   1   9    5.02    0.40
  -4   1   9    5.09    0.40
   3  -1  -9    0.43    0.20
   3  -1  -9    0.28    0.25
  -3   1   9    0.46    0.21
  -3   1   9    0.30    0.19
  -3   1   9    0.52    0.17
   2  -1  -9   39.12    1.25
   2  -1  -9   35.38    1.18
  -2   1   9   38.69    1.15
  -2   1   9   37.73    1.16
  -2   1   9   38.98    1.17
   1  -1  -9    3.30    0.30
   1  -1  -9    4.11    0.35
  -1   1   9    4.46    0.30
  -1   1   9    4.14    0.30
  -1   1   9    3.72    0.28
   0  -1  -9   27.82    0.95
   0  -1  -9   28.17    0.94
   0   1   9   28.01    0.85
   0   1   9   28.39    0.87
   0   1   9   28.09    0.88
  -1  -1  -9    0.19    0.10
  -1  -1  -9    0.20    0.13
  -1  -1  -9    0.30    0.16
   1   1   9    0.27    0.11
   1   1   9    0.16    0.11
   1   1   9    0.32    0.12
  -2  -1  -9   28.38    0.92
  -2  -1  -9   29.09    0.83
   2   1   9   28.42    0.85
   2   1   9   27.89    0.86
   2   1   9   27.09    0.81
  -3  -1  -9    3.80    0.26
  -3  -1  -9    4.25    0.30
   3   1   9    4.11    0.23
   3   1   9    3.54    0.26
   3   1   9    3.38    0.24
  -4  -1  -9   74.29    2.02
  -4  -1  -9   79.00    2.03
   4   1   9   74.71    2.00
   4   1   9   75.15    1.94
   4   1   9   74.05    1.98
  -5  -1  -9    1.59    0.19
  -5  -1  -9    1.68    0.23
   5   1   9    1.92    0.19
   5   1   9    1.44    0.18
   5   1   9    1.82    0.20
  -6  -1  -9   15.09    0.65
  -6  -1  -9   15.77    0.56
  -6  -1  -9   14.25    0.55
   6   1   9   15.19    0.58
   6   1   9   16.79    0.58
  -7  -1  -9    1.47    0.21
  -7  -1  -9    1.50    0.28
   7   1   9    1.02    0.19
   7   1   9    1.26    0.21
  -8  -1  -9    5.51    0.47
  -8  -1  -9    5.88    0.38
   8   1   9    6.72    0.41
   4  -2  -9    0.25    0.25
   4  -2  -9   -0.02    0.18
  -4   2   9    0.01    0.20
  -4   2   9    0.16    0.23
  -4   2   9   -0.12    0.17
   3  -2  -9   15.71    0.72
   3  -2  -9   14.42    0.66
  -3   2   9   15.02    0.65
  -3   2   9   15.81    0.63
  -3   2   9   16.37    0.68
   2  -2  -9    2.27    0.28
   2  -2  -9    2.82    0.31
  -2   2   9    2.59    0.27
  -2   2   9    2.62    0.27
  -2   2   9    2.57    0.29
   1  -2  -9   31.27    1.03
   1  -2  -9   30.12    1.01
  -1   2   9   31.47    0.96
  -1   2   9   30.51    0.95
  -1   2   9   30.06    0.96
   0  -2  -9    1.64    0.24
   0  -2  -9    1.67    0.24
   0   2   9    1.69    0.21
   0   2   9    1.27    0.19
   0   2   9    1.51    0.20
  -1  -2  -9   57.23    1.64
  -1  -2  -9   57.30    1.62
  -1  -2  -9   58.93    1.52
   1   2   9   59.52    1.60
   1   2   9   58.44    1.58
   1   2   9   55.47    1.54
  -2  -2  -9    0.06    0.14
  -2  -2  -9    0.00    0.12
  -2  -2  -9   -0.10    0.09
   2   2   9   -0.08    0.11
   2   2   9    0.30    0.12
   2   2   9    0.10    0.12
  -3  -2  -9   44.55    1.23
  -3  -2  -9   43.45    1.28
   3   2   9   44.21    1.24
   3   2   9   42.79    1.23
   3   2   9   44.25    1.21
  -4  -2  -9    1.55    0.19
  -4  -2  -9    1.78    0.20
   4   2   9    1.63    0.18
   4   2   9    1.90    0.20
   4   2   9    2.07    0.21
  -5  -2  -9   25.96    0.79
  -5  -2  -9   25.73    0.86
   5   2   9   25.01    0.80
   5   2   9   25.37    0.81
   5   2   9   25.19    0.79
  -6  -2  -9    0.06    0.18
  -6  -2  -9   -0.13    0.12
   6   2   9    0.34    0.16
   6   2   9    0.08    0.13
   6   2   9    0.03    0.14
  -7  -2  -9   14.02    0.65
  -7  -2  -9   11.85    0.50
   7   2   9   13.26    0.56
   7   2   9   13.16    0.54
   7   2   9   12.44    0.53
  -8  -2  -9    0.24    0.17
  -8  -2  -9   -0.27    0.22
   8   2   9    0.18    0.16
   8   2   9    0.30    0.19
   4  -3  -9    9.12    0.53
   4  -3  -9   10.15    0.63
  -4   3   9    9.86    0.55
  -4   3   9   10.37    0.52
  -4   3   9   10.30    0.60
  -4   3   9    9.78    0.56
   3  -3  -9    0.32    0.20
   3  -3  -9    0.28    0.21
  -3   3   9    0.03    0.17
  -3   3   9    0.51    0.24
  -3   3   9    0.01    0.15
  -3   3   9    0.23    0.20
   2  -3  -9   40.33    1.23
   2  -3  -9   37.49    1.20
  -2   3   9   37.80    1.15
  -2   3   9   37.03    1.18
  -2   3   9   36.47    1.15
  -2   3   9   39.52    1.19
   1  -3  -9    1.11    0.21
   1  -3  -9    1.08    0.22
  -1   3   9    1.13    0.22
  -1   3   9    0.94    0.19
  -1   3   9    0.98    0.18
  -1   3   9    0.90    0.18
   0  -3  -9   64.42    1.77
   0  -3  -9   62.94    1.78
   0  -3  -9   61.61    1.66
   0   3   9   63.16    1.71
   0   3   9   62.94    1.72
   0   3   9   62.90    1.73
  -1  -3  -9    4.30    0.32
  -1  -3  -9    3.89    0.32
  -1  -3  -9    3.96    0.25
   1   3   9    3.28    0.27
   1   3   9    3.52    0.28
   1   3   9    4.53    0.29
  -2  -3  -9   38.47    1.15
  -2  -3  -9   37.84    1.08
   2   3   9   37.11    1.08
   2   3   9   37.63    1.10
   2   3   9   37.51    1.10
  -3  -3  -9    1.50    0.20
  -3  -3  -9    1.08    0.18
   3   3   9    1.45    0.19
   3   3   9    1.25    0.17
   3   3   9    1.28    0.18
  -4  -3  -9   37.18    1.14
  -4  -3  -9   39.93    1.16
   4   3   9   39.14    1.13
   4   3   9   39.97    1.13
   4   3   9   40.29    1.15
  -5  -3  -9    1.97    0.25
  -5  -3  -9    2.12    0.20
   5   3   9    2.38    0.22
   5   3   9    2.43    0.25
   5   3   9    2.51    0.24
  -6  -3  -9   17.09    0.61
  -6  -3  -9   16.33    0.69
   6   3   9   17.36    0.62
   6   3   9   17.16    0.63
   6   3   9   16.61    0.63
  -7  -3  -9   -0.02    0.13
  -7  -3  -9   -0.04    0.22
   7   3   9    0.17    0.14
   7   3   9    0.00    0.16
   7   3   9    0.08    0.18
  -8  -3  -9    5.78    0.37
  -8  -3  -9    5.35    0.47
   8   3   9    4.63    0.34
   8   3   9    5.27    0.39
   8   3   9    5.99    0.46
   4  -4  -9    0.52    0.25
   4  -4  -9    0.32    0.22
  -4   4   9    0.42    0.19
  -4   4   9    0.53    0.28
  -4   4   9    0.55    0.23
  -4   4   9    0.80    0.24
   3  -4  -9   24.78    0.91
   3  -4  -9   25.14    0.94
  -3   4   9   25.76    0.93
  -3   4   9   26.68    0.95
  -3   4   9   24.31    0.87
  -3   4   9   25.75    0.88
   2  -4  -9    0.11    0.18
   2  -4  -9    0.19    0.17
  -2   4   9    0.00    0.18
  -2   4   9    0.22    0.15
  -2   4   9    0.14    0.15
  -2   4   9   -0.02    0.17
   1  -4  -9   19.09    0.73
   1  -4  -9   19.18    0.72
  -1   4   9   19.95    0.67
  -1   4   9   18.62    0.71
  -1   4   9   19.40    0.71
  -1   4   9   19.34    0.68
   0  -4  -9    0.37    0.15
   0  -4  -9    0.47    0.13
   0  -4  -9    0.44    0.17
   0   4   9    0.57    0.14
   0   4   9    0.48    0.14
   0   4   9    0.59    0.17
   0   4   9    0.78    0.17
  -1  -4  -9   78.60    2.13
  -1  -4  -9   81.17    2.19
  -1  -4  -9   78.61    2.09
   1   4   9   80.38    2.15
   1   4   9   82.60    2.14
   1   4   9   80.68    2.13
  -2  -4  -9    0.11    0.13
  -2  -4  -9    0.23    0.13
   2   4   9    0.14    0.13
   2   4   9    0.17    0.13
   2   4   9    0.24    0.12
  -3  -4  -9   58.31    1.62
  -3  -4  -9   58.14    1.61
   3   4   9   58.86    1.59
   3   4   9   58.02    1.59
   3   4   9   58.07    1.61
  -4  -4  -9    0.12    0.12
  -4  -4  -9    0.29    0.15
   4   4   9    0.08    0.11
   4   4   9    0.20    0.14
   4   4   9    0.49    0.17
  -5  -4  -9   18.27    0.68
   5   4   9   16.88    0.63
   5   4   9   17.31    0.64
   5   4   9   16.71    0.61
  -6  -4  -9    1.40    0.19
  -6  -4  -9    1.49    0.26
   6   4   9    2.00    0.23
   6   4   9    1.50    0.22
   6   4   9    1.94    0.26
  -7  -4  -9   15.36    0.61
  -7  -4  -9   18.56    0.77
   7   4   9   17.90    0.65
   7   4   9   17.14    0.68
   7   4   9   17.73    0.70
  -8  -4  -9    0.42    0.27
  -8  -4  -9    0.04    0.18
   8   4   9    0.02    0.19
   8   4   9    0.34    0.24
   8   4   9   -0.06    0.17
   3  -5  -9    0.26    0.21
   3  -5  -9    0.25    0.21
  -3   5   9    0.55    0.27
  -3   5   9    0.23    0.18
  -3   5   9    0.82    0.19
  -3   5   9    0.22    0.22
   2  -5  -9   18.33    0.71
   2  -5  -9   18.19    0.72
  -2   5   9   18.06    0.66
  -2   5   9   18.57    0.74
  -2   5   9   17.81    0.67
  -2   5   9   17.27    0.72
   1  -5  -9    0.34    0.18
   1  -5  -9    0.12    0.16
  -1   5   9    0.45    0.13
  -1   5   9    0.31    0.18
  -1   5   9    0.63    0.16
  -1   5   9    0.63    0.19
   0  -5  -9   37.25    1.15
   0  -5  -9   36.64    1.11
   0  -5  -9   36.54    1.07
   0   5   9   38.32    1.15
   0   5   9   36.90    1.11
   0   5   9   37.13    1.13
   0   5   9   37.32    1.06
  -1  -5  -9    1.29    0.21
  -1  -5  -9    0.92    0.14
  -1  -5  -9    1.32    0.19
   1   5   9    1.43    0.21
   1   5   9    1.53    0.20
   1   5   9    1.67    0.17
   1   5   9    2.01    0.24
  -2  -5  -9   45.94    1.31
  -2  -5  -9   46.48    1.35
   2   5   9   47.01    1.31
   2   5   9   45.31    1.31
   2   5   9   45.64    1.33
  -3  -5  -9    1.38    0.19
  -3  -5  -9    0.86    0.17
   3   5   9    1.20    0.20
   3   5   9    1.15    0.17
   3   5   9    1.48    0.19
  -4  -5  -9   46.15    1.39
   4   5   9   45.62    1.33
   4   5   9   49.95    1.38
   4   5   9   48.95    1.38
  -5  -5  -9    2.23    0.22
  -5  -5  -9    1.92    0.27
   5   5   9    2.31    0.25
   5   5   9    2.25    0.27
   5   5   9    2.54    0.24
  -6  -5  -9   26.61    0.92
  -6  -5  -9   24.90    0.79
   6   5   9   23.76    0.84
   6   5   9   23.62    0.86
   6   5   9   24.23    0.81
  -7  -5  -9    0.25    0.24
  -7  -5  -9    0.22    0.16
   7   5   9   -0.14    0.16
   7   5   9    0.02    0.20
   7   5   9   -0.02    0.15
  -8  -5  -9    7.83    0.42
  -8  -5  -9    9.09    0.60
   8   5   9    8.97    0.48
   8   5   9    8.80    0.57
   8   5   9    8.96    0.52
   3  -6  -9   15.34    0.69
   3  -6  -9   14.48    0.65
  -3   6   9   13.87    0.61
  -3   6   9   14.11    0.68
  -3   6   9   15.19    0.74
   2  -6  -9    2.73    0.29
   2  -6  -9    3.33    0.32
  -2   6   9    3.33    0.35
  -2   6   9    3.82    0.40
  -2   6   9    3.51    0.29
   1  -6  -9   11.86    0.53
   1  -6  -9   10.80    0.53
  -1   6   9   11.05    0.54
  -1   6   9   11.97    0.49
  -1   6   9   11.61    0.57
  -1   6   9   11.47    0.47
   0  -6  -9    0.10    0.14
   0  -6  -9    0.10    0.13
   0  -6  -9    0.04    0.14
   0   6   9    0.06    0.11
   0   6   9    0.29    0.18
   0   6   9    0.31    0.17
   0   6   9    0.21    0.14
  -1  -6  -9   28.91    0.90
  -1  -6  -9   27.61    0.92
   1   6   9   27.77    0.92
   1   6   9   28.53    0.94
   1   6   9   28.51    0.83
   1   6   9   27.59    0.89
  -2  -6  -9    0.40    0.15
  -2  -6  -9    0.07    0.14
   2   6   9    0.02    0.12
   2   6   9    0.12    0.16
   2   6   9    0.30    0.16
  -3  -6  -9   50.53    1.51
  -3  -6  -9   53.00    1.49
   3   6   9   53.16    1.51
   3   6   9   54.81    1.52
   3   6   9   52.57    1.46
  -4  -6  -9    1.02    0.21
   4   6   9    1.11    0.20
   4   6   9    1.22    0.22
   4   6   9    1.17    0.18
  -5  -6  -9   22.19    0.82
  -5  -6  -9   20.93    0.71
   5   6   9   22.79    0.74
   5   6   9   21.38    0.77
   5   6   9   22.07    0.80
  -6  -6  -9    1.87    0.21
  -6  -6  -9    2.18    0.30
   6   6   9    3.03    0.33
   6   6   9    2.34    0.23
   6   6   9    2.25    0.25
  -7  -6  -9   13.11    0.53
  -7  -6  -9   14.59    0.70
   7   6   9   12.98    0.61
   7   6   9   14.40    0.66
   7   6   9   13.35    0.55
  -8  -6  -9   -0.31    0.17
  -8  -6  -9    0.29    0.25
   8   6   9    0.15    0.21
   8   6   9    0.12    0.17
   8   6   9   -0.03    0.24
   2  -7  -9   17.86    0.71
   2  -7  -9   17.11    0.69
  -2   7   9   16.93    0.65
  -2   7   9   16.31    0.73
  -2   7   9   17.79    0.78
   1  -7  -9    0.45    0.18
   1  -7  -9    0.47    0.20
   1  -7  -9    0.25    0.18
  -1   7   9    0.33    0.20
  -1   7   9    0.61    0.15
  -1   7   9    0.44    0.24
   0  -7  -9   29.20    0.98
   0  -7  -9   31.27    0.94
   0  -7  -9   30.31    0.96
   0   7   9   29.88    1.02
   0   7   9   30.44    0.90
   0   7   9   31.39    1.03
  -1  -7  -9    2.33    0.25
  -1  -7  -9    2.96    0.28
   1   7   9    3.02    0.31
   1   7   9    2.55    0.24
   1   7   9    2.88    0.31
  -2  -7  -9   14.03    0.59
  -2  -7  -9   15.14    0.58
   2   7   9   13.91    0.60
   2   7   9   15.07    0.62
   2   7   9   14.92    0.55
  -3  -7  -9    0.23    0.14
  -3  -7  -9    0.57    0.19
   3   7   9    0.32    0.13
   3   7   9    0.28    0.18
   3   7   9    0.49    0.19
  -4  -7  -9   24.33    0.85
   4   7   9   22.95    0.81
   4   7   9   22.87    0.83
   4   7   9   22.47    0.75
  -5  -7  -9    0.14    0.17
   5   7   9    0.06    0.13
   5   7   9    0.28    0.17
   5   7   9    0.46    0.22
  -6  -7  -9   16.57    0.72
  -6  -7  -9   15.09    0.57
   6   7   9   14.83    0.63
   6   7   9   15.42    0.59
   6   7   9   15.51    0.69
  -7  -7  -9    0.10    0.22
  -7  -7  -9    0.03    0.16
   7   7   9    0.00    0.23
   7   7   9    0.08    0.16
   7   7   9    0.05    0.20
  -8  -7  -9    4.42    0.35
  -8  -7  -9    4.61    0.45
   8   7   9    5.79    0.51
   8   7   9    3.77    0.35
   8   7   9    5.11    0.43
   2  -8  -9    0.88    0.24
   2  -8  -9    0.66    0.23
  -2   8   9    1.34    0.34
  -2   8   9    1.13    0.21
  -2   8   9    1.25    0.28
   1  -8  -9   20.93    0.76
   1  -8  -9   20.34    0.77
   1  -8  -9   21.33    0.77
  -1   8   9   19.83    0.81
  -1   8   9   19.67    0.70
  -1   8   9   20.11    0.84
   0  -8  -9    0.82    0.21
   0  -8  -9    0.72    0.19
   0  -8  -9    0.96    0.21
   0   8   9    0.64    0.26
   0   8   9    0.44    0.21
   0   8   9    0.95    0.16
  -1  -8  -9   22.46    0.79
  -1  -8  -9   20.82    0.76
   1   8   9   21.80    0.81
   1   8   9   20.69    0.80
  -2  -8  -9    0.37    0.18
  -2  -8  -9    0.24    0.16
   2   8   9    0.35    0.19
   2   8   9    0.49    0.21
  -3  -8  -9   21.77    0.81
   3   8   9   20.72    0.79
   3   8   9   21.95    0.73
   3   8   9   21.24    0.81
  -4  -8  -9    3.14    0.34
   4   8   9    3.22    0.32
   4   8   9    3.26    0.27
   4   8   9    3.25    0.34
  -5  -8  -9   13.63    0.64
   5   8   9   13.19    0.61
   5   8   9   12.83    0.52
   5   8   9   13.20    0.60
  -6  -8  -9    0.25    0.16
  -6  -8  -9    0.26    0.23
   6   8   9    0.18    0.23
   6   8   9    0.42    0.20
   6   8   9    0.15    0.15
  -7  -8  -9    6.18    0.51
  -7  -8  -9    6.06    0.38
   7   8   9    6.05    0.46
   7   8   9    7.13    0.55
   7   8   9    5.45    0.38
   1  -9  -9   -0.14    0.19
   1  -9  -9    0.45    0.22
  -1   9   9    0.37    0.27
  -1   9   9    0.37    0.16
  -1   9   9    0.49    0.22
   0  -9  -9   28.53    0.97
   0  -9  -9   28.32    0.99
   0   9   9   29.11    0.89
   0   9   9   30.53    1.08
   0   9   9   28.14    1.03
  -1  -9  -9    1.14    0.24
  -1  -9  -9    0.98    0.21
   1   9   9    1.20    0.29
   1   9   9    1.00    0.23
  -2  -9  -9   26.24    0.92
  -2  -9  -9   26.91    0.88
   2   9   9   26.19    0.94
   2   9   9   25.30    0.95
  -3  -9  -9   -0.31    0.17
   3   9   9   -0.02    0.19
   3   9   9    0.13    0.19
  -4  -9  -9   15.84    0.69
   4   9   9   14.29    0.67
   4   9   9   14.26    0.64
   4   9   9   13.67    0.71
  -5  -9  -9   -0.18    0.22
   5   9   9   -0.04    0.18
   5   9   9   -0.16    0.13
   5   9   9    0.18    0.24
  -6  -9  -9   13.39    0.69
  -6  -9  -9   14.02    0.56
   6   9   9   13.55    0.71
   6   9   9   13.78    0.56
   6   9   9   12.71    0.65
  -7  -9  -9    0.73    0.27
  -7  -9  -9    0.61    0.20
   7   9   9    1.00    0.27
   7   9   9    0.79    0.31
  -1 -10  -9   24.59    0.91
  -1 -10  -9   23.09    0.84
   1  10   9   24.83    0.97
   1  10   9   22.30    0.90
  -2 -10  -9    0.20    0.27
  -2 -10  -9    0.08    0.21
   2  10   9    0.03    0.19
   2  10   9   -0.10    0.22
  -3 -10  -9   25.15    0.93
   3  10   9   23.15    0.92
   3  10   9   25.29    0.93
  -4 -10  -9    0.09    0.22
   4  10   9    0.21    0.24
   4  10   9    0.02    0.19
  -5 -10  -9   14.09    0.72
   5  10   9   14.98    0.70
   5  10   9   15.35    0.76
  -6 -10  -9   -0.15    0.16
  -6 -10  -9   -0.37    0.23
   6  10   9    0.29    0.30
   6  10   9    0.21    0.22
  -3 -11  -9    1.00    0.29
   3  11   9    1.25    0.28
   1   6 -10    0.53    0.31
   1   6 -10   -0.01    0.21
  -1  -6  10    0.07    0.18
   0   6 -10    6.31    0.53
   0   6 -10    7.28    0.49
   0  -6  10    6.33    0.40
  -1   6 -10    0.65    0.22
  -1   6 -10    0.28    0.24
   1  -6  10    0.34    0.17
  -2   6 -10   11.13    0.62
  -2   6 -10   12.48    0.57
  -2   6 -10   12.28    0.68
   2  -6  10   12.17    0.58
  -3   6 -10    0.51    0.24
  -3   6 -10    0.48    0.21
  -3   6 -10    0.22    0.21
   3  -6  10   -0.03    0.21
   2   5 -10    0.08    0.20
   2   5 -10   -0.08    0.28
  -2  -5  10    0.00    0.19
   1   5 -10    8.78    0.65
   1   5 -10   10.71    0.57
  -1  -5  10   10.51    0.51
   0   5 -10   -0.34    0.22
   0   5 -10    0.07    0.20
   0  -5  10   -0.09    0.15
  -1   5 -10    7.85    0.57
  -1   5 -10    7.76    0.49
   1  -5  10    7.81    0.42
  -2   5 -10    0.21    0.17
  -2   5 -10    0.13    0.18
  -2   5 -10    0.31    0.23
   2  -5  10    0.05    0.15
  -3   5 -10   12.22    0.63
  -3   5 -10   13.57    0.59
  -3   5 -10   12.93    0.64
   3  -5  10   12.44    0.53
  -4   5 -10    0.39    0.22
  -4   5 -10    0.38    0.20
  -4   5 -10    0.17    0.22
   3   4 -10    0.05    0.27
   3   4 -10    0.03    0.21
  -3  -4  10   -0.05    0.16
  -3  -4  10   -0.08    0.17
   2   4 -10   10.74    0.68
   2   4 -10   10.32    0.56
  -2  -4  10    9.81    0.52
  -2  -4  10    9.65    0.48
   1   4 -10    0.59    0.22
   1   4 -10    0.60    0.27
  -1  -4  10    0.75    0.20
   0   4 -10   10.20    0.62
   0   4 -10    9.20    0.54
   0  -4  10    9.68    0.47
  -1   4 -10    0.48    0.24
  -1   4 -10    0.26    0.19
   1  -4  10    0.11    0.15
  -2   4 -10   11.51    0.58
  -2   4 -10   11.58    0.51
  -2   4 -10   12.40    0.61
   2  -4  10   11.72    0.50
  -3   4 -10   -0.12    0.18
  -3   4 -10    0.04    0.18
  -3   4 -10   -0.12    0.16
   3  -4  10    0.02    0.14
  -4   4 -10    9.97    0.54
  -4   4 -10   11.07    0.55
  -4   4 -10   10.32    0.55
   4  -4  10   10.25    0.49
  -5   4 -10    0.39    0.25
  -5   4 -10    0.62    0.23
   5  -4  10    0.37    0.19
   3   3 -10    5.65    0.53
   3   3 -10    7.42    0.47
  -3  -3  10    6.32    0.45
  -3  -3  10    6.85    0.41
   2   3 -10   -0.03    0.18
   2   3 -10   -0.23    0.21
  -2  -3  10    0.02    0.15
  -2  -3  10    0.09    0.16
   1   3 -10   24.33    0.91
   1   3 -10   26.36    1.01
  -1  -3  10   24.73    0.81
  -1  -3  10   24.95    0.86
   0   3 -10    0.41    0.21
   0   3 -10   -0.05    0.22
   0  -3  10    0.55    0.16
  -1   3 -10    9.74    0.55
  -1   3 -10    8.63    0.51
   1  -3  10   10.04    0.46
  -2   3 -10    0.91    0.18
  -2   3 -10    1.12    0.22
  -2   3 -10    0.69    0.20
   2  -3  10    1.08    0.18
  -3   3 -10    9.19    0.45
  -3   3 -10    8.54    0.47
  -3   3 -10    8.52    0.49
   3  -3  10    8.33    0.43
  -4   3 -10    0.27    0.18
  -4   3 -10    0.37    0.18
  -4   3 -10    0.61    0.20
   4  -3  10    0.41    0.18
  -5   3 -10   12.59    0.60
  -5   3 -10   13.11    0.63
   5  -3  10   13.53    0.56
  -6   3 -10    0.21    0.19
  -6   3 -10   -0.12    0.23
   6  -3  10    0.29    0.18
   3   2 -10    0.10    0.25
   3   2 -10    0.32    0.21
  -3  -2  10    0.34    0.20
  -3  -2  10    0.27    0.17
  -3  -2  10    0.17    0.20
   2   2 -10   16.40    0.76
   2   2 -10   14.70    0.66
  -2  -2  10   13.76    0.60
  -2  -2  10   13.99    0.58
  -2  -2  10   13.42    0.61
   1   2 -10   -0.17    0.20
   1   2 -10    0.26    0.20
  -1  -2  10   -0.01    0.16
  -1  -2  10    0.21    0.15
   0   2 -10   17.04    0.69
   0   2 -10   15.18    0.70
   0  -2  10   15.69    0.56
   0  -2  10   15.02    0.60
  -1   2 -10    1.29    0.25
  -1   2 -10    1.71    0.28
   1  -2  10    1.22    0.19
   1  -2  10    1.40    0.18
  -2   2 -10   24.64    0.77
  -2   2 -10   24.23    0.85
  -2   2 -10   23.45    0.87
   2  -2  10   23.75    0.79
  -3   2 -10    0.29    0.15
  -3   2 -10    0.62    0.18
  -3   2 -10    0.69    0.18
   3  -2  10    0.63    0.18
  -4   2 -10   12.36    0.55
  -4   2 -10   12.25    0.55
   4  -2  10   12.34    0.52
  -5   2 -10    1.05    0.20
  -5   2 -10    0.97    0.24
   5  -2  10    0.64    0.18
  -6   2 -10    9.47    0.49
  -6   2 -10   10.19    0.57
   6  -2  10    9.09    0.48
  -7   2 -10   -0.21    0.23
   4   1 -10    0.32    0.28
   4   1 -10    0.55    0.24
  -4  -1  10    0.51    0.22
  -4  -1  10    0.09    0.19
   3   1 -10    4.78    0.40
   3   1 -10    6.22    0.51
  -3  -1  10    5.67    0.43
  -3  -1  10    5.10    0.38
  -3  -1  10    6.21    0.43
   2   1 -10   -0.18    0.23
   2   1 -10    0.58    0.19
  -2  -1  10    0.48    0.19
  -2  -1  10    0.15    0.16
  -2  -1  10    0.40    0.19
   1   1 -10   17.51    0.73
   1   1 -10   19.62    0.81
  -1  -1  10   19.34    0.68
  -1  -1  10   18.45    0.65
  -1  -1  10   18.67    0.69
   0   1 -10    0.18    0.20
   0   1 -10    0.28    0.18
   0  -1  10    0.51    0.16
   0  -1  10    0.27    0.13
  -1   1 -10   34.82    1.15
  -1   1 -10   35.96    1.16
   1  -1  10   36.14    1.04
   1  -1  10   35.72    1.08
  -2   1 -10    0.23    0.17
  -2   1 -10    0.26    0.16
  -2   1 -10    0.32    0.14
   2  -1  10    0.46    0.16
   2  -1  10    0.20    0.12
  -3   1 -10   22.83    0.82
  -3   1 -10   24.14    0.76
  -3   1 -10   22.93    0.77
   3  -1  10   23.09    0.72
   3  -1  10   22.35    0.76
  -4   1 -10    1.67    0.22
  -4   1 -10    2.28    0.26
   4  -1  10    1.93    0.23
  -5   1 -10   15.52    0.64
  -5   1 -10   15.24    0.61
   5  -1  10   14.81    0.59
  -6   1 -10    0.16    0.15
   6  -1  10    0.22    0.16
  -7   1 -10    8.00    0.56
  -7   1 -10    8.52    0.46
   7  -1  10    8.87    0.47
   4   0 -10    8.67    0.56
   4   0 -10    9.49    0.68
  -4   0  10    9.49    0.57
  -4   0  10    9.90    0.56
  -4   0  10    9.06    0.54
   3   0 -10    0.42    0.28
   3   0 -10    0.36    0.22
  -3   0  10    0.36    0.22
  -3   0  10    0.48    0.20
  -3   0  10    0.61    0.23
   2   0 -10   16.44    0.70
   2   0 -10   17.09    0.76
  -2   0  10   15.14    0.62
  -2   0  10   15.26    0.64
  -2   0  10   16.96    0.67
   1   0 -10    0.13    0.22
   1   0 -10    0.03    0.17
  -1   0  10    0.34    0.17
  -1   0  10    0.10    0.14
  -1   0  10    0.01    0.13
   0   0 -10   13.89    0.63
   0   0 -10   13.25    0.61
   0   0  10   13.85    0.51
   0   0  10   14.07    0.53
   0   0  10   12.95    0.55
  -1   0 -10    1.78    0.25
  -1   0 -10    1.33    0.20
  -1   0 -10    1.31    0.22
   1   0  10    1.76    0.22
   1   0  10    1.70    0.18
   1   0  10    1.74    0.20
  -2   0 -10   54.85    1.63
  -2   0 -10   55.17    1.59
  -2   0 -10   57.76    1.51
   2   0  10   55.14    1.57
   2   0  10   56.99    1.53
  -3   0 -10    1.48    0.23
  -3   0 -10    1.38    0.18
   3   0  10    1.39    0.20
   3   0  10    1.57    0.19
  -4   0 -10   21.80    0.77
  -4   0 -10   21.64    0.75
   4   0  10   22.01    0.71
   4   0  10   21.67    0.74
  -5   0 -10    1.82    0.23
  -5   0 -10    1.80    0.26
   5   0  10    1.80    0.23
   5   0  10    1.94    0.21
  -6   0 -10   10.64    0.48
  -6   0 -10   10.08    0.54
   6   0  10    9.15    0.47
  -7   0 -10    0.76    0.26
  -7   0 -10    0.60    0.17
   7   0  10    1.15    0.20
   4  -1 -10    0.78    0.33
   4  -1 -10    1.43    0.29
  -4   1  10    1.17    0.29
  -4   1  10    0.88    0.24
  -4   1  10    0.98    0.25
   3  -1 -10   10.96    0.58
   3  -1 -10    9.87    0.64
  -3   1  10   10.01    0.53
  -3   1  10    9.66    0.55
  -3   1  10    9.29    0.50
   2  -1 -10    0.69    0.22
   2  -1 -10    0.54    0.25
  -2   1  10    0.85    0.22
  -2   1  10    0.67    0.21
  -2   1  10    0.73    0.20
   1  -1 -10   23.03    0.87
   1  -1 -10   27.44    0.94
  -1   1  10   24.03    0.81
  -1   1  10   24.42    0.83
  -1   1  10   23.57    0.82
   0  -1 -10    0.06    0.17
   0  -1 -10    0.09    0.18
   0   1  10    0.25    0.14
   0   1  10    0.32    0.13
   0   1  10   -0.10    0.11
  -1  -1 -10   36.88    1.17
  -1  -1 -10   36.34    1.02
  -1  -1 -10   38.20    1.16
   1   1  10   37.60    1.09
   1   1  10   35.94    1.04
   1   1  10   34.74    1.09
  -2  -1 -10    2.64    0.26
  -2  -1 -10    2.83    0.23
  -2  -1 -10    2.37    0.27
   2   1  10    2.14    0.23
   2   1  10    3.11    0.23
   2   1  10    3.11    0.26
  -3  -1 -10   24.92    0.78
  -3  -1 -10   22.29    0.81
   3   1  10   23.91    0.72
   3   1  10   23.98    0.78
   3   1  10   24.03    0.76
  -4  -1 -10    0.08    0.14
  -4  -1 -10   -0.12    0.14
   4   1  10    0.05    0.12
   4   1  10    0.03    0.12
  -5  -1 -10   16.78    0.63
  -5  -1 -10   17.01    0.66
   5   1  10   16.80    0.61
   5   1  10   17.66    0.64
  -6  -1 -10    0.95    0.17
  -6  -1 -10    0.53    0.22
   6   1  10    0.87    0.18
   6   1  10    0.73    0.17
  -7  -1 -10    9.23    0.55
   7   1  10    8.35    0.44
   7   1  10    7.97    0.45
  -8  -1 -10    0.22    0.19
  -8  -1 -10    0.44    0.26
  -4   2  10    7.62    0.51
   3  -2 -10   -0.18    0.19
   3  -2 -10   -0.03    0.25
  -3   2  10    0.12    0.22
  -3   2  10    0.02    0.19
  -3   2  10    0.07    0.18
   2  -2 -10   31.04    1.13
   2  -2 -10   32.30    1.10
  -2   2  10   33.07    1.05
  -2   2  10   31.92    1.05
  -2   2  10   32.62    1.06
   1  -2 -10    3.31    0.35
   1  -2 -10    2.84    0.30
  -1   2  10    2.77    0.28
  -1   2  10    3.25    0.30
  -1   2  10    3.37    0.32
   0  -2 -10   22.45    0.84
   0  -2 -10   22.98    0.85
   0   2  10   23.07    0.76
   0   2  10   23.79    0.79
   0   2  10   23.08    0.78
  -1  -2 -10    0.63    0.14
  -1  -2 -10    0.64    0.19
  -1  -2 -10    0.27    0.16
   1   2  10    0.64    0.16
   1   2  10    0.68    0.16
   1   2  10    0.57    0.15
  -2  -2 -10   26.13    1.10
  -2  -2 -10   29.00    0.97
  -2  -2 -10   29.01    0.86
   2   2  10   29.01    0.90
   2   2  10   29.69    0.87
   2   2  10   28.88    0.92
  -3  -2 -10    0.66    0.18
  -3  -2 -10    0.81    0.17
   3   2  10    0.80    0.17
   3   2  10    0.76    0.15
   3   2  10    0.73    0.16
  -4  -2 -10   30.46    0.95
  -4  -2 -10   30.31    0.97
   4   2  10   29.61    0.93
   4   2  10   30.61    0.95
   4   2  10   30.45    0.90
  -5  -2 -10    0.25    0.18
  -5  -2 -10    0.04    0.13
   5   2  10    0.16    0.15
   5   2  10   -0.15    0.12
   5   2  10    0.14    0.13
  -6  -2 -10   12.29    0.51
  -6  -2 -10   12.17    0.58
   6   2  10   11.04    0.50
   6   2  10   10.22    0.47
   6   2  10   11.15    0.53
  -7  -2 -10    0.17    0.17
  -7  -2 -10    0.07    0.20
   7   2  10    0.45    0.18
   7   2  10    0.31    0.18
  -8  -2 -10    4.09    0.33
  -8  -2 -10    4.76    0.46
   8   2  10    4.07    0.35
   8   2  10    3.44    0.31
   3  -3 -10    8.17    0.58
   3  -3 -10    7.44    0.51
  -3   3  10    8.47    0.48
  -3   3  10    7.37    0.49
  -3   3  10    8.91    0.55
   2  -3 -10    0.03    0.22
   2  -3 -10   -0.21    0.18
  -2   3  10   -0.07    0.19
  -2   3  10    0.09    0.18
  -2   3  10    0.23    0.18
   1  -3 -10   34.95    1.14
   1  -3 -10   35.82    1.14
  -1   3  10   34.28    1.07
  -1   3  10   31.24    1.06
  -1   3  10   33.17    1.06
   0  -3 -10   -0.10    0.17
   0  -3 -10   -0.07    0.15
   0   3  10    0.06    0.15
   0   3  10    0.32    0.16
   0   3  10   -0.01    0.14
  -1  -3 -10   54.07    1.55
  -1  -3 -10   54.63    1.58
  -1  -3 -10   53.34    1.45
   1   3  10   53.82    1.52
   1   3  10   53.79    1.49
   1   3  10   53.26    1.52
  -2  -3 -10    0.11    0.12
  -2  -3 -10    0.32    0.15
   2   3  10    0.02    0.13
   2   3  10   -0.01    0.13
   2   3  10    0.10    0.13
  -3  -3 -10   25.13    0.86
  -3  -3 -10   25.66    0.81
   3   3  10   26.45    0.84
   3   3  10   25.43    0.79
   3   3  10   24.55    0.82
  -4  -3 -10    1.23    0.20
  -4  -3 -10    0.86    0.19
   4   3  10    0.72    0.16
   4   3  10    0.80    0.18
   4   3  10    0.91    0.18
  -5  -3 -10   29.32    0.92
   5   3  10   28.43    0.93
   5   3  10   28.19    0.93
   5   3  10   31.39    0.93
  -6  -3 -10    0.20    0.21
   6   3  10    0.43    0.18
   6   3  10    0.17    0.15
   6   3  10    0.11    0.17
  -7  -3 -10    9.65    0.58
  -7  -3 -10    8.82    0.45
   7   3  10    9.48    0.47
   7   3  10    8.69    0.47
   7   3  10   10.63    0.52
  -8  -3 -10   -0.12    0.23
  -8  -3 -10   -0.07    0.17
   8   3  10   -0.12    0.15
   8   3  10    0.28    0.32
   8   3  10   -0.15    0.17
   3  -4 -10    0.26    0.25
   3  -4 -10   -0.12    0.21
  -3   4  10   -0.07    0.18
  -3   4  10    0.19    0.18
  -3   4  10    0.16    0.19
  -3   4  10   -0.03    0.23
   2  -4 -10   19.57    0.81
   2  -4 -10   19.26    0.79
  -2   4  10   20.12    0.78
  -2   4  10   19.03    0.73
  -2   4  10   18.86    0.73
  -2   4  10   18.66    0.76
   1  -4 -10    1.22    0.24
   1  -4 -10    0.91    0.21
  -1   4  10    1.89    0.25
  -1   4  10    1.93    0.23
  -1   4  10    2.04    0.25
  -1   4  10    1.81    0.27
   0  -4 -10   35.72    1.11
   0  -4 -10   34.23    1.13
   0   4  10   34.28    1.08
   0   4  10   33.20    1.06
   0   4  10   35.27    1.07
  -1  -4 -10    0.06    0.12
  -1  -4 -10   -0.15    0.14
  -1  -4 -10    0.06    0.15
   1   4  10    0.07    0.14
   1   4  10    0.04    0.15
   1   4  10    0.17    0.15
  -2  -4 -10   42.97    1.21
  -2  -4 -10   42.05    1.28
   2   4  10   41.90    1.25
   2   4  10   40.79    1.23
   2   4  10   43.31    1.23
  -3  -4 -10    3.90    0.31
  -3  -4 -10    4.17    0.31
   3   4  10    4.17    0.31
   3   4  10    4.94    0.32
   3   4  10    4.15    0.32
  -4  -4 -10   41.50    1.21
  -4  -4 -10   39.02    1.21
   4   4  10   40.20    1.19
   4   4  10   40.88    1.21
   4   4  10   40.64    1.18
  -5  -4 -10   -0.12    0.17
   5   4  10   -0.07    0.13
   5   4  10   -0.02    0.16
   5   4  10    0.03    0.14
  -6  -4 -10   21.61    0.83
   6   4  10   22.73    0.78
   6   4  10   21.29    0.78
   6   4  10   21.06    0.75
  -7  -4 -10    0.08    0.17
  -7  -4 -10   -0.14    0.20
   7   4  10   -0.04    0.17
   7   4  10    0.37    0.20
   7   4  10    0.27    0.18
  -8  -4 -10    3.97    0.44
  -8  -4 -10    5.26    0.37
   8   4  10    5.20    0.42
   8   4  10    4.79    0.42
   8   4  10    4.24    0.36
   3  -5 -10    7.84    0.52
   3  -5 -10    7.48    0.57
  -3   5  10    6.86    0.50
  -3   5  10    8.27    0.58
  -3   5  10    6.79    0.45
  -3   5  10    6.73    0.47
   2  -5 -10    0.31    0.22
   2  -5 -10    0.35    0.21
  -2   5  10    0.32    0.22
  -2   5  10    0.16    0.20
  -2   5  10    0.46    0.19
  -2   5  10    0.29    0.18
   1  -5 -10   12.80    0.58
   1  -5 -10   11.65    0.58
  -1   5  10   11.20    0.55
  -1   5  10   11.18    0.50
  -1   5  10   11.89    0.53
  -1   5  10   11.36    0.57
   0  -5 -10   -0.08    0.16
   0  -5 -10    0.07    0.15
   0   5  10   -0.18    0.12
   0   5  10   -0.02    0.17
   0   5  10    0.02    0.12
   0   5  10    0.24    0.18
  -1  -5 -10   37.89    1.47
  -1  -5 -10   44.49    1.37
  -1  -5 -10   47.36    1.28
   1   5  10   47.28    1.33
   1   5  10   46.47    1.33
   1   5  10   44.23    1.34
  -2  -5 -10    1.89    0.23
  -2  -5 -10    2.19    0.23
   2   5  10    1.46    0.21
   2   5  10    1.77    0.22
   2   5  10    2.06    0.25
  -3  -5 -10   33.59    1.04
  -3  -5 -10   33.07    1.03
   3   5  10   31.83    1.01
   3   5  10   34.65    1.02
   3   5  10   30.79    1.03
  -4  -5 -10    2.43    0.27
  -4  -5 -10    1.28    0.20
   4   5  10    1.32    0.19
   4   5  10    1.76    0.24
   4   5  10    2.14    0.26
  -5  -5 -10   20.30    0.76
   5   5  10   19.68    0.73
   5   5  10   19.00    0.69
  -6  -5 -10    0.75    0.17
  -6  -5 -10    1.03    0.26
   6   5  10    0.99    0.23
   6   5  10    0.61    0.17
   6   5  10    1.32    0.26
  -7  -5 -10   14.18    0.57
  -7  -5 -10   14.56    0.71
   7   5  10   14.22    0.64
   7   5  10   15.83    0.69
   7   5  10   14.38    0.59
  -8  -5 -10   -0.05    0.16
  -8  -5 -10    0.13    0.25
   8   5  10    0.12    0.24
   8   5  10    0.24    0.22
   8   5  10    0.24    0.18
   2  -6 -10   11.69    0.60
   2  -6 -10   14.59    0.66
  -2   6  10   13.23    0.57
  -2   6  10   12.64    0.64
  -2   6  10   13.52    0.68
   1  -6 -10    0.69    0.20
   1  -6 -10    0.72    0.21
  -1   6  10    0.59    0.20
  -1   6  10    0.62    0.24
  -1   6  10    0.64    0.19
  -1   6  10    0.65    0.17
   0  -6 -10   13.91    0.61
   0  -6 -10   12.87    0.57
   0  -6 -10   13.61    0.54
   0   6  10   13.51    0.56
   0   6  10   13.65    0.61
   0   6  10   12.86    0.60
   0   6  10   13.88    0.53
  -1  -6 -10    2.20    0.25
  -1  -6 -10    2.29    0.28
   1   6  10    2.10    0.28
   1   6  10    2.16    0.24
   1   6  10    2.21    0.29
  -2  -6 -10   21.20    0.76
  -2  -6 -10   23.13    0.81
   2   6  10   21.62    0.78
   2   6  10   21.48    0.75
   2   6  10   21.54    0.79
  -3  -6 -10    0.11    0.15
  -3  -6 -10    0.09    0.15
   3   6  10    0.09    0.14
   3   6  10    0.14    0.17
   3   6  10    0.38    0.15
  -4  -6 -10   20.61    0.78
   4   6  10   21.61    0.76
   4   6  10   20.63    0.76
   4   6  10   20.10    0.71
  -5  -6 -10    0.24    0.19
   5   6  10    0.11    0.17
   5   6  10    0.03    0.14
   5   6  10    0.26    0.18
  -6  -6 -10   13.81    0.54
  -6  -6 -10   13.69    0.66
   6   6  10   14.80    0.65
   6   6  10   13.62    0.57
   6   6  10   13.53    0.62
  -7  -6 -10    0.43    0.19
  -7  -6 -10   -0.19    0.23
   7   6  10    0.08    0.18
   7   6  10   -0.21    0.21
   7   6  10    0.32    0.20
  -8  -6 -10    6.53    0.56
   8   6  10    6.87    0.49
  -2   7  10    1.04    0.26
   1  -7 -10   12.55    0.61
   1  -7 -10   11.73    0.58
  -1   7  10   12.70    0.65
  -1   7  10   10.73    0.58
  -1   7  10   12.72    0.53
   0  -7 -10    0.56    0.19
   0  -7 -10    0.15    0.17
   0  -7 -10    0.45    0.19
   0   7  10    0.19    0.14
   0   7  10    0.46    0.21
   0   7  10    0.64    0.23
  -1  -7 -10   20.07    0.73
  -1  -7 -10   18.81    0.76
   1   7  10   20.90    0.73
   1   7  10   20.49    0.79
   1   7  10   20.69    0.79
  -2  -7 -10    2.30    0.28
  -2  -7 -10    1.89    0.26
   2   7  10    2.49    0.29
   2   7  10    2.12    0.24
   2   7  10    2.21    0.30
  -3  -7 -10   22.44    0.83
  -3  -7 -10   22.51    0.80
   3   7  10   22.94    0.83
   3   7  10   21.67    0.76
   3   7  10   23.75    0.84
  -4  -7 -10    1.92    0.28
   4   7  10    1.36    0.25
   4   7  10    1.90    0.23
   4   7  10    1.62    0.27
  -5  -7 -10   10.80    0.57
   5   7  10   10.02    0.47
   5   7  10    9.71    0.52
   5   7  10   10.86    0.56
  -6  -7 -10    0.30    0.22
   6   7  10    0.59    0.25
   6   7  10    0.36    0.17
   6   7  10    0.26    0.21
  -7  -7 -10    7.38    0.42
  -7  -7 -10    8.33    0.57
   7   7  10    7.22    0.43
   7   7  10    8.20    0.56
   7   7  10    6.87    0.47
   1  -8 -10    0.15    0.21
   1  -8 -10    0.29    0.22
  -1   8  10    0.30    0.26
  -1   8  10    0.47    0.23
  -1   8  10    0.29    0.17
   0  -8 -10   25.68    0.91
   0  -8 -10   25.13    0.88
   0  -8 -10   25.09    0.87
   0   8  10   24.90    0.82
   0   8  10   24.98    0.95
   0   8  10   26.06    0.97
  -1  -8 -10    0.33    0.20
  -1  -8 -10    0.61    0.20
   1   8  10    0.60    0.22
   1   8  10    0.96    0.26
  -2  -8 -10   16.78    0.67
  -2  -8 -10   16.20    0.69
   2   8  10   16.85    0.72
   2   8  10   15.54    0.68
  -3  -8 -10    0.01    0.18
   3   8  10    0.19    0.21
   3   8  10   -0.19    0.13
   3   8  10   -0.04    0.17
  -4  -8 -10   21.70    0.84
   4   8  10   21.24    0.81
   4   8  10   20.15    0.73
   4   8  10   21.17    0.82
  -5  -8 -10    0.36    0.22
   5   8  10    0.96    0.28
   5   8  10    0.46    0.18
   5   8  10    0.58    0.21
  -6  -8 -10   12.84    0.67
   6   8  10   13.35    0.68
   6   8  10   12.16    0.54
   6   8  10   12.64    0.62
  -7  -8 -10    0.32    0.27
  -7  -8 -10    0.12    0.16
   7   8  10    0.38    0.18
   7   8  10    0.34    0.29
   7   8  10    0.48    0.22
   0  -9 -10    0.52    0.22
   0  -9 -10    0.09    0.20
   0   9  10    0.54    0.24
   0   9  10    0.46    0.26
  -1  -9 -10   21.16    0.81
  -1  -9 -10   21.77    0.82
   1   9  10   20.74    0.87
   1   9  10   20.31    0.85
  -2  -9 -10   -0.13    0.20
  -2  -9 -10    0.12    0.19
   2   9  10   -0.10    0.18
   2   9  10    0.39    0.25
  -3  -9 -10   23.50    0.89
   3   9  10   23.36    0.90
   3   9  10   21.33    0.87
  -4  -9 -10    0.45    0.25
   4   9  10    0.33    0.20
   4   9  10    0.57    0.18
   4   9  10    0.83    0.27
  -5  -9 -10   17.38    0.76
   5   9  10   16.48    0.64
   5   9  10   15.45    0.75
   5   9  10   16.81    0.72
  -6  -9 -10   -0.07    0.22
   6   9  10   -0.04    0.25
   6   9  10   -0.03    0.21
   6   9  10    0.17    0.16
  -2 -10 -10   12.14    0.65
  -2 -10 -10   12.97    0.65
   2  10  10   11.93    0.63
   2  10  10   11.94    0.67
  -3 -10 -10    0.14    0.23
   3  10  10    0.16    0.25
   3  10  10    0.02    0.21
  -4 -10 -10   14.79    0.72
   4  10  10   13.38    0.71
   4  10  10   13.53    0.69
  -5 -10 -10    0.04    0.25
   5  10  10    0.13    0.22
   0   5 -11    5.24    0.51
   0   5 -11    3.74    0.38
   0  -5  11    4.45    0.36
  -1   5 -11    0.02    0.25
  -1   5 -11   -0.19    0.20
   1  -5  11    0.09    0.17
  -2   5 -11    6.32    0.48
  -2   5 -11    7.58    0.52
  -2   5 -11    7.92    0.57
   2  -5  11    7.49    0.43
  -3   5 -11    0.59    0.23
   3  -5  11    0.13    0.18
   1   4 -11    4.50    0.40
   1   4 -11    4.86    0.51
  -1  -4  11    4.97    0.40
   0   4 -11    0.11    0.24
   0   4 -11   -0.18    0.25
   0  -4  11    0.38    0.19
  -1   4 -11    5.06    0.43
  -1   4 -11    5.49    0.48
   1  -4  11    4.90    0.37
  -2   4 -11    0.05    0.19
  -2   4 -11    0.17    0.22
  -2   4 -11    0.08    0.18
   2  -4  11    0.02    0.15
  -3   4 -11   10.52    0.58
  -3   4 -11   10.49    0.55
  -3   4 -11   10.61    0.58
   3  -4  11   10.51    0.52
  -4   4 -11    0.14    0.22
  -4   4 -11    0.30    0.22
  -4   4 -11   -0.13    0.21
   4  -4  11    0.06    0.18
   2   3 -11    5.29    0.51
   2   3 -11    4.56    0.40
  -2  -3  11    5.43    0.38
  -2  -3  11    3.96    0.37
   1   3 -11    0.02    0.27
   1   3 -11    0.41    0.23
  -1  -3  11    0.03    0.15
  -1  -3  11    0.20    0.20
   0   3 -11   10.36    0.65
   0   3 -11   10.37    0.57
   0  -3  11   10.07    0.51
  -1   3 -11    0.46    0.25
  -1   3 -11    0.29    0.20
   1  -3  11    0.28    0.17
  -2   3 -11   12.38    0.61
  -2   3 -11   11.10    0.61
  -2   3 -11   12.44    0.52
   2  -3  11   11.08    0.52
  -3   3 -11    0.26    0.20
  -3   3 -11    0.63    0.20
  -3   3 -11    0.25    0.20
   3  -3  11    0.36    0.16
  -4   3 -11   10.76    0.56
  -4   3 -11   10.73    0.55
   4  -3  11   10.10    0.51
  -5   3 -11    0.04    0.23
  -5   3 -11    0.12    0.19
   5  -3  11    0.24    0.19
   2   2 -11    0.17    0.27
   2   2 -11   -0.15    0.19
  -2  -2  11    0.04    0.17
  -2  -2  11   -0.26    0.18
   1   2 -11   17.87    0.77
   1   2 -11   19.47    0.86
  -1  -2  11   17.57    0.66
  -1  -2  11   18.41    0.72
   0   2 -11    0.07    0.20
   0   2 -11   -0.42    0.21
   0  -2  11    0.21    0.16
   0  -2  11    0.17    0.15
  -1   2 -11   14.97    0.68
  -1   2 -11   14.38    0.69
   1  -2  11   13.53    0.58
  -2   2 -11    1.23    0.20
  -2   2 -11    0.91    0.24
  -2   2 -11    1.54    0.28
   2  -2  11    1.14    0.20
  -3   2 -11   12.87    0.59
  -3   2 -11   13.23    0.62
  -3   2 -11   13.61    0.56
   3  -2  11   12.02    0.55
  -4   2 -11    0.67    0.21
  -4   2 -11    0.75    0.22
   4  -2  11    0.57    0.19
  -5   2 -11   13.13    0.62
  -5   2 -11   12.50    0.60
   5  -2  11   13.28    0.58
  -6   2 -11    0.38    0.25
  -6   2 -11    0.38    0.19
   6  -2  11    0.29    0.20
  -3  -1  11    0.36    0.21
   2   1 -11    5.25    0.49
   2   1 -11    5.27    0.43
  -2  -1  11    6.07    0.41
  -2  -1  11    5.24    0.40
  -2  -1  11    5.65    0.39
   1   1 -11    0.27    0.19
   1   1 -11    0.03    0.24
  -1  -1  11   -0.04    0.17
  -1  -1  11   -0.18    0.16
   0   1 -11   22.32    0.90
   0   1 -11   21.57    0.84
   0  -1  11   22.39    0.74
   0  -1  11   20.40    0.77
  -1   1 -11    0.36    0.22
  -1   1 -11    0.63    0.22
   1  -1  11    0.54    0.16
   1  -1  11    0.22    0.17
  -2   1 -11   18.19    0.63
  -2   1 -11   17.80    0.75
  -2   1 -11   17.07    0.71
   2  -1  11   18.05    0.62
   2  -1  11   18.20    0.68
  -3   1 -11    1.23    0.21
  -3   1 -11    1.45    0.33
  -3   1 -11    0.92    0.23
   3  -1  11    1.44    0.23
  -4   1 -11   10.49    0.51
  -4   1 -11   10.15    0.52
   4  -1  11    9.86    0.47
  -5   1 -11    0.90    0.24
  -5   1 -11    1.21    0.22
   5  -1  11    1.08    0.20
  -6   1 -11   11.02    0.60
  -6   1 -11   10.75    0.54
   6  -1  11   11.66    0.55
   3   0 -11    5.84    0.46
   3   0 -11    5.61    0.52
  -3   0  11    6.40    0.46
  -3   0  11    4.87    0.42
  -3   0  11    6.20    0.46
   2   0 -11    0.18    0.25
   2   0 -11   -0.10    0.19
  -2   0  11    0.30    0.21
  -2   0  11   -0.15    0.16
  -2   0  11    0.02    0.19
   1   0 -11   16.92    0.76
   1   0 -11   14.56    0.70
  -1   0  11   14.89    0.65
  -1   0  11   16.29    0.63
  -1   0  11   16.66    0.64
   0   0 -11    0.76    0.25
   0   0 -11    0.86    0.24
   0   0  11    0.96    0.19
   0   0  11    1.11    0.21
   0   0  11    0.89    0.18
  -1   0 -11   16.95    0.70
  -1   0 -11   17.29    0.73
   1   0  11   15.65    0.63
   1   0  11   17.89    0.62
  -2   0 -11    0.03    0.18
  -2   0 -11    0.19    0.18
  -2   0 -11    0.15    0.13
   2   0  11    0.40    0.15
   2   0  11    0.08    0.14
  -3   0 -11   12.00    0.51
  -3   0 -11   12.18    0.59
   3   0  11   12.11    0.53
   3   0  11   12.87    0.50
  -4   0 -11    1.66    0.25
  -4   0 -11    1.35    0.22
   4   0  11    1.03    0.19
   4   0  11    1.54    0.20
  -5   0 -11   14.16    0.61
  -5   0 -11   12.94    0.58
   5   0  11   12.60    0.57
  -6   0 -11    0.16    0.16
  -6   0 -11    0.11    0.20
   6   0  11    0.47    0.20
  -7   0 -11    8.54    0.46
  -7   0 -11    7.44    0.55
   7   0  11    8.31    0.48
   3  -1 -11    0.77    0.28
   3  -1 -11    1.31    0.33
  -3   1  11    1.27    0.29
  -3   1  11    1.01    0.24
  -3   1  11    0.68    0.25
   2  -1 -11   10.32    0.63
   2  -1 -11   10.35    0.59
  -2   1  11   10.01    0.53
  -2   1  11   10.01    0.54
  -2   1  11   10.34    0.54
   1  -1 -11   -0.08    0.20
   1  -1 -11    0.19    0.20
  -1   1  11    0.05    0.15
  -1   1  11   -0.01    0.16
  -1   1  11   -0.18    0.16
   0  -1 -11   11.87    0.60
   0  -1 -11   11.78    0.62
   0   1  11   12.51    0.54
   0   1  11   11.90    0.52
   0   1  11   12.18    0.51
  -1  -1 -11    0.09    0.17
  -1  -1 -11    0.15    0.18
   1   1  11    0.09    0.14
   1   1  11   -0.05    0.14
   1   1  11    0.16    0.13
  -2  -1 -11   31.36    0.92
  -2  -1 -11   30.72    1.04
  -2  -1 -11   29.09    0.99
   2   1  11   30.66    0.95
   2   1  11   30.74    0.90
   2   1  11   29.17    0.96
  -3  -1 -11    0.53    0.16
  -3  -1 -11    0.53    0.19
   3   1  11    0.77    0.18
   3   1  11    0.41    0.15
  -4  -1 -11   14.73    0.59
  -4  -1 -11   14.23    0.63
   4   1  11   14.82    0.59
   4   1  11   15.81    0.58
  -5  -1 -11    0.04    0.18
  -5  -1 -11    0.10    0.14
   5   1  11    0.28    0.16
   5   1  11   -0.16    0.14
  -6  -1 -11    7.58    0.43
  -6  -1 -11    7.34    0.48
   6   1  11    6.83    0.40
   6   1  11    7.44    0.41
  -7  -1 -11    0.03    0.23
   7   1  11    0.05    0.18
  -3   2  11    8.29    0.52
   2  -2 -11    0.04    0.23
   2  -2 -11   -0.13    0.24
  -2   2  11   -0.15    0.17
  -2   2  11    0.07    0.20
  -2   2  11   -0.06    0.19
   1  -2 -11   23.92    0.93
   1  -2 -11   25.41    0.97
  -1   2  11   24.36    0.87
  -1   2  11   24.59    0.86
  -1   2  11   24.77    0.87
   0  -2 -11   -0.18    0.17
   0  -2 -11   -0.21    0.18
   0   2  11    0.14    0.16
   0   2  11    0.08    0.14
   0   2  11    0.10    0.16
  -1  -2 -11   25.38    0.89
  -1  -2 -11   25.42    0.92
   1   2  11   25.59    0.85
   1   2  11   24.08    0.85
   1   2  11   26.19    0.82
  -2  -2 -11   -0.11    0.13
  -2  -2 -11    0.00    0.17
   2   2  11    0.09    0.15
   2   2  11   -0.12    0.13
   2   2  11   -0.05    0.13
  -3  -2 -11   28.86    0.88
  -3  -2 -11   26.68    0.95
   3   2  11   28.91    0.86
   3   2  11   27.17    0.91
   3   2  11   27.27    0.89
  -4  -2 -11   -0.05    0.14
  -4  -2 -11    0.18    0.16
   4   2  11    0.29    0.15
   4   2  11    0.14    0.14
   4   2  11    0.08    0.15
  -5  -2 -11   14.44    0.59
  -5  -2 -11   14.54    0.63
   5   2  11   14.37    0.59
   5   2  11   14.22    0.58
  -6  -2 -11   -0.03    0.18
  -6  -2 -11   -0.21    0.14
   6   2  11    0.04    0.17
   6   2  11   -0.04    0.15
  -7  -2 -11    4.89    0.42
   7   2  11    5.68    0.38
   7   2  11    4.72    0.38
   2  -3 -11   16.94    0.81
   2  -3 -11   16.88    0.76
  -2   3  11   15.91    0.68
  -2   3  11   16.60    0.72
  -2   3  11   17.93    0.74
   1  -3 -11    0.51    0.22
   1  -3 -11    0.97    0.27
  -1   3  11    0.68    0.21
  -1   3  11    0.76    0.22
  -1   3  11    0.51    0.21
   0  -3 -11   23.76    0.88
   0  -3 -11   21.53    0.86
   0   3  11   22.46    0.80
   0   3  11   23.04    0.80
   0   3  11   21.54    0.80
  -1  -3 -11    1.64    0.26
  -1  -3 -11    2.02    0.28
   1   3  11    2.37    0.27
   1   3  11    2.23    0.25
   1   3  11    1.76    0.23
  -2  -3 -11   33.20    1.09
  -2  -3 -11   32.96    0.98
   2   3  11   32.95    1.04
   2   3  11   33.39    1.00
   2   3  11   32.48    1.03
  -3  -3 -11    0.08    0.16
  -3  -3 -11    0.24    0.15
   3   3  11   -0.05    0.14
   3   3  11   -0.10    0.14
   3   3  11    0.04    0.14
  -4  -3 -11   31.81    1.01
  -4  -3 -11   30.97    1.03
   4   3  11   32.56    0.98
   4   3  11   33.35    1.03
   4   3  11   31.53    1.02
  -5  -3 -11    0.20    0.16
  -5  -3 -11    0.03    0.19
   5   3  11   -0.11    0.16
   5   3  11    0.14    0.17
   5   3  11    0.02    0.16
  -6  -3 -11    8.43    0.52
   6   3  11    9.03    0.47
   6   3  11    9.47    0.47
   6   3  11    8.61    0.47
  -7  -3 -11    0.89    0.26
   7   3  11    0.64    0.21
   7   3  11    0.77    0.21
   2  -4 -11    0.06    0.24
   2  -4 -11    0.00    0.20
  -2   4  11    0.12    0.21
  -2   4  11   -0.03    0.17
  -2   4  11    0.00    0.23
   1  -4 -11   21.32    0.89
   1  -4 -11   21.15    0.86
  -1   4  11   23.49    0.84
  -1   4  11   22.05    0.81
  -1   4  11   21.75    0.83
   0  -4 -11    0.57    0.23
   0  -4 -11    0.45    0.19
   0   4  11    0.73    0.22
   0   4  11    0.96    0.21
   0   4  11    0.69    0.21
  -1  -4 -11   29.16    1.00
  -1  -4 -11   27.91    0.89
   1   4  11   27.67    0.93
   1   4  11   28.67    0.92
   1   4  11   27.55    0.94
  -2  -4 -11    0.34    0.15
  -2  -4 -11    0.05    0.17
   2   4  11    0.12    0.16
   2   4  11    0.20    0.17
   2   4  11   -0.01    0.15
  -3  -4 -11   18.77    0.67
  -3  -4 -11   16.73    0.70
   3   4  11   18.36    0.67
   3   4  11   19.83    0.71
   3   4  11   17.79    0.68
  -4  -4 -11    1.73    0.23
  -4  -4 -11    2.08    0.25
   4   4  11    1.63    0.23
   4   4  11    1.86    0.23
   4   4  11    1.72    0.25
  -5  -4 -11   25.18    0.89
  -5  -4 -11   24.47    0.95
   5   4  11   24.72    0.87
   5   4  11   26.31    0.85
   5   4  11   25.51    0.86
  -6  -4 -11    0.07    0.21
   6   4  11    0.00    0.18
   6   4  11    0.12    0.17
   6   4  11    0.19    0.19
  -7  -4 -11    9.75    0.60
   7   4  11   10.91    0.56
   7   4  11    8.91    0.49
   7   4  11    9.88    0.53
   2  -5 -11    8.71    0.56
   2  -5 -11    9.95    0.63
  -2   5  11    8.15    0.49
  -2   5  11    8.17    0.56
  -2   5  11    8.54    0.50
  -2   5  11    7.97    0.52
   1  -5 -11    2.35    0.32
   1  -5 -11    2.26    0.32
  -1   5  11    2.00    0.27
  -1   5  11    2.28    0.33
  -1   5  11    1.42    0.26
  -1   5  11    2.20    0.28
   0  -5 -11   14.47    0.69
   0  -5 -11   13.84    0.66
   0   5  11   16.24    0.66
   0   5  11   15.38    0.63
   0   5  11   15.01    0.65
  -1  -5 -11    0.50    0.17
  -1  -5 -11    0.34    0.19
   1   5  11    1.08    0.23
   1   5  11    1.06    0.21
   1   5  11    0.62    0.21
  -2  -5 -11   15.67    0.68
  -2  -5 -11   17.41    0.64
   2   5  11   16.51    0.65
   2   5  11   16.58    0.67
   2   5  11   16.63    0.65
  -3  -5 -11    0.90    0.20
  -3  -5 -11    0.95    0.21
   3   5  11    0.68    0.19
   3   5  11    0.69    0.21
   3   5  11    0.82    0.20
  -4  -5 -11   21.30    0.77
  -4  -5 -11   20.64    0.75
   4   5  11   21.27    0.75
   4   5  11   19.08    0.73
   4   5  11   20.17    0.76
  -5  -5 -11   -0.04    0.18
   5   5  11    0.11    0.17
   5   5  11    0.02    0.15
   5   5  11    0.20    0.18
  -6  -5 -11   13.82    0.65
   6   5  11   13.32    0.58
   6   5  11   13.67    0.62
   6   5  11   14.28    0.62
  -7  -5 -11    0.54    0.26
   7   5  11    0.58    0.22
   7   5  11    0.21    0.22
   7   5  11    0.37    0.17
   1  -6 -11   10.14    0.59
   1  -6 -11   10.97    0.61
  -1   6  11   11.01    0.61
  -1   6  11   11.26    0.55
  -1   6  11    9.90    0.56
  -1   6  11   10.73    0.52
   0  -6 -11    0.26    0.20
   0  -6 -11    0.29    0.22
   0   6  11    0.50    0.23
   0   6  11    0.33    0.17
   0   6  11    0.41    0.20
   0   6  11    0.38    0.18
  -1  -6 -11   19.83    0.81
  -1  -6 -11   21.19    0.74
   1   6  11   21.88    0.81
   1   6  11   20.96    0.76
   1   6  11   20.02    0.79
  -2  -6 -11    2.88    0.31
  -2  -6 -11    3.14    0.30
   2   6  11    2.69    0.31
   2   6  11    3.28    0.31
   2   6  11    3.03    0.33
  -3  -6 -11   12.75    0.59
  -3  -6 -11   13.83    0.61
   3   6  11   12.67    0.60
   3   6  11   13.35    0.56
   3   6  11   16.79    0.63
  -4  -6 -11    0.24    0.19
  -4  -6 -11    0.25    0.25
   4   6  11    0.31    0.19
   4   6  11    0.20    0.20
   4   6  11    0.12    0.15
  -5  -6 -11   10.69    0.57
   5   6  11    9.56    0.48
   5   6  11   11.08    0.54
   5   6  11   10.77    0.55
  -6  -6 -11   -0.03    0.21
   6   6  11   -0.07    0.14
   6   6  11   -0.14    0.21
   6   6  11    0.05    0.18
  -7  -6 -11    8.44    0.57
   7   6  11    9.24    0.49
   7   6  11    8.36    0.53
   7   6  11    9.06    0.57
  -1   7  11    0.42    0.23
   0  -7 -11   11.27    0.60
   0   7  11   10.79    0.60
   0   7  11   10.74    0.51
   0   7  11   11.09    0.58
  -1  -7 -11    0.18    0.19
  -1  -7 -11    0.26    0.21
   1   7  11   -0.09    0.16
   1   7  11    0.06    0.20
   1   7  11    0.00    0.21
  -2  -7 -11   20.81    0.79
  -2  -7 -11   20.85    0.82
   2   7  11   21.33    0.81
   2   7  11   20.42    0.81
   2   7  11   20.97    0.77
  -3  -7 -11    0.33    0.19
  -3  -7 -11    0.16    0.20
   3   7  11    0.22    0.20
   3   7  11    0.00    0.19
   3   7  11    0.16    0.15
  -4  -7 -11   19.24    0.78
   4   7  11   19.56    0.77
   4   7  11   19.00    0.77
   4   7  11   19.12    0.70
  -5  -7 -11    0.80    0.26
   5   7  11    1.04    0.27
   5   7  11    1.47    0.27
   5   7  11    1.13    0.21
  -6  -7 -11    7.35    0.54
   6   7  11    7.26    0.43
   6   7  11    6.95    0.54
   6   7  11    6.82    0.47
  -7  -7 -11   -0.21    0.24
   7   7  11    0.06    0.22
   0   8  11    0.32    0.23
  -1  -8 -11   17.97    0.72
  -1  -8 -11   17.80    0.76
   1   8  11   16.53    0.75
   1   8  11   18.49    0.79
  -2  -8 -11    0.40    0.23
  -2  -8 -11    0.55    0.21
   2   8  11    0.44    0.23
   2   8  11    0.32    0.22
  -3  -8 -11   24.90    0.93
  -3  -8 -11   26.32    0.93
   3   8  11   26.36    0.95
   3   8  11   24.25    0.93
   3   8  11   25.53    0.88
  -4  -8 -11    0.05    0.21
   4   8  11    0.24    0.20
   4   8  11    0.93    0.21
   4   8  11    0.48    0.25
  -5  -8 -11   10.43    0.61
   5   8  11   10.98    0.61
   5   8  11   11.05    0.52
   5   8  11   11.38    0.59
  -6  -8 -11    0.02    0.24
   6   8  11   -0.04    0.21
   6   8  11    0.77    0.21
   6   8  11    0.36    0.27
  -2  -9 -11   15.52    0.72
  -2  -9 -11   15.04    0.68
   2   9  11   16.03    0.74
   2   9  11   14.47    0.70
  -3  -9 -11   -0.11    0.23
   3   9  11    0.08    0.25
   3   9  11    0.15    0.21
  -4  -9 -11   21.17    0.85
   4   9  11   18.54    0.73
   4   9  11   18.57    0.81
   4   9  11   19.62    0.84
  -5  -9 -11    0.18    0.26
   5   9  11    0.42    0.19
   5   9  11    0.51    0.22
   5   9  11   -0.02    0.25
   0   3 -12    0.47    0.26
   0   3 -12    0.45    0.25
   0  -3  12    0.25    0.21
  -1   3 -12    5.35    0.48
  -1   3 -12    5.07    0.44
   1  -3  12    5.53    0.40
  -2   3 -12    0.10    0.22
  -2   3 -12    0.00    0.23
   2  -3  12    0.25    0.17
  -3   3 -12   11.94    0.57
  -3   3 -12   10.56    0.60
  -3   3 -12   10.88    0.61
   3  -3  12   11.82    0.56
  -4   3 -12    0.29    0.22
   1   2 -12   -0.53    0.24
   1   2 -12    0.00    0.22
  -1  -2  12   -0.10    0.20
  -1  -2  12    0.02    0.17
   0   2 -12    8.41    0.61
   0   2 -12    8.07    0.54
   0  -2  12    7.85    0.48
   0  -2  12    8.31    0.44
  -1   2 -12    0.19    0.23
  -1   2 -12    0.59    0.26
   1  -2  12    0.33    0.19
  -2   2 -12    8.12    0.55
  -2   2 -12    8.42    0.56
   2  -2  12    8.28    0.46
  -3   2 -12    0.16    0.19
  -3   2 -12    0.67    0.24
  -3   2 -12    1.11    0.38
   3  -2  12    0.57    0.21
  -4   2 -12   11.24    0.54
  -4   2 -12    9.79    0.57
   4  -2  12    9.23    0.52
  -5   2 -12    1.02    0.27
  -5   2 -12    1.04    0.26
   5  -2  12    0.62    0.22
   1   1 -12    9.99    0.58
   1   1 -12    9.76    0.64
  -1  -1  12    8.85    0.48
  -1  -1  12    8.99    0.51
   0   1 -12    0.14    0.22
   0   1 -12    0.28    0.24
   0  -1  12    0.45    0.18
   0  -1  12    0.63    0.19
  -1   1 -12    7.60    0.53
  -1   1 -12    6.62    0.49
   1  -1  12    6.47    0.42
   1  -1  12    7.21    0.40
  -2   1 -12    0.49    0.23
  -2   1 -12    0.85    0.25
   2  -1  12    0.84    0.22
  -3   1 -12   10.57    0.59
  -3   1 -12   10.41    0.51
   3  -1  12   10.53    0.52
  -4   1 -12    0.59    0.21
  -4   1 -12    0.60    0.21
   4  -1  12    0.44    0.19
  -5   1 -12   10.37    0.57
  -5   1 -12   11.84    0.59
   5  -1  12   11.14    0.56
   1   0 -12   -0.28    0.21
   1   0 -12    0.11    0.23
  -1   0  12    0.22    0.18
  -1   0  12    0.39    0.21
   0   0 -12   14.49    0.70
   0   0 -12   14.97    0.72
   0   0  12   14.51    0.64
   0   0  12   15.62    0.63
  -1   0 -12    0.50    0.24
  -1   0 -12    0.09    0.19
   1   0  12    0.50    0.18
   1   0  12    0.65    0.19
  -2   0 -12   13.15    0.65
  -2   0 -12   13.14    0.62
   2   0  12   12.00    0.57
   2   0  12   13.17    0.53
  -3   0 -12   -0.32    0.14
  -3   0 -12   -0.09    0.18
   3   0  12   -0.09    0.14
   3   0  12   -0.13    0.16
  -4   0 -12    7.69    0.46
  -4   0 -12    6.92    0.47
   4   0  12    7.46    0.45
  -5   0 -12    0.38    0.18
  -5   0 -12    0.31    0.22
   5   0  12    0.31    0.20
  -6   0 -12    8.39    0.54
  -6   0 -12    9.71    0.52
   6   0  12    9.90    0.53
  -2   1  12   -0.15    0.20
   1  -1 -12   15.58    0.78
   1  -1 -12   14.93    0.71
  -1   1  12   15.15    0.64
  -1   1  12   13.37    0.62
  -1   1  12   14.71    0.64
   0  -1 -12    0.63    0.24
   0  -1 -12    0.27    0.23
   0   1  12    0.41    0.19
   0   1  12    0.36    0.19
   0   1  12    0.51    0.20
  -1  -1 -12   16.63    0.72
  -1  -1 -12   16.30    0.73
   1   1  12   16.29    0.63
   1   1  12   15.54    0.64
  -2  -1 -12    0.18    0.19
   2   1  12    0.25    0.17
   2   1  12    0.07    0.17
  -3  -1 -12   13.14    0.63
  -3  -1 -12   13.22    0.54
   3   1  12   12.12    0.56
   3   1  12   13.27    0.55
  -4  -1 -12    0.22    0.18
  -4  -1 -12    0.29    0.17
   4   1  12   -0.01    0.15
   4   1  12    0.08    0.18
  -5  -1 -12    8.17    0.48
  -5  -1 -12    8.12    0.48
   5   1  12    8.51    0.47
   5   1  12    7.96    0.44
  -6  -1 -12   -0.09    0.19
  -6  -1 -12    0.04    0.17
   6   1  12    0.16    0.19
   1  -2 -12    0.11    0.23
   1  -2 -12    0.44    0.26
  -1   2  12    0.07    0.19
  -1   2  12    0.04    0.19
  -1   2  12    0.12    0.20
   0  -2 -12   15.15    0.71
   0  -2 -12   14.33    0.71
   0   2  12   14.55    0.62
   0   2  12   14.46    0.60
   0   2  12   15.24    0.65
  -1  -2 -12    0.08    0.21
  -1  -2 -12    0.24    0.19
   1   2  12    0.07    0.16
   1   2  12    0.12    0.18
   1   2  12    0.35    0.18
  -2  -2 -12   29.32    1.02
  -2  -2 -12   28.41    0.88
   2   2  12   28.49    0.97
   2   2  12   27.96    0.94
   2   2  12   28.54    0.90
  -3  -2 -12    0.12    0.19
  -3  -2 -12    0.27    0.17
   3   2  12    0.08    0.15
   3   2  12    0.14    0.18
  -4  -2 -12   12.50    0.57
  -4  -2 -12   13.06    0.61
   4   2  12   12.07    0.56
   4   2  12   12.95    0.55
  -5  -2 -12    0.60    0.20
  -5  -2 -12    0.19    0.20
   5   2  12    0.82    0.22
   5   2  12    0.69    0.20
  -6  -2 -12    6.78    0.43
  -6  -2 -12    7.63    0.51
   6   2  12    6.54    0.43
   6   2  12    7.07    0.44
   1  -3 -12   14.54    0.72
   1  -3 -12   14.96    0.76
  -1   3  12   14.27    0.66
  -1   3  12   15.79    0.68
  -1   3  12   14.66    0.66
   0  -3 -12   -0.22    0.22
   0  -3 -12   -0.04    0.21
   0   3  12    0.09    0.18
   0   3  12    0.09    0.16
   0   3  12   -0.19    0.18
  -1  -3 -12   12.80    0.64
   1   3  12   12.79    0.59
   1   3  12   13.05    0.57
   1   3  12   12.85    0.57
  -2  -3 -12    0.97    0.23
  -2  -3 -12    0.52    0.16
   2   3  12    0.59    0.18
   2   3  12    0.58    0.18
   2   3  12    0.35    0.19
  -3  -3 -12   25.21    0.82
  -3  -3 -12   23.20    0.88
   3   3  12   24.76    0.86
   3   3  12   23.66    0.86
   3   3  12   24.78    0.81
  -4  -3 -12   -0.04    0.16
  -4  -3 -12    0.18    0.17
   4   3  12    0.23    0.17
   4   3  12    0.10    0.18
   4   3  12    0.07    0.18
  -5  -3 -12   16.48    0.67
  -5  -3 -12   15.05    0.64
   5   3  12   15.20    0.64
   5   3  12   14.45    0.62
  -6  -3 -12    0.03    0.22
   6   3  12    0.11    0.18
   6   3  12    0.04    0.16
  -7  -3 -12    4.40    0.42
   7   3  12    4.48    0.37
   1  -4 -12    1.29    0.32
   1  -4 -12    0.87    0.26
  -1   4  12    1.22    0.27
  -1   4  12    0.97    0.24
  -1   4  12    1.20    0.25
   0  -4 -12    7.96    0.53
   0  -4 -12    8.28    0.55
   0   4  12    9.06    0.51
   0   4  12    7.51    0.46
   0   4  12    7.06    0.46
  -1  -4 -12    0.66    0.25
   1   4  12    0.92    0.22
   1   4  12    0.98    0.23
   1   4  12    0.60    0.21
  -2  -4 -12   18.41    0.77
  -2  -4 -12   19.05    0.68
   2   4  12   19.28    0.70
   2   4  12   17.38    0.71
   2   4  12   18.46    0.72
  -3  -4 -12    0.51    0.21
  -3  -4 -12    0.19    0.16
   3   4  12    0.28    0.18
   3   4  12    0.40    0.18
   3   4  12    0.33    0.18
  -4  -4 -12   17.56    0.73
  -4  -4 -12   19.07    0.72
   4   4  12   18.82    0.73
   4   4  12   19.81    0.71
   4   4  12   18.21    0.71
  -5  -4 -12   -0.15    0.15
  -5  -4 -12    0.08    0.21
   5   4  12    0.08    0.18
   5   4  12   -0.01    0.15
   5   4  12   -0.07    0.18
  -6  -4 -12    8.50    0.53
   6   4  12    7.88    0.45
   6   4  12    7.33    0.44
   6   4  12    7.54    0.46
  -7  -4 -12    0.84    0.29
   7   4  12    1.15    0.25
  -1   5  12   10.82    0.59
   0  -5 -12    1.69    0.32
   0  -5 -12    0.80    0.26
   0   5  12    1.09    0.23
   0   5  12    1.61    0.28
   0   5  12    1.40    0.27
  -1  -5 -12   10.80    0.61
   1   5  12   12.19    0.55
   1   5  12   13.15    0.59
   1   5  12   11.60    0.58
  -2  -5 -12    0.11    0.18
  -2  -5 -12    0.00    0.20
   2   5  12    0.03    0.17
   2   5  12   -0.19    0.17
   2   5  12   -0.08    0.17
  -3  -5 -12   10.49    0.53
  -3  -5 -12    9.57    0.49
   3   5  12   10.00    0.51
   3   5  12   10.62    0.51
   3   5  12    8.77    0.50
  -4  -5 -12   -0.15    0.16
  -4  -5 -12    0.18    0.19
   4   5  12   -0.19    0.16
   4   5  12    0.06    0.18
   4   5  12    0.08    0.18
  -5  -5 -12   12.22    0.60
   5   5  12   11.97    0.57
   5   5  12   12.92    0.58
   5   5  12   12.48    0.59
  -6  -5 -12   -0.45    0.20
   6   5  12   -0.05    0.15
   6   5  12    0.07    0.19
   6   5  12   -0.05    0.20
   0  -6 -12   10.84    0.64
   0   6  12   11.14    0.60
   0   6  12   12.58    0.64
   0   6  12   13.05    0.61
  -1  -6 -12    0.02    0.22
   1   6  12   -0.10    0.20
   1   6  12   -0.03    0.20
   1   6  12   -0.11    0.16
  -2  -6 -12   17.21    0.67
  -2  -6 -12   17.33    0.75
   2   6  12   17.83    0.73
   2   6  12   15.57    0.67
   2   6  12   16.92    0.72
  -3  -6 -12    0.32    0.20
  -3  -6 -12    0.18    0.19
   3   6  12    0.45    0.22
   3   6  12    0.13    0.19
   3   6  12    1.00    0.22
  -4  -6 -12    9.13    0.52
  -4  -6 -12    9.28    0.51
   4   6  12    8.61    0.52
   4   6  12    9.16    0.52
   4   6  12    9.61    0.50
  -5  -6 -12    0.24    0.22
   5   6  12    0.24    0.18
   5   6  12   -0.18    0.20
   5   6  12    0.14    0.20
  -6  -6 -12    8.06    0.54
   6   6  12    7.10    0.45
   6   6  12    6.34    0.47
   6   6  12    7.18    0.50
  -1  -7 -12   21.94    0.90
   1   7  12   23.46    0.90
   1   7  12   22.40    0.83
   1   7  12   21.75    0.87
  -2  -7 -12    0.89    0.23
  -2  -7 -12    1.54    0.29
   2   7  12    1.53    0.29
   2   7  12    1.35    0.24
   2   7  12    0.96    0.27
  -3  -7 -12   13.31    0.63
  -3  -7 -12   14.32    0.65
   3   7  12   12.05    0.62
   3   7  12   14.85    0.63
   3   7  12   14.82    0.67
  -4  -7 -12    0.50    0.24
   4   7  12    0.54    0.23
   4   7  12    0.78    0.26
   4   7  12    0.42    0.18
  -5  -7 -12    9.76    0.58
   5   7  12    9.04    0.49
   5   7  12    9.22    0.54
   5   7  12    9.51    0.57
  -6  -7 -12   -0.30    0.23
   6   7  12    0.17    0.19
  -2  -8 -12   18.89    0.77
   2   8  12   17.02    0.77
  -3  -8 -12    0.20    0.21
  -3  -8 -12   -0.04    0.22
   3   8  12    0.29    0.25
   3   8  12    0.03    0.18
   3   8  12   -0.16    0.20
  -4  -8 -12   14.94    0.71
   4   8  12   15.18    0.66
   4   8  12   15.64    0.73
   4   8  12   14.31    0.70
  -1   1 -13   -0.15    0.25
  -1   1 -13   -0.25    0.22
   1  -1  13    0.01    0.16
   1  -1  13    0.02    0.18
  -2   1 -13    4.55    0.44
   2  -1  13    3.65    0.33
  -3   1 -13    0.00    0.19
  -3   1 -13    0.35    0.23
   3  -1  13    0.05    0.20
  -4   1 -13    7.77    0.49
   0   0  13    0.00    0.19
   0   0  13    0.21    0.19
  -1   0 -13    7.46    0.53
  -1   0 -13    5.81    0.49
   1   0  13    5.81    0.41
   1   0  13    6.07    0.43
  -2   0 -13    0.35    0.23
   2   0  13    0.42    0.21
   2   0  13    0.29    0.17
  -3   0 -13    7.49    0.45
  -3   0 -13    7.45    0.53
   3   0  13    7.12    0.44
   3   0  13    7.87    0.48
  -4   0 -13    0.14    0.21
  -4   0 -13   -0.19    0.17
   4   0  13    0.10    0.18
  -5   0 -13    7.29    0.50
   0  -1 -13   14.07    0.73
   0  -1 -13   12.38    0.69
   0   1  13   14.35    0.65
   0   1  13   13.07    0.61
  -1  -1 -13    0.27    0.24
  -1  -1 -13    0.23    0.23
   1   1  13   -0.03    0.17
   1   1  13    0.31    0.18
  -2  -1 -13   10.16    0.60
   2   1  13   11.27    0.54
   2   1  13   10.78    0.51
  -3  -1 -13    0.13    0.18
  -3  -1 -13   -0.05    0.19
   3   1  13    0.20    0.20
   3   1  13    0.15    0.17
  -4  -1 -13    7.04    0.44
  -4  -1 -13    7.25    0.50
   4   1  13    6.21    0.45
   4   1  13    6.74    0.43
  -5  -1 -13    0.02    0.20
  -5  -1 -13    0.45    0.22
   5   1  13    0.24    0.27
   5   1  13    0.19    0.19
   0  -2 -13    0.03    0.23
   0  -2 -13   -0.07    0.24
   0   2  13   -0.40    0.18
   0   2  13   -0.26    0.18
   0   2  13    0.20    0.21
  -1  -2 -13   13.26    0.69
   1   2  13   13.74    0.59
   1   2  13   13.79    0.63
   1   2  13   13.88    0.62
  -2  -2 -13    0.15    0.23
   2   2  13   -0.22    0.15
   2   2  13    0.27    0.19
  -3  -2 -13   13.69    0.67
  -3  -2 -13   14.60    0.60
   3   2  13   13.69    0.63
   3   2  13   13.74    0.60
  -4  -2 -13    0.34    0.22
  -4  -2 -13    0.27    0.19
   4   2  13    0.72    0.21
   4   2  13    0.27    0.20
  -5  -2 -13    7.49    0.48
  -5  -2 -13    7.13    0.48
   5   2  13    7.07    0.44
   5   2  13    6.41    0.43
   0  -3 -13    8.40    0.58
   0  -3 -13    8.66    0.58
   0   3  13    9.31    0.52
   0   3  13    9.16    0.52
   0   3  13    9.20    0.53
  -1  -3 -13    0.06    0.21
   1   3  13    0.04    0.18
   1   3  13    0.09    0.20
   1   3  13    0.12    0.18
  -2  -3 -13   17.54    0.76
   2   3  13   16.18    0.68
   2   3  13   14.76    0.68
   2   3  13   16.85    0.65
  -3  -3 -13    0.38    0.22
  -3  -3 -13    0.09    0.18
   3   3  13    0.25    0.18
   3   3  13    0.14    0.18
   3   3  13    0.20    0.18
  -4  -3 -13    9.54    0.50
  -4  -3 -13    8.51    0.52
   4   3  13    8.24    0.49
   4   3  13    9.13    0.51
  -5  -3 -13    1.70    0.29
  -5  -3 -13    1.22    0.24
   5   3  13    2.09    0.29
   5   3  13    1.73    0.26
  -1  -4 -13    6.02    0.50
   1   4  13    5.55    0.43
   1   4  13    7.00    0.47
   1   4  13    7.54    0.47
  -2  -4 -13   -0.01    0.21
   2   4  13   -0.16    0.18
   2   4  13    0.07    0.17
   2   4  13    0.08    0.18
  -3  -4 -13   11.34    0.59
  -3  -4 -13   11.11    0.53
   3   4  13   10.68    0.53
   3   4  13   11.09    0.56
   3   4  13   10.16    0.53
  -4  -4 -13   -0.04    0.18
  -4  -4 -13    0.11    0.18
   4   4  13    0.12    0.19
   4   4  13   -0.09    0.17
   4   4  13    0.09    0.20
  -5  -4 -13    8.18    0.49
  -5  -4 -13    8.46    0.51
   5   4  13    8.37    0.47
   5   4  13    7.13    0.45
   5   4  13    8.02    0.49
  -1  -5 -13   -0.12    0.23
   1   5  13   -0.03    0.20
   1   5  13    0.06    0.20
   1   5  13   -0.22    0.20
  -2  -5 -13    9.31    0.58
   2   5  13    7.97    0.51
   2   5  13    8.84    0.53
   2   5  13    9.25    0.52
  -3  -5 -13    0.31    0.21
  -3  -5 -13    0.53    0.21
   3   5  13    0.59    0.22
   3   5  13    0.55    0.23
   3   5  13    0.46    0.19
  -4  -5 -13    8.93    0.52
  -4  -5 -13    9.71    0.52
   4   5  13    9.11    0.52
   4   5  13    9.11    0.51
   4   5  13    7.99    0.50
  -5  -5 -13   -0.20    0.20
   5   5  13    0.25    0.18
   5   5  13    0.03    0.21
   5   5  13    0.07    0.21
  -2  -6 -13   -0.22    0.19
  -2  -6 -13    0.37    0.25
   2   6  13    0.30    0.21
   2   6  13    0.38    0.24
   2   6  13    0.02    0.20
  -3  -6 -13    9.82    0.53
  -3  -6 -13    9.93    0.55
   3   6  13    8.83    0.55
   3   6  13    8.98    0.54
   3   6  13    9.93    0.54
  -4  -6 -13    0.18    0.22
  -4  -6 -13    0.23    0.21
   4   6  13   -0.03    0.16
   4   6  13    0.04    0.21
   4   6  13    0.40    0.23
   0   0   0    0.00    0.00
;
_shelx_hkl_checksum              96860
loop_
_space_group_symop_operation_xyz
'x, y, z'
'-x, -y, -z'
loop_
_atom_site_label
_atom_site_type_symbol
_atom_site_fract_x
_atom_site_fract_y
_atom_site_fract_z
_atom_site_U_iso_or_equiv
_atom_site_adp_type
_atom_site_occupancy
_atom_site_site_symmetry_order
_atom_site_calc_flag
_atom_site_refinement_flags_posn
_atom_site_refinement_flags_adp
_atom_site_refinement_flags_occupancy
U1 U 0.0000 0.0000 1.0000 0.04334(6) Uani 1 2 d S . P
Cl1 Cl 0.33014(14) 0.03210(12) 0.84109(11) 0.0751(3) Uani 1 1 d . . .
Cl2 Cl -0.16719(14) 0.16848(10) 0.83811(9) 0.0642(2) Uani 1 1 d . . .
O1 O -0.0013(3) 0.1376(2) 1.0711(2) 0.0590(6) Uani 1 1 d . . .
U2 U 0.5000 0.5000 0.5000 0.04351(6) Uani 1 2 d S . P
Cl3 Cl 0.83146(14) 0.55341(11) 0.35727(10) 0.0674(3) Uani 1 1 d . . .
Cl4 Cl 0.54849(15) 0.30170(10) 0.36764(10) 0.0674(3) Uani 1 1 d . . .
O2 O 0.3917(4) 0.6144(3) 0.3944(2) 0.0646(7) Uani 1 1 d . . .
N1 N 0.3253(6) 0.3526(6) -0.0835(4) 0.0939(14) Uani 1 1 d . . .
HN1 H 0.3333 0.3220 -0.1504 0.113 Uiso 1 1 d R U .
C1 C 0.2407(7) 0.4842(6) -0.0703(5) 0.0793(13) Uani 1 1 d . . .
H1 H 0.1939 0.5412 -0.1333 0.095 Uiso 1 1 calc R U .
C2 C 0.2268(6) 0.5296(4) 0.0381(5) 0.0734(12) Uani 1 1 d . . .
H2 H 0.1682 0.6180 0.0505 0.088 Uiso 1 1 calc R U .
C3 C 0.2992(6) 0.4447(6) 0.1270(4) 0.0733(13) Uani 1 1 d . . .
H3 H 0.2915 0.4743 0.2009 0.088 Uiso 1 1 calc R U .
C4 C 0.3837(6) 0.3151(5) 0.1071(4) 0.0696(11) Uani 1 1 d . . .
H4 H 0.4346 0.2564 0.1675 0.083 Uiso 1 1 calc R U .
C5 C 0.3935(6) 0.2731(4) 0.0032(5) 0.0671(11) Uani 1 1 d . . .
H5 H 0.4506 0.1843 -0.0086 0.081 Uiso 1 1 calc R U .
N2 N 0.1543(5) 0.1518(4) 0.5633(3) 0.0630(9) Uani 1 1 d . . .
HN2 H 0.1496 0.1763 0.6324 0.076 Uiso 1 1 d R U .
C6 C 0.0627(5) 0.2342(4) 0.4878(4) 0.0624(10) Uani 1 1 d . . .
H6 H -0.0055 0.3179 0.5094 0.075 Uiso 1 1 calc R U .
C7 C 0.0670(6) 0.1979(5) 0.3791(4) 0.0681(11) Uani 1 1 d . . .
H7 H 0.0009 0.2560 0.3264 0.082 Uiso 1 1 calc R U .
C8 C 0.1697(6) 0.0746(5) 0.3467(4) 0.0659(11) Uani 1 1 d . . .
H8 H 0.1749 0.0486 0.2717 0.079 Uiso 1 1 calc R U .
C9 C 0.2632(6) -0.0083(4) 0.4265(4) 0.0643(11) Uani 1 1 d . . .
H9 H 0.3334 -0.0922 0.4068 0.077 Uiso 1 1 calc R U .
C10 C 0.2535(5) 0.0324(4) 0.5357(4) 0.0603(9) Uani 1 1 d . . .
H10 H 0.3167 -0.0241 0.5909 0.072 Uiso 1 1 calc R U .
loop_
_atom_site_aniso_label
_atom_site_aniso_U_11
_atom_site_aniso_U_22
_atom_site_aniso_U_33
_atom_site_aniso_U_23
_atom_site_aniso_U_13
_atom_site_aniso_U_12
U1 0.04834(10) 0.04026(10) 0.04114(10) -0.01817(7) -0.00429(7) -0.00773(7)
Cl1 0.0614(6) 0.0827(7) 0.0735(7) -0.0307(6) 0.0129(5) -0.0230(5)
Cl2 0.0702(6) 0.0643(6) 0.0525(5) -0.0158(4) -0.0156(4) 0.0019(5)
O1 0.0697(16) 0.0499(14) 0.0607(15) -0.0296(12) -0.0098(12) -0.0096(12)
U2 0.05108(11) 0.03890(10) 0.04170(10) -0.00669(7) -0.01712(7) -0.00436(7)
Cl3 0.0657(6) 0.0698(6) 0.0701(6) -0.0249(5) -0.0049(5) -0.0238(5)
Cl4 0.0854(7) 0.0559(5) 0.0684(6) -0.0234(5) -0.0235(5) -0.0116(5)
O2 0.0739(17) 0.0582(16) 0.0614(15) 0.0007(12) -0.0354(13) 0.0015(13)
N1 0.094(3) 0.128(4) 0.073(3) -0.046(3) -0.006(2) -0.041(3)
C1 0.074(3) 0.093(4) 0.074(3) 0.011(3) -0.032(2) -0.024(3)
C2 0.062(2) 0.051(2) 0.103(4) -0.021(2) -0.015(2) -0.0055(19)
C3 0.068(3) 0.103(4) 0.054(2) -0.026(2) -0.001(2) -0.034(3)
C4 0.064(2) 0.071(3) 0.068(3) 0.008(2) -0.018(2) -0.017(2)
C5 0.068(3) 0.055(2) 0.074(3) -0.016(2) -0.011(2) -0.0082(19)
N2 0.067(2) 0.070(2) 0.0562(19) -0.0211(17) -0.0089(16) -0.0208(17)
C6 0.056(2) 0.047(2) 0.081(3) -0.021(2) -0.007(2) -0.0079(17)
C7 0.066(2) 0.066(3) 0.075(3) 0.005(2) -0.030(2) -0.017(2)
C8 0.077(3) 0.081(3) 0.049(2) -0.019(2) -0.0051(19) -0.037(2)
C9 0.058(2) 0.047(2) 0.077(3) -0.019(2) 0.004(2) -0.0120(17)
C10 0.057(2) 0.058(2) 0.063(2) -0.0006(19) -0.0159(18) -0.0128(18)
loop_
_atom_type_symbol
_atom_type_description
_atom_type_scat_dispersion_real
_atom_type_scat_dispersion_imag
_atom_type_scat_source
C C 0.0033 0.0016 'International Tables Vol C Tables 4.2.6.8 and 6.1.1.4'
H H 0.0000 0.0000 'International Tables Vol C Tables 4.2.6.8 and 6.1.1.4'
Cl Cl 0.1484 0.1585 'International Tables Vol C Tables 4.2.6.8 and 6.1.1.4'
N N 0.0061 0.0033 'International Tables Vol C Tables 4.2.6.8 and 6.1.1.4'
O O 0.0106 0.0060 'International Tables Vol C Tables 4.2.6.8 and 6.1.1.4'
U U -9.6767 9.6646 'International Tables Vol C Tables 4.2.6.8 and 6.1.1.4'
loop_
_geom_angle_atom_site_label_1
_geom_angle_atom_site_label_2
_geom_angle_atom_site_label_3
_geom_angle
_geom_angle_site_symmetry_1
_geom_angle_site_symmetry_3
O1 U1 O1 180.0 2_557 .
O1 U1 Cl2 90.29(11) 2_557 2_557
O1 U1 Cl2 89.71(11) . 2_557
O1 U1 Cl2 89.71(11) 2_557 .
O1 U1 Cl2 90.29(11) . .
Cl2 U1 Cl2 180.0 2_557 .
O1 U1 Cl1 90.61(9) 2_557 .
O1 U1 Cl1 89.39(9) . .
Cl2 U1 Cl1 90.71(7) 2_557 .
Cl2 U1 Cl1 89.29(7) . .
O1 U1 Cl1 89.39(9) 2_557 2_557
O1 U1 Cl1 90.61(9) . 2_557
Cl2 U1 Cl1 89.29(7) 2_557 2_557
Cl2 U1 Cl1 90.71(7) . 2_557
Cl1 U1 Cl1 180.0 . 2_557
O2 U2 O2 180.0 . 2_666
O2 U2 Cl4 89.94(11) . 2_666
O2 U2 Cl4 90.06(11) 2_666 2_666
O2 U2 Cl4 90.06(11) . .
O2 U2 Cl4 89.94(11) 2_666 .
Cl4 U2 Cl4 180.0 2_666 .
O2 U2 Cl3 90.31(11) . 2_666
O2 U2 Cl3 89.69(11) 2_666 2_666
Cl4 U2 Cl3 88.67(5) 2_666 2_666
Cl4 U2 Cl3 91.33(5) . 2_666
O2 U2 Cl3 89.69(11) . .
O2 U2 Cl3 90.31(11) 2_666 .
Cl4 U2 Cl3 91.33(5) 2_666 .
Cl4 U2 Cl3 88.67(5) . .
Cl3 U2 Cl3 180.0 2_666 .
C5 N1 C1 121.2(4) . .
C5 N1 HN1 119.4 . .
C1 N1 HN1 119.4 . .
C2 C1 N1 118.2(4) . .
C2 C1 H1 120.9 . .
N1 C1 H1 120.9 . .
C3 C2 C1 119.4(4) . .
C3 C2 H2 120.3 . .
C1 C2 H2 120.3 . .
C2 C3 C4 119.3(4) . .
C2 C3 H3 120.4 . .
C4 C3 H3 120.4 . .
C5 C4 C3 120.3(4) . .
C5 C4 H4 119.8 . .
C3 C4 H4 119.8 . .
N1 C5 C4 121.5(4) . .
N1 C5 H5 119.2 . .
C4 C5 H5 119.2 . .
C6 N2 C10 121.7(4) . .
C6 N2 HN2 119.1 . .
C10 N2 HN2 119.2 . .
N2 C6 C7 120.3(4) . .
N2 C6 H6 119.9 . .
C7 C6 H6 119.9 . .
C6 C7 C8 119.8(4) . .
C6 C7 H7 120.1 . .
C8 C7 H7 120.1 . .
C9 C8 C7 118.6(4) . .
C9 C8 H8 120.7 . .
C7 C8 H8 120.7 . .
C8 C9 C10 119.5(4) . .
C8 C9 H9 120.2 . .
C10 C9 H9 120.2 . .
N2 C10 C9 120.1(4) . .
N2 C10 H10 119.9 . .
C9 C10 H10 119.9 . .
loop_
_geom_bond_atom_site_label_1
_geom_bond_atom_site_label_2
_geom_bond_distance
_geom_bond_site_symmetry_2
U1 O1 1.767(3) 2_557
U1 O1 1.767(3) .
U1 Cl2 2.6599(18) 2_557
U1 Cl2 2.6599(18) .
U1 Cl1 2.690(2) .
U1 Cl1 2.690(2) 2_557
U2 O2 1.751(3) .
U2 O2 1.751(3) 2_666
U2 Cl4 2.668(2) 2_666
U2 Cl4 2.668(2) .
U2 Cl3 2.700(2) 2_666
U2 Cl3 2.700(2) .
N1 C5 1.299(7) .
N1 C1 1.369(7) .
N1 HN1 0.8602 .
C1 C2 1.370(7) .
C1 H1 0.9300 .
C2 C3 1.354(7) .
C2 H2 0.9300 .
C3 C4 1.365(7) .
C3 H3 0.9300 .
C4 C5 1.313(7) .
C4 H4 0.9300 .
C5 H5 0.9300 .
N2 C6 1.315(6) .
N2 C10 1.321(5) .
N2 HN2 0.8599 .
C6 C7 1.349(6) .
C6 H6 0.9300 .
C7 C8 1.377(7) .
C7 H7 0.9300 .
C8 C9 1.359(7) .
C8 H8 0.9300 .
C9 C10 1.363(6) .
C9 H9 0.9300 .
C10 H10 0.9300 .
loop_
_geom_hbond_atom_site_label_D
_geom_hbond_atom_site_label_H
_geom_hbond_atom_site_label_A
_geom_hbond_distance_DH
_geom_hbond_distance_HA
_geom_hbond_distance_DA
_geom_hbond_angle_DHA
_geom_hbond_site_symmetry_A
N1 HN1 Cl3 0.86 2.92 3.539(6) 130.1 2_665
C1 H1 Cl3 0.93 2.98 3.577(6) 123.5 2_665
C2 H2 Cl2 0.93 2.75 3.546(5) 143.8 2_566
C4 H4 Cl4 0.93 2.83 3.524(5) 132.2 .
C5 H5 Cl2 0.93 2.92 3.367(5) 111.0 1_654
N2 HN2 Cl2 0.86 2.83 3.347(4) 120.7 .
N2 HN2 Cl3 0.86 2.86 3.380(4) 121.0 2_666
C6 H6 Cl3 0.93 2.92 3.591(5) 130.0 1_455
C6 H6 Cl3 0.93 2.97 3.452(5) 113.8 2_666
C10 H10 Cl4 0.93 2.79 3.501(5) 134.4 2_656
loop_
_geom_torsion_atom_site_label_1
_geom_torsion_atom_site_label_2
_geom_torsion_atom_site_label_3
_geom_torsion_atom_site_label_4
_geom_torsion
C5 N1 C1 C2 -1.1(7)
N1 C1 C2 C3 1.1(7)
C1 C2 C3 C4 -0.4(6)
C2 C3 C4 C5 -0.5(7)
C1 N1 C5 C4 0.3(7)
C3 C4 C5 N1 0.5(7)
C10 N2 C6 C7 0.4(6)
N2 C6 C7 C8 -0.8(6)
C6 C7 C8 C9 0.6(6)
C7 C8 C9 C10 -0.1(6)
C6 N2 C10 C9 0.2(6)
C8 C9 C10 N2 -0.3(6)
