#------------------------------------------------------------------------------
#$Date: 2017-09-17 01:57:54 +0300 (Sun, 17 Sep 2017) $
#$Revision: 200962 $
#$URL: file:///home/coder/svn-repositories/cod/cif/4/12/64/4126415.cif $
#------------------------------------------------------------------------------
#
# This file is available in the Crystallography Open Database (COD),
# http://www.crystallography.net/
#
# All data on this site have been placed in the public domain by the
# contributors.
#
data_4126415
loop_
_publ_author_name
'Zhou, Pengfei'
'Lin, Lili'
'Chen, Long'
'Zhong, Xia'
'Liu, Xiaohua'
'Feng, Xiaoming'
_publ_section_title
;
 Iron-Catalyzed Asymmetric Haloazidation of \a,\b-Unsaturated Ketones:
 Construction of Organic Azides with Two Vicinal Stereocenters.
;
_journal_name_full               'Journal of the American Chemical Society'
_journal_paper_doi               10.1021/jacs.7b06029
_journal_year                    2017
_chemical_absolute_configuration ad
_chemical_formula_moiety         'C15 H12 Br N3 O'
_chemical_formula_sum            'C15 H12 Br N3 O'
_chemical_formula_weight         330.19
_space_group_crystal_system      monoclinic
_space_group_IT_number           4
_space_group_name_Hall           'P 2yb'
_space_group_name_H-M_alt        'P 1 21 1'
_symmetry_space_group_name_Hall  'P 2yb'
_symmetry_space_group_name_H-M   'P 1 21 1'
_atom_sites_solution_hydrogens   geom
_atom_sites_solution_primary     direct
_audit_creation_date             2016-11-16
_audit_creation_method
;
Olex2 1.2
(compiled 2016.11.07 svn.r3352 for OlexSys, GUI svn.r5261)
;
_cell_angle_alpha                90
_cell_angle_beta                 90.354(3)
_cell_angle_gamma                90
_cell_formula_units_Z            2
_cell_length_a                   7.4448(2)
_cell_length_b                   5.7199(2)
_cell_length_c                   16.4982(7)
_cell_measurement_reflns_used    2322
_cell_measurement_temperature    293.5(2)
_cell_measurement_theta_max      71.5520
_cell_measurement_theta_min      5.3670
_cell_volume                     702.54(4)
_computing_cell_refinement
;
CrysAlisPro, Agilent Technologies,
Version 1.171.37.35 (release 13-08-2014 CrysAlis171 .NET)
(compiled Aug 13 2014,18:06:01)
;
_computing_data_collection
;
CrysAlisPro, Agilent Technologies,
Version 1.171.37.35 (release 13-08-2014 CrysAlis171 .NET)
(compiled Aug 13 2014,18:06:01)
;
_computing_data_reduction
;
CrysAlisPro, Agilent Technologies,
Version 1.171.37.35 (release 13-08-2014 CrysAlis171 .NET)
(compiled Aug 13 2014,18:06:01)
;
_computing_molecular_graphics    'Olex2 (Dolomanov et al., 2009)'
_computing_publication_material  'Olex2 (Dolomanov et al., 2009)'
_computing_structure_refinement  'ShelXL (Sheldrick, 2015)'
_computing_structure_solution    'ShelXS (Sheldrick, 2008)'
_diffrn_ambient_environment      air
_diffrn_ambient_temperature      293.5(2)
_diffrn_detector                 'CCD plate'
_diffrn_detector_area_resol_mean 15.9595
_diffrn_detector_type            EosS2
_diffrn_measured_fraction_theta_full 0.999
_diffrn_measured_fraction_theta_max 0.984
_diffrn_measurement_details
;
#__ type_ start__ end____ width___ exp.time_
  1 omega    1.00   75.00   1.0000    1.0000
omega____ theta____ kappa____ phi______ frames
    -       36.1671  -99.0000   90.0000 74

#__ type_ start__ end____ width___ exp.time_
  2 omega  -31.00   53.00   1.0000    1.0000
omega____ theta____ kappa____ phi______ frames
    -       36.1671  -57.0000   60.0000 84

#__ type_ start__ end____ width___ exp.time_
  3 omega  -31.00   53.00   1.0000    1.0000
omega____ theta____ kappa____ phi______ frames
    -       36.1671  -57.0000    0.0000 84

#__ type_ start__ end____ width___ exp.time_
  4 omega    9.00  104.00   1.0000    1.0000
omega____ theta____ kappa____ phi______ frames
    -       36.1671   77.0000  -90.0000 95

#__ type_ start__ end____ width___ exp.time_
  5 omega  -35.00   66.00   1.0000    1.0000
omega____ theta____ kappa____ phi______ frames
    -       36.1671  -19.0000  150.0000 101

#__ type_ start__ end____ width___ exp.time_
  6 omega  -31.00   63.00   1.0000    1.0000
omega____ theta____ kappa____ phi______ frames
    -       36.1671  -77.0000  150.0000 94

#__ type_ start__ end____ width___ exp.time_
  7 omega    1.00   75.00   1.0000    1.0000
omega____ theta____ kappa____ phi______ frames
    -       36.1671  -99.0000  -30.0000 74

#__ type_ start__ end____ width___ exp.time_
  8 omega   38.00   91.00   1.0000    1.1100
omega____ theta____ kappa____ phi______ frames
    -      108.0000  -30.0000  -30.0000 53

#__ type_ start__ end____ width___ exp.time_
  9 omega   87.00  178.00   1.0000    1.1100
omega____ theta____ kappa____ phi______ frames
    -      108.0000   30.0000 -120.0000 91

#__ type_ start__ end____ width___ exp.time_
 10 omega   39.00  109.00   1.0000    1.1100
omega____ theta____ kappa____ phi______ frames
    -      108.0000  -94.0000 -120.0000 70

#__ type_ start__ end____ width___ exp.time_
 11 omega   38.00   91.00   1.0000    1.1100
omega____ theta____ kappa____ phi______ frames
    -      108.0000  -30.0000 -180.0000 53

#__ type_ start__ end____ width___ exp.time_
 12 omega   39.00  109.00   1.0000    1.1100
omega____ theta____ kappa____ phi______ frames
    -      108.0000  -94.0000  150.0000 70

#__ type_ start__ end____ width___ exp.time_
 13 omega   38.00   91.00   1.0000    1.1100
omega____ theta____ kappa____ phi______ frames
    -      108.0000  -30.0000   30.0000 53

#__ type_ start__ end____ width___ exp.time_
 14 omega   39.00  109.00   1.0000    1.1100
omega____ theta____ kappa____ phi______ frames
    -      108.0000  -94.0000  -30.0000 70

#__ type_ start__ end____ width___ exp.time_
 15 omega   38.00   91.00   1.0000    1.1100
omega____ theta____ kappa____ phi______ frames
    -      108.0000  -30.0000  120.0000 53

#__ type_ start__ end____ width___ exp.time_
 16 omega   40.00   98.00   1.0000    1.1100
omega____ theta____ kappa____ phi______ frames
    -      108.0000  -45.0000 -120.0000 58

#__ type_ start__ end____ width___ exp.time_
 17 omega   40.00   98.00   1.0000    1.1100
omega____ theta____ kappa____ phi______ frames
    -      108.0000  -45.0000  120.0000 58

#__ type_ start__ end____ width___ exp.time_
 18 omega   38.00   91.00   1.0000    1.1100
omega____ theta____ kappa____ phi______ frames
    -      108.0000  -30.0000   60.0000 53

#__ type_ start__ end____ width___ exp.time_
 19 omega   40.00   98.00   1.0000    1.1100
omega____ theta____ kappa____ phi______ frames
    -      108.0000  -45.0000  -60.0000 58

#__ type_ start__ end____ width___ exp.time_
 20 omega   38.00   91.00   1.0000    1.1100
omega____ theta____ kappa____ phi______ frames
    -      108.0000  -30.0000   90.0000 53

#__ type_ start__ end____ width___ exp.time_
 21 omega   40.00  135.00   1.0000    1.1100
omega____ theta____ kappa____ phi______ frames
    -      108.0000  -77.0000   30.0000 95

#__ type_ start__ end____ width___ exp.time_
 22 omega   37.00  146.00   1.0000    1.1100
omega____ theta____ kappa____ phi______ frames
    -      108.0000  -15.0000 -150.0000 109
;
_diffrn_measurement_device       'four-circle diffractometer'
_diffrn_measurement_device_type  'New Gemini, Dual, Cu at zero, EosS2'
_diffrn_measurement_method       '\w scans'
_diffrn_orient_matrix_UB_11      0.2013093000
_diffrn_orient_matrix_UB_12      0.0249198000
_diffrn_orient_matrix_UB_13      -0.0192968000
_diffrn_orient_matrix_UB_21      0.0463578000
_diffrn_orient_matrix_UB_22      -0.0409283000
_diffrn_orient_matrix_UB_23      0.0899875000
_diffrn_orient_matrix_UB_31      0.0117137000
_diffrn_orient_matrix_UB_32      -0.2650982000
_diffrn_orient_matrix_UB_33      -0.0157368000
_diffrn_radiation_monochromator  graphite
_diffrn_radiation_probe          x-ray
_diffrn_radiation_type           CuK\a
_diffrn_radiation_wavelength     1.54184
_diffrn_reflns_av_R_equivalents  0.0338
_diffrn_reflns_av_unetI/netI     0.0319
_diffrn_reflns_Laue_measured_fraction_full 0.999
_diffrn_reflns_Laue_measured_fraction_max 0.984
_diffrn_reflns_limit_h_max       9
_diffrn_reflns_limit_h_min       -8
_diffrn_reflns_limit_k_max       4
_diffrn_reflns_limit_k_min       -6
_diffrn_reflns_limit_l_max       19
_diffrn_reflns_limit_l_min       -20
_diffrn_reflns_number            5421
_diffrn_reflns_point_group_measured_fraction_full 0.733
_diffrn_reflns_point_group_measured_fraction_max 0.712
_diffrn_reflns_theta_full        67.684
_diffrn_reflns_theta_max         72.294
_diffrn_reflns_theta_min         5.363
_diffrn_source                   'Enhance (Cu) X-ray Source'
_exptl_absorpt_coefficient_mu    3.980
_exptl_absorpt_correction_T_max  1.00000
_exptl_absorpt_correction_T_min  0.39338
_exptl_absorpt_correction_type   multi-scan
_exptl_absorpt_process_details
;
CrysAlisPro, Agilent Technologies,
Version 1.171.37.35 (release 13-08-2014 CrysAlis171 .NET)
(compiled Aug 13 2014,18:06:01)
Empirical absorption correction using spherical harmonics,
 implemented in SCALE3 ABSPACK scaling algorithm.
;
_exptl_crystal_colour            'clear light colourless'
_exptl_crystal_colour_lustre     clear
_exptl_crystal_colour_modifier   light
_exptl_crystal_colour_primary    colourless
_exptl_crystal_density_diffrn    1.561
_exptl_crystal_description       plate
_exptl_crystal_F_000             332
_exptl_crystal_size_max          0.65
_exptl_crystal_size_mid          0.4
_exptl_crystal_size_min          0.3
_refine_diff_density_max         0.805
_refine_diff_density_min         -0.399
_refine_diff_density_rms         0.078
_refine_ls_abs_structure_details
;
 Flack x determined using 433 quotients [(I+)-(I-)]/[(I+)+(I-)]
 (Parsons, Flack and Wagner, Acta Cryst. B69 (2013) 249-259).
;
_refine_ls_abs_structure_Flack   0.05(3)
_refine_ls_extinction_method     none
_refine_ls_goodness_of_fit_ref   1.119
_refine_ls_hydrogen_treatment    constr
_refine_ls_matrix_type           full
_refine_ls_number_parameters     181
_refine_ls_number_reflns         1981
_refine_ls_number_restraints     1
_refine_ls_restrained_S_all      1.119
_refine_ls_R_factor_all          0.0483
_refine_ls_R_factor_gt           0.0470
_refine_ls_shift/su_max          0.000
_refine_ls_shift/su_mean         0.000
_refine_ls_structure_factor_coef Fsqd
_refine_ls_weighting_details
'w=1/[\s^2^(Fo^2^)+(0.0920P)^2^+0.0040P] where P=(Fo^2^+2Fc^2^)/3'
_refine_ls_weighting_scheme      calc
_refine_ls_wR_factor_gt          0.1257
_refine_ls_wR_factor_ref         0.1292
_reflns_Friedel_coverage         0.306
_reflns_Friedel_fraction_full    0.404
_reflns_Friedel_fraction_max     0.373
_reflns_number_gt                1915
_reflns_number_total             1981
_reflns_threshold_expression     'I > 2\s(I)'
_iucr_refine_instructions_details
;

    exp_2791.res created by SHELXL-2014/7

TITL exp_2791 in P21 #4
REM reset to P21 #4
CELL 1.54184 7.444825 5.719906 16.498207 90 90.3542 90
ZERR 2 0.000239 0.000234 0.000669 0 0.0033 0
LATT -1
SYMM -X,0.5+Y,-Z
SFAC C H Br N O
UNIT 30 24 2 6 2
 
L.S. 20
PLAN  20
BOND
fmap 2
acta
REM <olex2.extras>
REM <HklSrc "%.\\exp_2791.hkl">
REM </olex2.extras>
 
WGHT    0.092000    0.004000
FVAR       8.25610
BR1   3    0.517334    0.154600    0.754967    11.00000    0.04644    0.08172 =
         0.06145   -0.01079    0.00027    0.00300
N2    4   -0.091696   -0.158892    0.707249    11.00000    0.04973    0.08181 =
         0.05526   -0.01017    0.00710   -0.00963
N5    4   -0.161009   -0.327674    0.694055    11.00000    0.08644    0.10629 =
         0.10497   -0.03428    0.02476   -0.04066
C9    1    0.152678    0.085912    0.699236    11.00000    0.04377    0.04161 =
         0.05776   -0.00175    0.00048    0.00420
AFIX  13
H9    2    0.154890    0.247676    0.679696    11.00000   -1.20000
AFIX   0
C15   1    0.264901    0.075754    0.776696    11.00000    0.04404    0.04580 =
         0.05201    0.00330    0.01107    0.00609
AFIX  13
H15   2    0.257744   -0.081241    0.800243    11.00000   -1.20000
AFIX   0
C16   1    0.228661   -0.145402    0.487043    11.00000    0.06884    0.08873 =
         0.04447    0.00719   -0.00059   -0.01765
AFIX  43
H16   2    0.201876   -0.100469    0.434159    11.00000   -1.20000
AFIX   0
C17   1    0.356209   -0.418339    0.578380    11.00000    0.07177    0.05103 =
         0.06076   -0.00532    0.01503    0.00028
AFIX  43
H17   2    0.417502   -0.557672    0.587443    11.00000   -1.20000
AFIX   0
C18   1    0.216485   -0.069496    0.630633    11.00000    0.04392    0.04757 =
         0.04695   -0.00094    0.00169   -0.00498
C19   1    0.304568   -0.278165    0.644167    11.00000    0.06501    0.04733 =
         0.04684    0.00285    0.00773    0.00178
AFIX  43
H19   2    0.329792   -0.326106    0.696885    11.00000   -1.20000
AFIX   0
N24   4   -0.037291    0.031408    0.723813    11.00000    0.05569    0.06860 =
         0.09074   -0.01896    0.01725    0.00563
C26   1    0.178610   -0.002770    0.550875    11.00000    0.05301    0.05864 =
         0.05668    0.00729   -0.00709   -0.00614
AFIX  43
H26   2    0.119703    0.137629    0.540630    11.00000   -1.20000
AFIX   0
C0AA  1    0.315930   -0.349061    0.500599    11.00000    0.07004    0.06798 =
         0.05264   -0.00579    0.01394   -0.01371
AFIX  43
H0AA  2    0.348872   -0.442746    0.457084    11.00000   -1.20000
AFIX   0
C1    1    0.269756    0.124798    1.092384    11.00000    0.05998    0.07536 =
         0.04952    0.00717   -0.00162    0.00203
AFIX  43
H1    2    0.284477    0.100023    1.147739    11.00000   -1.20000
AFIX   0
C1AA  1    0.228462    0.200457    0.927014    11.00000    0.03566    0.03957 =
         0.05086    0.00075    0.00352   -0.00008
O1    5    0.152627    0.446774    0.816772    11.00000    0.10399    0.04935 =
         0.05736    0.00504    0.00817    0.02676
C2AA  1    0.207542    0.258781    0.840197    11.00000    0.04748    0.03832 =
         0.05577   -0.00237    0.00515    0.00470
C3    1    0.304745   -0.005109    0.955105    11.00000    0.04895    0.04326 =
         0.05638   -0.00216    0.00148    0.00563
AFIX  43
H3    2    0.341799   -0.118255    0.918341    11.00000   -1.20000
AFIX   0
C4    1    0.192994    0.325618    1.065471    11.00000    0.06474    0.05813 =
         0.05047   -0.01004    0.00362    0.00511
AFIX  43
H4    2    0.154202    0.436643    1.102639    11.00000   -1.20000
AFIX   0
C5    1    0.171689    0.367276    0.983097    11.00000    0.04464    0.03890 =
         0.06007   -0.00443    0.00102    0.00534
AFIX  43
H5    2    0.119693    0.506048    0.965280    11.00000   -1.20000
AFIX   0
C6    1    0.326459   -0.043933    1.037741    11.00000    0.05474    0.05605 =
         0.06030    0.00785   -0.00799    0.00547
AFIX  43
H6    2    0.378560   -0.181851    1.056284    11.00000   -1.20000
AFIX   0
HKLF 4
 
REM  exp_2791 in P21 #4
REM R1 =  0.0470 for    1915 Fo > 4sig(Fo)  and  0.0483 for all    1981 data
REM    181 parameters refined using      1 restraints
 
END  
     
WGHT      0.0919      0.0041 

REM Highest difference peak  0.805,  deepest hole -0.399,  1-sigma level  0.078
Q1    1   0.6400  0.1440  0.7599  11.00000  0.05    0.81
Q2    1   0.3909  0.1476  0.7554  11.00000  0.05    0.77
Q3    1   0.4952  0.0052  0.7374  11.00000  0.05    0.48
Q4    1   0.5016  0.2981  0.7367  11.00000  0.05    0.41
Q5    1   0.2394  0.1379  0.7224  11.00000  0.05    0.30
Q6    1  -0.0203  0.0204  0.7442  11.00000  0.05    0.28
Q7    1   0.0927  0.3288  0.8254  11.00000  0.05    0.27
Q8    1  -0.0009  0.3049  0.7520  11.00000  0.05    0.27
Q9    1   0.2285  0.1422  0.8026  11.00000  0.05    0.27
Q10   1  -0.0153  0.2549  0.7446  11.00000  0.05    0.25
Q11   1  -0.2667  0.1330  0.6819  11.00000  0.05    0.23
Q12   1   0.3357 -0.0318  0.8274  11.00000  0.05    0.20
Q13   1   0.4207 -0.3381  1.1175  11.00000  0.05    0.20
Q14   1   0.5321 -0.2249  0.6991  11.00000  0.05    0.19
Q15   1   0.4551 -0.2513  0.7631  11.00000  0.05    0.19
Q16   1   0.2987  0.1098  0.6600  11.00000  0.05    0.19
Q17   1   0.1814  0.6359  0.9419  11.00000  0.05    0.19
Q18   1   0.1762 -0.2388  0.6391  11.00000  0.05    0.19
Q19   1   0.2980  0.3729  1.2033  11.00000  0.05    0.18
Q20   1   0.5530 -0.2522  0.7163  11.00000  0.05    0.18

  REM The information below was added by Olex2.
  REM
  REM R1 = 0.0470 for 1915 Fo > 4sig(Fo) and 0.0483 for all 5430 data
  REM n/a parameters refined using n/a restraints
  REM Highest difference peak 0.81, deepest hole -0.40
  REM Mean Shift 0, Max Shift 0.000.
  
  REM +++ Tabular Listing of Refinement Information +++
  REM R1_all = 0.0483
  REM R1_gt = 0.0470
  REM wR_ref = 0.1292
  REM GOOF = 1.119
  REM Shift_max = 0.000
  REM Shift_mean = 0
  REM Reflections_all = 5430
  REM Reflections_gt = 1915
  REM Parameters = n/a
  REM Hole = -0.40
  REM Peak = 0.81
  REM Flack = 0.05(3)
  
  
;
_cod_data_source_file            ja7b06029_si_002.cif
_cod_data_source_block           exp_2791
_cod_original_cell_volume        702.54(5)
_cod_database_code               4126415
_shelx_space_group_comment
;
The symmetry employed for this shelxl refinement is uniquely defined
by the following loop, which should always be used as a source of
symmetry information in preference to the above space-group names.
They are only intended as comments.
;
_reflns_odcompleteness_completeness 99.86
_reflns_odcompleteness_iscentric 1
_reflns_odcompleteness_theta     66.97
_olex2_refinement_description
;
1. Fixed Uiso
 At 1.2 times of:
  All C(H) groups
2.a Ternary CH refined with riding coordinates:
 C9(H9), C15(H15)
2.b Aromatic/amide H refined with riding coordinates:
 C16(H16), C17(H17), C19(H19), C26(H26), C0AA(H0AA), C1(H1), C3(H3), C4(H4),
 C5(H5), C6(H6)
;
_shelx_shelxl_version_number     2014/7
_olex2_date_sample_data_collection 2016-11-16
_olex2_submission_special_instructions 'No special instructions were received'
loop_
_space_group_symop_operation_xyz
'x, y, z'
'-x, y+1/2, -z'
loop_
_atom_site_label
_atom_site_type_symbol
_atom_site_fract_x
_atom_site_fract_y
_atom_site_fract_z
_atom_site_U_iso_or_equiv
_atom_site_adp_type
_atom_site_occupancy
_atom_site_site_symmetry_order
_atom_site_calc_flag
_atom_site_refinement_flags_posn
Br1 Br 0.51733(7) 0.1546(2) 0.75497(3) 0.0632(3) Uani 1 1 d .
N2 N -0.0917(8) -0.1589(12) 0.7072(3) 0.0622(14) Uani 1 1 d .
N5 N -0.1610(10) -0.3277(17) 0.6941(5) 0.099(3) Uani 1 1 d .
C9 C 0.1527(7) 0.0859(9) 0.6992(3) 0.0477(12) Uani 1 1 d .
H9 H 0.1549 0.2477 0.6797 0.057 Uiso 1 1 calc R
C15 C 0.2649(7) 0.0758(10) 0.7767(3) 0.0472(12) Uani 1 1 d .
H15 H 0.2577 -0.0812 0.8002 0.057 Uiso 1 1 calc R
C16 C 0.2287(11) -0.1454(16) 0.4870(4) 0.0673(19) Uani 1 1 d .
H16 H 0.2019 -0.1005 0.4342 0.081 Uiso 1 1 calc R
C17 C 0.3562(10) -0.4183(12) 0.5784(4) 0.0611(16) Uani 1 1 d .
H17 H 0.4175 -0.5577 0.5874 0.073 Uiso 1 1 calc R
C18 C 0.2165(7) -0.0695(11) 0.6306(3) 0.0461(11) Uani 1 1 d .
C19 C 0.3046(9) -0.2782(11) 0.6442(4) 0.0530(13) Uani 1 1 d .
H19 H 0.3298 -0.3261 0.6969 0.064 Uiso 1 1 calc R
N24 N -0.0373(9) 0.0314(13) 0.7238(5) 0.0716(16) Uani 1 1 d .
C26 C 0.1786(9) -0.0028(12) 0.5509(4) 0.0561(14) Uani 1 1 d .
H26 H 0.1197 0.1376 0.5406 0.067 Uiso 1 1 calc R
C0AA C 0.3159(8) -0.3491(16) 0.5006(3) 0.0635(15) Uani 1 1 d .
H0AA H 0.3489 -0.4427 0.4571 0.076 Uiso 1 1 calc R
C1 C 0.2698(9) 0.1248(16) 1.0924(3) 0.0616(16) Uani 1 1 d .
H1 H 0.2845 0.1000 1.1477 0.074 Uiso 1 1 calc R
C1AA C 0.2285(6) 0.2005(9) 0.9270(3) 0.0420(11) Uani 1 1 d .
O1 O 0.1526(8) 0.4468(9) 0.8168(3) 0.0702(14) Uani 1 1 d .
C2AA C 0.2075(7) 0.2588(10) 0.8402(3) 0.0472(11) Uani 1 1 d .
C3 C 0.3047(8) -0.0051(10) 0.9551(4) 0.0495(13) Uani 1 1 d .
H3 H 0.3418 -0.1183 0.9183 0.059 Uiso 1 1 calc R
C4 C 0.1930(10) 0.3256(13) 1.0655(4) 0.0578(15) Uani 1 1 d .
H4 H 0.1542 0.4366 1.1026 0.069 Uiso 1 1 calc R
C5 C 0.1717(8) 0.3673(11) 0.9831(4) 0.0479(12) Uani 1 1 d .
H5 H 0.1197 0.5060 0.9653 0.057 Uiso 1 1 calc R
C6 C 0.3265(9) -0.0439(13) 1.0377(4) 0.0571(14) Uani 1 1 d .
H6 H 0.3786 -0.1819 1.0563 0.068 Uiso 1 1 calc R
loop_
_atom_site_aniso_label
_atom_site_aniso_U_11
_atom_site_aniso_U_22
_atom_site_aniso_U_33
_atom_site_aniso_U_23
_atom_site_aniso_U_13
_atom_site_aniso_U_12
Br1 0.0464(3) 0.0817(5) 0.0614(3) -0.0108(4) 0.0003(2) 0.0030(4)
N2 0.050(3) 0.082(4) 0.055(3) -0.010(3) 0.007(2) -0.010(3)
N5 0.086(4) 0.106(6) 0.105(5) -0.034(5) 0.025(4) -0.041(5)
C9 0.044(3) 0.042(3) 0.058(3) -0.002(2) 0.000(2) 0.0042(19)
C15 0.044(3) 0.046(3) 0.052(3) 0.003(2) 0.011(2) 0.0061(19)
C16 0.069(4) 0.089(5) 0.044(3) 0.007(3) -0.001(3) -0.018(4)
C17 0.072(4) 0.051(4) 0.061(3) -0.005(3) 0.015(3) 0.000(3)
C18 0.044(3) 0.048(3) 0.047(3) -0.001(2) 0.002(2) -0.005(2)
C19 0.065(3) 0.047(3) 0.047(3) 0.003(2) 0.008(2) 0.002(2)
N24 0.056(3) 0.069(4) 0.091(4) -0.019(3) 0.017(3) 0.006(3)
C26 0.053(3) 0.059(4) 0.057(3) 0.007(3) -0.007(2) -0.006(3)
C0AA 0.070(3) 0.068(4) 0.053(3) -0.006(4) 0.014(2) -0.014(5)
C1 0.060(3) 0.075(5) 0.050(2) 0.007(4) -0.002(2) 0.002(4)
C1AA 0.036(2) 0.040(3) 0.051(2) 0.001(2) 0.0035(17) -0.0001(18)
O1 0.104(4) 0.049(3) 0.057(2) 0.005(2) 0.008(2) 0.027(3)
C2AA 0.047(3) 0.038(3) 0.056(3) -0.002(2) 0.005(2) 0.005(2)
C3 0.049(3) 0.043(3) 0.056(3) -0.002(2) 0.001(2) 0.006(2)
C4 0.065(4) 0.058(4) 0.050(3) -0.010(3) 0.004(3) 0.005(3)
C5 0.045(3) 0.039(3) 0.060(3) -0.004(2) 0.001(2) 0.005(2)
C6 0.055(4) 0.056(4) 0.060(3) 0.008(3) -0.008(3) 0.005(3)
loop_
_atom_type_symbol
_atom_type_description
_atom_type_scat_dispersion_real
_atom_type_scat_dispersion_imag
_atom_type_scat_source
C C 0.0181 0.0091 'International Tables Vol C Tables 4.2.6.8 and 6.1.1.4'
H H 0.0000 0.0000 'International Tables Vol C Tables 4.2.6.8 and 6.1.1.4'
Br Br -0.6763 1.2805 'International Tables Vol C Tables 4.2.6.8 and 6.1.1.4'
N N 0.0311 0.0180 'International Tables Vol C Tables 4.2.6.8 and 6.1.1.4'
O O 0.0492 0.0322 'International Tables Vol C Tables 4.2.6.8 and 6.1.1.4'
loop_
_geom_angle_atom_site_label_1
_geom_angle_atom_site_label_2
_geom_angle_atom_site_label_3
_geom_angle
N5 N2 N24 172.2(8)
C18 C9 C15 115.5(4)
N24 C9 C15 106.1(5)
N24 C9 C18 112.2(5)
C9 C15 Br1 111.0(3)
C9 C15 C2AA 113.0(4)
C2AA C15 Br1 103.7(4)
C0AA C16 C26 120.9(6)
C0AA C17 C19 119.8(7)
C19 C18 C9 122.5(5)
C19 C18 C26 118.8(6)
C26 C18 C9 118.7(6)
C18 C19 C17 120.1(6)
N2 N24 C9 116.4(6)
C16 C26 C18 120.1(7)
C16 C0AA C17 120.3(7)
C4 C1 C6 120.4(6)
C3 C1AA C2AA 123.8(5)
C3 C1AA C5 118.9(5)
C5 C1AA C2AA 117.2(5)
C1AA C2AA C15 118.5(5)
O1 C2AA C15 118.6(5)
O1 C2AA C1AA 122.8(5)
C1AA C3 C6 120.6(6)
C1 C4 C5 120.7(6)
C4 C5 C1AA 119.9(6)
C1 C6 C3 119.5(6)
loop_
_geom_bond_atom_site_label_1
_geom_bond_atom_site_label_2
_geom_bond_distance
Br1 C15 1.968(5)
N2 N5 1.115(10)
N2 N24 1.193(9)
C9 C15 1.524(8)
C9 C18 1.518(8)
C9 N24 1.506(8)
C15 C2AA 1.543(7)
C16 C26 1.385(11)
C16 C0AA 1.352(13)
C17 C19 1.405(9)
C17 C0AA 1.374(10)
C18 C19 1.379(9)
C18 C26 1.397(8)
C1 C4 1.356(11)
C1 C6 1.388(11)
C1AA C2AA 1.478(7)
C1AA C3 1.384(7)
C1AA C5 1.396(8)
O1 C2AA 1.213(7)
C3 C6 1.390(9)
C4 C5 1.388(9)
loop_
_refln_index_h
_refln_index_k
_refln_index_l
_refln_F_squared_meas
_refln_F_squared_sigma
_refln_scale_group_code
0 -6 0 1960.51 377.938 12
0 -6 1 411.796 208.183 12
0 -6 1 275.413 114.752 21
0 -6 -1 651.096 224.103 12
0 -6 2 1130.11 298.249 12
0 -6 -2 910.196 271.351 12
0 -6 2 712.552 217.967 21
0 -6 -3 1335.32 339.968 12
0 -6 3 1064.73 247.265 21
0 -6 4 5134.62 545.114 21
0 -6 -4 5007.53 502.069 10
0 -6 5 927.709 241.862 21
0 -6 -5 1147.32 304.94 12
0 -6 -5 691.892 188.258 10
0 -6 6 2405.74 354.992 21
0 -6 -6 2885.24 429.907 12
0 -6 -6 1830.7 316.126 10
0 -6 7 190.14 117.626 21
0 -6 -7 235.081 133.132 10
0 -6 -8 672.148 206.546 10
0 -6 8 661.515 160.912 21
0 -6 -9 187.908 126.516 10
0 -6 9 97.2588 79.8488 21
0 -6 10 978.248 159.651 21
0 -6 -10 1141.07 202.132 10
0 -5 0 -45.5903 176.106 14
0 -5 0 -6.61142 151.619 12
0 -5 0 185.439 187.402 21
0 -5 1 749.268 281.004 14
0 -5 1 706.595 275.797 21
0 -5 -1 633.234 260.474 14
0 -5 -1 956.243 289.689 12
0 -5 1 1452.59 347.552 12
0 -5 -2 4041.97 545.475 12
0 -5 2 4725.72 635.251 14
0 -5 -2 4073.9 563.298 14
0 -5 -2 3943.68 525.555 10
0 -5 2 6090.19 697.531 21
0 -5 2 4689.03 616.858 12
0 -5 -3 5103.16 610.271 10
0 -5 -3 6763.35 698.678 12
0 -5 3 6749.44 770.37 14
0 -5 3 6629.88 739.993 12
0 -5 3 5489.12 659.399 21
0 -5 -4 819.52 280.702 10
0 -5 4 958.449 320.948 14
0 -5 -4 525.501 215.83 12
0 -5 4 722.178 281.003 21
0 -5 4 567.528 247.624 12
0 -5 -5 12865 960.898 12
0 -5 5 11528.8 924.248 21
0 -5 -5 10648.3 898.392 10
0 -5 6 1648.46 350.95 21
0 -5 -6 1893.51 396.685 12
0 -5 -6 1552.44 365.832 10
0 -5 6 930.338 307.237 12
0 -5 7 11948.2 1015.16 12
0 -5 -7 11453.9 944.037 10
0 -5 7 9816.97 807.718 21
0 -5 -7 12260.2 963.417 12
0 -5 8 2846.26 480.534 12
0 -5 -8 3285.71 519.51 10
0 -5 8 2938.88 434.323 21
0 -5 -8 3865.09 535.212 12
0 -5 9 10793.6 771.423 21
0 -5 -9 12071.1 942.522 10
0 -5 10 1832.62 308.565 21
0 -5 -10 2273.6 404.188 10
0 -5 -11 3212.15 436.174 10
0 -5 11 1882.85 294.505 13
0 -5 11 2992.83 351.137 21
0 -5 12 541.147 135.599 21
0 -5 -12 849.815 223.149 10
0 -5 13 1099.83 181.03 13
0 -5 -13 1795.26 254.315 10
0 -4 0 29245.1 1259.76 1
0 -4 -1 716.331 195.502 1
0 -4 -1 1030.73 246.997 6
0 -4 1 921.711 225.824 1
0 -4 2 11544.8 744.77 2
0 -4 -2 13818.8 924.987 7
0 -4 2 12115.7 801.601 1
0 -4 3 290.1 130.812 1
0 -4 -3 35.0585 81.928 7
0 -4 3 282.769 139.873 2
0 -4 4 20517.2 1115.85 1
0 -4 -4 20934.5 1169.44 7
0 -4 4 19458.8 1065.4 2
0 -4 5 1723.5 327.994 1
0 -4 5 2394.87 455.581 14
0 -4 -5 1838.64 380.585 10
0 -4 5 1544.1 309.639 2
0 -4 -5 1630.4 330.934 7
0 -4 5 1859.03 385.237 21
0 -4 6 9383.24 843.484 21
0 -4 -6 10600.5 803.517 12
0 -4 -6 10322.7 898.39 10
0 -4 -7 6341.73 706.564 10
0 -4 7 6831.36 720.076 21
0 -4 -7 7107.93 672.72 12
0 -4 8 15926 1112.2 13
0 -4 -8 17751.4 1208.05 10
0 -4 8 17654.8 1134.38 21
0 -4 -8 20087.4 1189.67 12
0 -4 9 2684.81 427.817 21
0 -4 -9 3057.99 506.566 10
0 -4 9 3050.05 483.295 13
0 -4 -9 2360.87 444.233 12
0 -4 -10 7485.61 776.021 10
0 -4 10 7218.93 686.81 21
0 -4 10 7762.15 752.14 13
0 -4 11 3162.01 437.437 21
0 -4 11 3452.82 488.473 13
0 -4 -11 3535.76 510.411 10
0 -4 -12 6089.13 628.771 10
0 -4 12 5145.61 518.443 21
0 -4 12 6573.88 639.51 13
0 -4 13 1681.19 304.349 13
0 -4 -13 2349.31 366.642 10
0 -4 -13 1539.67 348.91 16
0 -4 -14 3968.63 485.118 16
0 -4 14 3603.77 408.319 13
0 -4 -14 3825.23 405.027 10
0 -4 -15 1229.71 245.792 16
0 -4 15 1318.72 226.694 18
0 -4 15 1147.53 224.058 13
0 -4 16 2406.03 262.899 18
0 -4 16 2757.43 282.351 13
0 -4 -16 2089.05 247.649 16
0 -3 0 -47.0185 117.938 7
0 -3 0 21.4495 57.2828 1
0 -3 0 14.6533 66.4168 2
0 -3 0 67.7942 85.0335 6
0 -3 1 59132.4 1638.62 1
0 -3 1 57578.3 1572.82 2
0 -3 -1 60471.7 1716.6 7
0 -3 -1 61702 1669.59 1
0 -3 -1 60669.8 1619.48 6
0 -3 2 12162.2 666.802 2
0 -3 2 13569.9 733.27 6
0 -3 -2 12167.9 707.612 7
0 -3 -2 12644 678.282 1
0 -3 -2 12358.8 664.097 6
0 -3 2 12091.6 668.624 1
0 -3 -3 98565.3 2411.81 7
0 -3 3 100918 2400.31 1
0 -3 3 103713 2442.75 2
0 -3 -3 104049 2339.14 1
0 -3 4 571.622 184.861 6
0 -3 4 248.473 125.294 1
0 -3 4 161.71 122.883 2
0 -3 -4 129.432 104.65 7
0 -3 5 44374 1554.57 1
0 -3 5 46938.6 1616.45 6
0 -3 -5 44542.4 1612.04 7
0 -3 5 46562.7 1636.27 2
0 -3 6 10047.7 749.403 6
0 -3 6 9928.46 758.163 2
0 -3 -6 10732.6 818.259 7
0 -3 6 10578 751.707 1
0 -3 -7 35436.1 1644.91 7
0 -3 7 32897.2 1435.3 1
0 -3 7 33724.1 1496.01 2
0 -3 7 31396.2 1465.12 6
0 -3 -8 1248.93 334.937 7
0 -3 8 1793.77 355.039 2
0 -3 8 1470.9 319.904 1
0 -3 -9 6885.78 782.912 7
0 -3 9 7732.53 744.323 2
0 -3 9 7035.61 680.219 1
0 -3 10 3572.13 502.675 13
0 -3 -10 3140.43 482.101 10
0 -3 10 3347.39 478.69 9
0 -3 10 2917.11 436.807 21
0 -3 11 20363.6 1199.84 9
0 -3 -11 18590.6 1156.26 10
0 -3 11 21292.9 1257.74 13
0 -3 -12 3024.2 507.51 11
0 -3 12 4374.43 542.83 9
0 -3 12 3890.36 532.353 13
0 -3 -12 3228.38 467.153 10
0 -3 -13 3582.56 536.302 11
0 -3 13 5881.33 604.547 9
0 -3 13 5567.86 615.312 13
0 -3 -13 4173.01 513.702 10
0 -3 14 356.333 161.867 9
0 -3 14 412.092 191.493 13
0 -3 -14 499.183 238.888 11
0 -3 -15 6199.88 662.155 16
0 -3 15 5344.46 514.615 9
0 -3 -15 5903.15 613.31 11
0 -3 15 4638.37 503.893 13
0 -3 16 1043.31 218.767 9
0 -3 16 926.245 207.566 13
0 -3 -16 1753.13 332.564 16
0 -3 -16 1231.19 267.73 11
0 -3 -17 3078.31 370.327 16
0 -3 17 2622.1 311.056 13
0 -3 18 3070.35 279.01 13
0 -3 18 3152.74 289.928 18
0 -3 -18 3336.15 314.649 16
0 -2 0 162851 2800.83 2
0 -2 0 160746 2803.24 6
0 -2 0 158866 2849.13 1
0 -2 0 163066 2923.71 7
0 -2 0 163980 2933.39 3
0 -2 1 17813.8 655.843 2
0 -2 -1 17971.3 633.795 6
0 -2 -1 18180 587.418 2
0 -2 1 18747.3 681.535 1
0 -2 -1 19807.7 668.489 3
0 -2 -1 19141.3 673.764 1
0 -2 1 19849.5 658.567 6
0 -2 -1 20138 703.741 7
0 -2 2 248515 3909.37 6
0 -2 -2 235300 3767.84 3
0 -2 -2 242829 4013.88 7
0 -2 2 241583 3966.07 2
0 -2 -2 242820 3899.21 1
0 -2 -2 233935 3867.52 6
0 -2 2 235008 3975.76 1
0 -2 -3 4852.55 370.167 7
0 -2 3 4765.08 357.3 1
0 -2 3 4793.95 339.221 6
0 -2 -3 4632.09 261.955 3
0 -2 -3 4779.78 320.573 1
0 -2 3 4371.58 351.381 2
0 -2 4 87574.7 1919.25 6
0 -2 4 86197.8 1970.97 1
0 -2 -4 88823.4 2019.66 7
0 -2 4 85999.1 1997.88 2
0 -2 -5 39038.9 1296.84 7
0 -2 5 38056.5 1269.76 2
0 -2 5 40554.3 1270.7 1
0 -2 5 39623.4 1234.53 6
0 -2 6 162308 3290.59 1
0 -2 6 164092 3360.95 2
0 -2 -6 157611 3431.37 7
0 -2 6 158309 3326.51 6
0 -2 7 8125.51 661.298 6
0 -2 7 7792.9 587.53 1
0 -2 -7 8331.34 680.773 7
0 -2 7 8550.04 633.294 2
0 -2 8 58079.5 1878.68 2
0 -2 8 55872.1 1811.57 1
0 -2 8 61224.2 2137.37 6
0 -2 -8 56923.8 2087.83 7
0 -2 9 15509.1 919.867 1
0 -2 -9 14981 1117.21 7
0 -2 9 18246.7 1189.75 6
0 -2 9 15720.3 962.62 2
0 -2 10 20775.6 1364.42 6
0 -2 -10 21238.7 1385.95 7
0 -2 10 19595.7 1126.68 2
0 -2 11 9335.02 929.855 6
0 -2 11 9658.4 801.804 2
0 -2 -11 8763.49 914.425 7
0 -2 12 37697.8 1688.72 13
0 -2 12 40099.4 1671.96 9
0 -2 -12 36884.7 1608.87 11
0 -2 13 8328.6 754.623 9
0 -2 13 8133.55 759.986 13
0 -2 -13 7511.63 716.619 11
0 -2 14 4319.84 552.233 13
0 -2 -14 4035.88 526.041 11
0 -2 14 4303.94 518.856 9
0 -2 -14 4603.61 630.6 22
0 -2 -15 4566.77 537.344 11
0 -2 15 4706.6 545.207 13
0 -2 15 4579.52 533.805 9
0 -2 -15 4904.67 618.253 22
0 -2 -16 3058.92 423.036 11
0 -2 16 2692.49 396.584 13
0 -2 -16 2703.73 430.649 22
0 -2 16 2883.65 394.174 9
0 -2 -17 895.618 228.979 16
0 -2 -17 573.504 188.11 22
0 -2 -17 533.701 180.68 11
0 -2 17 1046.27 227.796 9
0 -2 17 824.03 213.748 13
0 -2 -18 1869.79 291.061 16
0 -2 18 1799.51 252.978 13
0 -2 18 2059.58 276.13 9
0 -2 -18 1740.61 266.603 22
0 -2 -19 483.044 126.021 16
0 -2 19 477.192 108.094 18
0 -1 0 178.693 48.259 3
0 -1 0 186.779 47.3039 2
0 -1 -1 307006 4397.44 2
0 -1 -1 306896 4429.79 3
0 -1 1 310808 4483.15 6
0 -1 -1 305026 4355.25 5
0 -1 -2 96939.6 1679.74 5
0 -1 2 103212 1735.18 6
0 -1 -2 99578.6 1769.55 7
0 -1 -2 98869.1 1683.01 1
0 -1 -2 100582 1556.52 3
0 -1 3 349554 5183.47 6
0 -1 -3 335854 4865.98 3
0 -1 -3 343800 5235.02 7
0 -1 3 352581 5195.82 4
0 -1 3 351761 5212.89 1
0 -1 -3 350917 5190.51 5
0 -1 4 80495.3 1688.45 2
0 -1 4 82025.7 1625.55 4
0 -1 -4 83545.4 1722.78 7
0 -1 -4 86385 1673.46 5
0 -1 4 82904 1647.01 1
0 -1 5 301631 4865.14 1
0 -1 5 303586 4915.53 4
0 -1 5 299509 4944.77 2
0 -1 -5 314317 4949.23 5
0 -1 6 9401.05 537.398 2
0 -1 6 8941.18 543.277 4
0 -1 6 9313.14 514.587 1
0 -1 7 100377 2239.2 1
0 -1 7 101048 2388.65 4
0 -1 7 106609 2326.34 2
0 -1 8 12146.5 692.038 2
0 -1 8 11927.1 760.073 4
0 -1 8 10825.6 629.695 1
0 -1 9 104615 2474.37 1
0 -1 9 110190 2597.64 2
0 -1 9 111828 2812.77 4
0 -1 10 3163.85 443.092 4
0 -1 10 2864.57 387.738 2
0 -1 11 34392.1 1403.7 2
0 -1 11 38659.9 1650.9 4
0 -1 -12 15181.1 1140.71 7
0 -1 12 13297.6 979.86 4
0 -1 13 26781.8 1374.13 13
0 -1 13 27721.9 1390.39 9
0 -1 -13 28210.6 1349.94 11
0 -1 -14 6428.25 636.821 11
0 -1 14 6208.81 653.938 13
0 -1 14 6781.06 671.916 9
0 -1 -15 11512.6 850.557 11
0 -1 15 12024.7 887.841 13
0 -1 15 11379.3 873.401 9
0 -1 -15 12436.1 931.202 22
0 -1 -16 706.024 239.355 22
0 -1 16 540.197 196.184 13
0 -1 16 688.265 223.554 9
0 -1 -16 739.837 227.684 11
0 -1 -17 2671.7 387.73 11
0 -1 17 3303.86 411.563 9
0 -1 -17 3328.09 441.563 22
0 -1 18 1390.05 250.251 9
0 -1 -18 1155.06 238.219 16
0 -1 -18 1547.66 268.945 11
0 -1 -18 1782.96 296.415 22
0 -1 -19 339.128 131.103 22
0 -1 -19 476.179 148.417 16
0 -1 -20 431.656 100.909 22
0 0 2 142890 2180.05 2
0 0 3 19442 520.702 2
0 0 4 464267 6775.04 2
0 0 5 19858.4 642.286 2
0 0 6 108660 2271.91 4
0 0 6 111515 2114.68 2
0 0 7 20442.5 747.331 2
0 0 7 20016.4 861.875 4
0 0 8 15447.8 676.324 2
0 0 8 14591.6 773.699 4
0 0 9 10689.1 594.339 2
0 0 9 12261.8 749.617 4
0 0 10 40116.2 1520.82 4
0 0 11 2762.5 407.631 4
0 0 12 24131.7 1279.34 4
0 0 -13 3919.75 511.349 11
0 0 13 3860.32 494.622 9
0 0 -14 2920.84 456.486 11
0 0 14 3708.36 498.691 9
0 0 15 19998.8 1139.98 9
0 0 -15 19576.7 1179.37 11
0 0 -16 9986.99 807.098 11
0 0 16 8389.58 709.311 9
0 0 -16 9514.32 782.059 22
0 0 -17 3392.69 446.645 11
0 0 17 2409.39 359.146 9
0 0 -17 3042.69 422.2 22
0 0 -18 3069 378.321 16
0 0 -18 4289.99 461.017 22
0 0 -19 1777.02 269.156 22
0 0 -20 1532.82 202.951 22
0 1 5 279268 4159.1 2
0 1 5 283256 4588.44 4
0 1 6 9313.06 355.243 2
0 1 6 10713.4 575.953 4
0 1 7 92424.6 2209.88 4
0 1 8 10481.7 661.625 4
0 1 9 109466 2663.6 4
0 1 10 4376.51 479.065 4
0 1 11 40386.1 1605.07 4
0 1 12 13819.8 951.712 4
0 1 -13 28176.4 1419.81 11
0 1 -14 6003.32 653.601 11
0 1 -15 11262.9 897.866 22
0 1 -15 9859.65 818.487 11
0 1 -16 641.137 230.934 22
0 1 -16 377.559 157.577 11
0 1 -17 3255.99 448.581 22
0 1 -18 1559.42 284.018 22
0 1 -19 323.624 131.05 22
0 2 3 5262.13 375.11 4
0 2 4 86103.1 1940.9 4
0 2 5 41425.9 1286.22 4
0 2 6 156919 3195.9 4
0 2 7 9576.08 652.33 4
0 2 8 57807.1 1877.84 4
0 2 9 17556.4 1034.26 4
0 2 10 22858.9 1238.04 4
0 2 11 10400.8 848.48 4
0 2 -14 2955.08 460.671 22
0 2 -15 3535.4 497.95 22
0 2 -16 2633.93 401.166 22
0 2 -17 810.294 206.043 22
0 3 3 108600 2550.23 4
0 3 4 417.105 125.033 4
0 3 5 50681.3 1695.55 4
0 3 6 10113 734.629 4
0 3 7 39943.2 1594.11 4
0 3 8 983.588 267.61 4
0 3 9 5957.48 663.108 4
0 4 2 14021.7 939.108 4
0 4 3 886.948 263.899 4
0 4 4 22691.7 1243.9 4
0 4 5 2329.38 392.678 4
0 4 6 8862.4 800.158 4
-1 -6 10 556.633 118.346 21
1 -6 -10 639.917 148.994 10
-1 -6 9 -53.6152 45.1693 12
1 -6 -9 110.165 100.587 10
-1 -6 9 133.614 70.9229 21
1 -6 -8 1807.69 297.354 10
-1 -6 8 1700.82 259.086 21
-1 -6 8 1680.67 274.579 12
-1 -6 7 8.26363 94.5353 21
-1 -6 7 -3.72825 106.904 12
1 -6 -7 96.7038 97.4652 10
1 -6 -6 1361.87 267.616 10
-1 -6 6 1958.78 316.968 21
-1 -6 6 2160.62 363.032 12
-1 -6 5 890.722 250.271 12
1 -6 -5 812.391 253.217 14
1 -6 -5 578.411 186.946 10
-1 -6 5 785.506 219.695 21
-1 -6 4 2056.25 341.425 21
-1 -6 4 2723.91 419.17 12
1 -6 -4 1755.19 292.325 10
1 -6 -4 2424.25 430.511 14
1 -6 -3 777.528 281.558 14
1 -6 -3 278.789 144.978 10
-1 -6 3 421.217 169.894 21
-1 -6 3 636.197 225.937 12
-1 -6 2 2860.02 423.574 12
1 -6 -2 2407.04 427.536 14
-1 -6 2 2000.1 328.08 21
1 -6 -1 2376.31 429.418 14
-1 -6 1 1382.84 268.368 21
-1 -6 1 1998.32 348.525 12
1 -6 0 3213.53 478.089 14
-1 -6 0 2770.51 410.18 12
-1 -6 -1 4822.81 534.515 12
1 -6 1 2988.32 415.515 21
1 -6 1 4468.83 561.965 14
1 -6 2 3093.77 440.941 21
-1 -6 -2 3535.74 461.636 12
1 -6 2 3539.52 495.806 14
1 -6 3 1377.29 315.198 21
-1 -6 -3 1696.3 331.829 12
1 -6 4 6122.61 607.887 21
-1 -6 -4 7192.59 641.144 12
1 -6 5 708.675 221.774 21
-1 -6 -5 600.597 197.451 10
-1 -6 -5 701.327 212.988 12
1 -6 6 326.697 150.853 21
-1 -6 -6 601.865 195.153 12
-1 -6 -6 527.14 190.358 10
-1 -6 -7 458.915 165.211 12
-1 -6 -7 648.316 211.033 10
1 -6 7 699.461 179.699 21
-1 -6 -8 1078.93 241.215 10
1 -6 8 1057.21 205.043 21
1 -6 9 17.9952 68.1497 21
-1 -6 -9 454.657 153.571 10
1 -6 10 854.131 140.443 21
-1 -6 -10 779.883 155.258 10
-1 -5 13 1063.24 174.695 13
-1 -5 13 850.843 168.511 12
-1 -5 13 843.55 148.894 18
-1 -5 12 181.72 102.869 13
-1 -5 12 241.572 117.428 21
1 -5 -12 176.779 106.483 10
-1 -5 12 128.591 100.074 18
-1 -5 12 209.07 125.785 12
-1 -5 11 3668.05 474.002 12
-1 -5 11 4143.44 413.627 21
-1 -5 11 3777.34 405.949 13
-1 -5 10 571.716 242.745 12
1 -5 -10 374.1 180.34 14
1 -5 -10 402.559 171.157 10
-1 -5 10 367.039 160.275 21
1 -5 -9 684.878 243.047 10
-1 -5 9 690.259 254.266 12
-1 -5 9 368.768 155.757 21
1 -5 -9 791.224 247.214 14
-1 -5 8 2618.2 481.804 12
1 -5 -8 2674.86 433.038 10
1 -5 -8 2335.24 433.354 14
-1 -5 8 2598.64 400.571 21
1 -5 -7 5070.46 604.95 10
-1 -5 7 5262.07 576.996 21
-1 -5 7 5203.76 664.588 12
1 -5 -7 6051.43 694.82 12
1 -5 -7 4982.2 629.186 14
-1 -5 6 93.6766 159.309 21
1 -5 -6 343.285 148.396 12
1 -5 -6 36.1801 170.402 14
-1 -5 6 110.178 156.079 12
1 -5 -6 381.724 217.717 10
1 -5 -5 5790.24 665.149 14
-1 -5 5 5373.85 618.021 21
-1 -5 5 4890.36 618.395 12
1 -5 -5 4785.78 584.851 10
1 -5 -4 420.81 190.591 10
1 -5 -4 293.292 181.804 14
-1 -5 4 429.911 246.156 21
-1 -5 4 195.979 152.696 12
-1 -5 3 44036.2 1812.68 12
-1 -5 3 39533.8 1760.66 21
1 -5 -3 42379.4 1794.94 14
-1 -5 2 7191.93 701.959 12
1 -5 -2 6870.13 671.724 10
-1 -5 2 7330.73 723.163 21
1 -5 -2 7565.11 732.497 14
-1 -5 1 13745.7 949.889 12
1 -5 -1 11883.3 920.425 14
-1 -5 1 11998.1 915.044 21
1 -5 0 -130.493 174.168 21
-1 -5 0 38.3021 147.657 12
1 -5 0 -127.187 169.492 14
1 -5 1 22186.5 1377.19 21
-1 -5 -1 23101.9 1218.86 12
1 -5 1 22147.9 1288.11 14
1 -5 2 4232.42 613.372 21
-1 -5 -2 5606.35 596.538 12
1 -5 2 5312.89 625.741 14
-1 -5 -3 653.061 236.925 12
1 -5 3 274.721 172.604 21
-1 -5 -3 116.744 181.805 10
1 -5 3 789.127 302.809 14
1 -5 4 1701.33 387.181 14
1 -5 4 1438.6 360.302 21
-1 -5 -4 1678.99 333.246 12
-1 -5 -4 1136.53 319.67 10
-1 -5 -5 6515.83 651.626 12
1 -5 5 5711.55 664.565 21
1 -5 5 6465.93 720.47 14
-1 -5 -5 5796.82 692.504 10
-1 -5 -6 1249.07 349.021 10
-1 -5 -6 1589.98 330.281 12
1 -5 6 1212.15 320.938 21
-1 -5 -7 2924.95 445.108 12
1 -5 7 3063.16 460.277 21
-1 -5 -7 3825.15 575.929 10
1 -5 8 161.8 131.226 21
-1 -5 -8 159.855 144.499 12
-1 -5 -8 -13.2286 153.437 10
-1 -5 -9 1651.28 328.231 12
1 -5 9 1693.56 321.067 21
-1 -5 -9 1941.59 401.089 10
1 -5 10 97.2938 113.908 21
-1 -5 -10 47.8732 118.06 10
1 -5 11 1107.58 213.536 21
-1 -5 -11 1783.55 348.19 10
1 -5 12 1559.85 243.59 13
-1 -5 -12 2403.42 343.46 10
1 -5 12 1946.32 254.201 21
-1 -5 -13 395.676 132.845 10
1 -5 13 145.087 63.364 13
-1 -4 16 1951.62 233.576 18
1 -4 -16 1890.41 238.087 16
-1 -4 16 2042.08 238.192 13
-1 -4 15 422.011 132.256 13
-1 -4 15 299.093 119.783 18
1 -4 -15 225.225 115.579 16
1 -4 -14 2999 430.683 16
1 -4 -14 2317 305.11 10
-1 -4 14 2565.93 341.357 13
-1 -4 14 2778.02 365.319 18
-1 -4 13 927.247 225.253 13
-1 -4 13 853.327 227.057 18
1 -4 -13 744.508 233.552 14
1 -4 -13 767.018 257.928 16
1 -4 -13 785.834 210.98 10
-1 -4 12 7857.41 692.063 13
1 -4 -12 8163.85 778.298 16
-1 -4 12 7221.85 602.637 21
1 -4 -12 7285.19 645.523 10
1 -4 -12 7686.47 732.231 14
-1 -4 12 7346.7 672.816 18
1 -4 -11 458.241 202.586 10
1 -4 -11 1043.33 320.684 14
1 -4 -11 362.717 201.094 16
-1 -4 11 888.429 273.042 18
-1 -4 11 671.329 216.762 13
-1 -4 11 703.816 219.724 21
1 -4 -10 19621.6 1324.53 14
-1 -4 10 21707.6 1181.88 21
1 -4 -10 24222.3 1322.62 10
-1 -4 10 23635.3 1305.04 13
-1 -4 9 475.389 209.369 13
1 -4 -9 1165.78 350.038 14
1 -4 -9 672.148 255.319 10
-1 -4 9 945.274 267.825 21
-1 -4 8 12416.7 946.989 13
1 -4 -8 14267.8 1045.12 12
1 -4 -8 13679.1 1021.83 10
1 -4 -8 11798.1 982.888 14
-1 -4 8 13474.1 967.407 21
-1 -4 7 2308.25 414.891 21
1 -4 -7 2518.88 420.659 14
1 -4 -7 3103.8 465.785 12
1 -4 -7 2876.59 471.211 10
-1 -4 7 1997.54 364.477 13
1 -4 -6 13418.7 995.604 10
-1 -4 6 13067.2 965.423 21
1 -4 -6 11477.4 883.598 14
1 -4 -6 13928.1 985.386 12
-1 -4 5 6037.36 620.976 1
1 -4 -5 5509.51 584.022 14
-1 -4 5 7296.64 718.552 21
-1 -4 5 6298.74 685.391 6
1 -4 -5 5491.15 639.027 7
1 -4 -5 6316.57 674.973 10
1 -4 -4 22753.9 1278.71 7
-1 -4 4 24561.9 1247.12 1
-1 -4 4 24811.4 1337.64 6
1 -4 -3 19679 1129.71 7
1 -4 -3 16917.5 916.581 1
-1 -4 3 20761.5 1184.17 6
-1 -4 3 20648.2 1106.34 1
1 -4 -2 25204.3 1142.31 1
-1 -4 2 29372.2 1388.06 6
-1 -4 2 28148.3 1278.52 1
1 -4 -2 27650.3 1341.98 7
-1 -4 1 5495.94 536.32 1
1 -4 -1 5012.89 495.552 1
-1 -4 1 5350.67 560.688 6
1 -4 0 20812.4 1034.45 1
-1 -4 0 26252.3 1249.99 6
-1 -4 -1 1487.91 293.071 6
1 -4 1 1495.48 267.006 1
-1 -4 -2 22160.8 1139.48 6
1 -4 2 18053.9 977.97 1
1 -4 3 758.18 198.47 2
1 -4 3 976.076 231.581 1
1 -4 4 17022 1014 2
1 -4 4 15902 979.327 1
-1 -4 -5 773.915 216.702 12
-1 -4 -5 955.974 266.021 10
1 -4 5 645.202 205.128 2
1 -4 5 941.717 287.985 14
1 -4 5 532.53 211.031 21
1 -4 5 895.543 248.061 1
1 -4 6 28020.7 1491.5 21
-1 -4 -6 30125.8 1601.34 10
-1 -4 -6 28541 1311.43 12
1 -4 6 31772.4 1574.99 14
-1 -4 -7 5.69099 44.3539 10
-1 -4 -7 108.523 98.7872 12
1 -4 7 149.278 164.59 21
1 -4 8 15714.8 1123.37 13
-1 -4 -8 18762.1 1282.7 10
-1 -4 -8 15605 993.628 12
1 -4 8 15956.7 1086.75 21
-1 -4 -9 1664.59 341.921 12
1 -4 9 1999.8 396.534 13
-1 -4 -9 1813.63 415.233 10
1 -4 9 1870.09 385.64 21
-1 -4 -10 15987.8 1156.88 10
1 -4 10 12397.6 919.357 21
1 -4 10 14910.5 1050.74 13
-1 -4 -10 13643.3 949.667 12
1 -4 11 2543.45 406.9 21
1 -4 11 3793.92 509.044 13
-1 -4 -11 3983.36 563.924 10
1 -4 12 3587.69 457.179 9
-1 -4 -12 4964.6 586.162 10
1 -4 12 4022.14 498.217 13
1 -4 13 1137.64 246.061 9
-1 -4 -13 1597.6 307.721 10
1 -4 13 1205.56 262.326 13
-1 -4 -14 989.805 223.491 10
1 -4 14 894.024 213.783 13
-1 -4 -15 757.464 162.634 10
1 -4 15 508.518 143.547 13
1 -4 16 226.733 80.4017 13
1 -4 16 -3.18599 29.8152 18
1 -3 -18 596.454 130.588 16
-1 -3 18 553.462 117.291 13
-1 -3 18 605.699 121.496 18
-1 -3 17 2128.31 275.517 13
1 -3 -17 2305.25 318.092 16
-1 -3 17 2223.72 284.938 18
1 -3 -16 200.801 150.404 16
-1 -3 16 -80.5272 91.0497 13
1 -3 -16 123.242 119.809 14
-1 -3 16 192.881 114.756 18
1 -3 -15 7380.14 707.6 16
-1 -3 15 7063.85 602.933 13
-1 -3 14 2956.09 431.609 13
1 -3 -14 2942.17 458.665 11
1 -3 -14 3218.21 503.566 16
1 -3 -13 7211.95 731.057 11
1 -3 -13 8129.67 823.923 16
-1 -3 13 7157.38 656.769 9
-1 -3 13 7256.74 692.469 13
-1 -3 12 2710.57 428.355 9
-1 -3 12 2802.89 451.499 13
1 -3 -12 1989.29 356.966 10
1 -3 -12 3438.96 561.223 16
-1 -3 11 21438 1204.57 9
1 -3 -11 19383.4 1142.68 10
-1 -3 11 22932.8 1304.97 13
1 -3 -11 23978.9 1442.29 16
-1 -3 10 411.993 198.758 21
1 -3 -10 788.449 256.519 16
-1 -3 10 770.598 231.114 13
1 -3 -10 615.57 231.63 10
-1 -3 10 689.467 207.914 9
1 -3 -9 25088.4 1602.29 7
-1 -3 9 24315 1326.26 2
-1 -3 9 27392.5 1405.42 13
1 -3 -9 24350.1 1292.89 10
-1 -3 9 22399.7 1377.85 6
-1 -3 9 22275.6 1205.25 9
-1 -3 8 2021.2 380.989 6
1 -3 -8 1710.32 383.634 7
-1 -3 8 1934.4 348.769 2
-1 -3 7 34839.8 1494.1 2
1 -3 -7 36115.6 1729.02 7
-1 -3 7 33167.7 1474.36 6
-1 -3 7 34126.4 1406.06 1
-1 -3 6 1387.49 281.971 6
-1 -3 6 1958.21 320.011 2
1 -3 -6 1768.29 357.128 7
-1 -3 6 1626.58 289.244 1
-1 -3 5 75476.2 2077.36 1
-1 -3 5 70497.1 2052.33 6
-1 -3 5 77329 2151.88 2
1 -3 -5 75330.9 2281.69 7
-1 -3 4 2851.64 350.78 2
-1 -3 4 3129.79 362.451 1
-1 -3 4 2896.76 351.733 6
1 -3 -4 2901.92 377.086 7
1 -3 -4 2858.77 311.418 1
-1 -3 3 31034.5 1183.89 6
-1 -3 3 32031.5 1178.57 1
-1 -3 3 29851.7 1151.17 2
1 -3 -3 29903.4 1202.6 7
1 -3 -3 30051.5 1064.88 1
1 -3 -2 16538.3 853.658 7
-1 -3 2 15985.8 790.833 2
-1 -3 2 17149 841.28 6
1 -3 -2 16587.2 819.962 3
1 -3 -2 16577.4 770.082 1
-1 -3 2 16296.6 802.358 1
1 -3 -1 65124.7 1809.78 3
1 -3 -1 62879.3 1789.44 7
-1 -3 1 62293.6 1715.16 1
1 -3 -1 61089.8 1652 1
-1 -3 1 65922.3 1793.3 6
1 -3 0 10080.3 550.52 2
1 -3 0 12106.3 724.002 3
-1 -3 0 11632.9 656.41 1
1 -3 0 11129.8 675.258 7
-1 -3 0 11208.6 653.008 6
1 -3 0 10229 599.448 1
1 -3 1 54140.9 1515.94 2
-1 -3 -1 59298.8 1652.95 1
-1 -3 -1 58025.1 1634.63 6
1 -3 1 55872.9 1594.72 1
1 -3 2 15454.2 787.234 1
1 -3 2 15491.4 776.031 2
1 -3 2 17257.6 924.979 3
-1 -3 -2 16572.2 800.365 6
-1 -3 -2 17443.2 844.043 7
-1 -3 -3 101005 2386.67 6
1 -3 3 98973.5 2456.18 2
1 -3 3 99862.4 2453.55 1
-1 -3 -3 106306 2488.43 7
1 -3 4 13219.7 793.602 1
1 -3 4 14983.7 854.624 2
-1 -3 -4 13655.8 774.171 7
1 -3 5 27285.4 1237.12 1
-1 -3 -5 26266.2 1142.05 7
1 -3 6 4585.39 521.067 1
1 -3 6 4699.57 538.097 2
1 -3 7 38757.5 1645.81 2
1 -3 7 39335.1 1667.57 1
1 -3 8 7056.39 700.054 1
1 -3 8 6412.06 656.407 2
-1 -3 -9 41070.9 1803.61 10
1 -3 9 38802.4 1758.87 1
1 -3 9 44366.2 1853.97 8
1 -3 9 40207.4 1763.17 2
-1 -3 -9 40822.1 1642.31 12
1 -3 10 19707 1191.38 9
-1 -3 -10 19515.1 1147.5 12
1 -3 10 21198 1261.38 8
-1 -3 -10 21512.7 1278.45 10
-1 -3 -11 7363.23 752.344 11
1 -3 11 7309.18 712.773 9
-1 -3 -11 5855.01 671.517 10
-1 -3 -12 4474.32 596.854 11
1 -3 12 3479.23 488.165 9
1 -3 12 3639.98 504.636 13
-1 -3 -12 3068.07 465.494 10
-1 -3 -13 13701 1004.78 11
1 -3 13 12248.7 871.078 9
-1 -3 -13 10411 816.376 10
1 -3 13 11423.2 864.568 13
1 -3 14 1712.17 319.126 9
-1 -3 -14 1873.16 363.971 11
1 -3 14 1796.84 344.94 13
1 -3 15 1938.62 311.728 9
1 -3 15 1473.82 279.187 13
-1 -3 -15 2081.24 361.128 11
1 -3 16 1063.61 225.954 9
-1 -3 -16 1423.2 295.578 16
-1 -3 -16 1317.37 263.985 11
1 -3 16 1397.25 251.963 13
-1 -3 -17 1573.19 247.783 11
1 -3 17 1526.81 239.097 13
-1 -3 -17 1474.78 256.65 16
1 -3 17 1799.37 243.873 9
-1 -3 -18 -21.1046 35.5986 16
1 -3 18 -24.8493 37.8361 13
-1 -2 19 235.74 82.988 18
1 -2 -19 266.704 88.1376 16
1 -2 -18 1601.72 253.811 16
1 -2 -18 1796.89 262.585 22
-1 -2 18 1553.61 251.052 18
-1 -2 18 1340.6 214.276 13
1 -2 -17 1759.5 307.386 16
-1 -2 17 1451.49 262.447 13
1 -2 -17 1405.18 279.214 22
-1 -2 17 1840.64 296.367 18
1 -2 -16 4351.66 522.198 22
-1 -2 16 4060.59 465.892 13
1 -2 -16 3961.68 475.388 11
1 -2 -16 4616.55 528.04 16
-1 -2 16 4636.23 482.25 9
-1 -2 15 1794.15 343.788 9
1 -2 -15 1947.33 361.357 11
-1 -2 15 1547.96 321.84 13
1 -2 -15 1778.86 382.191 22
1 -2 -15 1836.11 363.197 16
-1 -2 14 15437.2 1016.94 13
-1 -2 14 15348.9 985.942 9
1 -2 -14 14624.4 1009.61 11
1 -2 -14 15233.1 1116.71 22
-1 -2 13 595.502 253.237 9
-1 -2 13 95.5362 133.037 13
1 -2 -13 323.425 169.016 11
1 -2 -13 455.585 252.668 22
1 -2 -12 8266.98 824.07 22
-1 -2 12 9308.29 788.331 9
-1 -2 12 8222.57 759.661 13
1 -2 -12 7968.4 735.424 11
-1 -2 11 2229.98 377.037 2
1 -2 -11 3122.82 577.742 7
-1 -2 11 3593.95 564.586 6
-1 -2 11 3083.08 459.07 13
-1 -2 11 3131.44 460.78 9
-1 -2 10 23173.5 1209.79 2
1 -2 -10 26426.9 1639.57 7
-1 -2 10 24659.6 1459.09 6
1 -2 -9 2178.28 445.863 7
-1 -2 9 1958.99 340.212 2
-1 -2 9 1922.78 391.733 6
1 -2 -8 64300.1 2313.2 7
-1 -2 8 64227.9 1966 2
-1 -2 8 63346.3 2117.79 6
1 -2 -7 2757.37 403.993 7
-1 -2 7 2205.4 319.976 2
-1 -2 7 3014.66 385.873 6
-1 -2 7 2069.16 275.959 1
-1 -2 6 83787 2112.11 2
1 -2 -6 83712.7 2286.23 7
-1 -2 6 79156.4 1927.99 1
-1 -2 6 79142.6 2049.75 6
-1 -2 5 57188.8 1570.8 2
1 -2 -5 57014.2 1683.53 7
-1 -2 5 52641.4 1480.92 6
-1 -2 5 55247.9 1459.55 1
-1 -2 4 153510 2757.63 1
-1 -2 4 144200 2754.84 6
-1 -2 4 158287 2874.11 2
1 -2 -4 147315 2524.67 1
1 -2 -4 154968 2982.42 7
1 -2 -3 2781.83 266.626 3
-1 -2 3 2485.15 251.799 6
1 -2 -3 2793.45 297.155 7
1 -2 -3 2510.06 225.14 1
-1 -2 3 2402.54 245.474 1
-1 -2 3 2240.86 246.359 2
1 -2 -2 145329 2619.13 3
1 -2 -2 129567 2265.09 2
1 -2 -2 143666 2735.24 7
-1 -2 2 137531 2583.78 1
-1 -2 2 142318 2629.41 2
1 -2 -2 149365 2552.05 1
-1 -2 2 136968 2576.21 6
1 -2 -1 30487.8 890.353 1
1 -2 -1 28516.2 897.369 3
-1 -2 1 27789.7 870.221 2
-1 -2 1 29404.8 885.577 6
-1 -2 1 25530 696.687 5
1 -2 -1 27390.4 894.976 7
-1 -2 1 26571.5 856.683 1
1 -2 -1 27565.2 761.122 2
1 -2 0 230469 3650.13 6
1 -2 0 247641 3940.36 1
1 -2 0 238740 3957.18 3
-1 -2 0 235033 3669.75 5
-1 -2 0 238475 3904.39 6
1 -2 0 227439 3777.18 2
1 -2 0 225370 3915.8 7
-1 -2 0 224962 3877.27 1
-1 -2 -1 1706.17 201.607 1
1 -2 1 1652.82 205.451 7
-1 -2 -1 1713.95 196.854 7
-1 -2 -1 1650.58 193.402 6
-1 -2 -1 1697.24 169.489 5
1 -2 1 1671.05 162.691 6
1 -2 1 1980.18 214.315 2
1 -2 1 1702.1 215.473 3
1 -2 1 1543.52 196.43 1
1 -2 2 122977 2554.64 2
-1 -2 -2 129375 2377.25 5
1 -2 2 128732 2543.98 1
1 -2 2 136988 2630.77 3
1 -2 2 138851 2342.95 6
-1 -2 -2 130372 2463.32 6
-1 -2 -2 134483 2468.53 7
-1 -2 -3 19964.6 736.427 6
-1 -2 -3 21876.9 777.149 7
1 -2 3 19601.1 815.356 2
-1 -2 -3 20341.9 739.28 5
1 -2 3 19915.5 791.846 1
1 -2 3 21417.4 845.072 3
1 -2 4 81496.7 1942.87 3
1 -2 4 79666.9 1959.08 2
1 -2 4 78494.6 1900.71 1
-1 -2 -4 82355.7 1829.59 5
-1 -2 -5 10187.8 584.998 5
1 -2 5 9576.49 618.402 1
1 -2 5 10182.9 644.533 2
1 -2 5 10767.1 601.408 6
-1 -2 -5 10538.5 599.003 7
1 -2 5 10339.1 635.76 3
-1 -2 -6 48913.2 1545.24 7
-1 -2 -6 46935.8 1481.27 5
1 -2 6 48247.2 1594.46 1
1 -2 6 49795 1604.59 2
-1 -2 -7 15195.5 826.678 5
-1 -2 -7 15608.6 898.333 7
1 -2 7 16608 932.295 1
1 -2 7 16835.1 917.748 2
-1 -2 -8 60840.1 2045.96 7
-1 -2 -8 54670.2 1799.83 5
1 -2 8 60986.8 1981.48 1
1 -2 8 60093.6 1926.01 2
1 -2 9 8900.7 718.295 2
-1 -2 -9 8448.43 777.528 7
1 -2 9 9373.03 750.863 1
1 -2 10 26320.7 1303.64 2
1 -2 10 23918.4 1255.19 1
1 -2 11 7995.53 712.93 9
-1 -2 -11 7473.58 685.411 11
1 -2 11 8243.85 745.753 8
1 -2 11 8035.21 732.161 2
-1 -2 -12 43127.1 1740.21 11
1 -2 12 44162.8 1746.51 9
1 -2 13 9109.26 764.188 9
-1 -2 -13 7842.79 723.732 11
1 -2 14 2811.92 441.166 13
1 -2 14 3380.77 460.44 9
-1 -2 -14 2623.49 420.814 11
1 -2 15 7552.65 696.474 13
-1 -2 -15 7146.2 663.321 11
1 -2 15 8268.99 686.924 9
-1 -2 -16 8759.19 751.855 22
-1 -2 -16 9884.79 739.833 11
1 -2 16 9243.08 717.354 13
1 -2 16 9047.48 686.619 9
1 -2 17 1884.67 299.198 13
-1 -2 -17 1309.12 278.098 22
1 -2 17 2140.16 308.676 9
-1 -2 -17 1873.85 299.922 11
1 -2 18 1857.65 257.499 13
-1 -2 -18 1653.03 254.163 22
1 -2 18 1856.72 250.539 9
-1 -2 -18 2045.42 294.814 16
-1 -2 -18 2110.83 286.68 11
-1 -2 -19 1567.58 212.204 16
1 -1 -19 1691.23 242.352 16
1 -1 -19 1666.97 243.219 22
1 -1 -18 730.474 199.99 22
1 -1 -18 811.135 199.498 16
1 -1 -17 5973.99 561.28 16
-1 -1 17 5802.05 528.585 9
1 -1 -17 5334.91 540.887 22
1 -1 -16 171.9 144.716 11
1 -1 -16 178.132 115.622 16
-1 -1 16 210.788 165.971 13
1 -1 -16 147.635 150.378 22
-1 -1 16 297.822 191.447 9
-1 -1 15 12483 891.344 9
1 -1 -15 14008.2 935.895 11
-1 -1 15 12227.6 874.481 13
1 -1 -15 13973.8 977.121 22
-1 -1 14 1811.87 350.87 13
-1 -1 14 2479.91 422.064 9
1 -1 -14 2222.23 407.796 22
1 -1 -14 2018.85 375.471 11
1 -1 -13 5791.8 603.916 11
-1 -1 13 5542.82 614.326 9
-1 -1 13 5216.71 591.253 13
1 -1 -13 5852.46 640.366 22
-1 -1 12 5581.35 615.724 9
1 -1 -12 5813.57 638.003 22
1 -1 -12 8287.4 922.536 7
-1 -1 12 7628.49 774.126 6
1 -1 -12 6090.96 614.466 11
-1 -1 12 6980.96 757.851 4
-1 -1 11 33186.5 1624.05 4
1 -1 -11 41628.5 2030.66 7
-1 -1 10 9896.17 676.2 2
-1 -1 10 11550.3 859.852 4
-1 -1 9 57202.5 1911.71 4
-1 -1 9 53318.4 1650.73 2
-1 -1 8 36714.1 1255.53 2
-1 -1 8 37351.7 1392 4
-1 -1 7 137809 2748.43 2
-1 -1 7 137847 2895.63 4
-1 -1 6 55129.4 1455.4 2
-1 -1 6 57315.9 1513.41 4
-1 -1 6 53524.7 1278.58 1
-1 -1 5 240286 3944.97 4
-1 -1 5 231704 3914.95 6
-1 -1 5 220016 3802.85 2
1 -1 -5 221333 3985.7 7
-1 -1 5 214569 3601.02 1
1 -1 -4 30945.9 974.832 7
-1 -1 4 31643.7 913.95 2
-1 -1 4 30789.8 801.607 1
-1 -1 3 344517 5121.89 2
-1 -1 3 338558 4972.71 1
1 -1 -3 329861 4777.06 1
1 -1 -2 23403.6 639.291 3
-1 -1 2 23660.2 625.124 1
1 -1 -1 22453.6 627.364 3
-1 -1 1 22907.9 618.521 1
1 -1 -1 21930 546.012 2
1 -1 0 88135.9 1602.07 2
1 -1 0 91950.9 1555.27 1
1 -1 1 553341 7781.97 6
1 -1 1 548720 8234.14 2
-1 -1 -1 561884 8025.18 5
-1 -1 -2 104822 1741.56 7
1 -1 2 106791 1661.07 6
-1 -1 -3 142708 2451.12 5
-1 -1 -3 143761 2351.11 7
1 -1 3 137289 2314.22 4
-1 -1 -4 19357.9 683.633 5
-1 -1 -4 19303.9 647.066 7
1 -1 4 17975.6 628.471 4
1 -1 4 18407.4 739.951 2
1 -1 4 17858.2 666.343 3
1 -1 5 79877.2 1782.8 4
1 -1 5 74662.4 1718.73 3
-1 -1 -5 77546.3 1748.14 5
1 -1 5 78237.9 1845.69 2
1 -1 6 14657.3 720.334 2
-1 -1 -6 15733.1 717.608 5
1 -1 6 15404.7 743.766 4
1 -1 7 88549.8 2201.7 4
1 -1 7 88386.5 2134.86 2
1 -1 8 82420.3 2110.84 2
1 -1 8 81661.2 2222.16 4
1 -1 9 70459.3 2135.9 4
1 -1 9 69003.6 1968.63 2
-1 -1 -9 64322.3 1956.41 5
1 -1 10 9041.87 734.622 4
1 -1 10 9771.32 707.98 2
1 -1 10 8269.41 645.706 1
1 -1 11 28962.7 1410.81 4
1 -1 11 28687.4 1314.73 2
1 -1 12 20617.7 1129.08 9
1 -1 12 20272.9 1198.78 4
-1 -1 -12 18608.6 1055.66 11
-1 -1 -12 19744 1193.41 7
-1 -1 -13 43178.5 1716.68 11
1 -1 13 48954.1 1830.05 9
-1 -1 -14 2772.37 427.789 11
1 -1 14 3300.06 476.392 9
-1 -1 -15 14282.3 947.696 11
1 -1 15 14453.9 1000.97 13
1 -1 15 16964.2 1031.35 9
1 -1 16 5408.35 558.702 9
-1 -1 -16 4963.45 540.872 11
1 -1 16 4342.55 515.972 13
1 -1 17 3139.24 398.983 9
-1 -1 -17 2813.59 398.092 22
-1 -1 -17 2508.51 362.688 11
-1 -1 -18 2331.86 342.902 22
-1 -1 -18 2886.01 357.608 11
1 -1 18 2586.47 332.515 9
-1 -1 -19 1236.22 216.877 16
1 -1 19 1595.91 230.879 9
-1 -1 -19 1353.62 224.121 22
-1 -1 -19 1341.01 215.042 11
1 0 -20 3977.62 317.728 22
1 0 -19 240.887 113.421 22
1 0 -18 1220.41 250.036 22
1 0 -17 583.248 214.17 22
1 0 -17 671.83 211.694 16
1 0 -16 4266.04 518.172 16
1 0 -16 4731.55 549.551 22
1 0 -16 5071.21 555.229 11
1 0 -15 1923.22 371.823 22
1 0 -15 2417.92 411.824 11
1 0 -14 7235.5 706.55 11
1 0 -14 6667.48 674.962 22
-1 0 14 5985.16 611.749 9
-1 0 13 901.896 274.699 9
1 0 -13 1007.28 281.531 22
1 0 -13 1538.4 334.73 11
-1 0 12 68358.5 2340.06 4
-1 0 11 35621.2 1553.27 4
-1 0 10 92581 2601.11 4
-1 0 9 24599.2 1155.02 4
-1 0 8 187018 3787.43 4
-1 0 7 8321.32 432.647 2
-1 0 7 10150.8 612.016 4
-1 0 6 39449.3 910.527 2
-1 0 6 46979.6 1229.49 4
-1 0 5 6523.8 307.865 2
-1 0 5 6488.84 410.364 4
-1 0 4 5551.86 261.08 2
-1 0 4 6265.24 355.995 4
-1 0 3 623.715 103.753 4
-1 0 3 758.413 82.7495 2
-1 0 2 88052.9 1507.35 4
-1 0 1 84475 1381.52 4
1 0 0 37479.3 622.496 7
-1 0 0 37535.9 648.552 6
-1 0 -1 71069 1136.28 6
1 0 2 15735.9 425.769 4
1 0 2 16176.7 439.747 3
1 0 3 70166.3 1337.88 4
1 0 3 69263.1 1254.18 3
1 0 4 343841 5067.15 3
1 0 4 337433 5296.57 4
1 0 5 119726 2282.67 2
-1 0 -5 122390 2352.14 5
1 0 6 433463 6945.1 4
-1 0 -6 443302 7019.09 5
1 0 7 122754 2598.93 4
-1 0 -7 123897 2652.63 5
1 0 7 128771 2605.05 2
1 0 8 134326 2875 4
1 0 8 139317 2843 2
-1 0 -8 137106 2974.72 5
1 0 9 13291.2 766.561 4
1 0 9 13986 748.711 2
1 0 10 81209.2 2266.43 4
1 0 10 82684.6 2141.8 2
1 0 11 15242.8 935.081 4
1 0 12 22096.9 1189.4 4
1 0 13 6004.03 617.195 9
-1 0 -13 5966.71 627.021 11
1 0 14 26399.2 1349.69 9
-1 0 -14 28814 1423.08 11
1 0 15 3295.1 472.687 9
-1 0 -15 3012.6 463.549 11
-1 0 -16 6025.39 622.914 11
1 0 16 6205.77 613.054 9
1 0 17 614.059 188.325 9
-1 0 -17 1346.46 302.85 11
-1 0 -18 5825.75 520.651 11
-1 0 -18 6192.94 550.533 22
1 0 18 6032.29 502.863 9
-1 0 -19 528.054 122.087 16
-1 0 -19 694.693 186.524 22
-1 0 -20 -10.528 32.9102 22
1 1 -19 1640.5 246.869 22
1 1 -18 640.41 183.031 22
1 1 -17 5247.9 544.216 22
1 1 -16 160.375 139.939 22
1 1 -15 14509.2 1012.53 22
1 1 -14 2567.4 441.536 22
1 1 -14 1595.71 360.124 11
1 1 -13 3931.79 538.656 22
1 1 -13 3074.82 477.026 11
-1 1 12 8113.68 753.811 4
-1 1 11 37273.6 1609.83 4
-1 1 10 10921 784.07 4
-1 1 9 59642.6 1878.93 4
-1 1 8 37579 1349.37 4
-1 1 7 153516 3195.42 4
-1 1 6 59032.1 1588.07 4
-1 1 5 226991 3962.3 4
-1 1 4 31158.4 953.977 4
-1 1 3 322776 5004.91 4
-1 1 2 24411.4 650.391 4
-1 1 1 13992.1 394.24 4
-1 1 0 83286.7 1316.12 5
-1 1 -1 558376 7836.05 5
-1 1 -2 95497.4 1689.98 5
-1 1 -3 145748 2535.9 5
1 1 4 17597 644.491 4
-1 1 -4 17386.2 664.16 5
1 1 5 90480.2 1881 4
-1 1 -5 82678.5 1890.78 5
1 1 6 11528.6 606.609 4
-1 1 -6 12921.7 660.208 5
1 1 7 72975.6 1874.96 4
1 1 7 76387.3 1725.71 2
1 1 8 76237.7 2040.95 4
1 1 9 61883.3 1893.09 4
1 1 10 10539.4 760.702 4
1 1 11 28211.4 1315.05 4
1 1 12 20396.2 1156.97 4
-1 1 -13 41321.7 1725.35 11
-1 1 -14 2869.46 453.249 11
-1 1 -15 12317.2 901.383 11
-1 1 -16 4714.05 533.5 11
-1 1 -17 3294.61 446.334 22
-1 1 -18 1972.03 317.45 22
-1 1 -19 1697.01 249.138 22
1 2 -17 1294.31 244.497 22
1 2 -16 4069.87 475.969 22
1 2 -15 1088.84 284.348 22
1 2 -14 11967.9 926.294 22
1 2 -13 439.387 220.885 22
-1 2 11 3417.54 491.791 4
-1 2 10 26483.9 1337.51 4
-1 2 9 2464.93 391.783 4
-1 2 8 67354.2 2076.73 4
-1 2 7 3133.2 397.324 4
-1 2 6 83166.1 2145.61 4
-1 2 5 61467 1649.55 4
-1 2 4 165030 3096.74 4
-1 2 3 2490.04 253.508 4
-1 2 2 151337 2697.42 4
1 2 4 84265.7 1937.07 4
1 2 5 12046.3 646.838 4
1 2 6 54466.1 1603.16 4
1 2 7 16928.7 867.501 4
1 2 8 62448.2 1918.58 4
1 2 9 8631.79 714.704 4
1 2 10 25953.2 1313.76 4
1 2 11 6674.08 682.258 4
-1 2 -15 7072.66 690.36 22
-1 2 -16 7820.76 679.291 22
-1 2 -17 1270.76 251.831 22
-1 3 9 24341.3 1343.23 4
-1 3 8 1742.36 350.176 4
-1 3 7 36505.3 1555.48 4
-1 3 6 1400.79 295.082 4
-1 3 5 82701.1 2226.43 4
-1 3 4 3112.56 364.746 4
-1 3 3 32522 1170.68 4
-1 3 2 17073.2 785.037 4
1 3 4 16447.7 901.996 4
1 3 5 31986.7 1319.95 4
1 3 6 4155.84 484.22 4
1 3 7 41637.5 1634.06 4
1 3 8 7028.44 668.491 4
1 3 9 37579.8 1685.4 4
1 4 3 1871.09 351.041 4
1 4 4 24363.6 1333.73 4
1 4 5 803.77 245.297 4
-2 -6 9 446.409 116.42 21
-2 -6 9 455.648 120.929 12
-2 -6 8 4039.14 415.171 12
2 -6 -8 4171.48 421.903 10
-2 -6 8 4088.87 370.179 21
2 -6 -8 4267.85 464.545 14
-2 -6 7 1467.67 248.871 21
-2 -6 7 1513.1 273.293 12
2 -6 -7 1169.22 237.667 10
2 -6 -7 1899.92 356.471 14
-2 -6 6 1846.21 285.735 21
2 -6 -6 1357.29 259.785 10
2 -6 -6 2351.47 413.913 14
-2 -6 6 2045.09 327.05 12
-2 -6 5 244.883 115.202 12
2 -6 -5 397.169 233.241 14
-2 -6 5 465.773 154.878 21
2 -6 -5 460.569 154.255 10
-2 -6 4 3198.17 404.888 12
2 -6 -4 2493.15 347.417 10
2 -6 -4 3940.36 543.095 14
-2 -6 4 3041.91 386.216 21
2 -6 -3 576.128 231.727 14
-2 -6 3 239.96 136.938 12
-2 -6 3 296.912 140.815 21
-2 -6 2 4152.55 456.016 12
-2 -6 2 3346.3 388.619 21
2 -6 -2 4661.98 568.406 14
2 -6 -1 622.59 249.534 14
-2 -6 1 491.496 140.116 12
2 -6 0 3571.51 490.932 14
-2 -6 0 2805.84 374.922 12
-2 -6 -1 1178.05 247.742 12
2 -6 1 1182.53 290.319 14
2 -6 1 956.395 243.687 21
-2 -6 -2 7909.22 608.38 12
2 -6 2 7098.1 678.623 21
2 -6 2 9314.8 770.077 14
-2 -6 -3 191.167 137.153 12
2 -6 3 -140.469 134.66 21
-2 -6 -4 462.108 165.985 12
2 -6 4 367.341 176.7 21
-2 -6 -5 1221.04 253.594 10
2 -6 5 1238.42 278.789 21
-2 -6 -5 1400.14 263.43 12
2 -6 6 888.869 230.178 21
-2 -6 -6 891.328 233.49 10
-2 -6 -6 621.864 174.382 12
-2 -6 -7 793.386 196.219 12
-2 -6 -7 939.131 222.98 10
2 -6 7 679.301 180.463 21
-2 -6 -8 698.52 180.987 10
2 -6 8 891.171 176.625 21
2 -6 9 868.41 153.057 21
-2 -6 -9 1279.01 204.54 10
-2 -5 13 2314.18 270.697 12
-2 -5 13 1718.62 206.56 18
2 -5 -12 1622.95 262.267 10
2 -5 -12 1549.96 273.669 14
-2 -5 12 952.282 179.655 13
-2 -5 12 1584.14 224.585 21
-2 -5 12 1335.24 213.616 18
-2 -5 12 979.781 227.933 12
-2 -5 11 4108.61 406.052 18
2 -5 -11 5677.12 512.758 10
-2 -5 11 5405.67 456.798 21
-2 -5 11 3976.75 396.465 13
-2 -5 11 4243.92 487.139 12
2 -5 -11 4553.15 517.015 14
-2 -5 10 940.987 216.135 18
2 -5 -10 818.276 217.435 10
2 -5 -10 868.994 265.17 14
-2 -5 10 873.084 207.28 21
-2 -5 10 888.929 265.233 12
-2 -5 10 1132.2 234.182 13
-2 -5 9 4367.73 471.049 21
2 -5 -9 3725.44 533.817 14
2 -5 -9 4010.47 480.572 10
-2 -5 9 3500.28 491.932 12
-2 -5 8 1183.79 305.419 12
-2 -5 8 1250.23 276.06 21
2 -5 -8 1527.2 380.537 14
2 -5 -8 1033.01 271.75 10
-2 -5 7 3516.44 499.197 12
2 -5 -7 4113.6 576.726 14
2 -5 -7 3811.04 505.225 10
-2 -5 7 4848.14 535.085 21
2 -5 -6 -248.546 180.063 14
-2 -5 6 51.0531 149.175 21
2 -5 -6 11.455 118.149 10
-2 -5 6 -19.1826 132.492 12
-2 -5 5 3496.44 489.344 21
2 -5 -5 3035.73 453.626 10
2 -5 -5 3113.42 485.951 14
-2 -5 5 3105.07 452.166 12
2 -5 -4 381.476 180.298 14
-2 -5 4 627.746 216.215 12
2 -5 -4 852.818 267.658 10
-2 -5 4 752.535 270.513 21
-2 -5 3 7700.59 676.155 12
2 -5 -3 8402.28 759.897 14
2 -5 -3 7089.56 681.702 10
-2 -5 3 8904.97 774.255 21
2 -5 -2 4864.59 573.179 14
-2 -5 2 3881.12 470.34 12
2 -5 -2 3851.26 499.233 10
-2 -5 2 4508.06 553.615 21
-2 -5 1 6980.17 671.877 21
-2 -5 1 7135.88 627.915 12
2 -5 -1 7664.41 718.047 14
2 -5 0 148.131 142.392 14
-2 -5 0 153.644 114.256 12
2 -5 0 395.211 217.126 21
-2 -5 -1 10488.6 755.147 12
2 -5 1 10990 872.053 14
2 -5 1 11009.1 1006.08 21
2 -5 2 4832.79 591.326 14
-2 -5 -2 5106.61 530.83 12
2 -5 2 5668.17 726.04 21
2 -5 3 14508.5 1014.54 14
-2 -5 -3 14301.8 882.501 12
2 -5 3 15505.4 1171.32 21
-2 -5 -4 4355.46 598.469 10
2 -5 4 5194.79 608.469 14
-2 -5 -4 4387.26 497.395 12
2 -5 4 5582.24 689.779 21
-2 -5 -5 11536.9 1004.53 10
-2 -5 -5 12477.8 837.958 12
2 -5 5 11503 947.338 21
2 -5 5 11926.7 935.998 14
2 -5 6 1910.17 389.12 21
-2 -5 -6 2576.51 490.898 10
-2 -5 -6 2423.16 382.519 12
-2 -5 -7 2703.08 397.938 12
-2 -5 -7 3282.3 549.14 10
2 -5 7 2648.14 425.451 21
-2 -5 -8 2251.99 371.333 12
2 -5 8 2044.91 364.139 21
-2 -5 -8 2779.58 474.234 10
-2 -5 -9 891.559 285.855 10
-2 -5 -9 1146.35 381.119 12
2 -5 9 673.548 192.166 21
-2 -5 -10 826.711 246.839 10
2 -5 10 662.756 186.32 21
-2 -5 -11 3047.53 402.769 10
2 -5 11 2269.1 291.172 21
2 -5 12 896.384 159.743 21
-2 -5 -12 1328.3 239.07 10
-2 -5 -13 350.417 107.397 10
-2 -4 16 378.911 101.468 12
-2 -4 16 598.873 121.479 13
-2 -4 16 448.724 105.275 18
-2 -4 15 544.413 150.709 18
2 -4 -15 380.707 113.201 14
-2 -4 15 687.907 164.511 13
2 -4 -15 552.248 159.173 16
-2 -4 14 2788.26 340.888 13
2 -4 -14 2232.17 341.382 14
2 -4 -14 2091.7 342.512 16
-2 -4 14 2545.99 333.813 18
-2 -4 13 238.749 145.392 18
2 -4 -13 388.217 181.696 14
-2 -4 13 387.955 157.184 13
2 -4 -13 337.403 166.399 16
2 -4 -13 384.36 134.749 10
2 -4 -12 1744.11 350.561 16
-2 -4 12 2564.67 387.776 13
2 -4 -12 2911.02 481.125 14
-2 -4 12 2385.81 340.796 21
-2 -4 12 2319.58 370.824 18
2 -4 -12 2295.64 340.401 10
-2 -4 11 1601.93 332.925 18
2 -4 -11 1175.67 305.569 16
-2 -4 11 1247.44 278.962 21
2 -4 -11 1633.61 396.91 14
-2 -4 11 1270.62 286.414 13
2 -4 -11 972.997 254.383 10
2 -4 -10 15240.8 1184.16 14
-2 -4 10 17410.8 1019.46 21
-2 -4 10 17423.1 1080 13
2 -4 -10 13962.1 997.969 16
2 -4 -10 16877.8 1036.54 10
-2 -4 10 16465.9 1045.06 18
2 -4 -9 1324 310.147 10
2 -4 -9 1611.46 409.41 14
-2 -4 9 1406.29 317.352 13
-2 -4 9 1508.59 312.104 21
-2 -4 9 1319.25 318.885 18
-2 -4 8 4125.88 528.231 18
2 -4 -8 4178.49 590.097 14
-2 -4 8 4115.24 528.819 13
-2 -4 8 4352.81 541.902 21
2 -4 -8 3635.64 508.286 10
-2 -4 7 234.546 142.349 18
2 -4 -7 418.634 197.456 14
-2 -4 7 643.143 215.925 13
-2 -4 7 386.028 192.717 21
2 -4 -7 249.405 190.795 10
-2 -4 6 20225.1 1116.51 18
-2 -4 6 25258.5 1317.88 21
2 -4 -6 20877.6 1231.12 14
2 -4 -6 24097.1 1304.16 10
2 -4 -5 2004.37 350.808 14
-2 -4 5 2245.26 393.277 21
2 -4 -5 2377.32 396.94 10
-2 -4 4 18636.6 1122.68 21
2 -4 -4 15214.8 965.631 14
2 -4 -4 17725.2 1088.53 10
-2 -4 4 14270.2 992.795 6
-2 -4 4 15509.1 924.592 12
-2 -4 3 2015.54 349.659 6
-2 -4 3 1760 304.824 12
2 -4 -3 2286.22 396.672 7
2 -4 -3 1599.15 301.074 14
2 -4 -3 2089.94 369.582 10
-2 -4 3 1873.46 351.604 21
-2 -4 2 23240.4 1200.72 6
-2 -4 2 22264.3 1095.11 12
2 -4 -2 22924.5 1154.31 14
2 -4 -2 22784.5 1248.04 7
2 -4 -1 1622.94 277.374 1
2 -4 -1 1900.51 348.727 7
-2 -4 1 2203.54 352.912 6
-2 -4 0 10517.9 774.772 6
2 -4 0 9356.12 676.682 1
2 -4 1 4218.09 540.771 3
2 -4 1 2602.53 360.091 1
-2 -4 -1 4091.61 472.262 6
2 -4 2 12941.8 867.243 14
-2 -4 -2 12214.5 787.809 12
-2 -4 -2 12224.2 832.955 6
2 -4 2 10451.5 753.979 1
2 -4 3 3363.36 450.329 1
2 -4 3 3317.74 450.254 14
-2 -4 -3 2425.34 436.797 10
-2 -4 -3 2861.05 387.307 12
-2 -4 -3 2857.56 410.309 6
2 -4 3 4018.34 561.461 21
-2 -4 -4 12473.2 1016.1 10
2 -4 4 12531.4 907.232 14
2 -4 4 14362.9 1043.32 21
-2 -4 -4 11852.2 788.268 12
2 -4 5 6909.17 712.046 21
2 -4 5 7472.34 715.875 14
-2 -4 -5 7215.77 627.683 12
-2 -4 -5 7444.34 789.107 10
2 -4 6 4227.94 549.869 14
-2 -4 -6 3958.12 588.85 10
2 -4 6 4165.24 571.637 21
-2 -4 -6 2787.26 402.417 12
-2 -4 -7 2922.32 537.808 10
-2 -4 -7 1849.97 329.676 12
2 -4 7 1871.9 391.069 21
2 -4 8 6099.32 665.022 21
2 -4 8 4916.86 612.317 8
-2 -4 -8 6333.19 614.593 12
-2 -4 -9 4546.77 522.493 12
2 -4 9 3946.34 530.448 21
2 -4 9 3827.83 536.892 8
-2 -4 -9 5111.83 691.317 10
2 -4 10 12649.1 935.218 8
2 -4 10 12377.8 940.893 13
2 -4 10 11800.6 887.733 21
-2 -4 -10 12994.8 889.809 12
-2 -4 -11 3280.52 504.445 10
2 -4 11 2734.78 405.163 21
2 -4 11 3312.82 459.271 13
2 -4 12 5202.36 540.93 13
-2 -4 -12 6385.91 634.64 10
-2 -4 -13 3047.59 414.025 10
2 -4 13 2615.89 361.153 13
2 -4 14 3246.51 370.655 13
-2 -4 -14 3261.02 369.362 10
2 -4 15 500.891 135.707 13
-2 -4 -15 515.648 117.551 10
2 -4 16 325.867 84.7498 13
2 -3 -17 1190.5 216.003 16
2 -3 -17 888.506 173.278 14
-2 -3 17 1049.7 181.988 13
-2 -3 17 1109.09 194.544 18
-2 -3 16 651.982 184.991 18
2 -3 -16 847.23 219.185 16
2 -3 -16 824.979 214.653 14
-2 -3 16 787.068 181.069 13
2 -3 -15 5482.71 570.043 16
2 -3 -15 5248.67 578.375 14
-2 -3 15 5631.58 517.925 13
-2 -3 15 5310.92 511.169 18
-2 -3 14 713.397 220.642 13
2 -3 -14 609.956 225.681 16
-2 -3 14 403.345 179.882 18
-2 -3 13 3456.37 457.608 13
2 -3 -13 3862.82 540.56 16
-2 -3 13 3405.25 464.554 18
-2 -3 12 521.78 184.635 18
2 -3 -12 437.77 214.336 16
-2 -3 12 251.874 168.135 13
2 -3 -12 458.182 184.464 10
-2 -3 11 13686.1 900.874 21
2 -3 -11 12711.6 881.771 10
2 -3 -11 13926.5 1049.22 16
-2 -3 11 16348.5 1066.54 13
2 -3 -10 976.665 263.543 16
-2 -3 10 945.44 246.721 13
-2 -3 10 1520.56 318.556 21
2 -3 -10 1328.69 292.129 10
2 -3 -9 14449.3 1034.95 16
-2 -3 9 16248.7 1054.39 13
-2 -3 9 15390.4 972.563 21
2 -3 -9 16429.3 1029.72 10
-2 -3 8 2241.77 374.811 13
2 -3 -8 1990.68 434.322 7
-2 -3 8 1985.66 369.057 6
2 -3 -8 2369.31 402.107 10
2 -3 -7 29475.2 1588.06 7
-2 -3 7 25743.4 1277.21 6
-2 -3 6 109.053 106.594 1
2 -3 -6 208.828 164.444 7
-2 -3 6 119.598 106.762 6
2 -3 -5 27039.4 1318.47 7
-2 -3 5 26753.2 1154.67 1
-2 -3 5 23668.6 1102.21 6
2 -3 -4 2867.86 394.188 7
-2 -3 4 2623.97 344.74 1
-2 -3 4 2615.92 344.377 6
2 -3 -3 34220.4 1336.25 3
-2 -3 3 36707.9 1313.14 1
2 -3 -3 35160.9 1363.26 7
-2 -3 3 34031.9 1273.54 6
2 -3 -2 12092.6 652.507 1
2 -3 -2 13151.5 793.751 7
-2 -3 2 13145.2 754.163 6
2 -3 -2 12984 785.909 3
2 -3 -1 56588.2 1735.29 7
-2 -3 1 58441.1 1715.09 6
2 -3 -1 56367.2 1739.42 3
2 -3 0 11586.9 663.972 1
-2 -3 0 11977.7 709.078 6
2 -3 0 12559.7 751.556 7
2 -3 0 11897.8 742.643 3
2 -3 1 48034.1 1504.4 1
-2 -3 -1 52871.5 1580.34 6
2 -3 1 51719.1 1650.14 3
2 -3 2 1336.4 252.28 1
2 -3 2 1349.86 258.964 3
2 -3 2 1420.39 255.669 2
-2 -3 -2 1402.2 240.154 6
2 -3 3 23267.3 1088.45 1
2 -3 3 22773.1 1088.11 2
2 -3 3 26222.7 1169.19 3
-2 -3 -3 23757.1 1014.35 6
2 -3 4 12912.5 846.648 1
-2 -3 -4 12956.7 755.634 6
2 -3 4 13053.7 858.651 2
2 -3 4 14267.6 878.045 3
2 -3 5 28868.1 1367.62 2
2 -3 5 30424.3 1421.08 1
2 -3 5 29511.1 1335.52 3
2 -3 6 460.097 179.153 1
2 -3 6 149.742 127.856 2
2 -3 7 19133.7 1230.54 1
2 -3 7 19811.2 1180.13 2
2 -3 8 7541.19 788.274 1
2 -3 8 8123.32 766.231 8
-2 -3 -8 7577.63 654.264 12
2 -3 8 7061.78 713.792 2
-2 -3 -8 7714.79 804.688 10
-2 -3 -9 31659 1513.94 17
2 -3 9 36645 1678.96 8
2 -3 9 32203.3 1537.11 21
-2 -3 -9 32284.3 1454.48 12
-2 -3 -9 35261.1 1702.32 11
-2 -3 -9 38889.8 1836.07 10
-2 -3 -10 12311.5 998.634 10
2 -3 10 11437 917.176 8
-2 -3 -10 10779 828.741 12
-2 -3 -10 11672.6 951.911 11
2 -3 10 10470.5 883.427 9
-2 -3 -11 1547.92 358.774 10
2 -3 11 2392.37 428.311 9
-2 -3 -11 1420.15 332.321 11
2 -3 11 1421.54 335.889 8
2 -3 12 2235.16 384.025 9
-2 -3 -12 1907.45 390.617 10
-2 -3 -12 2136.91 412.731 11
2 -3 12 2301.5 416.023 8
2 -3 13 12821.2 870.697 9
-2 -3 -13 12072.3 869.089 10
-2 -3 -13 13375.4 957.457 11
2 -3 14 7479.05 626.936 9
2 -3 14 9487.78 729.139 13
-2 -3 -14 6845.19 604.539 10
-2 -3 -14 9351.81 749.33 11
2 -3 15 838.458 215.582 9
2 -3 15 884.603 222.751 13
-2 -3 -15 913.29 226.938 11
2 -3 16 2819.4 340.972 13
-2 -3 -16 3157.38 364.849 11
2 -3 16 3204.45 348.627 9
2 -3 17 704.092 139.737 9
-2 -3 -17 604.128 148.696 16
2 -3 17 767.594 159.147 13
-2 -3 -17 619.746 142.041 11
2 -2 -19 229.629 77.5016 16
-2 -2 18 1839.1 225.698 13
2 -2 -18 2396.67 288.179 16
2 -2 -18 1609.99 218.322 22
-2 -2 18 2474.21 267.799 18
2 -2 -17 883.837 221.7 16
-2 -2 17 836.717 186.76 13
-2 -2 17 979.377 209.779 18
2 -2 -17 1011.15 218.894 22
2 -2 -16 7631.01 635.67 16
-2 -2 16 7390.48 594.223 13
2 -2 -16 6343.35 602.872 22
-2 -2 16 7375.29 606.984 18
-2 -2 15 1577.04 320.217 18
-2 -2 15 955.211 259.459 13
2 -2 -15 1228.99 304.743 16
2 -2 -15 1401.55 309.071 22
2 -2 -14 15021.6 1021.1 16
-2 -2 14 15435 984.575 13
2 -2 -14 15150.1 1057.76 22
2 -2 -13 1814.66 365.44 16
-2 -2 13 2712.48 434.856 13
2 -2 -13 2290.03 436.626 22
2 -2 -12 21724 1259.45 11
2 -2 -12 22459.7 1339 22
-2 -2 12 23106.7 1267.22 13
2 -2 -12 22465.8 1304.63 16
-2 -2 12 20550.6 1176.08 9
-2 -2 11 258.526 157.867 9
-2 -2 11 165.839 127.248 13
2 -2 -11 -131.251 129.287 22
2 -2 -11 415.152 172.093 11
2 -2 -11 173.214 112.94 16
2 -2 -10 31698.3 1837.97 7
-2 -2 10 30939.9 1592.65 6
2 -2 -9 1027.02 302.718 7
-2 -2 9 905.156 235.321 6
-2 -2 8 71780.7 2125.32 2
2 -2 -8 74621.2 2532.4 7
-2 -2 8 69981.1 2225.93 6
2 -2 -7 9791.97 792.789 7
-2 -2 7 10513.4 704.146 2
-2 -2 7 10374.4 727.357 6
2 -2 -6 17298.1 973.692 7
-2 -2 6 15521.7 816.991 6
-2 -2 6 15136.3 725.385 1
2 -2 -5 7436.07 574.391 3
2 -2 -5 6928.97 565.568 7
-2 -2 5 6206.28 441.124 1
-2 -2 5 6516.8 484.734 6
2 -2 -4 68842.4 1844.46 3
-2 -2 4 66575.8 1631.66 1
2 -2 -4 68909.4 1872.39 7
-2 -2 3 4812.61 376.169 6
-2 -2 3 4849.02 369.612 1
2 -2 -3 6468.16 489.33 7
2 -2 -3 6045.48 462.349 3
2 -2 -3 5025.49 318.837 1
2 -2 -2 72338.2 1782.9 3
2 -2 -2 71372.5 1582.37 1
-2 -2 2 64852.4 1504.66 5
2 -2 -2 74610.1 1811.51 7
-2 -2 2 66764 1628.35 6
2 -2 -1 3500.19 335.28 3
2 -2 -1 3426.66 312.313 7
2 -2 -1 3487.82 292.153 1
-2 -2 1 3611.14 282.983 5
-2 -2 1 3610.92 309.443 6
-2 -2 0 85419.1 1776.18 5
2 -2 0 82390.7 1804.97 1
2 -2 0 82984.6 1928.03 3
2 -2 0 84701.9 1893.74 7
-2 -2 0 86518.3 1880.11 6
2 -2 0 79089.6 1802.38 2
2 -2 1 5474.91 387.804 1
-2 -2 -1 6066.42 383.919 5
2 -2 1 5961.7 413.959 7
-2 -2 -1 5628.23 389.973 6
2 -2 1 5892.72 435.241 2
2 -2 1 6258.39 433.074 3
-2 -2 -2 37848.3 1092.28 5
2 -2 2 34617.6 1127.01 1
-2 -2 -2 36182.8 1086.26 6
2 -2 2 36272.4 1152.19 3
2 -2 2 38359.4 1250.43 2
2 -2 3 6474.37 467.833 3
2 -2 3 6691.84 489.075 1
-2 -2 -3 7050.07 443.832 6
-2 -2 -3 6568.22 445.503 5
2 -2 3 6824.6 527.783 2
-2 -2 -4 148392 2981.94 5
2 -2 4 145476 3176.15 1
-2 -2 -4 149335 2915.68 6
2 -2 4 153539 3072.17 3
2 -2 5 59312.4 1725.74 3
2 -2 5 62404.4 1873.2 2
-2 -2 -5 60827.4 1713.48 5
2 -2 5 59588.9 1878.64 1
2 -2 6 72326.3 2115.04 2
2 -2 6 75789.7 2068.86 3
2 -2 6 71502 2205.16 1
-2 -2 -6 73534.4 2042.77 5
2 -2 7 20895.2 1072.53 2
2 -2 7 23514.8 1222.99 1
-2 -2 -7 20525.3 1041.52 5
-2 -2 -8 36331.9 1496.39 5
2 -2 8 38299.4 1652.39 1
2 -2 8 38999.9 1539.49 2
-2 -2 -9 4029.23 498.686 5
2 -2 9 3727.84 501.265 1
2 -2 9 4802.15 530.195 2
2 -2 10 38403.3 1690.27 1
2 -2 10 40406.2 1662.34 2
-2 -2 -10 38981.3 1670.89 5
2 -2 11 7162.89 654.961 9
2 -2 11 7763.17 744.523 8
-2 -2 -11 7580.66 693.311 11
-2 -2 -11 6341.72 651.296 10
2 -2 12 3440.34 505.239 8
-2 -2 -12 4202.14 525.318 11
2 -2 12 3459.26 468.294 9
2 -2 13 827.662 251.516 9
-2 -2 -13 585.292 220.616 11
2 -2 13 638.291 218.921 8
-2 -2 -14 13687.6 918.952 11
2 -2 14 13943.8 906.152 9
2 -2 15 1742.36 322.512 9
2 -2 15 1904.83 344.442 13
-2 -2 -15 1761.38 327.469 11
2 -2 16 5302.72 501.41 9
-2 -2 -16 4035.54 452.247 11
2 -2 16 4733.76 492.926 13
2 -2 17 1588.28 257.835 9
2 -2 17 1747.36 271.417 13
-2 -2 -17 1527.23 271.482 22
-2 -2 -17 1434.54 249.286 11
2 -2 18 1422.88 204.002 13
2 -2 18 1393.91 214.484 9
-2 -2 -18 1173.26 183.796 22
-2 -2 -18 1512.74 226.677 11
2 -2 19 499.635 104.548 9
-2 -2 -19 476.919 106.773 16
-2 -2 -19 460.845 107.608 11
2 -1 -19 3873.78 318.651 16
2 -1 -19 4432.33 362.068 22
2 -1 -18 124.611 95.2219 16
2 -1 -18 179.525 115.144 22
2 -1 -17 6636.55 570.243 16
2 -1 -17 6865.11 587.008 22
-2 -1 16 87.4366 108.531 18
2 -1 -16 187.458 153.783 16
2 -1 -16 148.405 121.792 22
2 -1 -15 16172.4 1028.09 22
2 -1 -15 15774.5 1016.54 16
-2 -1 15 14670.8 919.358 13
-2 -1 15 15779.2 981.071 18
-2 -1 14 2377.63 412.563 9
2 -1 -14 2142.84 393.534 16
-2 -1 14 2125.68 366.232 13
2 -1 -14 2785.37 452.775 22
2 -1 -13 37949.4 1687.28 22
2 -1 -13 33966.8 1597.2 16
-2 -1 13 33038 1501.87 13
2 -1 -13 37704.1 1617.66 11
-2 -1 13 35465.9 1554.33 9
2 -1 -12 2283.58 396.897 16
-2 -1 12 2306.13 385.525 13
-2 -1 12 2056.66 379.711 9
2 -1 -12 2435.26 394.279 11
2 -1 -12 2937.91 449.331 22
-2 -1 11 39148.6 1909.16 6
2 -1 -11 46704.5 2262.63 7
2 -1 -10 1867.33 426.662 7
-2 -1 10 2085.91 390.624 6
-2 -1 9 61445.1 2181.15 6
2 -1 -9 62347.2 2328.19 7
2 -1 -8 26482.3 1340.01 7
-2 -1 8 29498.1 1333.66 6
2 -1 -7 88124.6 2476.64 7
-2 -1 7 102050 2547.78 6
-2 -1 6 37580.5 1305.58 6
2 -1 -6 34383.3 1291.8 7
-2 -1 5 40068.2 1269.25 6
2 -1 -5 36506.4 1227.34 7
2 -1 -4 24858 921.357 3
2 -1 -4 26713.6 946.216 7
-2 -1 4 27613.5 921.7 6
2 -1 -3 138978 2224.46 1
2 -1 -3 143122 2695.12 3
-2 -1 3 141080 2617.7 6
2 -1 -2 36440.6 1035.78 3
2 -1 -2 38483.6 1038.25 7
-2 -1 2 37616 998.305 6
2 -1 -2 37535.9 838.806 1
2 -1 -1 133935 2314.32 1
2 -1 -1 139133 2538.17 3
-2 -1 1 139439 2439.61 5
-2 -1 1 140923 2459.86 6
2 -1 0 230487 3778.08 3
2 -1 0 230890 3658.68 7
-2 -1 0 224970 3657.26 6
-2 -1 0 234272 3687.79 5
2 -1 1 498583 7555.41 3
-2 -1 -1 517663 7484.81 5
2 -1 1 515260 7450.69 7
-2 -1 -1 493520 7433.6 6
2 -1 2 4321.35 319.048 3
-2 -1 -2 4170.2 293.253 5
-2 -1 -2 4209.46 278.373 6
-2 -1 -3 195540 3188.16 5
2 -1 3 204957 3472.7 2
2 -1 3 204907 2881.57 4
-2 -1 -3 167102 2746.13 7
2 -1 3 191289 3216.4 3
-2 -1 -3 196119 3115.38 6
-2 -1 -4 3949.83 321.554 5
2 -1 4 4135.45 372.721 2
2 -1 4 4721.69 344.711 3
-2 -1 -4 4634.45 256.561 7
-2 -1 -5 143298 2766.85 5
2 -1 5 143445 2711.12 3
-2 -1 -5 151133 2546.73 7
-2 -1 -6 2266.32 295.459 5
2 -1 6 2024.38 291.304 2
2 -1 6 2252.61 297.116 4
2 -1 7 147417 3177.1 2
2 -1 7 152380 3266.35 4
2 -1 7 145964 3026.11 3
-2 -1 -7 142476 3110.04 5
-2 -1 -8 3705.81 426.466 5
2 -1 8 4534.73 467.461 2
2 -1 8 4239.72 458.805 4
2 -1 9 48770.6 1737.68 4
2 -1 9 45924.1 1644.46 2
-2 -1 -9 44556.7 1649.36 5
-2 -1 -10 2661.86 401.182 5
2 -1 10 3057.73 424.308 2
-2 -1 -11 21444.5 1192.32 5
2 -1 11 18916.5 1076.02 2
2 -1 12 1838.92 337.492 9
2 -1 12 1453.18 349.204 8
-2 -1 -12 1239.78 301.283 11
2 -1 12 1442.21 320.237 2
2 -1 13 13285.3 901.415 9
2 -1 13 11540.2 923.372 8
-2 -1 -13 11399.3 841.201 11
2 -1 14 655.408 226.048 9
-2 -1 -14 560.292 198.028 11
2 -1 15 3950.89 482.59 9
-2 -1 -15 3622.26 463.02 11
2 -1 16 6445.05 595.063 9
2 -1 16 5461.89 559.251 13
-2 -1 -16 5713.21 554.387 11
2 -1 17 2897.48 371.148 9
2 -1 17 2385.41 335.785 13
-2 -1 -17 3005.81 378.505 11
2 -1 18 1848.69 267.804 9
-2 -1 -18 2068.48 288.861 11
-2 -1 -18 1846.18 283.292 22
2 -1 19 1961.78 232.904 9
-2 -1 -19 1705.51 221.603 11
-2 -1 -19 1325.85 206.03 22
2 0 -19 633.724 155.874 22
2 0 -18 4043.98 412.647 22
2 0 -17 574.658 171.709 22
2 0 -16 1477.95 301.026 22
2 0 -16 1801.6 326.792 16
2 0 -15 3789.32 505.007 16
2 0 -15 4716.46 540.47 22
2 0 -14 39347.4 1707.7 16
2 0 -14 41094 1704.56 22
2 0 -13 1650.57 350.583 16
2 0 -13 1708.6 357.894 22
2 0 -12 7914.23 729.739 16
-2 0 12 9979.18 891.938 4
2 0 -12 8873.32 769.129 22
2 0 -12 8049.18 724.914 11
-2 0 11 505.313 199.343 4
-2 0 10 39977.1 1658.72 4
-2 0 9 537.253 208.516 4
-2 0 8 127760 2994.72 4
-2 0 7 15391 813.204 4
-2 0 6 273785 4750.26 4
-2 0 5 795.586 156.875 4
-2 0 4 384171 5951 4
-2 0 3 4442.1 301.28 4
2 0 -1 22916.9 579.498 7
-2 0 1 24246.7 621.165 6
2 0 0 96932.8 1521.95 7
-2 0 0 91431.7 1555.28 6
-2 0 -1 2120.93 142.599 6
2 0 1 2096.48 181.593 3
2 0 2 273163 4230.97 3
-2 0 -2 267069 4067.09 6
-2 0 -3 199.882 83.9334 5
2 0 3 192.702 59.9054 4
-2 0 -4 76682.5 1680.03 5
2 0 4 77055.2 1564.34 4
-2 0 -5 8953.16 517.73 5
2 0 5 7906.7 406.52 3
2 0 5 9272.11 489.92 4
2 0 6 100648 2183.37 4
2 0 6 93796.3 1986.49 3
2 0 7 54539.4 1576.9 2
2 0 7 55527.3 1572.89 4
-2 0 -7 57031.1 1687.14 5
2 0 8 96082.6 2357.09 2
2 0 8 90078.6 2252.91 4
-2 0 -8 97786.7 2475.27 5
2 0 9 43843.1 1530.67 2
2 0 9 42355.1 1477.39 4
-2 0 -9 41696.7 1578.5 5
-2 0 -10 32466.3 1448.82 5
2 0 10 31843.9 1325.97 4
2 0 10 31143.5 1321.98 2
2 0 11 4815.09 524.042 4
2 0 12 21215.6 1178.61 4
-2 0 -12 22439.1 1219.12 11
2 0 12 22359.7 1177.26 9
2 0 13 9610.17 784.2 9
-2 0 -13 9166.94 783.538 11
2 0 14 7039.1 674.198 9
-2 0 -14 7478.68 713.654 11
2 0 15 1973.34 374.347 9
-2 0 -15 3421.33 473.163 11
2 0 16 7930.58 661.899 9
-2 0 -16 7264.29 664.712 11
2 0 17 3445.72 410.979 9
-2 0 -17 3516.2 426.506 11
2 0 18 1463.39 249.666 9
-2 0 -18 1751.48 276.478 22
-2 0 -18 1829.43 278.853 11
-2 0 -19 1622.34 240.826 22
-2 0 -19 1440.34 202.857 11
2 0 19 1433.19 193.395 9
2 1 -19 4641.55 373.775 22
2 1 -18 127.81 104.054 22
2 1 -17 7727.03 625.214 22
2 1 -16 170.336 146.35 22
2 1 -15 17009.7 1064.62 22
2 1 -14 2600.53 423.408 22
2 1 -13 32325.6 1559.54 22
2 1 -12 2307.29 422.245 22
-2 1 11 40940.7 1775.53 4
-2 1 10 2049.95 375.875 4
-2 1 9 57150 1946.68 4
-2 1 8 28377.9 1223.63 4
-2 1 7 100803 2438.26 4
-2 1 6 33886.6 1175.49 4
-2 1 5 34919.3 1097.42 4
-2 1 4 26203.1 840.606 4
-2 1 3 133837 2342.07 4
-2 1 2 39873.8 848.362 4
-2 1 1 143098 2106.66 5
-2 1 1 110926 1760.91 4
-2 1 0 223258 3509.57 5
-2 1 -1 482515 7094.55 5
-2 1 -2 3174.65 245.679 5
2 1 2 3119.08 197.614 3
-2 1 -3 199119 3207.8 5
2 1 3 175110 2801.14 3
-2 1 -4 5594.47 391.629 5
2 1 4 5922.27 387.492 4
2 1 5 153400 2895.16 4
-2 1 -5 152918 2999.43 5
2 1 6 2896.37 310.983 4
-2 1 -6 3494.87 362.547 5
2 1 7 138475 2959.32 4
-2 1 -7 149398 3169.05 5
-2 1 -8 4788.51 489.154 5
2 1 8 4346.04 440.509 4
2 1 9 48640.6 1681.27 4
-2 1 -9 51560.2 1802.66 5
2 1 10 3243.16 432.121 4
2 1 11 19472.3 1095.49 4
2 1 12 1338.83 293 9
2 1 13 11176.3 843.764 9
2 1 14 609.793 226.609 9
2 1 15 4216.18 501.217 9
-2 1 -18 1860.06 292.044 22
-2 1 -19 2159.31 256.963 22
2 2 -17 661.571 178.51 22
2 2 -16 5647.49 531.228 22
2 2 -15 1175.58 278.94 22
2 2 -14 12881.8 922.659 22
2 2 -13 1659.97 348.867 22
-2 2 10 32647.7 1540.01 4
-2 2 9 885.828 262.05 4
-2 2 8 74436.4 2215.95 4
-2 2 7 10630.3 715.752 4
-2 2 6 20786.6 957.975 4
-2 2 5 6086.8 473.513 4
-2 2 4 69020.7 1710.14 4
2 2 5 63809.5 1727.8 4
2 2 6 74067.3 1974.17 4
2 2 7 22473.3 1031.45 4
2 2 8 37163.1 1428.26 4
2 2 9 5212.83 547.708 4
2 2 10 37878.8 1613.94 4
2 3 5 34566.3 1420.34 4
2 3 6 319.195 146.47 4
2 3 7 19079.5 1089.76 4
2 3 8 8821.21 746.293 4
-3 -6 8 -8.0868 26.2049 12
-3 -6 8 -12.8489 37.2326 21
-3 -6 7 320.907 107.105 21
3 -6 -7 439.175 187.606 14
-3 -6 7 77.8661 81.262 12
3 -6 -6 2154.55 384.286 14
-3 -6 6 1514.05 240.414 21
-3 -6 6 1428.89 246.005 12
3 -6 -5 828.072 244.548 14
-3 -6 5 555.774 170.042 21
-3 -6 5 446.204 154.43 12
-3 -6 4 618.41 179.752 21
3 -6 -4 685.216 229.918 14
-3 -6 4 557.229 164.79 12
3 -6 -3 204.001 169.039 14
-3 -6 3 -13.0735 87.2812 12
-3 -6 3 244.647 134.153 21
-3 -6 2 1824.03 271.119 21
-3 -6 2 1974.85 287.874 12
3 -6 -1 574.976 211.086 14
-3 -6 1 367.834 138.702 12
3 -6 0 986.194 263.638 14
-3 -6 0 919.662 194.154 12
3 -6 1 482.708 185.784 21
3 -6 1 339.806 186.145 14
-3 -6 -1 559.678 159.218 12
-3 -6 -2 3992.45 391.147 12
3 -6 2 3388.91 468.229 21
-3 -6 -3 552.728 164.009 12
3 -6 3 818.596 244.884 21
-3 -6 -4 1901.22 269.65 12
3 -6 4 2156.88 359.781 21
3 -6 5 1029.92 242.598 21
-3 -6 -5 936.37 187.707 12
-3 -6 -6 3308.58 337.767 12
3 -6 6 3236.65 370.188 21
-3 -6 -6 2185.34 282.729 10
3 -6 7 96.9184 82.565 21
-3 -6 -7 -54.4981 50.2372 10
3 -6 8 772.254 145.024 21
-3 -5 12 392.457 105.128 21
-3 -5 12 119.791 72.3786 12
3 -5 -12 26.7226 48.3955 14
-3 -5 12 269.596 89.5092 18
-3 -5 11 370.568 150.888 12
3 -5 -11 471.048 189.118 14
-3 -5 11 305.998 118.147 21
-3 -5 11 146.213 87.6362 18
-3 -5 10 356.936 142.93 21
-3 -5 10 339.093 176.374 12
-3 -5 10 318.195 132.3 18
-3 -5 9 8380.38 620.98 21
-3 -5 9 7825.03 662.295 12
3 -5 -9 8076.6 659.796 10
-3 -5 9 5929.01 512.838 18
3 -5 -9 7670.92 733.192 14
-3 -5 8 755.524 243.464 12
3 -5 -8 1027.75 244.481 10
3 -5 -8 689.565 251.213 14
-3 -5 8 728.404 204.629 21
3 -5 -7 8994.99 791.981 14
-3 -5 7 7904.66 680.731 12
-3 -5 7 10167.7 753.595 21
3 -5 -7 8725.94 726.642 10
3 -5 -6 -65.8493 168.42 14
-3 -5 6 252.937 142.676 21
3 -5 -6 -2.95502 125.345 10
-3 -5 6 -185.4 139.976 12
-3 -5 5 10004.7 744.609 12
3 -5 -5 11931.2 901.417 14
-3 -5 5 12851.1 885.033 21
3 -5 -5 10574.4 824.134 10
3 -5 -4 403.812 190.545 14
-3 -5 4 176.49 151.745 12
-3 -5 4 727.208 245.395 21
3 -5 -4 416.83 191.186 10
3 -5 -3 2011.09 375.806 14
-3 -5 3 2342.79 358.884 12
-3 -5 3 2679.45 399.996 21
3 -5 -3 2598.74 414.306 10
-3 -5 2 226.815 130.24 12
3 -5 -2 426.675 199.56 14
-3 -5 2 178.168 144.856 21
3 -5 -1 2803.59 503.701 21
3 -5 -1 2718.67 426.58 14
-3 -5 1 3154.71 398.956 12
-3 -5 1 2403.18 382.3 21
3 -5 0 17.5074 177.417 21
3 -5 0 222.058 120.227 14
-3 -5 0 -132.541 146.317 12
3 -5 1 965.445 272.528 14
-3 -5 -1 1447.28 280.342 12
3 -5 1 1024.26 322.931 21
3 -5 2 16.83 121.816 14
-3 -5 -2 -244.484 143.628 12
3 -5 2 -389.901 239.328 21
3 -5 3 6745.31 685.337 14
-3 -5 -3 6054.06 565.182 12
3 -5 3 7932.19 837.55 21
-3 -5 -3 6857.46 733.734 10
3 -5 4 453.154 172.713 14
-3 -5 -4 965.579 253.688 12
3 -5 4 721.385 293.31 21
-3 -5 -4 896.666 283.86 10
3 -5 5 7411.43 715.031 14
-3 -5 -5 7112.85 616.637 12
3 -5 5 7198.99 733.485 21
-3 -5 -5 7903.41 819.684 10
-3 -5 -6 3566.16 560.86 10
-3 -5 -6 2591.84 388.371 12
3 -5 6 2828.26 439.459 21
-3 -5 -7 2399.42 370.603 12
3 -5 7 1807.35 341.36 21
-3 -5 -7 3001.47 487.135 10
-3 -5 -8 1344.94 279.153 12
3 -5 8 1170.75 277.269 21
-3 -5 -8 1385.8 327.878 10
-3 -5 -9 6063.12 605.305 10
3 -5 9 4459.43 456.001 21
3 -5 10 2426.39 308.973 21
-3 -5 -10 3048.07 399.207 10
3 -5 11 667.437 142.162 21
-3 -5 -11 717.243 169.736 10
-3 -5 -12 404.886 113.396 10
-3 -4 15 33.9762 45.2516 18
3 -4 -15 93.1477 67.2346 16
3 -4 -15 109.462 62.7893 14
-3 -4 15 -3.50211 32.5544 12
-3 -4 15 146.165 59.9904 20
3 -4 -14 2254.13 313.743 16
3 -4 -14 2738.75 379.986 14
-3 -4 14 2640.36 308.213 13
-3 -4 14 2822.25 320.846 18
-3 -4 13 272.741 125.747 18
3 -4 -13 49.1326 147.679 14
-3 -4 13 80.5738 85.1467 13
3 -4 -13 215.553 130.856 16
3 -4 -12 2638.99 396.829 16
3 -4 -12 3222.89 389.14 10
3 -4 -12 3172.93 484.162 14
-3 -4 12 3147.87 402.977 13
-3 -4 12 2360.02 323.43 21
-3 -4 12 3014.23 393.51 18
3 -4 -11 3098.22 434.761 16
3 -4 -11 3798.85 549.199 14
-3 -4 11 3188.48 421.494 13
-3 -4 11 3959.31 470.993 18
3 -4 -11 2965.65 389.992 10
-3 -4 11 3444.75 425.926 21
-3 -4 10 7009.76 656.307 18
3 -4 -10 6073.93 626.255 16
3 -4 -10 7089.9 760.489 14
-3 -4 10 7034.96 653.881 13
-3 -4 10 8629.48 692.456 21
3 -4 -10 7636.08 664.703 10
-3 -4 9 375.209 185.738 18
3 -4 -9 315.839 187.138 16
3 -4 -9 199.156 149.351 14
-3 -4 9 127.054 123.856 13
-3 -4 9 402.584 192.464 21
3 -4 -9 217.081 121.142 10
3 -4 -8 9444.75 848.437 14
-3 -4 8 10106.5 797.756 13
3 -4 -8 8198.04 732.606 16
-3 -4 8 11774.6 859.903 21
3 -4 -8 9439.66 783.603 10
-3 -4 8 9237.54 761.205 18
-3 -4 7 1116.43 287.155 18
3 -4 -7 1238.49 332.868 14
-3 -4 7 1457.27 323.756 13
-3 -4 7 1296.92 307.166 21
3 -4 -7 885.468 260.449 10
3 -4 -6 13790.2 976.384 14
-3 -4 6 14892.7 946.029 18
-3 -4 6 13726.3 921.563 13
-3 -4 6 15058.7 1004.86 21
3 -4 -6 14054 968.798 10
-3 -4 5 135.02 128.882 18
3 -4 -5 67.7139 136.236 14
-3 -4 5 53.7199 105.991 12
-3 -4 5 61.4583 131.533 21
-3 -4 5 51.7499 93.8867 20
3 -4 -5 188.323 152.215 10
3 -4 -4 12616 895.695 14
-3 -4 4 12824.3 852.684 12
-3 -4 4 14976.7 993.635 21
3 -4 -4 15931.4 1021.05 10
3 -4 -3 21984.3 1185.93 14
-3 -4 3 20983.3 1103.02 12
-3 -4 3 25902.7 1302.55 21
3 -4 -3 24593.8 1265.38 10
3 -4 -2 11725.4 840.869 14
-3 -4 2 12565.6 880.425 21
3 -4 -2 10969.3 943.449 21
3 -4 -2 12726.5 886.561 10
-3 -4 2 11750.2 806.375 12
-3 -4 1 2363.07 350.304 17
3 -4 -1 1984.69 344.899 14
-3 -4 1 2607.22 394.984 21
3 -4 -1 2364.86 373.45 10
-3 -4 1 2399.58 374.516 12
3 -4 -1 2939.64 489.124 21
3 -4 0 18873.8 1089.31 10
-3 -4 0 17291.7 982.75 17
3 -4 0 20088.3 1318.67 21
3 -4 0 18869 1065.69 14
-3 -4 0 18557 1016.61 12
-3 -4 0 18631.3 1065.12 21
-3 -4 -1 1773.67 301.436 17
3 -4 1 2276.48 372.221 14
-3 -4 -1 1464.59 293.694 12
3 -4 1 2596.71 461.523 21
-3 -4 -2 24608.4 1188.34 12
-3 -4 -2 22896 1169.82 17
3 -4 2 27814.8 1534.49 21
3 -4 2 25115.2 1267.93 14
-3 -4 -2 23888.7 1413.19 10
3 -4 3 43.6992 153.65 14
-3 -4 -3 337.209 163.899 12
-3 -4 -3 374.959 189.473 10
3 -4 3 -43.8342 81.2211 21
-3 -4 -3 271.956 129.527 17
3 -4 3 -56.0516 99.9391 19
3 -4 4 17852.1 1102.6 14
-3 -4 -4 17681.8 1012.08 12
3 -4 4 16343.5 1125.92 21
3 -4 4 17145.9 1109.86 19
-3 -4 -4 16875 1025.75 17
3 -4 5 3448.8 513.165 14
-3 -4 -5 3553.33 459.837 12
-3 -4 -5 3654.06 608.23 10
-3 -4 -5 2694.5 420.291 17
3 -4 5 2880.04 477.375 21
3 -4 5 3611.21 509.65 19
-3 -4 -6 7398.76 708.852 17
3 -4 6 6670.76 690.235 14
-3 -4 -6 6613.45 633.379 12
3 -4 6 6014.11 680.878 21
3 -4 6 6393.51 709.787 19
-3 -4 -6 7889.43 865.802 10
-3 -4 -7 1984.56 381.295 17
3 -4 7 1896.32 393.713 8
-3 -4 -7 3489.89 464.963 12
3 -4 7 3113.74 478.525 21
-3 -4 -8 3570.3 493.529 17
3 -4 8 5136.03 605.897 8
-3 -4 -8 5286.36 574.858 12
3 -4 8 5130.02 600.779 21
-3 -4 -8 6849.21 767.854 10
-3 -4 -9 1527.47 321.627 17
-3 -4 -9 1636.77 335.447 12
3 -4 9 1499.84 327.983 8
3 -4 9 1580.39 343.613 21
-3 -4 -9 1634.72 370.087 10
3 -4 10 3603.84 477.916 8
3 -4 10 2952.32 415.271 21
-3 -4 -10 4149.01 544.269 10
-3 -4 -11 1290.77 299.961 10
3 -4 11 1157.98 266.358 8
3 -4 11 1096.25 239.535 21
3 -4 12 1700.23 300.02 13
-3 -4 -12 1565.81 287.48 10
3 -4 13 420.826 150.637 13
-3 -4 -13 141.925 101.179 10
-3 -4 -14 943.961 181.457 10
3 -4 14 1087.2 202.276 13
3 -4 15 668.592 129.067 13
-3 -3 17 2325.8 235.099 18
3 -3 -17 2608.73 270.945 16
3 -3 -17 2658.76 283.593 14
-3 -3 16 1814.31 253.467 18
3 -3 -16 1432.71 245.717 16
3 -3 -16 1292.21 264.738 14
-3 -3 16 1332.24 222.461 13
3 -3 -15 4651.69 478.535 16
3 -3 -15 4940.04 560.694 14
-3 -3 15 4239.77 425.041 13
-3 -3 15 4736.36 455.89 18
-3 -3 14 545.562 184.485 18
3 -3 -14 573.99 200.439 16
3 -3 -14 1047.66 308.354 14
-3 -3 14 449.09 163.969 13
3 -3 -13 7292.64 685.558 16
-3 -3 13 6748.74 621.813 13
-3 -3 13 7888.3 673.446 18
-3 -3 12 285.986 172.5 18
3 -3 -12 222.547 153.595 16
-3 -3 12 653.69 237.137 13
3 -3 -11 14256.8 1017.45 16
-3 -3 11 13420.2 882.595 21
-3 -3 11 13981 955.532 13
3 -3 -11 12892.9 869.111 10
-3 -3 11 13411.3 937.604 18
3 -3 -10 1790.16 375.948 16
-3 -3 10 2006.2 375.079 18
-3 -3 10 1998.76 374.395 13
-3 -3 10 2108.18 367.622 21
3 -3 -10 1808.9 325.646 10
3 -3 -9 10212.3 844.971 16
-3 -3 9 10793.3 835.601 13
3 -3 -9 10034.5 788.3 10
-3 -3 9 9773.72 779.81 21
-3 -3 9 10530.2 823.701 18
-3 -3 8 801.783 219.336 18
3 -3 -8 224.945 126.367 16
-3 -3 8 261.654 124.294 13
-3 -3 8 378.507 186.414 21
3 -3 -8 194.711 162.351 10
3 -3 -7 20167.9 1186.09 14
-3 -3 7 21902.2 1160.25 13
-3 -3 7 23629.5 1225.58 21
3 -3 -7 19923.1 1123.93 10
-3 -3 7 21476.1 1146.11 18
3 -3 -7 21070.9 1176.28 16
3 -3 -6 3282.49 499.269 7
-3 -3 6 2937.23 412.789 6
3 -3 -5 18382 1114.24 7
-3 -3 5 16136.8 946.705 6
3 -3 -4 4131.22 504.427 7
-3 -3 4 3410.02 414.472 6
-3 -3 3 34700.6 1370.29 6
3 -3 -3 38516.6 1540.9 7
3 -3 -3 36556.9 1564.75 3
-3 -3 2 310.091 129.134 6
3 -3 -2 461.399 183.751 3
3 -3 -2 120.449 116.443 7
3 -3 -1 50413.5 1720.03 7
-3 -3 1 48904.7 1649.82 6
3 -3 -1 45755.9 1695.64 3
-3 -3 0 4127.16 440.402 6
3 -3 0 2772.31 353.087 1
3 -3 0 3363.91 421.275 7
3 -3 0 3516.08 434.264 3
3 -3 1 40528.8 1485.36 1
-3 -3 -1 45372.8 1545.63 6
3 -3 1 41797.2 1565.49 3
-3 -3 -2 15439.7 856.242 6
3 -3 2 14237.1 885.523 2
3 -3 2 14619.2 890.202 3
3 -3 2 14932.8 915.448 1
-3 -3 -3 22169.8 1036.89 6
3 -3 3 21149.4 1090.12 3
3 -3 3 23226.4 1219.32 1
3 -3 3 22031.1 1198.62 2
-3 -3 -4 6401.38 552.655 6
3 -3 4 6916.72 700.773 1
3 -3 4 6309.61 596.991 3
3 -3 4 6861.22 691.512 2
3 -3 5 34681.7 1494.42 3
3 -3 5 36841.5 1690.42 2
3 -3 5 37567.4 1796.56 1
3 -3 6 12089.7 876.797 3
3 -3 6 11744 940.468 2
3 -3 6 11676.6 1026.95 1
-3 -3 -7 17041.1 1008.88 17
-3 -3 -7 16235.5 1046.08 15
3 -3 7 17323 1104.88 8
-3 -3 -7 16815.1 986.25 12
3 -3 7 16253.9 1032.76 21
3 -3 7 17851.4 1114.38 19
-3 -3 -8 4925.91 571.171 15
-3 -3 -8 4592.97 537.213 12
-3 -3 -8 4395.29 516.221 17
3 -3 8 4588.77 567.882 21
3 -3 8 5420.67 617.809 8
-3 -3 -9 10570.7 838.714 17
-3 -3 -9 10544.1 861.249 15
3 -3 9 12058.2 929.809 8
-3 -3 -9 11885.7 879.928 12
3 -3 9 10140.5 837.291 21
-3 -3 -10 1395.04 313.97 17
3 -3 10 1734.28 365.252 8
-3 -3 -10 1410.84 343.108 11
-3 -3 -10 1360.11 348.56 10
-3 -3 -11 12659.9 937.802 11
3 -3 11 13486.4 949.391 8
-3 -3 -11 12908.6 951.746 10
3 -3 12 6354.77 619.468 9
3 -3 12 6959.01 659.297 8
-3 -3 -12 5899.26 615.01 11
-3 -3 -12 5741.41 613.322 10
3 -3 13 2978.04 403.742 9
3 -3 13 2916.41 412.362 8
-3 -3 -13 2883.39 404.474 11
-3 -3 -13 2276.97 365.902 10
3 -3 14 407.79 168.009 9
-3 -3 -14 219.217 144.446 11
-3 -3 -14 222.174 107.606 10
3 -3 15 1718.65 270.514 9
3 -3 15 1721.87 278.689 13
-3 -3 -15 1896.53 284.051 11
3 -3 16 1416.89 207.961 9
3 -3 16 1520.7 229.855 13
-3 -3 -16 1197.29 199.823 11
3 -3 17 806.209 138.484 13
3 -2 -18 3134.63 286.256 16
3 -2 -18 3000.4 313.073 14
-3 -2 17 527.825 145.544 18
3 -2 -17 441.596 138.606 22
3 -2 -17 357.722 138.123 16
-3 -2 16 1598.45 272.049 18
-3 -2 16 1776.44 276.888 13
3 -2 -16 2634.92 359.454 22
3 -2 -16 2086.95 311.049 16
-3 -2 15 56.4936 78.9568 18
3 -2 -15 83.3273 109.468 16
-3 -2 15 246.704 122.213 13
3 -2 -15 46.0736 106.165 22
3 -2 -14 8932.16 762.088 22
3 -2 -14 8365.74 712.519 16
-3 -2 14 8913.41 708.238 13
-3 -2 14 9106.18 733.986 18
-3 -2 13 1451.05 314.672 18
3 -2 -13 1524.49 344.164 22
3 -2 -13 1577.65 331.271 16
-3 -2 13 1577.72 328.281 13
-3 -2 12 12823.5 928.55 18
3 -2 -12 11804.4 904.909 16
-3 -2 12 12385 904.004 13
3 -2 -12 12140.6 951.345 22
-3 -2 11 501.112 208.905 18
3 -2 -11 114.41 143.497 16
-3 -2 11 503.187 205.283 13
3 -2 -11 200.496 167.717 22
3 -2 -10 22961.6 1270.38 16
-3 -2 10 25084.3 1289.19 13
3 -2 -10 21092.6 1233.42 22
-3 -2 10 23839.7 1258.41 18
-3 -2 9 1001.87 259.086 18
3 -2 -9 1155.29 279.008 16
-3 -2 9 1110.2 264.886 13
3 -2 -9 1281.73 333.871 7
-3 -2 9 1407.62 325.398 6
3 -2 -8 26590.2 1473.58 7
-3 -2 8 24314.6 1268.34 6
3 -2 -7 3143.91 471.653 7
-3 -2 7 2660.77 388.191 6
3 -2 -6 83692.4 2616.35 3
3 -2 -6 89987.6 2583.13 7
-3 -2 6 81656.1 2291.66 6
3 -2 -5 17704.8 1047.39 3
-3 -2 5 16580 872.404 6
3 -2 -5 18712.2 1036.03 7
-3 -2 4 75047.1 1978.84 5
-3 -2 4 78330 2047.92 6
3 -2 -3 24324.9 1118.96 3
-3 -2 3 22502.4 930.065 5
3 -2 -3 25477.7 1103.1 7
-3 -2 3 23882.5 989.24 6
3 -2 -2 153444 3317.48 3
-3 -2 2 150127 3066.75 5
3 -2 -2 163658 3248.19 7
-3 -2 2 158667 3162.46 6
-3 -2 1 10562.7 602.961 5
3 -2 -1 10568.2 626.368 7
-3 -2 1 10972.6 630.835 6
3 -2 -1 9991.73 554.269 1
3 -2 -1 10644.5 679.039 3
3 -2 0 33956.8 1236.34 3
3 -2 0 31509.4 1208.87 2
3 -2 0 29304.7 1048.93 1
-3 -2 0 31844.3 1105.45 5
3 -2 0 33659.9 1144.01 7
-3 -2 0 33789 1167.45 6
3 -2 1 33585.7 1353.15 2
-3 -2 -1 35340.3 1178.82 5
3 -2 1 32890.1 1179.93 1
3 -2 1 37248 1226.51 7
-3 -2 -1 35985.3 1197.51 6
3 -2 2 83825 2337.52 2
-3 -2 -2 78955.9 1951.32 5
-3 -2 -2 82253.4 1948.59 6
3 -2 2 77426.5 2113.47 1
3 -2 2 77579.6 2005.51 3
3 -2 3 8807.73 701.365 2
-3 -2 -3 7498.37 526.011 5
-3 -2 -3 8310.79 529.066 6
3 -2 3 8171.33 666.337 1
3 -2 3 7991.83 566.362 3
3 -2 4 47362.9 1727.58 2
-3 -2 -4 41565.2 1398.6 5
3 -2 4 44992.6 1754.72 1
-3 -2 -4 43612.1 1352.92 6
3 -2 4 40862.4 1408.99 3
-3 -2 -5 8842.94 634.566 5
3 -2 5 10297.5 846.925 1
3 -2 5 9310.25 647.881 3
3 -2 5 10850 799.659 2
3 -2 6 40114.6 1785.79 1
-3 -2 -6 37414.5 1446.35 5
3 -2 6 37955.6 1436.38 3
3 -2 6 39793.7 1606.56 2
-3 -2 -7 2049.61 350.083 5
3 -2 7 1776.84 309.447 3
3 -2 7 2185.61 367.831 2
3 -2 7 1776.84 349.344 1
3 -2 8 7526.16 768.002 1
3 -2 8 8380.28 700.577 3
3 -2 8 8262.8 716.16 2
-3 -2 -8 7621.36 682.686 5
-3 -2 -9 15049.2 964.847 17
-3 -2 -9 16880.2 1033.18 15
3 -2 9 15003.7 1005.73 8
-3 -2 -9 14246.8 983.721 5
3 -2 9 15439.3 1009.66 2
3 -2 9 16167 1149.77 1
-3 -2 -10 20203.6 1131.73 17
3 -2 10 17961.8 1058.37 9
-3 -2 -10 19583.3 1129.84 15
3 -2 10 20836.8 1211.96 8
3 -2 11 22838.1 1198.83 9
3 -2 11 24005.7 1309.27 8
-3 -2 -11 23075.7 1240.6 11
-3 -2 -12 2298.53 396.016 11
3 -2 12 2309.08 386.56 9
3 -2 12 2237.61 410.969 8
-3 -2 -12 1775.01 347.571 10
3 -2 13 9866.2 751.606 9
3 -2 13 9147.21 769.861 8
-3 -2 -13 8560.74 713.867 11
3 -2 14 12902.5 839.551 9
3 -2 14 12391 866.924 8
-3 -2 -14 13245.7 852.795 11
3 -2 15 2370.53 343.922 9
-3 -2 -15 2493.75 354.559 11
3 -2 16 1498.59 261.781 9
3 -2 16 1102.45 227.536 13
-3 -2 -16 1311.02 243.827 11
3 -2 17 2368.66 285.552 9
-3 -2 -17 1834.44 252.231 11
3 -2 17 2188.22 272.022 13
-3 -2 -17 1876.67 258.378 22
3 -2 18 515.768 107.713 9
-3 -2 -18 499.593 115.037 11
3 -1 -19 1685.08 197.421 22
3 -1 -18 154.754 67.3303 16
3 -1 -18 172.527 95.9865 22
3 -1 -17 4439.24 422.302 16
3 -1 -17 3921.53 411.596 22
3 -1 -16 1871.46 310.927 16
3 -1 -16 1902.96 321.744 22
3 -1 -15 5489.7 560.1 16
-3 -1 15 4706.18 491.52 13
3 -1 -15 5241.81 552.656 22
-3 -1 15 5629.21 543.737 18
-3 -1 14 2561.78 388.739 18
3 -1 -14 2715.18 414.686 16
-3 -1 14 1909.43 341.176 13
3 -1 -14 2548.08 409.48 22
3 -1 -13 24460.8 1302.58 16
-3 -1 13 22786.5 1205.95 13
3 -1 -13 26523.7 1364.59 22
-3 -1 13 23085.4 1234.63 18
3 -1 -12 7902.93 734.606 16
-3 -1 12 5958.41 616.227 13
3 -1 -12 7861.84 743.021 22
-3 -1 12 6864.26 671.636 18
3 -1 -11 26942.5 1355.93 16
-3 -1 11 24772.4 1268.94 13
3 -1 -11 27041.8 1379.67 22
-3 -1 11 24247 1273.92 18
3 -1 -10 4086.79 621.081 7
-3 -1 10 4316.1 601.323 6
3 -1 -9 56591.8 2238.93 3
-3 -1 9 52321.3 2093.85 6
3 -1 -8 1799.63 381.912 3
3 -1 -8 1371.82 324.454 7
-3 -1 8 1554.55 309.262 6
3 -1 -7 86531.4 2530.56 7
3 -1 -7 82969.6 2544.15 3
-3 -1 6 32350.7 1261.88 6
3 -1 -6 30311.3 1333.56 3
3 -1 -6 32125.4 1324.74 7
3 -1 -5 87909.3 2235.75 7
3 -1 -5 81194.3 2243.7 3
-3 -1 5 88222.8 2139.03 6
3 -1 -4 12436.9 697.431 7
3 -1 -4 12292 723.086 3
-3 -1 4 12524.5 663.166 6
3 -1 -3 70142.5 1746.33 7
-3 -1 3 71754.9 1724.47 6
3 -1 -2 34944.6 1157.81 3
-3 -1 2 35089.2 1085.2 5
3 -1 -2 38932.5 1146.03 7
-3 -1 2 36976.3 1097.37 6
3 -1 -1 265930 4697.74 3
-3 -1 1 280635 4652.63 5
3 -1 -1 280862 4545 7
-3 -1 1 281691 4585.18 6
3 -1 0 116031 2394.27 3
-3 -1 0 116624 2338.21 5
3 -1 0 114504 2224.28 7
-3 -1 0 116623 2259.55 6
-3 -1 -1 55309.9 1423.31 5
3 -1 1 56508.3 1480.04 3
3 -1 1 59094.7 1390.55 7
-3 -1 -1 54630.6 1342.18 6
3 -1 2 7715.55 491.805 3
-3 -1 -2 7219.3 452.255 5
-3 -1 -2 7823.83 428.784 6
3 -1 3 26471 958.944 3
-3 -1 -3 24526.8 895.3 5
-3 -1 -3 24393.9 824.064 6
-3 -1 -4 19426.6 818.598 5
3 -1 4 19875.8 820.915 3
-3 -1 -5 48892.1 1464.94 5
3 -1 5 49396.7 1603.9 2
3 -1 5 49605.1 1430.16 3
-3 -1 -6 47514.4 1511.71 5
3 -1 6 49395.1 1637.69 2
3 -1 6 45443.1 1430.36 3
-3 -1 -7 31598.9 1281.1 5
3 -1 7 32868.6 1363.65 2
3 -1 7 30030.8 1169.94 3
3 -1 8 14401.9 904.185 2
3 -1 8 12280.5 779.746 3
-3 -1 -8 13741 871.095 5
3 -1 9 26956.1 1290.84 2
-3 -1 -9 26782.4 1296.36 5
3 -1 10 15357.8 980.542 2
-3 -1 -10 12699.3 915.719 5
3 -1 11 20911.2 1112.19 9
3 -1 11 20800.9 1225.61 8
3 -1 12 8798.41 723.701 9
3 -1 12 9632.96 838.281 8
-3 -1 -12 8837.11 742.175 11
3 -1 13 4986.21 539.405 9
3 -1 13 4985.11 593.944 8
-3 -1 -13 4632.49 528.175 11
3 -1 14 8417.24 688.965 9
3 -1 14 9389.46 789.81 8
-3 -1 -14 7392.7 656.838 11
3 -1 15 2451.87 355.08 9
-3 -1 -15 2133.17 350.535 11
3 -1 16 2562.91 348.834 9
-3 -1 -16 2336.16 337.605 11
3 -1 17 3525.59 371.965 9
3 -1 17 2632.79 317.534 13
-3 -1 -17 3063.46 351.626 11
3 -1 18 1113.95 195.529 9
-3 -1 -18 1408.97 214.473 11
3 0 -19 640.494 129.705 22
3 0 -18 4612.18 405.716 22
3 0 -17 1809.01 286.994 22
3 0 -16 13637.9 848.818 22
3 0 -15 235.184 171.59 22
3 0 -14 21076.7 1178.25 16
3 0 -14 22552.1 1200.12 22
3 0 -13 26948.4 1375.11 16
3 0 -13 29100.2 1393.58 22
3 0 -12 16544.3 1061.93 16
3 0 -12 18284.1 1099.76 22
3 0 -11 2568.24 424.488 16
-3 0 11 4860.05 694.448 4
3 0 -11 4125.23 617.645 7
3 0 -11 2659.71 415.927 22
-3 0 11 3980.73 597.312 6
-3 0 10 17311.1 1229.38 4
-3 0 10 17462.3 1180.07 6
-3 0 9 1638.85 367.562 4
-3 0 9 1500.21 340.447 6
-3 0 8 10996.7 847.878 4
-3 0 8 10814 819.397 6
-3 0 7 14008.2 875.528 4
-3 0 7 12500.7 812.917 6
-3 0 6 61620.5 1830.24 6
3 0 -5 4936.52 427.887 7
-3 0 5 6331.11 496.768 6
3 0 -4 49645.2 1419.52 7
-3 0 4 59306.4 1578.11 6
3 0 -3 34476.9 1038.69 7
-3 0 3 38837.8 1105.2 6
-3 0 2 154451 2925.33 5
3 0 -2 159621 2798.57 7
-3 0 1 72797.2 1621.38 5
3 0 -1 71603.7 1406.24 7
-3 0 1 73765.2 1475.77 6
-3 0 0 235421 3839.28 5
3 0 0 243667 3934.83 3
3 0 0 220276 3416.53 7
-3 0 0 222611 3541.93 6
-3 0 -1 115874 2264.72 5
3 0 1 118347 2279.39 3
-3 0 -1 113208 1989 6
-3 0 -2 216176 3402.53 5
3 0 2 214237 3347.19 3
3 0 3 67683.2 1477.15 3
-3 0 -3 68306 1543.71 5
-3 0 -4 121567 2508.01 5
3 0 4 126048 2342.56 4
-3 0 -5 18442.9 828.197 5
3 0 5 17766.6 746.17 4
3 0 5 16575.7 686.202 3
-3 0 -6 14622 784.792 5
3 0 6 14581 720.288 4
-3 0 -7 5828.94 536.111 5
3 0 8 20741 1053.05 2
-3 0 -8 22118.4 1124.59 5
3 0 9 25542.6 1234.8 2
-3 0 -9 25554.7 1284.07 5
3 0 10 18528.1 1078.15 2
-3 0 -10 18540.3 1121.2 5
3 0 11 1695.89 321.465 9
-3 0 -11 1777.91 369.34 5
3 0 11 1426.95 317.718 2
3 0 12 11327.6 829.903 9
-3 0 -12 11439.4 869.973 11
3 0 13 9912.41 770.701 9
-3 0 -13 9793.02 802.036 11
3 0 14 2540.9 396.556 9
-3 0 -14 2823.46 427.339 11
3 0 15 2512.33 375.504 9
-3 0 -15 2468.75 378.656 11
3 0 16 7197.94 581.636 9
-3 0 -16 7140.77 604.692 11
3 0 17 2488.44 322.067 9
-3 0 -17 2680.12 340.933 11
3 0 18 660.656 162.469 9
-3 0 -18 482.575 130.222 11
-3 0 -19 1704.02 206.959 22
3 1 -18 145.647 81.5953 22
3 1 -17 4496.87 448.194 22
3 1 -16 2167.72 337.283 22
3 1 -15 4482.29 520.616 22
3 1 -14 2899.84 438.67 22
3 1 -13 27084 1373.25 22
3 1 -12 6594.68 667.716 22
3 1 -11 24531.4 1290.65 22
-3 1 8 1761.07 322.322 4
-3 1 7 79722.2 2152.93 4
-3 1 2 29952.5 930.288 5
-3 1 1 274046 4479.25 5
-3 1 0 109916 2185.4 5
-3 1 -1 51683.9 1318.85 5
-3 1 -2 8991.98 495.083 5
3 1 2 8378.37 440.129 3
-3 1 -3 31065 1013.8 5
3 1 3 26760.1 809.21 3
-3 1 -4 21800.6 890.88 5
3 1 4 22271.4 845.861 4
-3 1 -5 53148.2 1593.99 5
3 1 5 51965.7 1461.86 4
-3 1 -6 53509.6 1689.97 5
3 1 6 51463.5 1523.07 4
3 1 7 30530.2 1187.57 4
-3 1 -7 31738.2 1326.18 5
3 1 8 10975.9 741.796 4
-3 1 -8 12607.1 863.609 5
-3 1 -9 27236.2 1343.82 5
3 1 9 25341 1188.77 2
3 1 9 27322.7 1263.54 4
3 1 10 14491.4 937.395 4
-3 1 -10 14189.9 1004.31 5
3 1 11 19481.1 1107.4 9
3 1 11 16282.4 1029.16 4
3 1 12 8113.38 712.166 9
3 1 13 4616.98 544.648 9
3 1 14 8070.01 689.355 9
3 1 15 2035.4 342.877 9
3 1 16 2597.57 355.061 9
3 1 17 2818.07 332.696 9
-3 1 -18 1183.47 208.76 22
3 2 -16 1450.68 251.235 22
3 2 -15 31.0834 96.4404 22
3 2 -14 6948.77 645.521 22
3 2 -13 1238.07 292.61 22
3 2 -12 9615.66 804.999 22
3 2 -11 752.398 243.565 22
3 2 5 9154.51 625.655 4
3 2 6 43038.7 1502.92 4
3 2 7 1332.17 266.362 4
3 2 8 8596.1 676.69 4
3 2 9 13683.4 913.854 4
3 3 5 40211.9 1633.93 4
3 3 6 13788.5 936.115 4
4 -6 -6 1797.81 300.159 14
-4 -6 6 1156.6 180.029 12
4 -6 -5 174.18 104.246 14
-4 -6 5 249.064 88.5583 12
-4 -6 5 256.858 89.1862 21
4 -6 -4 109.976 90.7064 14
-4 -6 4 325.716 104.696 12
-4 -6 4 202.611 78.6917 21
4 -6 -3 214.795 145.028 14
-4 -6 3 222.526 101.96 12
-4 -6 3 207.252 76.8919 21
4 -6 -2 1720.1 315.965 14
-4 -6 2 1337.28 209.702 12
4 -6 -1 721.965 207.647 14
-4 -6 1 574.015 148.603 12
-4 -6 0 924.935 180.779 12
4 -6 0 773.682 215.879 14
-4 -6 -1 193.373 94.5778 12
4 -6 1 244.402 158.735 14
4 -6 1 147.72 99.0676 21
4 -6 2 90.64 90.9884 21
-4 -6 -2 129.779 85.0668 12
-4 -6 -3 130.613 79.6239 12
4 -6 3 341.665 131.585 21
-4 -6 -4 2003.27 245.176 12
4 -6 4 1613.24 263.204 21
-4 -6 -5 836.123 149.393 12
4 -6 5 757.133 168.191 21
4 -6 6 243.356 94.8437 21
4 -5 -11 813.773 188.56 14
-4 -5 11 599.311 135.553 12
-4 -5 10 1191.11 192.655 17
4 -5 -10 1109.64 261.729 14
-4 -5 10 1089.42 190.867 21
-4 -5 10 1007.21 205.292 12
-4 -5 10 897.64 162.309 18
-4 -5 9 2928.41 343.978 21
4 -5 -9 2751 400.263 14
-4 -5 9 2001.37 295.969 12
-4 -5 9 1457.26 234.383 18
-4 -5 9 1788.6 275.395 17
-4 -5 8 200.606 132.942 17
4 -5 -8 88.1771 137.626 14
-4 -5 8 321.152 139.396 12
-4 -5 8 -25.4972 101.969 21
-4 -5 8 43.0467 94.7684 18
-4 -5 7 174.331 116.043 17
4 -5 -7 322.011 160.244 14
-4 -5 7 475.094 184.63 21
-4 -5 7 303.505 152.377 12
-4 -5 6 529.209 180.935 17
4 -5 -6 158.729 140.247 14
-4 -5 6 261.228 137.99 21
-4 -5 6 264.594 147.615 12
-4 -5 5 1974.59 317.807 17
4 -5 -5 2086.76 351.553 14
-4 -5 5 2128.18 326.589 12
-4 -5 5 2754.82 392.382 21
-4 -5 4 1580.39 283.832 17
4 -5 -4 2281.16 376.14 14
-4 -5 4 1408.44 268.225 12
-4 -5 4 2246.38 357.474 21
-4 -5 3 3947.02 437.821 17
-4 -5 3 5022.46 495.926 12
-4 -5 3 5493.37 548.455 21
4 -5 -3 5211.24 569.475 14
-4 -5 2 3667.1 419.125 17
4 -5 -2 4390.47 521.312 14
-4 -5 2 3486.08 414.868 12
-4 -5 2 3911.49 452.802 21
-4 -5 1 4326.65 455.711 17
-4 -5 1 4758.95 483.203 12
4 -5 -1 5648.1 603.011 14
-4 -5 1 5215.44 521.52 21
4 -5 -1 4968.59 673.436 21
-4 -5 0 1985.01 314.022 17
-4 -5 0 2614.81 357.259 12
4 -5 0 2921.06 438.682 14
4 -5 0 2842.06 534.376 21
-4 -5 -1 2853.26 377.656 17
4 -5 1 3257.01 562.383 21
4 -5 1 3436.94 487.256 14
-4 -5 -1 2937.35 375.901 12
-4 -5 -2 1347.31 264.798 17
4 -5 2 2152.63 399.942 14
-4 -5 -2 2129.17 336.04 12
4 -5 2 1975.9 430.114 21
-4 -5 -3 1758.12 303.735 17
4 -5 3 2803.55 443.427 14
-4 -5 -3 2211.89 340.686 12
4 -5 3 1924.4 416.572 21
4 -5 4 1549.16 329.192 14
-4 -5 -4 1483.52 335.503 10
-4 -5 -4 1992.55 326.93 12
4 -5 4 1339.5 326.649 21
4 -5 5 1771.75 348.66 21
-4 -5 -5 1563.83 296.167 12
-4 -5 -5 1654.55 351.825 10
4 -5 6 621.829 210.015 21
-4 -5 -6 1079.27 248.308 12
-4 -5 -6 878.454 253.594 10
4 -5 7 1067.05 246.294 21
-4 -5 -7 1762.58 299.269 12
-4 -5 -7 1445.92 298.14 10
-4 -5 -8 232.336 143.799 10
4 -5 8 168.86 126.096 21
-4 -5 -9 1898.13 285.864 10
4 -5 9 1513.88 247.499 21
4 -5 10 800.861 147.99 21
-4 -5 -10 666.376 156.581 10
-4 -5 -11 69.883 43.9544 10
4 -4 -14 1671.13 253.699 14
-4 -4 14 982.24 172.642 12
-4 -4 14 1215.47 174.254 20
-4 -4 14 1364.44 190.449 18
4 -4 -13 163.171 102.076 16
4 -4 -13 65.0268 108.778 14
-4 -4 13 -55.1778 102.785 12
-4 -4 13 94.2485 80.0161 20
-4 -4 13 18.4925 74.4501 18
-4 -4 12 3470.63 403.005 12
4 -4 -12 4469.42 521.248 14
-4 -4 12 3571.58 392.865 18
4 -4 -12 3438.46 422.592 16
-4 -4 12 3141.97 366.107 20
-4 -4 12 2984.8 331.919 21
-4 -4 11 382.653 146.393 18
4 -4 -11 597.389 193.076 16
-4 -4 11 564.665 175.362 20
4 -4 -11 596.383 235.986 14
-4 -4 11 283.71 142.697 12
-4 -4 11 493.579 177.724 21
4 -4 -10 3320.78 447.117 16
4 -4 -10 3247.26 479.609 14
-4 -4 10 3118.93 429.77 12
-4 -4 10 3811.53 434.207 21
-4 -4 10 2656.92 384.011 20
-4 -4 10 2519.63 372.103 18
-4 -4 9 1033.27 251.181 18
4 -4 -9 806.685 235.776 16
4 -4 -9 1010.03 296.725 14
-4 -4 9 721.584 224.048 12
-4 -4 9 928.851 245.23 21
-4 -4 9 1241.71 282.893 20
4 -4 -8 5684.13 594.726 16
4 -4 -8 5940.17 642.21 14
-4 -4 8 6095.71 607.784 12
-4 -4 8 7210.53 656.101 21
-4 -4 8 5848.3 569.309 20
-4 -4 8 6439.76 609.182 18
-4 -4 7 1652.18 310.871 18
4 -4 -7 1377.8 306.038 16
4 -4 -7 1556.32 333.203 14
-4 -4 7 1514.71 310.007 12
-4 -4 7 2009.91 366.908 21
-4 -4 7 1300.98 278.762 20
4 -4 -7 1916.38 378.749 19
4 -4 -6 3011.52 440.074 16
4 -4 -6 3663.83 494.75 14
-4 -4 6 3499.2 463.721 12
-4 -4 6 3940.66 504.89 21
-4 -4 6 3196.62 434.066 20
4 -4 -6 3208.56 501.752 19
-4 -4 6 3729.06 467.069 18
4 -4 -5 366.624 178.781 14
-4 -4 5 503.291 184.087 12
-4 -4 5 1088.66 277.936 21
-4 -4 5 689.263 210.617 20
4 -4 -5 446.825 201.577 19
-4 -4 5 584.14 190.972 18
4 -4 -4 14594 976.59 14
-4 -4 4 13041.4 886.245 12
-4 -4 4 16408.4 1035.56 21
-4 -4 4 13838.2 891.209 20
-4 -4 4 14095.7 920.468 18
-4 -4 3 8315.41 717.383 18
4 -4 -3 12799.7 912.652 14
-4 -4 3 13381.3 926.906 21
-4 -4 3 11446.7 808.744 20
-4 -4 3 12006.2 843.11 12
4 -4 -3 9979.33 841.369 19
-4 -4 2 5425.47 550.799 17
-4 -4 2 5754.24 604.84 21
-4 -4 2 5025.06 546.898 12
4 -4 -2 5426.18 590.715 14
-4 -4 2 4686.88 518.831 20
4 -4 -2 5078.78 597.685 19
-4 -4 1 3131.31 420.846 17
4 -4 -1 3512.78 484.739 14
-4 -4 1 3349.53 450.675 12
-4 -4 1 4602.07 534.592 21
-4 -4 1 3532.49 455.884 20
4 -4 -1 4254.17 543.088 19
-4 -4 0 6737.61 621.662 17
4 -4 0 8398.86 737.44 14
-4 -4 0 6598.78 630.604 12
-4 -4 0 6177.7 631.208 21
4 -4 0 7006.86 688.302 19
-4 -4 -1 2796.13 398.502 17
4 -4 1 3213.59 460.146 14
-4 -4 -1 2994.04 427.056 12
4 -4 1 2206.97 397.499 19
-4 -4 -2 5842.42 578.75 17
-4 -4 -2 5960.11 597.39 12
4 -4 2 5993.71 640.758 14
4 -4 2 5378.7 597.962 19
-4 -4 -3 5092.8 551.438 17
4 -4 3 5372.44 621.909 14
-4 -4 -3 5299.38 567.35 12
4 -4 3 5900.07 696.341 21
4 -4 3 5359.89 615.15 19
-4 -4 -4 2635.94 398.5 17
-4 -4 -4 2545.78 401.006 12
4 -4 4 2238.46 418.981 14
4 -4 4 1740.06 390.15 21
4 -4 4 2685.29 444.083 19
-4 -4 -5 2863.86 423.526 17
4 -4 5 3348.97 501.693 14
4 -4 5 1918.1 394.396 8
-4 -4 -5 3342.07 455.57 12
4 -4 5 2529.24 438.05 21
4 -4 5 3123.41 472.055 19
-4 -4 -5 3667.59 590.923 10
-4 -4 -6 19252.2 1092.93 17
-4 -4 -6 21096.8 1175.84 12
4 -4 6 18586.8 1137.46 21
4 -4 6 19651.8 1179.86 19
-4 -4 -7 4899.75 547.484 17
-4 -4 -7 6410.5 711.655 10
4 -4 7 5224.94 601.107 8
-4 -4 -7 5749.87 608.318 12
4 -4 7 4855.25 565.825 21
-4 -4 -8 5259.32 557.278 17
-4 -4 -8 5297.04 612.843 10
4 -4 8 4911.5 569.619 8
-4 -4 -8 5369.19 583.744 12
4 -4 8 4267.95 518.328 21
-4 -4 -9 2577.61 387.761 17
4 -4 9 2532.98 393.599 8
4 -4 9 2091.86 354.412 21
-4 -4 -9 2463.26 399.474 10
4 -4 10 3062.47 403.287 8
4 -4 10 2900.51 381.567 21
-4 -4 -10 3471.74 432.864 10
4 -4 11 2803.14 363.759 8
-4 -4 -11 3325.77 393.537 10
4 -4 12 1011.77 210.793 13
-4 -4 -12 1087.6 208.811 10
4 -4 13 675.88 152.908 13
-4 -4 -13 874.044 168.848 10
4 -4 14 389.076 101.815 13
4 -3 -16 884.292 161.648 16
4 -3 -16 793.378 168.914 14
-4 -3 16 621.62 124.221 20
-4 -3 16 700.823 134.229 18
-4 -3 15 934.139 191.573 18
4 -3 -15 1012.49 205.034 16
4 -3 -15 1077.71 234.311 14
-4 -3 14 36.3777 92.0034 18
4 -3 -14 145.285 94.0426 16
4 -3 -14 104.725 133.137 14
4 -3 -13 9584.48 827.93 14
4 -3 -13 9089.6 710.369 16
-4 -3 13 9460.2 689.422 18
-4 -3 12 169.972 135.688 18
4 -3 -12 316.547 153.899 16
4 -3 -12 218.312 190.634 14
-4 -3 12 256.957 152.45 13
-4 -3 12 364.845 142.196 21
4 -3 -11 4387.5 601.601 14
-4 -3 11 4502.97 519.302 13
-4 -3 11 3810.22 455.39 21
4 -3 -11 3643.16 495.915 16
-4 -3 11 4287.69 509.717 18
4 -3 -10 895.025 277.755 16
4 -3 -10 655.752 249.14 14
-4 -3 10 1232.42 297.314 13
-4 -3 10 1301.16 300.273 21
-4 -3 10 1090.48 267.031 18
4 -3 -9 16894.2 1099 16
4 -3 -9 16402.2 1111.08 14
-4 -3 9 18131.9 1073.31 13
-4 -3 9 16712.5 1032.53 21
-4 -3 9 15753 998.366 18
-4 -3 8 700.104 218.188 18
4 -3 -8 1187.37 308.727 16
4 -3 -8 944.857 286.172 14
-4 -3 8 1233.84 289.369 13
-4 -3 8 938.655 290.918 21
4 -3 -8 1188.19 294.692 10
4 -3 -7 19808.2 1160.26 16
4 -3 -7 16719.2 1092.79 14
-4 -3 7 18665.2 1080.88 13
-4 -3 7 21683 1198.1 21
4 -3 -7 19465.2 1139.44 10
-4 -3 7 19242 1089.92 18
4 -3 -6 4858.2 563.54 16
4 -3 -6 4152.52 537.652 14
-4 -3 6 4759.41 527.394 13
-4 -3 6 5205.52 591.699 21
4 -3 -6 4993.79 560.272 10
-4 -3 6 4253.12 498.485 18
4 -3 -5 25382.1 1283.14 16
4 -3 -5 23483.2 1246.73 14
-4 -3 5 27060.2 1336.49 21
4 -3 -5 25920.9 1292.97 10
-4 -3 5 26321.6 1260.98 18
4 -3 -4 7644.07 679.528 16
4 -3 -4 7058.55 652.529 14
4 -3 -4 7108.34 715.562 7
-4 -3 4 8257.8 715.589 21
4 -3 -4 7031.85 648.498 10
-4 -3 4 7371.46 633.965 20
-4 -3 4 7522.2 651.576 18
4 -3 -4 7089.79 781.529 3
4 -3 -3 19137.6 1080.88 16
4 -3 -3 18701.5 1222.83 3
4 -3 -3 18132 1058.05 14
4 -3 -3 20052.1 1204.55 7
-4 -3 3 22099.8 1181.44 21
-4 -3 3 20978 1152.82 6
-4 -3 3 20478 1076.11 20
4 -3 -3 20551.5 1118.1 19
-4 -3 3 21310.6 1114.87 18
4 -3 -2 5484.76 594.573 7
-4 -3 2 5509.06 577.321 6
4 -3 -2 4634.78 572.482 3
4 -3 -1 12546.5 907.425 7
-4 -3 1 14125.1 916.646 6
4 -3 -1 12508.1 922.152 3
4 -3 0 1551.82 312.6 3
-4 -3 0 1730.06 307.798 6
-4 -3 -1 11799.2 819.357 6
4 -3 1 9671.23 780.179 3
-4 -3 -2 4511.59 494.38 17
4 -3 2 3866.78 532.972 1
-4 -3 -2 4296.86 485.284 6
4 -3 2 3775.49 482.183 3
4 -3 2 4397.43 508.16 19
-4 -3 -3 13534.8 858.175 17
-4 -3 -3 12045.6 824.695 15
4 -3 3 11925.5 868.362 8
-4 -3 -3 12328.9 835.49 6
4 -3 3 11248.6 840.599 3
4 -3 3 12327.7 1021.41 1
-4 -3 -3 12246.2 832.836 20
4 -3 3 11930 837.64 19
-4 -3 -4 3726.67 450.888 17
-4 -3 -4 3483.9 444.775 15
4 -3 4 3462.13 467.792 8
4 -3 4 2328.34 447.738 2
4 -3 4 3115.38 558.068 1
-4 -3 -4 2794.2 395.492 20
4 -3 4 3541.34 453.646 19
-4 -3 -5 11850.4 822.351 17
-4 -3 -5 11553.9 828.039 15
4 -3 5 11151 868.991 8
-4 -3 -5 11291.3 823.251 20
4 -3 5 11354.1 840.518 19
-4 -3 -6 13214.3 881.211 17
-4 -3 -6 13597.2 919.689 15
4 -3 6 13850.3 970.459 8
4 -3 6 13825.4 943.725 19
-4 -3 -7 14514.3 937.293 17
-4 -3 -7 13565.8 942.738 15
4 -3 7 14050.7 990.894 8
4 -3 7 14704.3 990.627 19
-4 -3 -8 9880.77 791.304 17
-4 -3 -8 9591.6 795.622 15
4 -3 8 10319.6 850.023 8
4 -3 8 8570.26 755.95 21
4 -3 8 9762.51 821.102 19
-4 -3 -9 1080.99 278.017 17
-4 -3 -9 994.885 289.37 15
4 -3 9 1379.98 331.441 8
4 -3 9 1237.49 311.635 21
-4 -3 -10 13411.3 902.827 17
-4 -3 -10 13677.5 926.891 15
4 -3 10 14882.3 978.192 8
-4 -3 -10 14182.5 955.57 11
4 -3 11 13017 896.566 8
-4 -3 -11 12672.4 862.274 11
-4 -3 -11 12320.7 858.133 10
4 -3 12 5958.94 556.298 9
4 -3 12 6464.98 589.574 8
-4 -3 -12 6310.66 568.539 11
-4 -3 -12 5605.66 534.173 10
4 -3 13 747.4 198.875 9
-4 -3 -13 609.143 189.568 11
4 -3 13 566.767 176.216 8
-4 -3 -13 328.708 129.095 10
4 -3 14 1577.6 249.579 9
-4 -3 -14 1854.47 271.575 11
-4 -3 -14 1419.79 226.783 10
4 -3 15 2029.13 232.335 9
4 -3 15 2363.78 287.099 13
-4 -3 -15 2421.18 274.488 11
4 -3 16 434.349 101.803 13
4 -2 -17 118.923 65.2447 16
4 -2 -17 138.091 74.6024 14
4 -2 -16 2403.99 301.896 16
4 -2 -16 1990.79 272.395 22
-4 -2 16 1932.53 252.259 18
-4 -2 15 508.234 153.711 18
4 -2 -15 373.649 135.431 16
4 -2 -15 205.556 106.289 22
4 -2 -14 10018.8 720.113 16
4 -2 -14 9167.86 727.475 22
-4 -2 14 9493.91 690.539 18
-4 -2 13 91.3527 101.125 18
4 -2 -13 260.148 134.098 16
-4 -2 13 93.4169 112.423 13
4 -2 -13 127.676 135.222 22
4 -2 -12 5205.69 577.637 16
4 -2 -12 3327.26 488.702 22
-4 -2 12 5347.54 570.463 13
-4 -2 12 5184.68 572.967 18
-4 -2 11 273.675 144.288 18
4 -2 -11 83.2263 118.982 16
-4 -2 11 45.4428 102.149 13
4 -2 -11 95.8138 137.028 22
4 -2 -10 18208.5 1112.14 16
-4 -2 10 18801.1 1063.66 21
-4 -2 10 21036 1174.02 13
4 -2 -10 19848.4 1195.53 22
-4 -2 10 19107.2 1122.45 18
4 -2 -9 2802.24 423.807 16
-4 -2 9 2634.74 414.167 13
4 -2 -9 2607.62 417.376 22
-4 -2 9 3101.12 429.624 21
-4 -2 9 3161.72 449.64 18
4 -2 -8 10818.2 817.359 16
-4 -2 8 10036.9 776.456 13
-4 -2 8 9637.73 763.088 21
-4 -2 8 10378.3 788.55 18
-4 -2 7 84.3022 83.1882 18
4 -2 -7 287.676 130.396 16
-4 -2 7 348.962 143.308 5
4 -2 -7 1080.48 322.417 3
-4 -2 7 150.399 113.084 13
4 -2 -7 790.921 258.869 7
-4 -2 7 312.621 178.437 21
-4 -2 7 8.38216 61.415 6
4 -2 -6 51801.9 2190.73 3
-4 -2 6 42720.3 1646 5
4 -2 -6 49897.7 2024.86 7
-4 -2 6 46028.2 1759.41 6
-4 -2 5 969.578 231.097 5
4 -2 -5 1563.22 347.597 3
4 -2 -5 706.661 253.117 7
-4 -2 5 1028.21 240.263 6
4 -2 -4 47920.4 1909.81 3
-4 -2 4 44471.3 1625.31 5
4 -2 -4 46848.6 1746.48 7
-4 -2 4 47421.8 1657.92 6
4 -2 -3 6672.04 647.572 3
-4 -2 3 6134.58 558.949 5
4 -2 -3 6374.8 580.74 7
-4 -2 3 7033.36 593.916 6
4 -2 -2 34238 1475.51 3
-4 -2 2 35702 1385.39 5
4 -2 -2 35342.1 1370.1 7
-4 -2 2 37339.5 1415.21 6
4 -2 -1 5424.74 555.383 3
-4 -2 1 5652.04 534.606 5
4 -2 -1 5602.92 508.745 7
-4 -2 1 5590.41 524.27 6
4 -2 0 57084.3 1904.89 3
-4 -2 0 58191.4 1820.54 5
4 -2 0 60617.4 1806.7 7
-4 -2 0 62633.3 1852.32 6
4 -2 1 61283.9 1932.13 3
-4 -2 -1 61525.1 1867.13 5
4 -2 1 63626 2335.17 2
4 -2 1 64721.5 2047.77 1
-4 -2 -1 66578.5 1893.05 6
-4 -2 -2 70423.2 2045.3 5
4 -2 2 81699 2652.92 2
-4 -2 -2 75585.3 2032.61 6
4 -2 2 81293.8 2522.36 1
4 -2 2 72879.4 2112.57 3
-4 -2 -3 20207.2 1003.83 5
4 -2 3 24913.8 1381.11 2
4 -2 3 25251.4 1424.6 1
-4 -2 -3 20646.9 966.389 6
4 -2 3 20772.6 1035.01 3
-4 -2 -4 21556.9 1067.48 5
4 -2 4 26362.6 1412.76 2
4 -2 4 25757.8 1526.59 1
-4 -2 -4 22493.7 1030.59 6
4 -2 4 22188.7 1081.95 3
4 -2 5 9247.41 814.849 2
-4 -2 -5 7547.45 628.313 5
4 -2 5 9626.46 948.412 1
4 -2 5 8293.98 656.301 3
4 -2 6 21031.3 1239.82 2
-4 -2 -6 18157.4 1037.35 5
4 -2 6 20813.5 1428.49 1
4 -2 6 18870.6 1029.51 3
-4 -2 -7 7080.59 667.065 5
-4 -2 -7 8075.63 664.161 17
-4 -2 -7 8264.62 691.127 15
4 -2 7 9962.68 966.654 1
4 -2 7 9087.59 737.847 8
4 -2 7 8015.51 683.88 3
4 -2 7 8028.67 706.409 19
4 -2 7 8076.03 759.587 2
-4 -2 -8 16671.3 984.893 17
4 -2 8 15332.1 996.676 9
-4 -2 -8 15550.9 968.055 15
4 -2 8 16237.2 1021.8 8
4 -2 8 15288.8 1013.19 19
-4 -2 -9 17550.7 1033.1 17
4 -2 9 15952.9 1016.55 9
-4 -2 -9 17638.5 1048.38 15
4 -2 9 17411.1 1078.62 8
-4 -2 -10 5020.35 559.468 17
4 -2 10 4824.14 554.205 9
-4 -2 -10 4932.51 557.2 15
4 -2 10 4647.05 558.593 8
4 -2 11 1086.2 283.325 9
4 -2 11 580.856 194.453 8
4 -2 12 14704.4 913.371 9
4 -2 12 13761.4 928.916 8
-4 -2 -12 15681.5 947.93 11
4 -2 13 5408.7 531.746 9
4 -2 13 4696.74 515.249 8
-4 -2 -13 4837.04 515.654 11
-4 -2 -13 3695.74 437.756 10
4 -2 14 1030.77 230.726 9
4 -2 14 1524.38 280.066 8
-4 -2 -14 844.814 203.307 11
4 -2 15 2306.33 311.964 9
-4 -2 -15 2056.86 294.366 11
4 -2 16 697.789 164.553 9
4 -2 16 665.947 165.037 13
-4 -2 -16 639.809 156.044 11
4 -2 17 1288.94 173.868 9
4 -2 17 1028.34 156.028 13
-4 -2 -17 1499.6 195.142 11
4 -1 -18 -3.57444 46.1057 22
4 -1 -17 2832.59 291.753 16
4 -1 -17 2962.95 325.695 22
4 -1 -16 907.618 199.571 16
4 -1 -16 717.772 205.224 22
4 -1 -15 2377.51 352.302 22
4 -1 -15 1932.55 311.839 16
4 -1 -14 2880.07 405.886 16
4 -1 -14 2790.55 404.208 22
4 -1 -13 6312.24 626.57 16
4 -1 -13 6506.2 642.366 22
-4 -1 13 5950.22 592.415 18
4 -1 -12 3783.33 493.433 16
-4 -1 12 3049.71 440.419 13
4 -1 -12 3434.42 483.951 22
-4 -1 12 3105.57 444.456 18
4 -1 -11 25278 1305.8 16
-4 -1 11 23769.4 1255.87 13
4 -1 -11 26383.2 1347.95 22
-4 -1 11 23967 1263.3 18
-4 -1 10 674.275 232.787 18
4 -1 -10 1217.93 300.316 16
-4 -1 10 581.52 212.58 13
4 -1 -10 1179.38 285.895 22
4 -1 -9 27068.3 1308.21 16
-4 -1 9 27666.1 1330.71 13
4 -1 -9 29727.7 1390.37 22
4 -1 -9 27348.4 1611.69 7
-4 -1 9 32182.3 1579.36 6
-4 -1 9 26449 1302.03 18
4 -1 -8 5987.9 723.77 3
4 -1 -8 5164.81 643.491 7
-4 -1 8 5944.68 623.909 6
4 -1 -7 45139.4 1862.18 7
4 -1 -7 49541.2 2035.22 3
-4 -1 7 45855.4 1767.41 6
4 -1 -6 26311.5 1383.92 3
4 -1 -6 27475.9 1331.82 7
-4 -1 6 24592.5 1174.23 6
4 -1 -5 125389 3219.37 3
4 -1 -5 125021 3070.24 7
-4 -1 5 125804 2972.32 6
4 -1 -4 5994.33 582.174 3
-4 -1 4 5791.64 511.039 5
4 -1 -4 6641.48 566.161 7
-4 -1 4 6436.09 544.452 6
4 -1 -3 91253.7 2460.62 3
-4 -1 3 93720.9 2365.8 5
-4 -1 3 97212.1 2334.2 6
4 -1 -2 17308.7 916.217 3
-4 -1 2 18034.4 902.805 5
-4 -1 2 17979.2 837.68 6
-4 -1 1 254191 4515.87 6
4 -1 -1 251215 4733.76 3
-4 -1 1 256140 4705.38 5
4 -1 0 4501.94 447.897 3
-4 -1 0 4121.83 412.132 5
-4 -1 0 4361.55 380.88 6
4 -1 1 84898.5 2184.15 3
-4 -1 -1 85376.6 2139.84 5
-4 -1 -1 82616.1 1948.78 6
4 -1 2 19877.8 938.872 3
-4 -1 -2 20225 917.137 5
-4 -1 -2 18442.7 782.819 6
4 -1 3 51745.2 1618.09 3
-4 -1 -3 48258.3 1526.42 5
-4 -1 -4 22227.1 998.241 5
4 -1 4 23845.1 1009.53 3
-4 -1 -5 34857.5 1320.21 5
4 -1 5 32884.1 1244.89 3
-4 -1 -6 33184.6 1337.29 5
4 -1 6 33626.7 1282.6 3
-4 -1 -7 18672.9 1022.13 5
4 -1 7 20834.1 1153.64 2
4 -1 7 17324.5 926.922 3
-4 -1 -8 9977.12 773.153 5
4 -1 8 10668.3 846.869 2
-4 -1 -9 11760.8 879.705 17
4 -1 9 12354.6 844.766 9
-4 -1 -9 10296.9 805.476 15
4 -1 9 10453.8 825.678 8
-4 -1 -10 10815.7 849.958 17
4 -1 10 10508.7 787.997 9
-4 -1 -10 10524.9 812.965 15
4 -1 10 10366.2 844.035 8
4 -1 11 9700.39 756.826 9
4 -1 11 9818.52 834.054 8
4 -1 12 7882.33 672.267 9
4 -1 12 7617.6 716.353 8
-4 -1 -12 7237.55 651.427 11
4 -1 13 5263.96 538.909 9
4 -1 13 4530.93 548.479 8
-4 -1 -13 4242.31 489.776 11
4 -1 14 8508 649.541 9
4 -1 14 8371.62 689.158 8
-4 -1 -14 6667.05 589.617 11
4 -1 15 1674.47 278.157 9
-4 -1 -15 1380.21 253.699 11
4 -1 16 1699.51 259.73 9
-4 -1 -16 1658.95 256.02 11
4 -1 17 1121.86 193.996 9
-4 -1 -17 1184.1 195.863 11
4 -1 18 1164.61 157.962 9
-4 -1 -18 1050.11 158.182 22
4 0 -18 574.659 124.849 22
4 0 -17 360.916 129.895 22
4 0 -16 4989 469.284 22
4 0 -15 -57.1639 147.573 22
4 0 -14 196.507 93.7503 22
4 0 -13 486.185 198.6 22
4 0 -12 32055.7 1480.64 16
4 0 -12 33021.7 1469.91 22
4 0 -11 3091.93 452.771 16
4 0 -11 3476.02 469.366 22
4 0 -10 40905.2 1662.45 16
4 0 -10 46058.7 1723.97 22
4 0 -9 1441.23 295.426 22
-4 0 9 1146.2 298.998 6
-4 0 8 128947 3374.5 6
-4 0 7 4015.12 487.525 6
-4 0 6 122064 2932.78 6
-4 0 5 8035.34 578.097 6
-4 0 4 46865.8 1516.2 5
-4 0 3 269.929 129.164 5
-4 0 2 60721.2 1728 5
4 0 -2 62637.1 1850.52 3
-4 0 1 753.379 174.636 5
4 0 -1 742.474 177.309 3
-4 0 0 90243.8 2167.42 5
4 0 0 89099 2190.29 3
-4 0 -1 7279.45 517.445 5
4 0 1 6534.44 491.501 3
-4 0 -2 72284.8 1858.24 5
4 0 2 70306.8 1826.99 3
4 0 3 32566.4 1136.11 3
-4 0 -3 32795.3 1171.33 5
4 0 4 45205.7 1403.44 3
-4 0 -4 46878.1 1494.74 5
-4 0 -5 13381 778.598 5
4 0 5 11299 631.985 3
-4 0 -6 34924.6 1379.04 5
-4 0 -7 76942.5 2304 5
4 0 8 24278.7 1244.77 2
-4 0 -8 24804.3 1263.94 5
4 0 9 10325.9 767.824 9
4 0 9 10099.1 815.319 2
-4 0 -9 10726.9 846.271 15
-4 0 -9 10068 823.956 5
4 0 10 11999.1 842.196 9
4 0 11 12026.9 845.269 9
4 0 12 4335.73 499.46 9
-4 0 -12 4821.49 552.84 11
4 0 13 7352.09 636.417 9
-4 0 -13 7622.75 671.525 11
4 0 14 8023.88 637.488 9
-4 0 -14 7988.94 655.748 11
4 0 15 3417.48 389.976 9
-4 0 -15 2761.51 363.52 11
4 0 16 44.9829 95.6639 9
-4 0 -16 237.895 118.069 11
4 0 17 1371.12 218.331 9
-4 0 -17 1147.38 194.796 11
4 0 18 391.091 97.8264 9
4 1 -17 2634.81 302.618 22
4 1 -16 844.739 209.137 22
4 1 -15 2166.71 337.342 22
4 1 -14 2872.97 408.567 22
4 1 -13 6421.34 632.632 22
4 1 -12 3032.58 448.694 22
4 1 -11 21978.1 1206.32 22
4 1 -10 222.372 136.578 22
4 1 -9 25334.5 1247.79 22
-4 1 4 6988 537.614 5
-4 1 3 93076.9 2274.9 5
-4 1 2 17822.3 847.74 5
-4 1 1 240370 4387.91 5
-4 1 0 3055.93 339.251 5
4 1 0 3295.75 368.128 3
-4 1 -1 91921.7 2206.28 5
4 1 1 93034.5 2204.66 3
-4 1 -2 21944.9 939.419 5
4 1 2 20381.6 856.136 3
-4 1 -3 50709.3 1567.56 5
4 1 3 51571.9 1493.35 4
-4 1 -4 24535 1076.91 5
-4 1 -5 41038.8 1502.42 5
-4 1 -6 36991.4 1508.55 5
-4 1 -7 23436.2 1230.52 5
-4 1 -8 11514.1 882.814 5
4 1 9 9264.36 747.437 9
-4 1 -9 9770 851.578 5
4 1 10 8876.57 736.523 9
4 1 11 9132.18 739.406 9
4 1 12 7882.49 683.623 9
4 1 13 4684.72 511.527 9
4 1 14 7364.23 608.322 9
4 1 15 1497.19 269.372 9
4 1 16 1879.94 273.6 9
4 1 17 1036.45 178.312 9
4 2 -15 390.419 154.905 22
4 2 -14 8573.07 675.169 22
4 2 -13 139.204 117.98 22
4 2 -12 4329.83 523.717 22
4 2 -11 -32.8908 112.991 22
4 2 -10 15853.3 1030.02 22
4 2 -9 2256.75 393.904 22
4 2 4 24612.2 1144.19 4
4 2 5 10096.5 727.146 4
4 2 6 19793.8 1065.3 4
4 2 7 7544.72 654.775 4
4 2 8 13889.5 940.588 9
4 2 9 16738.4 1051.42 9
4 2 10 5500.02 603.619 9
4 2 11 836.23 253.255 9
4 2 12 14742.1 944.489 9
4 2 13 4321.02 488.827 9
5 -5 -9 2710.95 340.355 14
-5 -5 8 1696.88 232.417 17
5 -5 -8 2438.17 338.484 14
-5 -5 8 1797.3 232.048 12
-5 -5 7 1251.18 225.647 17
5 -5 -7 1627.07 291.652 14
-5 -5 7 1224.46 211.146 12
-5 -5 6 488.044 157.629 17
5 -5 -6 696.338 209.126 14
-5 -5 6 530.32 158.412 12
-5 -5 6 524.457 164.52 21
-5 -5 5 2311.93 311.501 17
5 -5 -5 2519.68 370.637 14
-5 -5 5 2026.88 285.235 12
-5 -5 5 2652.73 346.613 21
-5 -5 4 907.769 206.653 17
5 -5 -4 838.257 225.638 14
-5 -5 4 753.447 184.025 12
-5 -5 4 1013.14 223.855 21
-5 -5 3 1835.58 283.73 17
5 -5 -3 1868.49 334.244 14
-5 -5 3 1923.52 281.804 12
-5 -5 3 1564.13 275.141 21
-5 -5 2 -3.15519 87.8748 17
5 -5 -2 209.946 140.429 14
-5 -5 2 29.1295 101.732 12
-5 -5 1 2705.51 340.203 17
5 -5 -1 3458.21 451.766 14
-5 -5 1 2863.43 351.775 12
5 -5 -1 3044.9 504.102 21
-5 -5 0 1741.01 277.548 17
5 -5 0 1975.62 348.678 14
-5 -5 0 1524.74 261.738 12
5 -5 0 1506.03 376.148 21
-5 -5 -1 1203.07 229.543 17
5 -5 1 1876.09 346.691 14
-5 -5 -1 1358.33 251.039 12
5 -5 1 1222.08 339.894 21
-5 -5 -2 417.5 128.68 17
5 -5 2 1232.63 287.034 14
-5 -5 -2 648.215 183.38 12
5 -5 2 858.903 278.803 21
5 -5 2 933.869 252.325 19
-5 -5 -3 2104.71 306.555 17
-5 -5 -3 2429.25 328.726 12
5 -5 3 2575.32 435.827 21
-5 -5 -4 2352.12 309.057 17
-5 -5 -4 2705.81 341.854 12
5 -5 4 2695.6 399.09 21
-5 -5 -5 582.348 158.472 17
-5 -5 -5 1031.27 217.444 12
5 -5 5 665.43 200.255 21
-5 -5 -5 855.119 217.507 10
-5 -5 -6 771.703 168.21 17
5 -5 6 1194.94 251.677 21
-5 -5 -6 775.875 192.56 10
5 -5 7 875.919 196.233 21
-5 -5 -7 447.385 134.713 10
5 -5 8 935.578 170.906 21
-5 -5 -8 926.03 164.12 10
-5 -5 -9 116.624 67.374 10
5 -4 -12 3482.61 355.97 16
5 -4 -12 4390.8 428.908 14
-5 -4 12 3656.79 333.321 20
-5 -4 12 3762.01 342.183 18
5 -4 -11 173.448 133.252 16
-5 -4 11 198.234 117.534 12
5 -4 -11 133.3 130.903 14
-5 -4 11 392.365 140.828 20
-5 -4 11 317.048 134.566 18
5 -4 -10 3633.88 431.096 16
5 -4 -10 4210.91 483.776 14
-5 -4 10 3523.15 397.233 12
-5 -4 10 3430.72 388.704 20
5 -4 -10 3726.49 468.706 19
-5 -4 10 3194 381.026 18
5 -4 -9 1107.29 248.129 16
5 -4 -9 1506.08 307.714 14
-5 -4 9 1467.79 292.522 12
-5 -4 9 1460.19 265.206 21
-5 -4 9 1392.63 268.549 20
5 -4 -9 1147.47 299.776 19
-5 -4 9 1272.55 258.008 18
5 -4 -8 4616.79 514.272 16
5 -4 -8 4874.42 540.714 14
-5 -4 8 4911.27 504.662 12
-5 -4 8 5325.23 529.337 21
-5 -4 8 4237 470.791 20
5 -4 -8 4535.82 545.774 19
-5 -4 8 4377.54 483.555 18
5 -4 -7 1051.14 267.296 16
5 -4 -7 1259.75 294.266 14
-5 -4 7 1142.86 258.024 12
-5 -4 7 1245.38 272.908 21
-5 -4 7 856.618 235.038 20
5 -4 -7 1194.85 287.401 19
-5 -4 7 1188.56 259.083 18
5 -4 -6 5429.09 586.056 14
-5 -4 6 6769.81 632.296 21
-5 -4 6 5724.94 552.276 20
-5 -4 6 5636.07 556.1 12
5 -4 -6 6482.74 657.863 19
-5 -4 6 6464.7 599.03 18
5 -4 -5 1462.38 323.347 14
-5 -4 5 1614.35 316.606 12
-5 -4 5 1470.65 319.462 21
-5 -4 5 1604.87 305.898 20
5 -4 -5 1615.6 349.875 19
-5 -4 5 1188.26 270.197 18
-5 -4 4 11128.4 784.144 17
5 -4 -4 11273.5 848.075 14
-5 -4 4 9356.79 727.028 12
-5 -4 4 12310.7 879.027 21
-5 -4 4 10745.8 774.976 20
5 -4 -4 11341 870.132 19
-5 -4 4 11040.9 798.569 18
-5 -4 3 4350.53 490.291 17
5 -4 -3 4085.45 519.48 14
-5 -4 3 3688.68 461.741 12
-5 -4 3 3844.92 490.89 21
-5 -4 3 4187.17 486.065 20
5 -4 -3 4093.87 536.097 19
-5 -4 3 4345.52 501.234 18
-5 -4 2 14352.5 904.108 17
-5 -4 2 13839 873.9 15
5 -4 -2 13839.1 966.416 14
-5 -4 2 13307.8 874.253 12
-5 -4 2 15451.9 963.482 21
-5 -4 2 13921.9 895.934 20
5 -4 -2 15076.1 1005.7 19
-5 -4 1 1898.17 333.964 17
-5 -4 1 1865.53 319.884 15
5 -4 -1 1862.88 369.97 14
-5 -4 1 1344.49 288.716 12
-5 -4 1 2237.26 368.471 21
-5 -4 1 2267.65 378.242 20
5 -4 -1 1812.24 347.832 19
-5 -4 0 8054.89 673.538 17
-5 -4 0 6022.67 573.167 15
5 -4 0 8518.12 765.235 14
-5 -4 0 7273.89 645.696 12
-5 -4 0 5547.78 574.083 21
-5 -4 0 7583.23 658.308 20
5 -4 0 7848.67 725.884 19
-5 -4 -1 899.574 239.751 17
-5 -4 -1 772.171 183.2 15
5 -4 1 1078.89 307.32 14
-5 -4 -1 1166.17 270.462 12
-5 -4 -1 934.08 246.343 20
5 -4 1 1294.68 301.187 19
-5 -4 -2 5088.6 542.912 17
5 -4 2 6110.05 661.296 14
-5 -4 -2 4448.03 512.944 20
5 -4 2 5714.21 621.614 19
-5 -4 -3 7756.35 669.568 17
5 -4 3 6972.51 740.981 21
-5 -4 -3 5457.48 553.295 15
5 -4 3 7578.97 743.613 14
5 -4 3 7214.11 725.704 8
-5 -4 -3 6642.46 621.207 20
5 -4 3 7585.34 705.967 19
-5 -4 -4 3357.4 446.046 17
-5 -4 -4 2541.78 379.961 15
5 -4 4 2744.66 448.918 8
5 -4 4 3165.83 484.806 21
5 -4 4 3076.59 456.744 19
-5 -4 -5 1441 301.207 17
-5 -4 -5 1369.1 277.694 15
5 -4 5 1312.44 299.639 8
5 -4 5 1040.95 286.28 21
5 -4 5 1292.11 302.067 19
-5 -4 -5 1418.43 341.465 10
-5 -4 -6 2145.66 354.109 17
-5 -4 -6 1280.99 263.919 15
5 -4 6 1622.65 339.324 8
5 -4 6 1111.87 293.804 21
5 -4 6 1524.29 321.684 19
-5 -4 -6 2106.01 379.609 10
-5 -4 -7 1537.38 292.949 17
-5 -4 -7 1650.12 288.352 15
5 -4 7 1482.82 303.025 8
5 -4 7 1651.73 315.515 21
-5 -4 -7 1244.53 277.177 10
-5 -4 -8 705.23 201.478 17
-5 -4 -8 735.528 196.6 15
5 -4 8 1143.3 260.018 8
5 -4 8 530.047 181.98 21
-5 -4 -8 661.61 207.941 10
-5 -4 -9 1819.4 299.948 17
5 -4 9 1832.98 303.296 8
5 -4 9 1771.55 289.891 21
-5 -4 -9 1659.16 281.287 10
5 -4 10 686.174 189.246 8
5 -4 10 769.124 175.673 21
-5 -4 -10 925.535 195.637 10
5 -4 11 1535.2 244.043 8
5 -4 11 1078.81 184.783 13
-5 -4 -11 1642.55 231.722 10
5 -4 12 839.033 147.517 13
-5 -4 -12 1046.09 161.068 10
5 -3 -14 221.124 98.7087 16
5 -3 -14 406.675 136.584 14
-5 -3 14 46.891 66.346 12
-5 -3 14 399.172 120.655 20
5 -3 -14 411.721 127.315 19
-5 -3 14 309.445 104.092 18
5 -3 -13 4273.62 437.945 16
5 -3 -13 4613.83 486.384 14
-5 -3 13 4103.32 407.651 20
5 -3 -13 4914.6 515.761 19
-5 -3 13 5063.52 448.105 18
5 -3 -12 729.244 209.979 16
5 -3 -12 890.027 243.753 14
-5 -3 12 278.93 121.727 20
-5 -3 12 824.672 203.021 18
5 -3 -11 2294.21 369.855 16
5 -3 -11 2158.49 372.059 14
-5 -3 11 2098.62 330.279 20
-5 -3 11 2617.65 374.142 18
5 -3 -10 -17.2182 124.818 16
5 -3 -10 129.099 179.745 14
-5 -3 10 87.7676 140.321 20
-5 -3 10 53.6243 117.996 18
5 -3 -9 11052.8 855.197 16
5 -3 -9 9875.11 818.596 14
-5 -3 9 11083.5 793.388 21
-5 -3 9 11263.7 793.056 20
-5 -3 9 11021.8 802.547 18
-5 -3 8 1917.2 343.933 21
5 -3 -8 1927.41 381.112 16
5 -3 -8 1465.62 345.528 14
-5 -3 8 1358.05 299.578 20
-5 -3 8 1681.38 324.16 18
5 -3 -7 6699.82 677.836 16
-5 -3 7 5964.82 611.51 12
5 -3 -7 5742.55 630.019 14
-5 -3 7 6510.34 652.818 21
-5 -3 7 5639.25 575.984 20
-5 -3 7 5558.72 578.458 18
5 -3 -6 10193.9 845.124 16
5 -3 -6 9467.04 806.018 14
-5 -3 6 10126.4 824.867 21
-5 -3 6 10424.5 785.671 20
5 -3 -6 10842 868.695 19
-5 -3 6 9804.58 777.276 18
5 -3 -5 14681 1017.36 16
5 -3 -5 12797.3 947.285 14
-5 -3 5 14241 979.125 21
-5 -3 5 14063 918.104 20
5 -3 -5 15045.5 1018.48 19
-5 -3 5 14920.3 959.143 18
5 -3 -4 501.193 229.636 16
5 -3 -4 462.996 212.539 14
-5 -3 4 510.208 209.226 21
-5 -3 4 345.974 189.851 20
5 -3 -4 388.341 196.601 19
-5 -3 4 344.522 214.345 18
5 -3 -3 22119.7 1245.31 16
5 -3 -3 19659.2 1143.33 14
-5 -3 3 21900.3 1222.15 21
-5 -3 3 22606.4 1182.73 20
5 -3 -3 20979.7 1198.65 19
-5 -3 3 21444.5 1176.37 18
5 -3 -2 23647.1 1259.76 14
-5 -3 2 29674.8 1409.21 21
-5 -3 2 27057.5 1316.45 20
5 -3 -2 27701.3 1376.8 19
-5 -3 2 27336.2 1342.44 18
-5 -3 1 14651.6 955.059 17
-5 -3 1 13880.7 947.074 21
-5 -3 1 16008.6 999.944 20
5 -3 -1 14932.3 989.816 19
-5 -3 1 15111.3 995.528 18
-5 -3 0 1855.04 352.49 17
-5 -3 0 1972.56 342.774 15
-5 -3 0 2345.47 390.304 21
-5 -3 0 2449.32 394.043 20
5 -3 0 1799.79 331.754 19
-5 -3 -1 20481.7 1127.57 17
-5 -3 -1 19206.3 1094.78 15
-5 -3 -1 20560.9 1152.61 20
5 -3 1 18891.8 1106.75 19
-5 -3 -2 10561.9 801.438 17
-5 -3 -2 9365.45 765.688 15
-5 -3 -2 10466.6 814.311 20
5 -3 2 10065.6 796.483 19
-5 -3 -3 16732.5 1026.51 17
-5 -3 -3 17253.8 1046.44 15
5 -3 3 16092 1051.9 8
-5 -3 -3 16327.4 1035.25 20
5 -3 3 16664.8 1034.32 19
-5 -3 -4 6411.1 631.406 17
-5 -3 -4 5818.7 607.865 15
5 -3 4 5478.08 619.599 8
-5 -3 -4 6421.77 648.824 20
5 -3 4 5681.96 612.617 19
-5 -3 -5 5801.86 602.358 17
-5 -3 -5 5332.98 591.011 15
5 -3 5 5669.52 626.568 8
-5 -3 -5 5825.68 618.963 20
5 -3 5 4994.76 570.363 19
-5 -3 -6 1065.8 277.903 17
-5 -3 -6 990.388 270.303 15
5 -3 6 985.408 281.27 8
5 -3 6 1753.82 342.443 19
-5 -3 -7 7962.5 699.9 17
-5 -3 -7 7069.71 673.087 15
5 -3 7 6925.37 672.05 8
5 -3 7 7006.14 669.368 19
-5 -3 -8 2233.99 372.996 17
-5 -3 -8 2214.15 376.177 15
5 -3 8 2492.92 417.426 8
5 -3 8 2015.97 368.057 21
-5 -3 -9 7861.45 676.187 17
-5 -3 -9 7791.61 670.529 15
5 -3 9 7160.02 668.747 8
5 -3 9 6511.7 605.605 21
-5 -3 -10 3780.7 455.787 17
-5 -3 -10 3198.05 413.776 15
5 -3 10 3911.17 461.509 8
-5 -3 -10 2815.67 384.847 11
5 -3 11 2079.33 332.829 8
-5 -3 -11 1891.04 292.598 11
-5 -3 -11 2068.3 311 10
5 -3 12 1094.63 219.011 8
-5 -3 -12 1167.76 220.035 11
-5 -3 -12 1077.41 219.975 10
5 -3 13 1184.61 212.731 8
-5 -3 -13 1117.33 202.29 11
-5 -3 -13 939.447 178.893 10
-5 -3 -14 2648.14 259.821 11
5 -2 -16 4182.49 326.298 16
5 -2 -15 54.0179 64.8191 16
5 -2 -15 -199.069 107.76 14
5 -2 -15 -7.53004 18.129 22
-5 -2 15 -186.64 89.9204 20
-5 -2 15 4.02703 28.2335 18
5 -2 -14 2673.55 340.844 16
5 -2 -14 2788.28 383.875 14
5 -2 -14 1702.15 279.128 22
-5 -2 14 2574.61 328.422 20
-5 -2 14 2316.49 304.908 18
5 -2 -13 861.39 219.873 16
5 -2 -13 1346 299.173 14
5 -2 -13 737.409 207.159 22
-5 -2 13 989.326 234.975 20
-5 -2 13 997.84 228.464 18
5 -2 -12 7511.8 657.408 16
5 -2 -12 7302.14 710.744 14
5 -2 -12 7441.73 682.611 22
-5 -2 12 8602.31 668.505 20
-5 -2 12 8049.13 657.309 18
-5 -2 11 1792.01 332.828 18
5 -2 -11 2236.49 394.59 16
5 -2 -11 2171.48 408.348 14
5 -2 -11 2060.37 394.639 22
5 -2 -10 10728.9 832.196 16
5 -2 -10 11386.7 919.041 14
-5 -2 10 11898.7 861.55 18
-5 -2 9 1087.35 280.181 18
5 -2 -9 1282.47 303.176 16
5 -2 -9 1340.06 341.762 14
5 -2 -9 903.132 266.595 22
5 -2 -8 27304.5 1342.38 16
5 -2 -8 24446 1368.51 14
5 -2 -8 25330.5 1375.93 22
-5 -2 8 25894.4 1261.82 20
-5 -2 8 28727.4 1367.05 18
5 -2 -7 2055.49 372.715 16
5 -2 -7 1883.67 377.86 14
5 -2 -7 2247.33 411.578 22
-5 -2 7 2454.23 403.905 21
-5 -2 7 2164.49 365.873 20
-5 -2 7 2469.64 402.847 18
5 -2 -6 13214.8 903.457 16
5 -2 -6 12389.1 921.45 22
-5 -2 6 11980 884.28 21
-5 -2 6 12125.6 833.011 20
-5 -2 6 12909 883.841 18
5 -2 -5 1402.95 283.977 16
-5 -2 5 1214.38 309.027 21
-5 -2 5 1078.68 259.391 20
-5 -2 5 1257.97 283.264 18
5 -2 -4 15316.6 969.565 16
-5 -2 4 14666.3 953.892 21
-5 -2 4 15696 1018.37 6
-5 -2 4 15408.7 934.452 20
-5 -2 4 15280 946.395 18
5 -2 -3 2212.03 362.018 16
-5 -2 3 1903.21 361.205 5
5 -2 -3 1880.69 397.935 3
-5 -2 3 1915.72 338.255 21
-5 -2 3 1594.68 302.232 20
-5 -2 3 1979.74 364.174 6
-5 -2 3 2259.55 363.349 18
5 -2 -2 8046.07 772.749 3
5 -2 -2 9551.93 763.667 16
-5 -2 2 8065.52 732.177 5
-5 -2 2 7972.62 690.357 21
-5 -2 2 7579.75 691.824 6
-5 -2 2 7903.45 664.126 20
5 -2 -2 7486.91 671.609 19
-5 -2 2 8855.56 718.648 18
5 -2 -1 14968.6 1036.76 3
-5 -2 1 14563.9 979.908 5
-5 -2 1 14705.1 950.382 6
-5 -2 1 15720.7 948.047 20
5 -2 -1 13782.2 906.684 19
-5 -2 1 15122.8 950.936 18
5 -2 0 30553.4 1479.97 3
-5 -2 0 31611.6 1472.25 5
-5 -2 0 34884.8 1455.66 20
5 -2 0 29845.7 1361.29 19
-5 -2 0 34601.7 1474.9 18
-5 -2 -1 15415.7 951.615 17
-5 -2 -1 14954.1 974.769 5
-5 -2 -1 16483.9 972.494 15
-5 -2 -1 17968.2 1025.5 20
5 -2 1 13842.8 901.593 19
5 -2 1 15963.6 1011.94 3
-5 -2 -2 17317.1 1011.23 17
-5 -2 -2 15612.7 991.218 5
-5 -2 -2 17391.7 995.544 15
-5 -2 -2 16814.9 997.623 20
5 -2 2 15711.7 957.442 19
5 -2 2 15632.1 991.457 3
-5 -2 -3 8114.5 682.695 17
-5 -2 -3 7741.38 691.109 5
5 -2 3 9129.16 915.099 2
-5 -2 -3 8884.43 707.523 15
5 -2 3 8770.24 953.502 1
-5 -2 -3 8901.37 721.674 20
5 -2 3 7587.89 666.818 19
5 -2 3 7167.21 662.308 3
-5 -2 -4 19068.7 1070.17 17
-5 -2 -4 20166.7 1087.2 15
-5 -2 -4 18771.5 1074.23 20
5 -2 4 17411 1041.11 19
-5 -2 -5 9560.73 753.734 17
-5 -2 -5 9235.28 734.48 15
5 -2 5 8788.65 718.522 8
-5 -2 -5 9012.51 739.658 20
5 -2 5 8053.04 708.933 19
-5 -2 -6 11844.3 852.429 17
-5 -2 -6 11297.4 821.597 15
5 -2 6 10662.3 809.731 8
5 -2 6 11055.8 844.709 19
-5 -2 -7 26196.4 1303.13 17
-5 -2 -7 26477.2 1289.61 15
5 -2 7 23886.2 1251.32 8
5 -2 7 25730.6 1335.54 19
-5 -2 -8 20186.4 1137.75 17
-5 -2 -8 20738.8 1148.35 15
5 -2 8 18765.3 1109.76 8
5 -2 8 19479 1172.37 19
-5 -2 -9 12751 882.345 17
-5 -2 -9 13091.8 896.366 15
5 -2 9 12581.3 887.944 8
-5 -2 -10 4811.97 533.532 17
5 -2 10 3825.1 473.084 9
-5 -2 -10 4020.06 495.021 15
5 -2 10 3951.22 496.042 8
5 -2 11 7867.27 653.728 9
5 -2 11 6649.28 624.77 8
5 -2 12 4671.31 485.229 9
5 -2 12 4305.48 470.015 8
-5 -2 -12 4791.54 484.922 11
5 -2 13 2897.37 357.967 9
5 -2 13 2161.43 315.825 8
-5 -2 -13 2990.63 374.353 11
-5 -2 -13 1985.34 286.342 10
5 -2 14 127.206 104.957 9
5 -2 14 387.8 130.626 8
-5 -2 -14 204.619 90.6393 11
5 -2 15 2888.7 292.167 9
-5 -2 -15 2911.13 301.304 11
-5 -2 -16 396.888 98.2474 11
5 -1 -16 998.566 169.566 16
5 -1 -16 996.531 184.223 14
5 -1 -16 876.6 173.262 22
5 -1 -15 5720.51 474.645 16
5 -1 -15 6391.86 522.812 22
5 -1 -14 1806.65 293.459 16
5 -1 -14 2040.24 328.68 22
-5 -1 14 2214.74 304.603 20
5 -1 -13 7102.9 617.205 16
5 -1 -13 8748.69 704.303 22
-5 -1 13 7481.43 615.772 20
5 -1 -12 2025.4 352.745 16
5 -1 -12 2801.86 423.66 22
-5 -1 12 2144.92 360.685 18
5 -1 -11 8273.89 718.291 16
5 -1 -11 9337.11 792.302 22
-5 -1 11 7862.66 694.729 18
5 -1 -10 164.848 177.074 16
5 -1 -10 82.7124 128.154 22
-5 -1 10 266.346 152.783 18
5 -1 -9 9484.88 778.349 16
5 -1 -9 11473.6 877.913 22
-5 -1 9 10490.1 826.029 18
5 -1 -8 982.924 265.898 16
5 -1 -8 1224.99 280.535 22
-5 -1 8 846.077 262.81 18
5 -1 -7 10061.1 779.206 16
5 -1 -7 10691.7 816.396 22
-5 -1 7 9431.12 747.678 20
-5 -1 7 9691.7 782.677 18
5 -1 -6 1504.38 305.367 16
5 -1 -6 1700.31 383.675 3
5 -1 -6 1746.56 329.341 22
-5 -1 6 1685.41 325.924 20
-5 -1 6 1747.49 330.507 18
5 -1 -5 25314.2 1414.94 3
-5 -1 5 22472.6 1208.31 5
5 -1 -4 10901.2 881.545 3
-5 -1 4 10222 789.73 5
5 -1 -3 20651.3 1193.18 3
-5 -1 3 21227.9 1150.81 5
5 -1 -2 17297.2 1061.31 3
-5 -1 2 18707.6 1072.95 5
5 -1 -1 15719 998.147 3
-5 -1 1 14584.5 947.757 5
5 -1 0 11142.5 818.63 3
-5 -1 0 10721.1 794.865 5
5 -1 1 26467.2 1265.8 3
-5 -1 -1 25919.3 1240.01 5
5 -1 2 24583.1 1215.81 3
-5 -1 -2 23901.6 1183.65 5
5 -1 3 60981.4 1967.26 3
-5 -1 -3 60335.2 1956.86 5
-5 -1 -4 25880 1241.34 5
5 -1 4 24891.4 1176.99 3
-5 -1 -5 31864 1399.17 5
5 -1 5 36181.6 1652.38 2
-5 -1 -5 33720.2 1425.91 15
-5 -1 -5 33739.7 1461.75 20
-5 -1 -6 10215.8 802.861 17
5 -1 6 10065.3 798.768 9
-5 -1 -6 9532.17 756.447 15
5 -1 6 8819.62 714.712 8
5 -1 6 9821.08 830.426 19
-5 -1 -7 29203 1413.42 17
5 -1 7 27517.4 1349.09 9
-5 -1 -7 26744 1316.84 15
5 -1 7 26857.9 1316.32 8
5 -1 7 30253 1528.05 19
-5 -1 -8 10817.2 858.293 17
5 -1 8 8977.27 754.38 9
-5 -1 -8 10072.6 799.567 15
5 -1 8 9631.64 797.539 8
5 -1 8 10543.9 918.057 19
-5 -1 -9 10156.8 829.1 17
5 -1 9 9769.04 775.993 9
-5 -1 -9 8860 756.405 15
5 -1 9 8987.39 774.764 8
5 -1 10 17035.7 1016.6 9
-5 -1 -10 15866.5 1008.39 15
5 -1 10 17508 1087.67 8
5 -1 11 3239.16 435.209 9
5 -1 11 3708.9 494.899 8
5 -1 12 3800.57 460.588 9
5 -1 12 3505.54 464.435 8
-5 -1 -12 3716.58 448.543 11
5 -1 13 2733.19 361.739 9
5 -1 13 2719.01 389.555 8
-5 -1 -13 2053.9 314.493 11
5 -1 14 3355.03 382.359 9
5 -1 14 3763.44 420.056 8
-5 -1 -14 3174.52 364.173 11
5 -1 15 2166.8 286.781 9
-5 -1 -15 2029.44 270.268 11
5 -1 16 2788.37 284.794 9
-5 -1 -16 3019.47 291.398 11
5 0 -17 -45.8889 45.5793 22
5 0 -16 1964.85 268.966 22
5 0 -15 965.342 205.831 22
5 0 -14 4821.69 494.352 22
5 0 -13 6315.56 588.232 22
5 0 -12 528.095 221.387 22
5 0 -11 882.942 269.697 16
5 0 -11 769.172 236.821 22
5 0 -10 7159.06 694.209 16
5 0 -10 7836.54 690.221 22
5 0 -9 119.905 153.42 16
5 0 -9 44.6375 107.482 22
5 0 -8 12725.7 909.144 16
5 0 -8 13920.7 904.852 22
5 0 -7 76.1726 141.562 16
5 0 -7 127.304 99.7671 22
-5 0 6 7310.69 675.89 5
5 0 -6 8442.98 838.873 3
5 0 -6 5921.03 574.322 22
-5 0 5 13576.2 913.926 5
5 0 -5 14660.3 1069.2 3
-5 0 4 62216 2066.13 5
5 0 -4 66292 2313.27 3
-5 0 3 16951.5 998.346 5
5 0 -3 18878.5 1139.67 3
-5 0 2 37517.9 1528.93 5
5 0 -2 39242 1625.05 3
-5 0 1 25809 1232.01 5
5 0 -1 25390.5 1245.43 3
-5 0 0 33338.9 1396.97 5
5 0 0 31292.2 1367.9 3
-5 0 -1 30209.4 1306.37 5
5 0 1 29464.6 1296.69 3
5 0 2 58517.8 1877.86 3
-5 0 -2 60478.9 1922.2 5
5 0 3 9936.01 708.272 3
-5 0 -3 9819.78 719.232 5
-5 0 -4 28950 1296.25 5
-5 0 -5 13173.5 872.012 5
-5 0 -6 38506.3 1600.02 5
5 0 6 38875.9 1567.22 9
5 0 7 11476.5 823.308 9
-5 0 -7 11415.6 873.56 15
5 0 7 9906.87 808.913 8
-5 0 -8 17447.8 1082.5 17
5 0 8 20949.5 1128.26 9
-5 0 -8 20497 1197.21 15
5 0 9 8287.71 701.859 9
-5 0 -9 8544.21 769.805 15
5 0 10 4918.31 532.664 9
5 0 11 9313 717.163 9
5 0 12 4943.37 504.012 9
-5 0 -12 4633.88 509.784 11
5 0 13 3326.27 399.837 9
-5 0 -13 2970.92 383.743 11
5 0 14 2023.81 305.236 9
-5 0 -14 2122.51 315.077 11
5 0 15 4676.72 419.266 9
-5 0 -15 4574.04 409.648 11
5 0 16 50.9495 74.245 9
-5 0 -16 -81.8325 53.353 11
5 1 -16 889.277 175.555 22
5 1 -15 7068.37 552.505 22
5 1 -14 1996.62 330.154 22
5 1 -13 7278.06 634.321 22
5 1 -12 2693.44 413.598 22
5 1 -11 8006.22 711.42 22
5 1 -10 -69.7217 154.702 22
5 1 -9 10159.1 805.845 22
5 1 -8 1457.21 307.942 22
5 1 -7 11807.9 856.039 22
-5 1 6 962.801 263.851 5
5 1 -6 1292.73 282.183 22
-5 1 5 24314.2 1242.94 5
-5 1 4 10296.1 781.872 5
-5 1 3 20946.5 1119.8 5
5 1 -3 23394.5 1291.41 3
-5 1 2 16961.6 992.851 5
5 1 -2 18629.2 1109.66 3
-5 1 1 13624.1 871.128 5
5 1 -1 14806.2 955.769 3
-5 1 0 10541.2 753.763 5
5 1 0 11167.5 803.395 3
-5 1 -1 24340.7 1159.42 5
-5 1 -2 21975.4 1101.26 5
-5 1 -3 59827.6 1966.64 5
-5 1 -4 25896.4 1255.37 5
-5 1 -5 31362.2 1434.19 5
-5 1 -6 7766.53 733.55 5
5 1 7 27102.1 1287.63 9
5 1 8 10656.5 795.157 9
5 1 9 8660.17 717.239 9
5 1 10 14915.4 950.035 9
5 1 11 3789.37 460.888 9
5 1 12 3713.79 442.245 9
5 1 13 1701.81 295.879 9
5 1 14 3387.29 381.943 9
5 1 15 2916.81 324.579 9
5 1 16 2718.22 275.739 9
5 2 -14 2134.47 313.452 22
5 2 -13 1000.43 239.089 22
5 2 -12 6345.66 608.229 22
5 2 -11 1554.68 316.672 22
5 2 -10 9273.59 784.544 22
5 2 -9 1109.41 277.669 22
5 2 -8 25672.8 1354.71 22
5 2 -7 1914.69 382.209 22
5 2 -6 13405 963.931 22
5 2 -5 1105.26 302.002 22
5 2 3 7141.5 708.056 22
5 2 8 20792.7 1187.52 9
5 2 9 14756.3 995.343 9
5 2 10 3911.44 499.265 9
5 2 11 5529.83 573.513 9
5 2 12 4650.4 492.417 9
5 2 13 2334.18 331.23 9
5 2 14 309.315 124.928 9
5 3 7 6961.59 714.161 9
5 3 8 1933.77 375.681 9
-6 -5 5 1170.15 187.353 17
-6 -5 4 769.028 153.021 17
-6 -5 3 978.613 176.371 17
-6 -5 2 974.128 181.537 17
-6 -5 1 609.494 143.905 17
6 -5 -1 269.976 118.207 21
6 -5 -1 639.297 156.184 19
-6 -5 0 665.634 149.375 17
6 -5 0 1169.58 254.465 21
6 -5 0 775.433 173.164 19
-6 -5 -1 1178.43 194.7 17
6 -5 1 1700.89 312.487 21
6 -5 1 1495 234.365 19
-6 -5 -2 577.821 135.977 17
6 -5 2 807.033 205.497 21
-6 -5 -3 1076.24 175.326 17
6 -5 3 1378.7 250.999 21
-6 -5 -4 1399.02 192.246 17
6 -5 4 1583.74 242.779 21
6 -5 5 667.402 145.053 21
-6 -4 10 586.227 132.391 17
-6 -4 10 699.854 145.798 20
-6 -4 9 251.709 110.044 17
-6 -4 9 268.912 98.1038 15
6 -4 -9 618.642 156.527 14
-6 -4 9 337.146 120.759 20
6 -4 -9 393.637 131.65 19
-6 -4 8 4109.46 411.443 17
-6 -4 8 3465.7 373.714 15
6 -4 -8 3172.13 376.085 14
-6 -4 8 3811.02 394.858 20
6 -4 -8 3904.11 441.141 19
-6 -4 7 1493.85 262.425 17
-6 -4 7 1833.99 284.781 15
6 -4 -7 1424.23 273.669 14
-6 -4 7 1694.09 282.165 20
6 -4 -7 1951.12 335.218 19
-6 -4 6 2183.16 325.409 17
-6 -4 6 1779.25 293.676 15
6 -4 -6 2005.09 338.105 14
-6 -4 6 1657.17 277.454 20
6 -4 -6 2013.89 337.553 19
-6 -4 5 2259.54 333.812 17
-6 -4 5 1749.52 295.094 15
6 -4 -5 1763.4 321.79 14
-6 -4 5 1841.78 297.922 20
6 -4 -5 1995.64 336.073 19
-6 -4 4 1706.33 295.198 17
-6 -4 4 1244.54 249.935 15
6 -4 -4 1246.38 295.089 14
-6 -4 4 1533.09 283.626 20
6 -4 -4 1612.08 315.081 19
-6 -4 3 1057.06 238.791 17
-6 -4 3 1157.04 248.316 15
-6 -4 3 1166.46 246.87 20
6 -4 -3 1164.97 279.543 19
-6 -4 2 3185.12 410.754 17
-6 -4 2 3099.75 392.148 15
-6 -4 2 3261.38 408.914 20
6 -4 -2 2912.49 413.281 19
-6 -4 1 3149.62 404.145 17
-6 -4 1 3443.86 413.489 15
-6 -4 1 3448.33 424.857 20
6 -4 -1 3267.25 443.054 19
-6 -4 0 3051.64 398.587 17
-6 -4 0 2339.06 344.411 15
-6 -4 0 2614.02 368.656 20
6 -4 0 2652.8 399.238 19
-6 -4 -1 4467.32 485.376 17
-6 -4 -1 3350.03 410.636 15
-6 -4 -1 3667.45 434.932 20
6 -4 1 3784.59 471.141 19
-6 -4 -2 4592.46 491.755 17
-6 -4 -2 4038.41 448.575 15
6 -4 2 3627.36 479.137 8
6 -4 2 4538.26 554.448 21
-6 -4 -2 5074.5 505.665 20
6 -4 2 4262.98 509.064 19
-6 -4 -3 2444.81 360.389 17
-6 -4 -3 1890.02 308.086 15
6 -4 3 1708.34 329.187 8
6 -4 3 2562.86 410.509 21
6 -4 3 2234.31 363.779 19
-6 -4 -3 1735.42 329.416 10
-6 -4 -4 10104 719.645 17
-6 -4 -4 8780.76 638.689 15
6 -4 4 9592.17 732.86 8
6 -4 4 9698.02 746.089 21
-6 -4 -4 8453.22 694.64 10
6 -4 4 9597.22 742.666 19
-6 -4 -5 4742.12 485.812 17
-6 -4 -5 3947.4 417.184 15
6 -4 5 3889.75 453.663 8
6 -4 5 3836.28 453.958 21
-6 -4 -5 3697.57 440.859 10
6 -4 5 4552.19 505.27 19
-6 -4 -6 320.478 154.394 17
-6 -4 -6 217.837 126.407 15
6 -4 6 84.4458 124.226 8
6 -4 6 188.267 104.754 21
-6 -4 -6 281.973 129.355 10
-6 -4 -7 2194.45 317.366 17
-6 -4 -7 1632.78 250.013 15
6 -4 7 1939.98 305.242 8
6 -4 7 2055.1 307.127 21
-6 -4 -7 1856.92 273.537 10
-6 -4 -8 1323.8 237.436 17
6 -4 8 1337.99 241.566 8
6 -4 8 1423.05 235.02 21
-6 -4 -8 1145.39 207.439 10
6 -4 9 1161.45 197.871 8
6 -4 9 1193.62 186.248 21
-6 -4 -9 1248.48 190.706 10
-6 -4 -10 485.478 108.17 10
-6 -3 12 62.8011 62.6248 20
6 -3 -12 167.78 92.3287 19
-6 -3 12 273.188 101.56 18
6 -3 -11 5466.53 509.575 16
6 -3 -11 3819.45 398.612 14
-6 -3 11 4638.73 430.371 20
6 -3 -11 5635.83 541.24 19
-6 -3 11 4438.16 424.404 18
6 -3 -10 1040.43 246.338 16
6 -3 -10 545.403 161.961 14
-6 -3 10 1088.36 238.325 20
6 -3 -10 912.741 244.272 19
-6 -3 10 820.332 201.386 18
6 -3 -9 2697.24 394.622 16
6 -3 -9 2575.51 373.556 14
-6 -3 9 2449.06 348.756 20
6 -3 -9 2816.51 425.443 19
-6 -3 9 2564.09 361.12 18
6 -3 -8 1030.18 269.717 16
6 -3 -8 1324.5 287.394 14
-6 -3 8 947.527 227.511 20
6 -3 -8 1193.2 304.159 19
-6 -3 8 1054.5 243.661 18
6 -3 -7 7941.3 720.995 16
-6 -3 7 6881.82 608.996 20
6 -3 -7 7821.36 723.261 19
-6 -3 7 7836.93 654.157 18
-6 -3 6 411.313 178.79 20
6 -3 -6 327.099 209.859 19
-6 -3 6 326.102 165.229 18
-6 -3 5 2633.42 389.938 17
-6 -3 5 2870.59 405.965 20
6 -3 -5 3637.15 499.553 19
-6 -3 5 2887.43 414.057 18
-6 -3 4 8189.06 689.42 17
-6 -3 4 7709.57 667.631 20
6 -3 -4 7869.32 727.599 19
-6 -3 4 8206.48 699.035 18
-6 -3 3 5936.76 608.267 17
-6 -3 3 5763.24 590.069 20
6 -3 -3 5817.57 621.895 19
-6 -3 2 1413.32 306.468 17
-6 -3 2 1590.54 313.315 15
-6 -3 2 1950.57 354.683 20
6 -3 -2 1628.84 350.113 19
-6 -3 1 9374.48 758.55 17
-6 -3 1 8518.72 728.365 15
-6 -3 1 8686.91 742.477 20
6 -3 -1 8607.09 760.811 19
-6 -3 0 11497.4 848.346 17
-6 -3 0 12685.6 890.175 15
-6 -3 0 12132.3 884.757 20
6 -3 0 11978.8 888.131 19
-6 -3 -1 5642.93 599.434 17
-6 -3 -1 6469.11 643.251 15
-6 -3 -1 6894.02 669.336 20
6 -3 1 6138.47 637.069 19
-6 -3 -2 8054.42 718.867 17
-6 -3 -2 8958.46 753.964 15
6 -3 2 8973.49 777.832 8
-6 -3 -2 8221.91 725.151 20
6 -3 2 7255.12 687.07 19
-6 -3 -3 6562.61 650.851 17
-6 -3 -3 6359.88 629.992 15
6 -3 3 6040.01 628.385 8
-6 -3 -3 6017.59 639.175 20
6 -3 3 6249.09 629.893 19
-6 -3 -4 12104.4 881.049 17
-6 -3 -4 12897.5 905.353 15
6 -3 4 12454.8 902.369 8
-6 -3 -4 12052.7 898.256 20
6 -3 4 10940.1 845.016 19
-6 -3 -5 4348.39 529.09 17
-6 -3 -5 4675.45 545.148 15
6 -3 5 4788.76 556.018 8
6 -3 5 3639.4 486.368 19
-6 -3 -6 6786.34 650.181 17
-6 -3 -6 7912.25 691.854 15
6 -3 6 6589.78 636.617 8
6 -3 6 6278.34 629.192 19
-6 -3 -7 3200.51 441.344 17
-6 -3 -7 3162.12 427.218 15
6 -3 7 2860.62 412.94 8
6 -3 7 2794.59 391.173 21
6 -3 7 2800.48 414.754 19
-6 -3 -8 6042.25 575.991 17
-6 -3 -8 6064.54 565.698 15
6 -3 8 5718.05 561.588 8
-6 -3 -9 3182.44 409.789 17
-6 -3 -9 3560.76 420.646 15
6 -3 9 3588.26 426.75 8
6 -3 9 2057.36 300.283 21
6 -3 10 2053.15 310.302 8
-6 -3 -10 1615.5 258.751 11
-6 -3 -10 1496.63 235.909 10
-6 -3 -11 486.86 147.75 11
-6 -3 -11 463.963 139.654 10
-6 -3 -12 1642.08 204.641 11
-6 -3 -12 1410.46 189.554 10
6 -2 -14 429.779 119.967 19
6 -2 -13 1621.44 261.364 16
6 -2 -13 1310.53 221.372 22
-6 -2 13 1379.35 217.081 20
-6 -2 13 1619.27 228.368 18
6 -2 -12 5713.79 518.999 16
6 -2 -12 4380.39 459.562 22
-6 -2 12 5006.91 460.336 20
-6 -2 12 4176.32 415.519 18
6 -2 -11 802.17 223.574 16
6 -2 -11 877.324 224.447 22
-6 -2 11 775.355 200.12 20
-6 -2 11 790.335 203.434 18
6 -2 -10 2753.39 402.002 16
6 -2 -10 2308.43 384.189 22
-6 -2 10 2390.6 361.537 20
-6 -2 10 2324.16 361.38 18
6 -2 -9 999.855 270.175 16
6 -2 -9 1054.01 289.815 22
-6 -2 9 922.838 246.413 20
-6 -2 9 908.747 232.088 18
6 -2 -8 9088.25 767.803 16
6 -2 -8 8775.74 784.23 22
-6 -2 8 8627.63 708.017 20
-6 -2 8 9131.97 748.187 18
6 -2 -7 4384.49 541.002 16
6 -2 -7 2775.54 449.731 22
-6 -2 7 4303.43 506.297 20
-6 -2 7 4071.34 512.108 18
6 -2 -6 5963.82 621.789 16
-6 -2 6 4996.84 549.096 20
6 -2 -6 5638.85 639.382 19
-6 -2 6 6348.66 630.82 18
6 -2 -5 17271.6 1077.76 16
-6 -2 5 16096.8 991.911 20
6 -2 -5 16471.4 1081.24 19
-6 -2 5 16274.9 1018.86 18
-6 -2 4 12321.3 873.166 20
6 -2 -4 12908.7 948.449 19
-6 -2 4 12911.1 905.552 18
-6 -2 3 4137.79 520.77 17
6 -2 -3 2895.6 466.362 22
-6 -2 3 4810.07 548.592 20
6 -2 -3 4679.65 571.871 19
-6 -2 3 4638 544.448 18
-6 -2 2 42757.4 1715.94 17
6 -2 -2 40313.8 1752.43 22
-6 -2 2 43495.8 1714.37 20
6 -2 -2 41599.8 1753.24 19
-6 -2 1 23491.1 1260.89 17
6 -2 -1 24384.9 1319.43 22
-6 -2 1 23543 1247.79 20
6 -2 -1 24499.7 1304.54 19
-6 -2 0 14044.2 968.087 17
-6 -2 0 15751.7 1003.69 15
6 -2 0 12211.2 922.583 22
-6 -2 0 15018.3 983.017 20
6 -2 0 13233.5 944.24 19
-6 -2 -1 1510.18 331.529 17
-6 -2 -1 2132.87 374.889 15
6 -2 1 1599.47 326.729 22
-6 -2 -1 1892.24 355.405 20
6 -2 1 2125.76 386.893 19
-6 -2 -2 11173.1 861.778 17
-6 -2 -2 10482.8 823.692 15
6 -2 2 8251.5 761.425 22
-6 -2 -2 11373 862.19 20
6 -2 2 10544.6 833.679 19
-6 -2 -3 4968.84 573.039 17
-6 -2 -3 4949.6 561.384 15
6 -2 3 3086.63 471.972 22
-6 -2 -3 5310.35 597.274 20
6 -2 3 4890.05 578.521 19
-6 -2 -4 9762.68 807.673 17
-6 -2 -4 8506.82 739.61 15
6 -2 4 8842.42 751.599 8
-6 -2 -4 9369.85 803.599 20
6 -2 4 8599.72 768.603 19
-6 -2 -5 6447.11 666.658 17
-6 -2 -5 7029.69 674.27 15
6 -2 5 5564.26 592.994 8
6 -2 5 6359.43 667.124 19
-6 -2 -6 4177.43 532.381 17
-6 -2 -6 4511.58 542.423 15
6 -2 6 3088.66 457.572 8
6 -2 6 4106.47 542.621 19
-6 -2 -7 4215.92 529.22 17
-6 -2 -7 4291.41 518.107 15
6 -2 7 3158.21 451.676 8
6 -2 7 3918.99 527.94 19
-6 -2 -8 9276.98 769.18 17
-6 -2 -8 8408.84 719 15
6 -2 8 7691.98 684.47 8
-6 -2 -9 1322.16 302.703 17
-6 -2 -9 1456.72 316.034 15
6 -2 9 1313.51 282.518 8
-6 -2 -10 1709.39 309.198 15
6 -2 10 1198.12 245.891 9
6 -2 10 1410.67 275.436 8
6 -2 11 7011.87 544.916 9
6 -2 11 8203.42 623.868 8
6 -2 12 384.959 152.463 9
6 -2 12 457.426 158.904 8
-6 -2 -12 494.974 151.661 11
-6 -2 -12 15.4652 77.8744 10
6 -2 13 3085.66 295.426 9
6 -2 13 3813.05 359.956 8
-6 -2 -13 3946.29 363.299 11
-6 -2 -14 461.474 108.985 11
6 -1 -15 3013.88 289.188 22
6 -1 -14 32.4291 69.6487 22
6 -1 -13 5751.58 502.09 16
6 -1 -13 5735.89 523.613 22
6 -1 -12 4030.39 460.057 16
6 -1 -12 4455.96 497.114 22
6 -1 -11 3511.45 445.045 16
6 -1 -11 3347.13 452.555 22
-6 -1 11 3225.03 400.549 20
-6 -1 11 2500.46 360.001 18
6 -1 -10 3303.03 455.692 16
6 -1 -10 3783.85 506.175 22
-6 -1 10 3321.79 439.299 20
-6 -1 10 3137.59 432.603 18
6 -1 -9 7946.37 711.889 16
6 -1 -9 9003.09 780.197 22
-6 -1 9 7357.57 667.432 20
-6 -1 9 6874.51 653.027 18
6 -1 -8 5111.57 581.58 16
6 -1 -8 5305.36 607.055 22
-6 -1 8 5351.22 577.429 20
-6 -1 8 5511.93 600.307 18
6 -1 -7 21554.7 1213.64 16
6 -1 -7 22943.7 1277.4 22
-6 -1 7 22825.2 1220.09 20
-6 -1 7 20917.9 1200.01 18
6 -1 -6 4295.24 546.393 16
6 -1 -6 5033.32 596.678 22
-6 -1 6 4056.81 516.286 20
-6 -1 6 4201.43 535.346 18
6 -1 -5 18587.2 1128.55 16
6 -1 -5 19907.8 1175.37 22
-6 -1 5 16903.7 1051.13 20
-6 -1 5 16820.3 1072.26 18
-6 -1 4 3455.17 481.945 20
6 -1 -4 3723.49 512.693 22
6 -1 -4 3072.59 470.296 19
-6 -1 4 3085.81 463.001 18
6 -1 -3 26373.5 1353.28 22
-6 -1 3 23974.3 1258.45 20
6 -1 -3 23353.9 1284.84 19
6 -1 -2 5286.94 590.682 22
-6 -1 2 4947.75 569.847 20
6 -1 -2 4652.71 572.919 19
6 -1 -1 20926.4 1181 22
-6 -1 1 19272.5 1129.91 20
6 -1 -1 18959.3 1149.25 19
-6 -1 0 8209.47 725.49 17
-6 -1 0 9495.3 785.294 15
6 -1 0 9375.7 773.533 22
-6 -1 0 10116.6 814.785 20
6 -1 0 8703.99 773.32 19
-6 -1 -1 13134.3 932.169 17
-6 -1 -1 15447.2 1001.67 15
6 -1 1 13753.9 943.995 22
-6 -1 -1 16693.2 1057.13 20
6 -1 1 14995.2 1023.75 19
-6 -1 -2 5212.35 588.943 17
-6 -1 -2 6337.03 644.031 15
6 -1 2 5204.1 570.975 22
-6 -1 -2 6286.79 646.743 20
6 -1 2 6406.16 673.16 19
-6 -1 -3 12729 924.599 17
-6 -1 -3 13324.5 938.053 15
6 -1 3 13441.4 930.652 22
-6 -1 -3 14821.2 1007.4 20
6 -1 3 14149.8 1023.39 19
-6 -1 -4 5119.09 604.725 17
-6 -1 -4 5062.07 610.347 15
6 -1 4 4872.77 556.229 22
-6 -1 -4 5004.34 590.78 20
6 -1 4 5221.74 638.094 19
-6 -1 -5 8010.67 752.435 17
6 -1 5 8247.48 760.058 9
-6 -1 -5 8761.6 764.733 15
6 -1 5 9144.77 859.837 19
-6 -1 -6 3299.4 488.091 17
-6 -1 -6 3369.76 475.899 15
6 -1 6 3017.28 470.237 9
6 -1 6 2969.07 447.975 8
6 -1 6 3192.14 513.2 19
-6 -1 -7 3589.87 509.554 17
-6 -1 -7 3594.35 500.077 15
6 -1 7 3176.64 472.382 9
6 -1 7 3102.08 459.367 8
6 -1 7 3626.13 561.813 19
-6 -1 -8 11653.3 894.944 17
6 -1 8 10610.6 811.214 9
-6 -1 -8 11089.6 847.281 15
6 -1 8 10343.7 827.378 8
6 -1 9 6168.08 597.337 9
-6 -1 -9 5872.53 608.078 15
6 -1 9 5703.4 606.525 8
6 -1 10 11023.8 775.836 9
-6 -1 -10 11059.7 803.904 15
6 -1 10 10980 820.139 8
6 -1 11 2889.1 377.458 9
6 -1 11 3809.36 465.482 8
6 -1 12 4892.04 464.431 9
6 -1 12 4912.83 491.336 8
-6 -1 -12 4521.39 448.181 11
6 -1 13 568.207 162.095 9
6 -1 13 867.552 204.741 8
-6 -1 -13 731.495 171.919 11
6 -1 14 2941.21 304.205 9
-6 -1 -14 2813.98 296.272 11
6 -1 15 861.287 142.597 9
6 0 -15 -15.2656 39.4198 22
6 0 -14 11259.9 677.126 22
6 0 -13 2952.43 382.694 22
6 0 -12 5655.21 554.253 22
6 0 -11 863.427 230.879 22
6 0 -10 11375.4 827.435 22
6 0 -9 946.38 273.697 16
6 0 -9 823.525 241.426 22
6 0 -8 6982.91 709.815 16
6 0 -8 7173.69 670.064 22
6 0 -7 10851.7 887.254 16
6 0 -7 12041.9 870.343 22
6 0 -6 4837.32 555.073 22
6 0 -5 620.126 222.278 22
6 0 -4 37172.1 1609.44 22
6 0 -3 5992.49 619.147 22
6 0 -2 11730.2 884.353 22
6 0 -1 9261.57 781.092 22
-6 0 1 6023.48 610.909 20
6 0 0 44466.2 1764.08 22
-6 0 0 33081.1 1495.35 20
-6 0 -1 9639.44 778.736 15
6 0 1 10615 833.886 22
-6 0 -1 9235.4 771.089 20
-6 0 -2 5532.01 596.475 15
6 0 2 6792.04 662.254 22
-6 0 -2 5902.72 626.13 20
-6 0 -3 982.256 264.93 15
6 0 3 915.05 247.521 22
-6 0 -4 13486.6 966.319 15
6 0 4 15692.5 1025.2 22
6 0 5 11857.1 893.657 9
-6 0 -5 10358.3 854.686 15
6 0 5 11195.7 865.402 22
6 0 6 6494.82 661.431 9
-6 0 -6 5328.87 611.36 15
6 0 6 4728.29 585.45 8
6 0 7 8303.53 734.409 9
-6 0 -7 7719.26 740.26 15
6 0 7 8375.46 775.289 8
6 0 8 3575.62 472.168 9
-6 0 -8 2800.94 451.576 15
6 0 9 6687.77 631.635 9
-6 0 -9 6128.15 632.865 15
6 0 10 7721.4 646.048 9
6 0 11 9584.54 692.407 9
6 0 12 1389.15 256.074 9
-6 0 -12 1397.2 266.209 11
6 0 13 2673.8 323.514 9
-6 0 -13 2265.36 297.637 11
6 0 14 244.432 96.6798 9
-6 0 -14 87.4174 67.2711 11
6 0 15 2513.47 249.392 9
6 1 -15 2975.38 292.819 22
6 1 -14 28.6194 73.4559 22
6 1 -13 6874.21 571.799 22
6 1 -12 4188.53 476.247 22
6 1 -11 2688.64 408.927 22
6 1 -10 3208.42 450.693 22
6 1 -9 6779.34 659.6 22
6 1 -8 5804.54 621.821 22
6 1 -7 22492.6 1247.4 22
6 1 -6 4425.25 558.05 22
6 1 -5 17187.8 1110.72 22
6 1 -4 4304.89 565.563 22
6 1 -3 27436.5 1450.44 22
6 1 -2 5746.94 666.487 22
6 1 -1 23873.8 1381 22
6 1 0 11286.6 941.623 22
6 1 1 15296.5 1099.3 22
6 1 2 5346.85 652.657 22
6 1 3 16317 1146.65 22
6 1 4 5295.03 655.909 22
6 1 7 3494.84 471.424 9
6 1 8 9423.24 753.308 9
6 1 9 5744.43 586.435 9
6 1 10 11389.8 788.522 9
6 1 11 3195.06 400.754 9
6 1 12 4698.94 459.032 9
6 1 13 949.925 205.68 9
6 1 14 2875.49 307.854 9
6 2 -12 4562.66 454.949 22
6 2 -11 1014.8 247.236 22
6 2 -10 2116.55 361.002 22
6 2 -9 666.098 229.796 22
6 2 -8 8326.58 749.314 22
6 2 -7 3511.42 500.648 22
6 2 -6 4528.57 577.728 22
6 2 -5 14758.5 1052.69 22
6 2 -4 12006.3 950.979 22
6 2 -3 4372.05 575.582 22
6 2 -2 41130.2 1825.01 22
6 2 -1 22571.2 1321.34 22
6 2 0 12482 972.586 22
6 2 1 2492.08 445.335 22
6 2 2 8173.81 796.679 22
6 2 3 4709.81 622.16 22
6 2 7 4372.19 549.947 9
6 2 8 9629.13 803.474 9
6 2 9 1585.3 318.436 9
6 2 10 1592.29 330.521 9
6 2 11 8738.02 664.281 9
6 2 12 356.737 139.479 9
6 2 13 3790.36 355.893 9
6 3 6 7895.16 766.806 9
6 3 7 3705.88 499.409 9
6 3 8 5725.65 594.878 9
6 3 9 3510.65 426.839 9
6 3 10 1870.8 295.555 9
6 4 4 7443.25 617.063 9
-7 -4 6 2419.62 269.591 17
-7 -4 6 2519.2 272.176 15
-7 -4 6 2349.34 267.075 20
7 -4 -6 2560.82 307.841 19
-7 -4 5 574.039 142.686 17
-7 -4 5 714.151 152.625 15
-7 -4 5 772.246 161.669 20
7 -4 -5 993.537 198.1 19
-7 -4 4 3101.22 329.768 17
-7 -4 4 3082.76 324.987 15
-7 -4 4 3038.96 328.75 20
7 -4 -4 3588.96 393.262 19
-7 -4 3 1192 212.834 17
-7 -4 3 1290.36 224.577 15
7 -4 -3 984.936 231.873 21
-7 -4 3 898.648 190.374 20
7 -4 -3 1335.08 258.769 19
-7 -4 2 891.508 193.609 17
-7 -4 2 947.206 198.614 15
7 -4 -2 1016.97 244.839 21
-7 -4 2 945.522 194.553 20
7 -4 -2 1254.14 243.166 19
-7 -4 1 1653.38 256.178 17
-7 -4 1 1555.61 245.54 15
7 -4 -1 1687.12 322.659 21
-7 -4 1 1759.52 264.882 20
7 -4 -1 1392.98 266.293 19
-7 -4 0 1247.87 229.392 17
-7 -4 0 1282.14 228.54 15
7 -4 0 932.765 239.326 21
7 -4 0 1260.96 255.793 19
-7 -4 -1 955.969 203.714 17
-7 -4 -1 962.377 198.993 15
7 -4 1 914.62 230.789 21
7 -4 1 1267.29 259.021 19
-7 -4 -2 948.951 198.449 17
-7 -4 -2 628.674 162.641 15
7 -4 2 679.611 160.86 8
7 -4 2 901.769 211.544 21
7 -4 2 1074.23 219.812 19
-7 -4 -3 518.125 160.095 17
-7 -4 -3 374.002 126.242 15
7 -4 3 412.858 122.412 8
7 -4 3 424.223 138.593 21
7 -4 3 446.496 149.501 19
-7 -4 -4 870.689 183.597 17
-7 -4 -4 870.982 158.203 15
7 -4 4 872.266 171.612 8
7 -4 4 850.739 192.858 21
-7 -4 -5 1691.14 235.564 17
-7 -4 -5 1172.8 177.943 15
7 -4 5 1261.57 203.549 8
7 -4 5 1236.86 206.537 21
-7 -4 -6 803.291 155.527 17
-7 -3 10 1482.32 210.27 15
7 -3 -10 1436.84 227.064 19
-7 -3 9 1654.29 236.092 17
-7 -3 9 1477.38 228.453 15
-7 -3 9 1729.76 246.607 20
7 -3 -9 1359.27 235.071 19
-7 -3 8 1056.97 203.432 17
-7 -3 8 1210.24 230.866 15
-7 -3 8 1199.9 224.969 20
7 -3 -8 1424.82 273.432 19
-7 -3 7 6576.04 524.579 17
-7 -3 7 6378.05 524.974 15
-7 -3 7 6796.4 540.981 20
7 -3 -7 6970.27 606.488 19
-7 -3 6 1352.61 252.793 17
-7 -3 6 1668.41 281.952 15
-7 -3 6 1630.22 294.122 20
7 -3 -6 1747.06 324.337 19
-7 -3 5 7795.9 601.439 17
-7 -3 5 7292.96 592.551 15
-7 -3 5 6476.48 557.369 20
7 -3 -5 7427.95 647.381 19
-7 -3 4 9098.69 657.241 17
-7 -3 4 7894.91 624.267 15
-7 -3 4 7993.35 626.071 20
7 -3 -4 9561.39 748.64 19
-7 -3 3 3316.71 410.437 17
-7 -3 3 3906.85 449.813 15
-7 -3 3 3900.13 451.852 20
7 -3 -3 4269.35 494.736 19
-7 -3 2 428.813 168.623 17
-7 -3 2 272.011 174.572 15
-7 -3 2 368.72 177.556 20
7 -3 -2 592.897 215.495 19
-7 -3 1 7790.01 636.296 17
-7 -3 1 7346.33 623.644 15
-7 -3 1 8039.31 655.974 20
7 -3 -1 8232.06 699.471 19
-7 -3 0 8198.66 658.004 17
-7 -3 0 7714.56 648.667 15
7 -3 0 7793.47 682.487 8
-7 -3 0 7727.73 657.333 20
7 -3 0 8458.19 710.641 19
-7 -3 -1 3003.54 404.208 17
-7 -3 -1 3438.22 436.44 15
7 -3 1 2773.05 412.551 8
-7 -3 -1 2786.5 404.121 20
7 -3 1 3317.49 456.136 19
-7 -3 -2 1272.6 272.644 17
-7 -3 -2 848.1 238.037 15
7 -3 2 1070.95 277.877 8
-7 -3 -2 1288.91 280.567 20
7 -3 2 1018.35 265.174 19
-7 -3 -3 1186.51 263.925 17
-7 -3 -3 1208.27 264.652 15
7 -3 3 1357.6 303.005 8
7 -3 3 1305.42 273.553 19
-7 -3 -4 1784.74 317.847 17
-7 -3 -4 2056.06 355.736 15
7 -3 4 1677.22 318.757 8
7 -3 4 1183.53 279.449 19
-7 -3 -5 4580.59 487.432 17
-7 -3 -5 4284.69 474.103 15
7 -3 5 4398.98 481.21 8
7 -3 5 3866.65 469.09 19
-7 -3 -6 4556.01 477.346 17
-7 -3 -6 3484.07 421.112 15
7 -3 6 4164.66 458.755 8
7 -3 6 3174.62 380.898 21
-7 -3 -7 74.0296 91.5339 17
-7 -3 -7 165.691 131.528 15
7 -3 7 279.693 130.862 8
7 -3 7 278.63 117.898 21
-7 -3 -8 2088.65 293.541 15
7 -3 8 1895.41 281.048 8
7 -3 8 1146.45 195.733 21
7 -3 9 371.498 118.101 8
-7 -3 -9 288.134 89.6176 10
7 -2 -12 3855.28 344.89 19
-7 -2 11 637.035 137.092 20
7 -2 -11 185.062 98.6892 19
7 -2 -10 5141 456.011 22
-7 -2 10 5473.32 457.388 20
7 -2 -10 5734.28 530.352 19
-7 -2 9 929.892 203.758 17
7 -2 -9 949.902 219.47 22
-7 -2 9 1007.95 222.9 20
7 -2 -9 857.498 217.655 19
-7 -2 8 2514.75 340.789 17
7 -2 -8 2341.2 358.208 22
-7 -2 8 2654.49 362.724 20
7 -2 -8 2945.05 413.352 19
-7 -2 7 1986.12 316.566 17
7 -2 -7 1949.85 347.79 22
-7 -2 7 2146.58 339.602 20
7 -2 -7 2943.74 434.488 19
-7 -2 6 5599.99 541.308 17
7 -2 -6 5679.74 591.198 22
-7 -2 6 5729.34 557.607 20
7 -2 -6 6390.91 637.667 19
-7 -2 5 3289.22 419.042 17
7 -2 -5 3175.47 459.904 22
-7 -2 5 3009.27 410.556 20
7 -2 -5 3165.65 464.273 19
-7 -2 4 5909.14 571.558 17
-7 -2 4 6561.05 605.305 15
7 -2 -4 6635.46 657.275 22
-7 -2 4 6271.08 603.881 20
7 -2 -4 7683.78 705.368 19
-7 -2 3 4565.8 511.475 17
-7 -2 3 4641.7 522.338 15
7 -2 -3 4484.14 547.992 22
-7 -2 3 4798.87 538.412 20
7 -2 -3 4809.68 565.902 19
-7 -2 2 3903.95 479.048 17
7 -2 -2 3742.8 499.513 22
-7 -2 2 3658.21 466.54 15
-7 -2 2 4031.86 491.756 20
7 -2 -2 3756.48 514.55 19
-7 -2 1 4486.56 518.382 17
-7 -2 1 3842.67 483.731 15
7 -2 -1 4158.88 521.769 22
-7 -2 1 3919.03 495.497 20
7 -2 -1 4319.49 536.962 19
-7 -2 0 3619.6 478.073 17
-7 -2 0 3000.29 447.992 15
7 -2 0 3237.74 470.669 22
-7 -2 0 3636.11 483.632 20
7 -2 0 3989.24 520.879 19
-7 -2 -1 12940.5 891.465 17
-7 -2 -1 12469.9 884.708 15
7 -2 1 12191.9 896.515 22
-7 -2 -1 12419.5 895.815 20
7 -2 1 12694.6 912.951 19
-7 -2 -2 4374.21 520.865 17
-7 -2 -2 3997.6 503.089 15
-7 -2 -2 4452.22 538.184 20
7 -2 2 4108.09 536.49 19
-7 -2 -3 12366 893.63 17
-7 -2 -3 12627.3 899.987 15
7 -2 3 12012.7 877.556 8
-7 -2 -3 11931.1 885.296 20
7 -2 3 13174 937.393 19
-7 -2 -4 3824.97 499.358 17
-7 -2 -4 4694.06 546.635 15
7 -2 4 4282.21 517.541 8
7 -2 4 3408.83 488.834 19
-7 -2 -5 13188.8 899.208 17
-7 -2 -5 14070.2 934.535 15
7 -2 5 12433.9 873.842 8
7 -2 5 13591.5 945.043 19
-7 -2 -6 5034.77 546.439 17
-7 -2 -6 5386.65 572.526 15
7 -2 6 5057.24 537.752 8
7 -2 6 5577.17 591.675 19
-7 -2 -7 3193.01 423.262 17
-7 -2 -7 3513.87 450.353 15
7 -2 7 3580.81 444.527 8
-7 -2 -8 1962.46 327.21 15
7 -2 8 1619.31 291.619 8
-7 -2 -9 5141.14 489.207 15
7 -2 9 5263.78 496.815 8
7 -2 10 1435.04 249.293 8
7 -2 11 1990.02 252.3 8
-7 -2 -11 2351.09 270.253 11
7 -1 -12 2776.47 319.293 22
7 -1 -12 2194.01 277.194 19
7 -1 -11 4547.25 463.366 22
7 -1 -11 4434.83 445.526 19
7 -1 -10 3469.63 431.651 22
7 -1 -10 2923.98 393.112 19
7 -1 -9 5976.31 594.417 22
7 -1 -9 5967.32 575.073 19
7 -1 -8 3264.08 456.846 22
-7 -1 8 2821.79 391.938 20
7 -1 -8 3310.93 443.946 19
7 -1 -7 14744.9 978.046 22
-7 -1 7 12075.5 830.79 20
7 -1 -7 13168.1 900.296 19
7 -1 -6 5275.54 592.661 22
-7 -1 6 4232.83 507.902 20
7 -1 -6 4132.56 512.997 19
-7 -1 5 3539.72 469.245 20
7 -1 -5 4118.76 538.835 22
7 -1 -5 3651.32 489.696 19
7 -1 -4 7596.72 718.576 22
-7 -1 4 6928.32 667.399 20
7 -1 -4 6664.62 664.374 19
-7 -1 3 8449.58 729.225 15
7 -1 -3 8563.56 772.746 22
-7 -1 3 8243.41 732.773 20
7 -1 -3 7834.27 726.859 19
-7 -1 2 6571.48 646.42 15
7 -1 -2 6456.74 678.429 22
-7 -1 2 5932.94 629.237 20
7 -1 -2 6077.54 635.369 19
-7 -1 1 8867.65 761.231 15
7 -1 -1 9669.14 814.045 22
-7 -1 1 9838.77 816.862 20
7 -1 -1 8829.93 777.005 19
-7 -1 0 10337.2 841.391 15
7 -1 0 9951.6 826.443 22
-7 -1 0 11225.3 876.452 20
7 -1 0 10861.6 877.654 19
-7 -1 -1 10719 850.142 15
7 -1 1 10212.5 841.082 22
-7 -1 -1 10319.3 849.845 20
7 -1 1 10719.4 877.019 19
-7 -1 -2 17278.5 1090.65 15
7 -1 2 18114.1 1119.77 22
-7 -1 -2 18357.2 1147.87 20
7 -1 2 19396.3 1210.31 19
-7 -1 -3 2462.15 428.901 15
7 -1 3 2162.22 388.652 22
7 -1 3 2942.2 471.55 19
-7 -1 -4 8869.53 780.366 15
7 -1 4 7738.34 708.376 8
7 -1 4 7994.3 797.652 19
-7 -1 -5 4562.07 559.422 15
7 -1 5 3744.56 491.762 8
7 -1 5 4401.74 597.048 19
7 -1 6 10525.1 795.01 9
-7 -1 -6 11081.2 849.614 15
7 -1 6 10728.1 821.583 8
-7 -1 -7 1456.67 306.814 17
7 -1 7 1740.65 323.828 9
-7 -1 -7 1355.68 304.827 15
7 -1 7 1513.1 315.381 8
7 -1 8 13062.2 825.981 9
-7 -1 -8 13621.6 880.777 15
7 -1 8 13491.7 890.503 8
7 -1 9 1909.42 308.225 9
7 -1 9 2230.47 356.632 8
7 -1 10 1367.82 244.68 9
7 -1 10 1592.22 287.264 8
7 -1 11 2203.91 278.384 9
7 -1 11 2235.93 295.368 8
-7 -1 -11 2607.54 317.123 11
7 -1 12 3225.73 293.115 9
-7 -1 -12 3462.38 321.923 11
7 0 -13 -0.81609 32.695 22
7 0 -12 7915.17 560.361 22
7 0 -11 3088.79 379.886 22
7 0 -10 6313.96 574.849 22
7 0 -10 5374.52 496.344 19
7 0 -9 3989.31 476.671 22
7 0 -8 7159.46 650.839 22
7 0 -7 6964.08 651.149 22
7 0 -6 16541.2 1020.16 22
7 0 -5 7512.58 696.589 22
7 0 -4 4358.85 530.843 22
7 0 -3 8194.99 739.067 22
7 0 -2 9849.3 816.758 22
7 0 -1 11509.7 887.755 22
7 0 0 12974.8 956.183 22
7 0 1 6754 691.731 22
7 0 2 2635.17 442.534 22
7 0 3 17032.2 1101.6 22
7 0 4 6595.48 682.663 9
-7 0 -4 4833.69 577.745 15
7 0 5 13088.5 947.881 9
-7 0 -5 10910.8 848.36 15
7 0 5 11708.2 911.223 8
7 0 6 3388.4 469.116 9
-7 0 -6 2101.37 372.605 15
7 0 6 2424.57 433.347 8
7 0 7 15135.5 951.136 9
-7 0 -7 10759.6 805.882 15
7 0 8 3302.25 428.842 9
7 0 9 2169.59 341.492 9
7 0 10 3522.55 398.887 9
7 0 11 5044.97 444.052 9
-7 0 -11 4309.05 394.734 11
7 0 12 403.163 131.868 9
-7 0 -12 262.805 95.8465 11
7 0 13 1953.04 217.437 9
7 1 -12 2262.68 283.201 22
7 1 -11 4568 452.727 22
7 1 -10 2667.05 376.279 22
7 1 -9 5891.89 570.879 22
7 1 -8 3126.2 427.444 22
7 1 -7 14255.8 937.389 22
7 1 -6 4695.52 547.918 22
7 1 -5 4232.04 532.34 22
7 1 -4 6739.94 674.078 22
7 1 -3 9160.41 802.87 22
7 1 -2 5599.51 647.274 22
7 1 -1 9671 858.505 22
7 1 0 11786.9 968.173 22
7 1 1 9954.89 892.585 22
7 1 2 20527.4 1310.89 22
7 1 3 2693.28 483.858 22
7 1 5 5337.94 584.779 9
7 1 6 11150.8 835.864 9
7 1 7 1744.61 337.484 9
7 1 8 12456 823.148 9
7 1 9 2491 352.221 9
7 1 10 2092.45 310.437 9
7 1 11 2617.21 316.606 9
7 1 12 3495.25 330.244 9
7 2 -10 4446.07 418.229 22
7 2 -9 950.675 239.664 22
7 2 -8 1882.56 316.853 22
7 2 -7 1714.76 313.945 22
7 2 -6 6013.32 603.621 22
7 2 -5 3418.77 457.293 22
7 2 -4 6492 655.969 22
7 2 -3 3562.35 492.874 22
7 2 -2 4548.5 557.442 22
7 2 -1 3228.15 500.138 22
7 2 0 3793.2 532.748 22
7 2 1 12040.7 948.683 22
7 2 5 14961.7 992.941 9
7 2 6 5848.97 609.835 9
7 2 7 3821.39 480.499 9
7 2 8 1997.57 336.965 9
7 2 9 5153.9 504.83 9
7 2 10 1467.79 254.816 9
7 2 11 2186.48 269.774 9
7 3 5 3973.9 490.34 9
7 3 6 4230.28 483.783 9
7 3 7 317.349 143.182 9
7 3 8 1482.3 256.508 9
7 4 2 194.8 109.517 9
7 4 3 544.966 151.63 9
-8 -3 5 1241.03 193.786 15
-8 -3 5 1302.54 203.871 20
8 -3 -5 1530.01 239.076 19
-8 -3 4 1879.35 245.409 15
-8 -3 4 1843.58 250.238 20
8 -3 -4 1911.67 275.076 19
-8 -3 3 975.584 177.88 17
-8 -3 3 1406.66 221.464 15
8 -3 -3 1340.77 230.116 8
-8 -3 3 1586.45 240.486 20
8 -3 -3 1267.13 236.192 19
-8 -3 2 4642.38 388.333 17
-8 -3 2 5978.43 455.94 15
8 -3 -2 5128.18 445.039 8
-8 -3 2 6130.9 472.896 20
8 -3 -2 6109.56 518.209 19
-8 -3 1 1264.88 207.196 17
-8 -3 1 1418.64 229.078 15
8 -3 -1 1543.15 258.22 8
8 -3 -1 1543.76 269.602 19
-8 -3 0 4755.61 400.732 17
-8 -3 0 5622.44 454.463 15
8 -3 0 4846.66 449.167 8
-8 -3 -1 1171.59 209.422 17
-8 -3 -1 1246 219.493 15
8 -3 1 1774.45 270.918 8
8 -3 1 1957.32 292.605 19
-8 -3 -2 4341.63 376.357 17
-8 -3 -2 4746.54 415.758 15
8 -3 2 4158.48 407.373 8
8 -3 2 4335.92 426.607 19
-8 -3 -3 1071.19 190.314 17
-8 -3 -3 1087.1 198.769 15
8 -3 3 1322.39 225.49 8
8 -3 3 1061.26 193.312 21
8 -3 3 1513.33 242.966 19
-8 -3 -4 1819.25 231.333 17
-8 -3 -4 1921.51 245.959 15
8 -3 4 2021.12 266.352 8
8 -3 4 1739.94 239.481 21
-8 -3 -5 1186.37 187.063 15
8 -3 5 1575.39 228.208 8
8 -2 -8 1779.22 241.396 19
-8 -2 7 3043.78 318.103 15
-8 -2 7 2904.82 308.224 20
8 -2 -7 3589.14 370.85 19
-8 -2 6 6784.41 501.906 15
-8 -2 6 5674.44 461.357 20
8 -2 -6 6611.3 529.981 19
-8 -2 5 386.831 130.426 15
-8 -2 5 398.072 154.983 20
8 -2 -5 261.819 142.257 19
-8 -2 4 5354.15 476.646 15
8 -2 -4 4779.1 463.662 22
-8 -2 4 5316.34 486.935 20
8 -2 -4 5938.79 539.031 19
-8 -2 3 7436.88 569.31 15
8 -2 -3 5998.11 534.606 22
-8 -2 3 6694.22 558.987 20
8 -2 -3 7773.98 622.418 19
-8 -2 2 2457.72 345.376 15
8 -2 -2 1965.98 309.683 22
-8 -2 2 2761.91 370.893 20
8 -2 -2 2554.67 371.489 19
-8 -2 1 842.622 211.329 15
-8 -2 1 799.614 209.278 20
8 -2 -1 830.012 226.435 19
-8 -2 0 5193.82 498.395 15
8 -2 0 5058.29 515.876 19
-8 -2 -1 5565.98 496.875 17
-8 -2 -1 7020.06 584.312 15
8 -2 1 6871.56 601.483 8
8 -2 1 5915.52 551.92 19
-8 -2 -2 2503.73 334.858 17
-8 -2 -2 3086.8 386.443 15
8 -2 2 3030.43 395.448 8
8 -2 2 2736.91 376.66 19
-8 -2 -3 3647.4 394.059 17
-8 -2 -3 4390.41 458.236 15
8 -2 3 4149.66 457.575 8
8 -2 3 3758.79 430.982 19
-8 -2 -4 1000.57 205.273 17
-8 -2 -4 1318.24 248.502 15
8 -2 4 1288.97 257.395 8
8 -2 4 1171.19 248.264 19
-8 -2 -5 1996.64 303.069 15
8 -2 5 2100.87 307.177 8
-8 -2 -6 1659.45 259.552 15
8 -2 6 1748.07 272.954 8
-8 -2 -7 3962.27 365.742 15
8 -2 7 4117.63 382.803 8
8 -1 -9 4911.27 412.186 22
8 -1 -8 1214.8 230.749 22
8 -1 -8 693.133 159.51 19
8 -1 -7 3282.45 394.263 22
8 -1 -7 2843.06 336.533 19
-8 -1 6 1477.44 251.218 15
8 -1 -6 1627.41 296.086 22
8 -1 -6 1348.81 253.104 19
-8 -1 5 3404.69 399.17 15
8 -1 -5 4360.14 476.524 22
8 -1 -5 3616.23 410.272 19
-8 -1 4 5594.72 518.963 15
8 -1 -4 6899.45 618.334 22
-8 -1 4 6083.61 549.442 20
8 -1 -4 5458.17 508.819 19
-8 -1 3 5682.62 530.146 15
8 -1 -3 6640.27 610.054 22
-8 -1 3 5755.67 549.609 20
8 -1 -3 5258.76 513.203 19
-8 -1 2 4270.28 477.844 15
8 -1 -2 5192.59 546.585 22
-8 -1 2 4502.53 498.015 20
8 -1 -2 4126.04 461.207 19
-8 -1 1 3392.14 428.371 15
8 -1 -1 3353.7 444.81 22
-8 -1 1 3180.63 424.845 20
-8 -1 0 5352.76 541.464 15
8 -1 0 6050.6 594.388 22
-8 -1 -1 6434.16 592.063 15
8 -1 1 6862.75 631.959 22
-8 -1 -2 5694.16 564.111 15
8 -1 2 6046.03 576.58 8
-8 -1 -3 4578.83 496.158 15
8 -1 3 3811.38 463.906 8
-8 -1 -4 4945.35 510.474 15
8 -1 4 6051.54 565.092 8
-8 -1 -5 2441.96 355.151 15
8 -1 5 2435.07 354.885 8
-8 -1 -6 6351.77 539.938 15
8 -1 6 7030.33 578.393 8
8 -1 7 2072.25 302.535 8
8 -1 8 4475.02 397.747 8
-8 -1 -9 264.004 91.7919 11
8 0 -10 2839.43 293.817 22
8 0 -9 454.725 134.216 22
8 0 -8 2740.69 346.093 22
8 0 -7 235.552 132.919 22
8 0 -6 7635.68 613.824 22
8 0 -5 5199.23 517.247 22
8 0 -4 3348.12 427.876 22
8 0 -3 5197.04 536.515 22
8 0 -2 7975.39 670.272 22
8 0 -1 6348.15 605.983 22
8 0 0 609.146 200.539 22
8 0 1 5060.39 543.548 22
8 0 2 10334.5 788.038 9
8 0 3 15743.5 961.203 9
8 0 3 14973.4 916.375 8
8 0 4 1954.15 332.659 9
8 0 4 2486.89 381.284 8
8 0 5 7927.3 633.217 9
8 0 6 3977.05 435.957 9
8 0 7 2174.48 310.055 9
8 0 8 1680.42 255.836 9
8 0 9 4759.91 373.497 9
8 1 -9 4985.33 409.228 22
8 1 -8 1198.73 223.513 22
8 1 -7 3293.01 391.815 22
8 1 -6 1331.19 263.957 22
8 1 -5 4612.26 483.596 22
8 1 -4 6502.31 586.235 22
8 1 -3 5492.97 552.712 22
8 1 -2 4403.11 498.163 22
8 1 -1 3119.25 434.415 22
8 1 0 6007.4 605.937 22
8 1 1 7248.4 681.058 22
8 1 2 5847.78 587.976 9
8 1 3 3480.17 454.325 9
8 1 4 5985.06 568.44 9
8 1 5 2017.31 322.429 9
8 1 6 7012.44 570.063 9
8 1 7 1697.11 278.866 9
8 1 8 6116.02 472.268 9
8 1 9 130.04 67.4795 9
8 2 -6 4714.96 416.501 22
8 2 -5 583.221 164.834 22
8 2 -4 5007.68 470.393 22
8 2 -3 6735.9 563.782 22
8 2 -2 1648.46 292.436 22
8 2 3 3816.52 441.095 9
8 2 4 1739.9 298.444 9
8 2 5 1957.19 303.729 9
8 2 6 1724.29 274.735 9
8 2 7 4038.35 381.132 9
8 2 8 -4.61474 45.028 9
8 3 2 2730.91 328.44 9
8 3 3 675.555 163.275 9
8 3 4 1148.57 204.192 9
9 -1 -2 3516.67 335.111 8
9 -1 -1 1739.33 241.16 8
9 -1 0 2720.63 297.735 8
9 -1 1 791.883 158.675 8
9 0 -4 3432.58 329.41 22
9 0 -3 2295.66 275.953 22
