#------------------------------------------------------------------------------
#$Date: 2017-11-30 01:41:29 +0200 (Thu, 30 Nov 2017) $
#$Revision: 203796 $
#$URL: file:///home/coder/svn-repositories/cod/cif/4/12/67/4126787.cif $
#------------------------------------------------------------------------------
#
# This file is available in the Crystallography Open Database (COD),
# http://www.crystallography.net/
#
# All data on this site have been placed in the public domain by the
# contributors.
#
data_4126787
loop_
_publ_author_name
'Jin, Geng Bang'
'Lin, Jian'
'Estes, Shanna L.'
'Skanthakumar, Suntharalingam'
'Soderholm, Lynda'
_publ_section_title
;
 Influence of Counter-Cation Hydration Enthalpies on the Formation of
 Molecular Complexes: A Thorium-Nitrate Example.
;
_journal_name_full               'Journal of the American Chemical Society'
_journal_paper_doi               10.1021/jacs.7b09363
_journal_year                    2017
_chemical_formula_moiety         'Th (N O3)6 Rb2'
_chemical_formula_sum            'N6 O18 Rb2 Th'
_chemical_formula_weight         775.04
_chemical_name_common            'rubidium thorium hexanitrate'
_space_group_crystal_system      monoclinic
_space_group_IT_number           14
_space_group_name_Hall           '-P 2yn'
_space_group_name_H-M_alt        'P 1 21/n 1'
_symmetry_space_group_name_Hall  '-P 2yn'
_symmetry_space_group_name_H-M   'P 1 21/n 1'
_audit_creation_method           SHELXL-2014/7
_cell_angle_alpha                90
_cell_angle_beta                 92.2130(6)
_cell_angle_gamma                90
_cell_formula_units_Z            2
_cell_length_a                   8.3236(4)
_cell_length_b                   6.8887(4)
_cell_length_c                   12.8538(7)
_cell_measurement_reflns_used    6372
_cell_measurement_temperature    100(2)
_cell_measurement_theta_max      27.57
_cell_measurement_theta_min      2.87
_cell_volume                     736.47(7)
_computing_cell_refinement       'Bruker SAINT'
_computing_data_collection       'Bruker APEX2'
_computing_data_reduction        'Bruker SAINT'
_computing_molecular_graphics    'CrystalMaker for Windows ver. 2.0.6 (2008)'
_computing_publication_material  'Bruker SHELXTL'
_computing_structure_refinement  'SHELXL-2014/7 (Sheldrick, 2014)'
_computing_structure_solution    'SHELXS-97 (Sheldrick 2008)'
_diffrn_ambient_temperature      100(2)
_diffrn_measured_fraction_theta_full 1.000
_diffrn_measured_fraction_theta_max 1.000
_diffrn_measurement_device_type  'Bruker APEX-II CCD'
_diffrn_measurement_method       '\f and \w scans'
_diffrn_radiation_type           MoK\a
_diffrn_radiation_wavelength     0.71073
_diffrn_reflns_av_R_equivalents  0.0217
_diffrn_reflns_av_unetI/netI     0.0139
_diffrn_reflns_Laue_measured_fraction_full 1.000
_diffrn_reflns_Laue_measured_fraction_max 1.000
_diffrn_reflns_limit_h_max       10
_diffrn_reflns_limit_h_min       -10
_diffrn_reflns_limit_k_max       8
_diffrn_reflns_limit_k_min       -8
_diffrn_reflns_limit_l_max       16
_diffrn_reflns_limit_l_min       -16
_diffrn_reflns_number            8455
_diffrn_reflns_point_group_measured_fraction_full 1.000
_diffrn_reflns_point_group_measured_fraction_max 1.000
_diffrn_reflns_theta_full        25.242
_diffrn_reflns_theta_max         26.329
_diffrn_reflns_theta_min         2.866
_diffrn_source                   'Mo Kalpha Microfocus X-ray Source'
_exptl_absorpt_coefficient_mu    16.811
_exptl_absorpt_correction_T_max  0.288
_exptl_absorpt_correction_T_min  0.192
_exptl_absorpt_correction_type   multi-scan
_exptl_absorpt_process_details   SADABS
_exptl_crystal_colour            colorless
_exptl_crystal_density_diffrn    3.495
_exptl_crystal_density_meas      ?
_exptl_crystal_density_method    'not measured'
_exptl_crystal_description       block
_exptl_crystal_F_000             700
_exptl_crystal_size_max          0.110
_exptl_crystal_size_mid          0.086
_exptl_crystal_size_min          0.074
_refine_diff_density_max         0.437
_refine_diff_density_min         -0.508
_refine_diff_density_rms         0.082
_refine_ls_extinction_method     none
_refine_ls_goodness_of_fit_ref   1.058
_refine_ls_hydrogen_treatment    undef
_refine_ls_matrix_type           full
_refine_ls_number_parameters     124
_refine_ls_number_reflns         1508
_refine_ls_number_restraints     24
_refine_ls_restrained_S_all      1.050
_refine_ls_R_factor_all          0.0102
_refine_ls_R_factor_gt           0.0097
_refine_ls_shift/su_max          0.000
_refine_ls_shift/su_mean         0.000
_refine_ls_structure_factor_coef Fsqd
_refine_ls_weighting_details
'w=1/[\s^2^(Fo^2^)+(0.0075P)^2^+0.7789P] where P=(Fo^2^+2Fc^2^)/3'
_refine_ls_weighting_scheme      calc
_refine_ls_wR_factor_gt          0.0229
_refine_ls_wR_factor_ref         0.0230
_reflns_Friedel_coverage         0.000
_reflns_number_gt                1465
_reflns_number_total             1508
_reflns_threshold_expression     'I > 2\s(I)'
_cod_data_source_file            ja7b09363_si_003.cif
_cod_data_source_block           Rb
_cod_depositor_comments
;
The following automatic conversions were performed:

'_exptl_crystal_density_meas' value 'not measured' was changed to '?'
- the value is perceived as not measured.

Automatic conversion script
Id: cif_fix_values 4973 2017-02-22 13:04:09Z antanas 
;
_cod_database_code               4126787
_shelx_shelxl_version_number     2014/7
_shelx_space_group_comment
;
The symmetry employed for this shelxl refinement is uniquely defined
by the following loop, which should always be used as a source of
symmetry information in preference to the above space-group names.
They are only intended as comments.
;
_shelx_res_file
;

    JIN.res created by SHELXL-2014/7


REM Solution 1  R1  0.033  Rweak  0.002,  Alpha = 0.0578  in P2(1)/n
REM Formula:  N6 O18 Rb2 Th
TITL save in P2(1)/n
CELL  0.71073   8.3236   6.8887  12.8538   90.000   92.213   90.000
ZERR    2.00   0.00040   0.00040   0.00070   0.0000   0.0006   0.0000
LATT  1
SYMM 1/2-X, 1/2+Y, 1/2-Z
SFAC N O RB TH
UNIT 12 36 4 2
TEMP -173.0
SHEL 999 0.800
L.S. 20
BOND
LIST 6
FMAP 2
PLAN 20
ACTA
DELU
WGHT    0.007500    0.778900
FVAR       0.36993
TH1   4    0.000000    0.000000    0.000000    10.50000    0.00505    0.00513 =
         0.00543    0.00007   -0.00003    0.00013
RB1   3   -0.041628    0.229734    0.339167    11.00000    0.01211    0.00882 =
         0.01011    0.00136    0.00074    0.00199
N1    1   -0.032227    0.737580    0.185057    11.00000    0.01027    0.00988 =
         0.00792   -0.00110   -0.00225   -0.00313
N2    1    0.717077    0.247795    0.052685    11.00000    0.01082    0.00878 =
         0.00779    0.00239    0.00175    0.00038
N3    1    0.222718    0.281510    0.111117    11.00000    0.00533    0.00797 =
         0.01065   -0.00002    0.00093    0.00241
O1    2    0.080204    0.718372    0.122371    11.00000    0.01103    0.01343 =
         0.00859    0.00141    0.00086    0.00298
O2    2   -0.060544    0.618725    0.251802    11.00000    0.02549    0.00930 =
         0.01034    0.00364    0.00183   -0.00415
O3    2    0.881859    0.892190    0.172936    11.00000    0.01068    0.00882 =
         0.00899    0.00090    0.00071    0.00160
O4    2    0.605705    0.359402    0.060295    11.00000    0.01127    0.01219 =
         0.01522    0.00123    0.00296    0.00683
O5    2    0.701677    0.089658   -0.000502    11.00000    0.00993    0.00909 =
         0.01401   -0.00443   -0.00031    0.00079
O6    2    0.856495    0.277649    0.094219    11.00000    0.00812    0.01094 =
         0.01113   -0.00131   -0.00123   -0.00002
O7    2    0.190396    0.292577    0.013537    11.00000    0.01165    0.01104 =
         0.00729   -0.00021   -0.00179   -0.00149
O8    2    0.309359    0.395633    0.157624    11.00000    0.00904    0.00994 =
         0.01540   -0.00463   -0.00295   -0.00278
O9    2    0.155550    0.138958    0.157349    11.00000    0.01151    0.00885 =
         0.00934    0.00235   -0.00011   -0.00295

HKLF 4

REM  save in P2(1)/n
REM R1 =  0.0097 for    1465 Fo > 4sig(Fo)  and  0.0102 for all    1508 data
REM    124 parameters refined using     24 restraints

END

WGHT      0.0074      0.7865

REM Highest difference peak  0.437,  deepest hole -0.508,  1-sigma level  0.082
Q1    1  -0.0246 -0.0069 -0.0730  11.00000  0.05    0.44
Q2    1   0.0819  0.0955  0.0005  11.00000  0.05    0.38
Q3    1  -0.0819  0.0928 -0.0003  11.00000  0.05    0.33
Q4    1   0.9183  0.9092  0.1175  11.00000  0.05    0.32
Q5    1   0.1195  0.2029  0.0393  11.00000  0.05    0.29
Q6    1   0.0017  0.4916  0.2466  11.00000  0.05    0.29
Q7    1   0.1345  0.0939  0.1006  11.00000  0.05    0.29
Q8    1   0.1608  0.2151  0.1461  11.00000  0.05    0.27
Q9    1   0.2003  0.3110  0.0574  11.00000  0.05    0.26
Q10   1   0.9569  0.2532  0.0027  11.00000  0.05    0.24
Q11   1   0.6691  0.3497  0.0249  11.00000  0.05    0.24
Q12   1   0.0584  0.7770  0.0769  11.00000  0.05    0.24
Q13   1   0.2873  0.3717  0.2442  11.00000  0.05    0.23
Q14   1   0.1488  0.1241  0.2044  11.00000  0.05    0.23
Q15   1   0.0401  0.2823  0.2962  11.00000  0.05    0.22
Q16   1  -0.0435  0.4040  0.4214  11.00000  0.05    0.22
Q17   1   0.2135  0.1542  0.2413  11.00000  0.05    0.22
Q18   1   0.2215  0.0838  0.1457  11.00000  0.05    0.22
Q19   1   0.0637  0.6586  0.0825  11.00000  0.05    0.21
Q20   1   0.8040  0.0993  0.0331  11.00000  0.05    0.21
;
_shelx_res_checksum              25559
_shelx_hkl_file
;
  -1   0   0   -7.50    0.50
   1   0   0   -8.30    0.30
  -1   0   0   -7.60    0.40
  -2   0   0 5396.96  131.49
  -2   0   0 5530.55  132.59
  -2   0   0 5831.02  139.39
   2   0   0 5612.14  127.19
  -3   0   0   -2.70    0.90
  -3   0   0   -0.80    1.30
   3   0   0   -2.10    0.70
  -3   0   0    1.30    1.20
  -4   0   0 2848.81   69.29
  -4   0   0 2872.11   67.89
   4   0   0 2854.91   63.69
  -5   0   0    2.90    2.30
   5   0   0    1.40    1.30
  -5   0   0    3.50    1.80
   5   0   0    2.40    1.50
   6   0   0 1638.64   39.00
  -6   0   0 1621.94   43.90
  -6   0   0 1657.43   41.80
   6   0   0 1643.34   42.20
   7   0   0    2.00    2.20
  -7   0   0   -1.00    3.40
  -7   0   0    3.20    2.50
   8   0   0  263.97   10.40
  -8   0   0  254.17   13.30
  -8   0   0  265.17   11.30
   9   0   0    2.40    3.30
  -9   0   0   -0.20    4.50
 -10   0   0  288.57   13.40
  10   0   0  288.27   12.90
 -10   0   0  287.07   15.60
   0  -1   0   -2.10    0.50
   0   1   0   -2.00    0.50
   0   1   0   -1.10    1.00
  -1  -1   0 4207.18   99.29
  -1  -1   0 4299.97  101.59
  -1   1   0 4198.58   99.59
  -1   1   0 4574.14  101.69
   1   1   0 4300.67   97.19
   1   1   0 4131.29  105.99
  -1   1   0 4270.57   94.99
  -1   1   0 4114.09  105.99
  -2  -1   0    2.90    1.30
  -2  -1   0    6.40    1.50
  -2   1   0    5.10    1.40
  -2   1   0    5.50    1.00
  -2   1   0    5.00    1.00
  -2   1   0    4.10    1.90
   2   1   0    5.40    1.20
  -3  -1   0 1892.61   45.70
  -3  -1   0 1871.91   45.50
  -3   1   0 1843.02   49.70
  -3   1   0 1895.41   41.90
  -3   1   0 1801.32   44.10
   3   1   0 1864.51   42.10
  -3   1   0 1841.72   45.70
  -4  -1   0 1607.24   40.60
  -4  -1   0 1619.74   40.90
  -4   1   0 1694.33   44.40
  -4   1   0 1576.44   39.10
   4   1   0 1638.44   37.40
  -4   1   0 1545.95   37.10
  -4   1   0 1585.14   41.20
  -5  -1   0 1364.76   36.20
   5  -1   0 1311.67   32.10
  -5  -1   0 1390.76   35.60
   5   1   0 1336.97   32.50
  -5   1   0 1397.56   38.20
  -5   1   0 1337.47   34.00
  -5   1   0 1358.56   36.70
  -6  -1   0  281.87   12.00
  -6  -1   0  309.67   11.60
   6  -1   0  288.77    9.70
  -6   1   0  295.07   12.60
  -6   1   0  295.47   10.40
   6   1   0  296.47   10.10
  -7  -1   0 1775.42   45.70
  -7  -1   0 1746.03   46.90
   7  -1   0 1793.02   41.80
  -7   1   0 1730.43   44.20
   7   1   0 1664.53   41.90
  -7   1   0 1699.43   47.50
  -8  -1   0  544.35   20.40
  -8  -1   0  567.44   19.10
   8  -1   0  532.35   16.60
   8   1   0  529.45   17.10
  -8   1   0  559.84   21.20
  -8   1   0  548.35   17.70
  -9  -1   0  897.21   28.10
  -9  -1   0  877.91   29.70
   9  -1   0  899.71   25.40
   9   1   0  902.41   25.80
  -9   1   0  891.71   26.80
  -9   1   0  940.61   31.10
 -10  -1   0    2.50    5.10
  10  -1   0    8.90    4.10
 -10  -1   0    8.80    4.60
 -10   1   0   -1.10    4.60
 -10   1   0    8.90    4.30
  10   1   0    6.30    4.00
   0  -2   0 1138.59   28.80
   0   2   0 1212.48   27.20
   0   2   0 1142.79   32.70
  -1  -2   0   45.60    2.20
   1  -2   0   47.20    2.60
  -1  -2   0   39.60    3.80
  -1   2   0   41.20    5.00
  -1   2   0   39.40    2.10
   1   2   0   41.80    3.80
  -1   2   0   44.90    2.50
  -2  -2   0  421.06   11.50
   2   2   0  389.36   12.60
  -2   2   0  407.16   11.60
   2   2   0  412.96   11.50
  -2   2   0  404.06   15.50
  -2   2   0  395.76   10.60
  -3  -2   0  202.38    9.10
  -3  -2   0  220.98    7.00
  -3  -2   0  228.88    8.00
  -3   2   0  224.28    8.20
  -3   2   0  224.78    7.00
  -3   2   0  215.08   11.00
  -3   2   0  220.18    6.90
  -4  -2   0  757.22   22.00
  -4  -2   0  736.53   20.70
  -4   2   0  732.23   18.60
   4   2   0  739.03   19.20
  -4   2   0  727.03   21.20
  -4   2   0  701.33   24.70
  -4   2   0  721.53   19.10
  -5  -2   0  412.16   14.30
  -5  -2   0  403.16   14.90
   5   2   0  432.56   13.00
  -5   2   0  395.86   14.80
  -5   2   0  435.96   12.50
  -5   2   0  449.86   17.70
  -5   2   0  424.36   12.60
  -6  -2   0 1584.04   42.20
  -6  -2   0 1572.24   41.40
  -6   2   0 1491.55   37.40
  -6   2   0 1631.14   46.00
   6   2   0 1566.64   38.10
  -6   2   0 1534.05   39.10
  -6   2   0 1503.05   42.30
  -7  -2   0  324.87   13.60
   7  -2   0  301.77   10.90
  -7  -2   0  322.77   13.70
  -7   2   0  317.87   11.40
  -7   2   0  306.87   14.40
   7   2   0  317.67   11.80
  -8  -2   0 1867.21   50.79
  -8  -2   0 1902.11   51.09
   8  -2   0 1877.81   45.60
  -8   2   0 1869.81   47.90
   8   2   0 1895.61   46.60
  -8   2   0 1810.42   52.09
   9  -2   0   25.60    4.50
  -9  -2   0   20.50    5.40
  -9  -2   0   18.50    5.50
  -9   2   0   22.90    4.40
  -9   2   0   26.80    6.80
   9   2   0   14.30    4.40
  10  -2   0 1842.82   44.70
 -10  -2   0 1698.13   49.20
 -10  -2   0 1691.23   49.60
  10   2   0 1640.44   45.10
 -10   2   0 1761.52   51.99
   0  -3   0   -1.10    1.40
   0   3   0    2.80    1.30
   0   3   0    3.90    2.40
   1  -3   0 1260.77   31.80
  -1  -3   0 1286.87   34.20
   1   3   0 1284.87   29.90
   1   3   0 1249.47   30.80
   1   3   0 1270.67   36.60
  -1   3   0 1313.27   30.10
  -1   3   0 1342.17   29.60
  -1   3   0 1195.78   37.80
   2  -3   0 1230.18   30.80
  -2  -3   0 1225.98   34.50
  -2  -3   0 1315.57   30.40
  -2   3   0 1292.87   30.40
  -2   3   0 1250.07   29.30
   2   3   0 1249.77   30.60
   2   3   0 1214.58   34.80
  -2   3   0 1155.18   37.70
   3  -3   0 1671.43   39.90
  -3  -3   0 1678.13   40.40
  -3  -3   0 1621.34   44.00
   3   3   0 1573.24   43.30
   3   3   0 1626.54   39.50
  -3   3   0 1636.84   38.10
  -3   3   0 1570.14   48.50
  -3   3   0 1729.33   40.80
  -4  -3   0 1354.76   34.80
  -4  -3   0 1333.07   38.00
  -4  -3   0 1401.56   35.40
   4   3   0 1379.96   33.80
  -4   3   0 1299.37   42.30
  -4   3   0 1340.97   32.40
  -4   3   0 1354.06   35.50
  -4   3   0 1361.96   33.80
  -5  -3   0 1673.13   47.50
  -5  -3   0 1775.92   45.10
  -5   3   0 1842.12   46.30
   5   3   0 1792.22   43.10
  -5   3   0 1782.62   53.39
  -5   3   0 1774.62   43.60
  -5   3   0 1726.03   41.80
  -6  -3   0  108.09    7.20
  -6  -3   0  111.89    8.60
  -6   3   0  109.79    5.90
   6   3   0  105.39    6.80
  -6   3   0  126.09   11.80
  -6   3   0  104.09    6.10
  -6   3   0  112.89    8.00
  -7  -3   0  906.01   29.30
  -7  -3   0  906.31   27.20
  -7   3   0  929.11   32.60
  -7   3   0  905.81   24.60
   7   3   0  898.41   25.50
  -7   3   0  910.51   25.10
  -7   3   0  845.32   28.30
   8  -3   0  327.97   12.20
  -8  -3   0  339.47   16.00
  -8  -3   0  315.47   14.30
  -8   3   0  323.87   16.00
  -8   3   0  328.67   12.30
   8   3   0  324.07   13.40
  -9  -3   0 1035.20   33.80
   9  -3   0 1023.00   28.50
  -9  -3   0 1051.79   32.40
   9   3   0 1038.40   30.20
  -9   3   0  985.80   34.00
 -10  -3   0   20.10    6.60
  10  -3   0   25.10    5.20
 -10  -3   0   24.20    6.30
 -10   3   0   25.70    7.40
  10   3   0   33.40    6.50
   0  -4   0 4134.59  100.59
   0   4   0 4241.88  110.39
   0   4   0 4225.18   94.09
   1  -4   0    2.00    1.90
  -1  -4   0   -0.30    2.40
   1   4   0    0.00    1.90
  -1   4   0   -1.10    1.60
  -1   4   0    1.00    3.10
   1   4   0   -3.50    2.40
   1   4   0   -1.20    0.60
   2  -4   0 4398.36  102.59
  -2  -4   0 4214.88  106.69
  -2   4   0 4329.97  115.79
   2   4   0 4453.05  100.29
   2   4   0 4152.38   97.99
  -2   4   0 4571.34   99.89
   2   4   0 4354.76  112.09
  -2   4   0 4307.77   96.79
  -3  -4   0   30.30    5.20
  -3  -4   0   28.50    2.90
   3  -4   0   28.80    3.20
   3   4   0   25.70    3.70
  -3   4   0   23.50    5.60
  -3   4   0   26.90    3.20
  -3   4   0   34.30    3.10
   3   4   0   28.40    4.20
  -4  -4   0 4147.39  101.79
  -4  -4   0 4127.89  100.49
   4  -4   0 3962.10   94.89
  -4  -4   0 4035.10   94.79
  -4   4   0 3711.23  108.69
   4   4   0 3876.61   91.69
  -4   4   0 4270.77   95.39
  -4   4   0 3945.21   90.09
   5  -4   0  234.88    8.90
  -5  -4   0  225.38   12.70
  -5  -4   0  233.48    9.70
  -5   4   0  234.38   10.20
  -5   4   0  217.38    9.00
  -5   4   0  245.78   15.80
   5   4   0  241.18   10.60
  -6  -4   0 1097.69   35.00
  -6  -4   0 1124.19   31.30
   6   4   0 1099.09   30.90
  -6   4   0 1128.09   40.10
  -6   4   0 1093.29   29.20
  -6   4   0 1196.68   32.70
  -7  -4   0   85.29    9.30
  -7  -4   0   94.39    7.90
  -7   4   0   95.19    6.20
  -7   4   0   99.49    8.90
   7   4   0   94.29    8.00
  -7   4   0   87.19   11.40
  -7   4   0   98.99    6.80
  -8  -4   0  489.45   17.90
   8  -4   0  437.66   23.00
  -8  -4   0  464.75   20.90
   8   4   0  481.25   18.10
  -8   4   0  474.65   16.30
  -8   4   0  477.45   19.50
  -9  -4   0   53.29    9.00
   9  -4   0   61.59    6.60
  -9  -4   0   44.30    6.70
   9   4   0   58.39    7.90
  -9   4   0   47.00    8.20
   0  -5   0    2.40    2.70
   0   5   0   -3.00    2.10
   0   5   0   -0.10    3.40
   1  -5   0 2008.60   51.69
  -1  -5   0 2015.60   54.19
   1   5   0 2037.90   48.90
  -1   5   0 2029.60   60.09
   1   5   0 2030.90   58.29
  -1   5   0 2030.40   48.30
   2  -5   0  450.05   14.90
  -2  -5   0  438.56   18.10
   2   5   0  455.65   18.40
   2   5   0  455.25   14.90
  -2   5   0  460.25   14.20
  -2   5   0  449.26   20.80
  -3  -5   0 3690.43   92.89
   3  -5   0 3593.34   87.59
  -3   5   0 3697.33   82.89
  -3   5   0 3592.04  101.29
   3   5   0 3613.44   84.39
   3   5   0 3668.13   95.59
  -4  -5   0  540.65   21.00
   4  -5   0  553.14   16.80
  -4   5   0  523.95   16.20
  -4   5   0  524.65   25.00
   4   5   0  533.15   17.80
   5  -5   0 1304.37   34.70
  -5  -5   0 1324.47   40.40
   5   5   0 1294.87   35.20
  -5   5   0 1312.97   33.50
  -5   5   0 1310.17   46.20
   6  -5   0   49.99    5.20
  -6  -5   0   52.19    5.50
  -6  -5   0   60.09    8.60
  -6   5   0   47.20    5.50
   6   5   0   50.29    6.50
  -6   5   0   46.20    9.70
  -7  -5   0  598.04   19.90
  -7  -5   0  594.44   24.70
   7  -5   0  601.94   19.40
   7   5   0  606.44   21.40
  -7   5   0  600.24   29.00
  -7   5   0  621.54   19.40
   8  -5   0  187.98   16.70
  -8  -5   0  229.18   15.40
   8   5   0  229.98   13.10
  -8   5   0  213.58   10.90
   0  -6   0   13.30    4.30
   0   6   0   15.00    3.90
   0   6   0    5.90    5.20
  -1  -6   0   80.59    8.50
   1  -6   0   85.09    7.80
   1   6   0   89.39   10.00
  -1   6   0   93.69   10.80
  -1   6   0   85.09    6.90
   1   6   0   87.59    7.30
   2  -6   0  533.55   18.10
  -2  -6   0  488.85   20.80
  -2   6   0  492.75   23.70
   2   6   0  534.55   21.70
  -2   6   0  538.65   16.90
   2   6   0  503.65   17.10
   3  -6   0   83.99    6.70
  -3  -6   0   82.09    9.40
  -3   6   0   71.99    6.50
   3   6   0   63.59    6.20
  -3   6   0   72.89   11.00
  -4  -6   0  384.06   18.30
   4  -6   0  397.16   14.50
   4   6   0  375.86   15.00
  -4   6   0  397.26   22.10
  -4   6   0  376.06   13.90
   5  -6   0  132.59    8.40
  -5  -6   0  122.29   11.80
  -5   6   0  130.29    8.20
   5   6   0  142.79    9.90
  -5   6   0  127.79   15.20
  -6  -6   0  805.52   30.20
   6  -6   0  798.92   24.70
  -6   6   0  838.02   36.40
  -6   6   0  785.52   24.00
   6   6   0  843.92   26.50
  -7  -6   0  122.09   12.70
  -7   6   0   97.59    8.40
   7   6   0   87.59    9.60
   8  -6   0  976.50   43.10
  -8  -6   0 1110.59   38.40
   8   6   0 1108.99   34.00
  -8   6   0 1072.69   31.10
   0  -7   0   -3.20    3.80
   0   7   0    2.90    5.60
   0   7   0   -0.40    3.30
  -1  -7   0  574.64   23.40
   1  -7   0  543.05   21.30
   1   7   0  552.54   19.20
  -1   7   0  555.14   19.20
   1   7   0  604.04   25.30
  -1   7   0  573.54   26.40
   2  -7   0   10.00    4.60
  -2  -7   0    7.00    5.30
   2   7   0    4.20    5.00
   2   7   0    8.00    4.30
  -2   7   0   13.90    7.50
  -2   7   0    7.40    3.70
   3  -7   0   98.39    9.00
  -3  -7   0   91.19   10.70
   3   7   0   86.69    8.10
  -3   7   0  113.49   14.20
  -3   7   0  102.39    8.50
  -4  -7   0   77.79   10.10
   4  -7   0   53.29    6.90
   4   7   0   68.79    7.50
  -4   7   0   64.89   12.10
  -4   7   0   69.19    7.20
  -5  -7   0  753.32   29.00
   5  -7   0  721.73   24.40
  -5   7   0  751.92   35.00
   5   7   0  766.52   25.00
  -5   7   0  720.63   23.20
  -6  -7   0   90.19   11.50
  -6   7   0  124.89   17.10
  -6   7   0   78.29    7.90
   6   7   0   85.19    9.50
   0  -8   0 2402.96   68.29
   0   8   0 2485.95   74.09
   0   8   0 2354.76   60.69
   1  -8   0  116.19   11.80
  -1  -8   0  114.19   12.50
   1   8   0  110.69    9.80
  -1   8   0  112.99    9.90
  -1   8   0  125.39   14.70
   2  -8   0 1444.76   43.40
  -2  -8   0 1324.77   45.90
  -2  -8   0 1375.66   45.30
  -2   8   0 1477.45   51.09
  -2   8   0 1401.16   39.00
   2   8   0 1381.06   38.70
   3  -8   0   30.00    6.90
  -3  -8   0   26.30    7.70
  -3   8   0   41.40    6.90
   3   8   0   34.40    6.70
  -3   8   0   51.89   11.70
   4  -8   0  884.01   30.10
  -4  -8   0  933.21   33.90
  -4   8   0  850.61   38.80
  -4   8   0  906.41   28.20
   4   8   0  880.41   28.10
  10   0  -1    0.90    3.70
 -10   0   1    3.00    4.30
 -10   0   1    1.40    5.30
  -9   0   1  257.77   13.90
   9   0  -1  248.58   10.70
  -9   0   1  235.18   11.70
   8   0  -1   -0.10    2.70
  -8   0   1    4.80    4.20
  -8   0   1    2.00    2.90
   7   0  -1  772.82   20.70
  -7   0   1  738.93   24.70
  -7   0   1  790.52   22.90
  -6   0   1    1.10    2.90
   6   0  -1   -1.40    1.60
  -6   0   1    3.20    2.20
   5   0  -1   14.40    2.30
  -5   0   1    9.60    2.40
  -5   0   1    7.20    2.80
  -5   0   1   16.50    2.70
   4   0  -1   -2.80    1.00
  -4   0   1   -2.70    1.40
  -4   0   1   -2.00    1.30
  -4   0   1   -2.40    1.60
  -3   0   1  199.98    7.00
  -3   0   1  218.88    7.40
   3   0  -1  211.18    6.20
  -2   0   1   -5.70    0.80
  -2   0   1   -3.20    1.00
  -2   0   1   -8.00    0.80
   2   0  -1   -7.70    0.50
   1   0  -1 1575.94   34.50
  -1   0   1 1594.54   39.00
   1   0  -1 1547.95   36.80
   0   0  -1   -2.80    0.30
   0   0   1   -2.30    0.40
  -1   0  -1 2886.21   67.39
  -1   0  -1 2702.33   66.19
   1   0   1 2816.02   70.19
  -1   0  -1 2903.61   64.09
   2   0   1    0.20    0.70
  -2   0  -1    1.50    0.80
  -2   0  -1    2.70    1.20
   2   0   1    0.10    0.60
  -3   0  -1 5781.92  139.19
  -3   0  -1 5822.32  137.09
   3   0   1 5751.62  131.29
   3   0   1 5866.01  145.19
   4   0   1    0.50    1.10
  -4   0  -1    2.50    1.90
  -4   0  -1    3.40    1.50
   4   0   1    1.10    1.30
   5   0   1 4095.49   94.19
  -5   0  -1 4294.27  100.09
  -5   0  -1 4204.88  101.69
   5   0   1 4389.86  105.19
   6   0   1    1.60    1.40
  -6   0  -1    1.40    1.90
  -6   0  -1    1.00    2.60
   6   0   1    0.30    1.70
  -7   0  -1 3989.40   99.89
   7   0   1 3990.60   91.69
  -7   0  -1 4181.68   97.39
   8   0   1   -1.30    2.70
  -8   0  -1    3.00    2.80
  -8   0  -1   -3.60    3.80
  -9   0  -1 2580.84   64.99
  -9   0  -1 2528.65   68.29
   9   0   1 2557.24   61.49
 -10   0  -1    1.30    3.70
 -10   0  -1   -1.50    4.90
  10   0   1    6.30    4.10
 -10  -1   1  567.74   22.80
  10  -1  -1  590.04   19.10
 -10  -1   1  572.44   21.80
 -10   1   1  582.54   23.90
  10   1  -1  581.84   19.50
 -10   1   1  582.54   20.50
  -9  -1   1  414.86   18.10
  -9  -1   1  415.26   16.70
   9  -1  -1  422.36   14.60
  -9   1   1  384.56   18.10
  -9   1   1  404.66   15.60
   9   1  -1  418.16   14.80
  -8  -1   1 1202.58   34.90
   8  -1  -1 1230.58   31.50
  -8  -1   1 1260.07   36.60
   8   1  -1 1210.18   31.90
  -8   1   1 1244.58   37.20
  -8   1   1 1259.87   34.00
   7  -1  -1  336.47   11.20
  -7  -1   1  346.97   13.50
  -7  -1   1  354.66   14.40
   7   1  -1  349.87   11.80
  -7   1   1  350.96   12.50
  -7   1   1  332.97   14.70
  -6  -1   1 1990.20   51.79
   6  -1  -1 1927.21   46.20
  -6  -1   1 1966.60   50.79
   6   1  -1 2011.80   46.80
  -6   1   1 1928.41   49.50
  -6   1   1 1989.40   52.39
  -6   1   1 2161.78   54.99
  -5  -1   1   16.20    3.10
  -5  -1   1   12.30    2.90
   5  -1  -1   11.10    1.90
   5   1  -1   17.40    2.50
  -5   1   1   10.00    2.90
  -5   1   1   13.40    2.30
  -5   1   1    8.80    3.20
  -4  -1   1 1509.05   38.70
  -4  -1   1 1492.95   38.30
  -4   1   1 1509.75   37.20
  -4   1   1 1466.05   41.90
  -4   1   1 1541.85   39.10
   4   1  -1 1554.54   35.20
  -3  -1   1  105.99    3.10
  -3  -1   1   97.69    5.00
  -3  -1   1  104.39    5.00
  -3   1   1   92.29    5.70
  -3   1   1  104.59    3.80
   3   1  -1  102.39    4.00
  -3   1   1  102.09    4.20
  -3   1   1   88.29    4.90
  -2  -1   1 2519.75   59.79
  -2  -1   1 2327.37   57.39
  -2  -1   1 2454.65   58.09
   2   1  -1 2443.76   53.89
  -2   1   1 2497.25   56.99
  -2   1   1 2261.67   57.29
  -2   1   1 2491.85   62.19
  -2   1   1 2486.15   54.09
   1  -1  -1  228.18    6.00
  -1  -1   1  223.38    6.80
  -1  -1   1  214.08    6.90
   1   1  -1  211.88    6.10
  -1   1   1  206.48    7.40
  -1   1   1  219.18    6.10
  -1   1   1  213.28    5.40
   1   1  -1  202.58    6.10
   0  -1   1 2712.43   66.29
   0  -1  -1 2849.71   68.59
   0  -1  -1 2942.81   66.29
   0  -1   1 2872.01   71.19
   0   1   1 2774.72   70.39
   0   1  -1 2815.62   66.79
   0   1  -1 2955.30   64.49
   0   1   1 2825.22   64.09
  -1  -1  -1  457.95   13.50
  -1  -1  -1  484.05   12.30
   1  -1   1  485.75   11.90
  -1   1  -1  490.75   12.40
   1   1   1  476.75   11.90
  -1   1  -1  497.35   11.80
   1   1   1  469.75   13.20
  -2  -1  -1 2058.49   50.79
  -2  -1  -1 2080.69   49.60
  -2   1  -1 2086.29   49.70
  -2   1  -1 2132.39   46.70
  -2   1  -1 2042.10   54.29
  -2   1  -1 2089.19   49.30
   2   1   1 2152.48   51.59
  -3  -1  -1  317.07   10.20
  -3  -1  -1  319.27   10.50
  -3   1  -1  314.27    9.00
  -3   1  -1  319.07    8.90
  -3   1  -1  304.57   10.30
  -4  -1  -1 2992.40   72.09
   4  -1   1 3057.09   77.19
  -4  -1  -1 3004.50   72.09
  -4   1  -1 2911.81   67.09
  -4   1  -1 2960.30   70.29
   4   1   1 2961.50   67.09
  -4   1  -1 3080.59   72.59
  -5  -1  -1  743.33   21.20
  -5  -1  -1  728.63   21.80
   5  -1   1  755.32   22.60
   5  -1   1  717.23   18.90
   5   1   1  725.33   19.30
  -5   1  -1  736.53   19.70
  -5   1  -1  766.02   22.40
  -6  -1  -1 1412.26   37.10
  -6  -1  -1 1388.06   38.00
   6  -1   1 1433.36   38.90
   6  -1   1 1380.96   33.90
  -6   1  -1 1412.06   35.50
   6   1   1 1363.86   34.20
  -6   1  -1 1411.66   38.80
  -7  -1  -1  394.86   16.10
   7  -1   1  404.76   13.20
  -7  -1  -1  417.26   14.90
  -7   1  -1  440.06   13.90
   7   1   1  422.06   13.60
  -7   1  -1  410.06   16.80
  -8  -1  -1 1009.50   29.50
   8  -1   1 1004.40   27.00
  -8  -1  -1 1001.40   31.30
  -8   1  -1 1002.70   32.10
   8   1   1 1010.50   27.50
  -8   1  -1 1018.40   28.20
  -9  -1  -1   14.30    4.50
   9  -1   1   20.10    4.30
  -9  -1  -1   21.30    6.00
  -9   1  -1   14.20    5.90
  -9   1  -1   23.50    4.40
   9   1   1   18.30    4.50
  10  -1   1  994.70   28.20
 -10  -1  -1  930.91   32.20
 -10  -1  -1  965.60   30.30
  10   1   1  952.60   28.10
 -10   1  -1  961.50   33.50
  10  -2  -1   70.69    7.00
 -10  -2   1   71.59    8.80
 -10  -2   1   70.69    9.00
 -10   2   1   61.59    9.30
 -10   2   1   74.39    7.40
  10   2  -1   83.99    8.20
  -9  -2   1 1538.45   43.60
  -9  -2   1 1533.25   43.90
   9  -2  -1 1525.55   38.50
   9   2  -1 1498.55   39.70
  -9   2   1 1512.15   41.00
  -9   2   1 1490.45   45.30
  -8  -2   1  107.39    8.80
   8  -2  -1  106.09    6.50
  -8  -2   1  113.69    8.90
   8   2  -1  103.79    6.90
  -8   2   1  109.99   10.10
  -8   2   1  104.19    7.00
  -7  -2   1 3087.89   78.59
   7  -2  -1 3153.78   71.79
  -7  -2   1 3144.39   79.39
  -7   2   1 3085.79   76.39
  -7   2   1 3377.96   85.99
   7   2  -1 3137.59   72.99
  -7   2   1 3053.89   79.79
  -6  -2   1   43.60    5.00
  -6  -2   1   50.69    5.90
   6   2  -1   45.90    4.50
  -6   2   1   42.20    5.40
  -6   2   1   45.90    4.20
  -6   2   1   52.39    7.10
  -5  -2   1 4098.59   96.69
  -5  -2   1 4117.39   98.09
  -5   2   1 3998.20   89.69
  -5   2   1 4041.00  106.49
  -5   2   1 3985.50   95.09
  -5   2   1 3925.71   97.19
   5   2  -1 4054.39   90.59
  -4  -2   1  119.09    6.20
  -4  -2   1  129.39    7.20
  -4   2   1  120.99    8.50
  -4   2   1  120.89    6.50
  -4   2   1  118.19    5.20
  -4   2   1  126.59    5.00
  -3  -2   1 8732.63  203.38
  -3  -2   1 8502.95  206.58
  -3  -2   1 9082.19  214.88
   3   2  -1 8614.64  195.58
  -3   2   1 8527.35  208.78
  -3   2   1 8692.63  204.58
  -3   2   1 8534.65  217.58
  -3   2   1 9081.89  195.08
  -2  -2   1   47.50    4.60
  -2  -2   1   47.50    3.00
  -2  -2   1   44.90    3.40
  -2   2   1   53.59    2.90
   2   2  -1   43.20    3.10
  -2   2   1   49.30    5.30
  -2   2   1   53.19    2.60
  -2   2   1   56.29    3.00
   1  -2  -1 4753.12  105.79
  -1  -2   1 4577.44  107.09
   1  -2  -1 4552.94  105.69
   1   2  -1 4289.57   99.39
   1   2  -1 4465.55  106.09
  -1   2   1 4741.63  103.69
  -1   2   1 4318.37  113.69
   0  -2   1   51.59    3.20
   0   2  -1   39.80    4.40
   0   2  -1   51.79    2.60
   0   2  -1   48.90    1.80
   0   2   1   52.49    3.90
   0   2   1   48.90    2.70
  -1  -2  -1 2624.54   61.19
   1  -2   1 2598.64   59.19
  -1  -2  -1 2567.64   58.49
   1   2   1 2394.56   56.69
  -1   2  -1 2362.36   66.39
  -1   2  -1 2553.64   58.59
   1   2   1 2628.44   64.39
  -1   2  -1 2533.55   56.09
  -2  -2  -1  976.70   23.80
  -2  -2  -1  929.71   26.40
   2  -2   1  964.10   23.10
  -2   2  -1  940.61   23.90
   2   2   1  987.40   25.60
  -2   2  -1  902.71   28.70
   2   2   1  947.41   23.00
  -2   2  -1  958.70   22.50
  -3  -2  -1 2585.84   61.49
  -3  -2  -1 2444.26   63.69
   3   2   1 2487.25   58.19
  -3   2  -1 2559.14   69.09
  -3   2  -1 2623.74   60.39
   3   2   1 2665.13   64.39
  -3   2  -1 2660.63   61.99
  -3   2  -1 2578.44   57.79
  -4  -2  -1    4.40    2.60
  -4  -2  -1   11.80    2.60
  -4   2  -1    5.40    1.50
  -4   2  -1    2.50    2.90
  -4   2  -1    6.60    2.40
   4   2   1    7.90    2.20
  -4   2  -1    7.60    1.90
  -5  -2  -1  322.17   12.00
  -5  -2  -1  310.97   12.60
  -5   2  -1  342.87   10.70
  -5   2  -1  317.97   10.10
  -5   2  -1  335.67   12.80
   5   2   1  335.97   10.80
   6  -2   1   24.10    4.90
  -6  -2  -1   31.10    4.80
  -6  -2  -1   21.90    4.10
   6   2   1   32.00    4.00
  -6   2  -1   25.80    4.60
  -6   2  -1   25.60    3.50
  -6   2  -1   32.00    3.30
   7  -2   1   74.79    5.50
  -7  -2  -1   79.69    7.40
  -7  -2  -1   92.79    7.40
   7  -2   1   83.79    7.90
  -7   2  -1   88.79    8.80
  -7   2  -1   84.69    5.50
   7   2   1   59.89    5.40
  -8  -2  -1    5.20    3.70
  -8  -2  -1    6.00    4.30
   8  -2   1   -0.40    2.40
  -8   2  -1    4.90    4.20
  -8   2  -1    7.50    3.10
   8   2   1    4.90    3.50
  -9  -2  -1   90.69    8.90
  -9  -2  -1   86.19    8.90
   9  -2   1   85.09    7.20
  -9   2  -1   95.69   10.30
   9   2   1  106.29    8.50
 -10  -2  -1   62.49    8.80
  10  -2   1   70.89    7.40
 -10  -2  -1   67.49    8.30
  10   2   1   57.79    7.20
 -10   2  -1   78.69   10.60
 -10  -3   1  881.11   29.60
 -10  -3   1  856.81   30.90
  10   3  -1  901.11   28.00
 -10   3   1  856.11   31.30
   9  -3  -1  150.78    8.80
  -9  -3   1  169.28   11.00
  -9  -3   1  157.18   12.10
   9   3  -1  146.79    9.90
  -9   3   1  165.28    9.40
  -9   3   1  137.79   12.30
  -8  -3   1  747.83   24.30
  -8  -3   1  707.63   25.80
   8  -3  -1  746.93   21.20
  -8   3   1  733.43   22.30
  -8   3   1  738.03   26.00
   8   3  -1  758.02   22.90
  -7  -3   1  342.27   14.10
  -7  -3   1  354.66   16.00
  -7   3   1  400.66   19.20
   7   3  -1  363.86   13.60
  -7   3   1  363.86   12.40
  -7   3   1  365.76   12.80
  -7   3   1  346.77   15.40
  -6  -3   1 1558.34   44.60
  -6  -3   1 1636.34   42.20
  -6   3   1 1595.94   50.19
  -6   3   1 1564.74   40.50
  -6   3   1 1564.74   38.50
   6   3  -1 1616.34   40.00
  -6   3   1 1636.14   43.20
  -5  -3   1  146.49    9.30
  -5  -3   1  152.38    7.60
  -5   3   1  152.18   11.50
  -5   3   1  161.08    8.30
  -5   3   1  155.18    6.80
  -5   3   1  156.58    6.60
   5   3  -1  153.08    7.40
  -4  -3   1 3014.80   70.49
  -4  -3   1 2759.92   73.59
  -4  -3   1 2987.10   73.59
  -4   3   1 2743.73   80.49
  -4   3   1 3031.70   70.89
   4   3  -1 3010.20   67.89
  -4   3   1 2973.60   66.09
  -4   3   1 2915.91   69.89
  -3  -3   1   21.00    2.60
  -3  -3   1   22.20    4.10
  -3  -3   1   22.90    3.10
   3  -3  -1   23.60    2.60
   3   3  -1   25.70    3.30
  -3   3   1   24.70    2.60
  -3   3   1   33.10    5.80
  -3   3   1   26.70    2.80
   2  -3  -1 2848.62   66.39
  -2  -3   1 2792.32   72.59
  -2  -3   1 2794.02   69.89
  -2   3   1 2817.62   62.49
  -2   3   1 2836.82   75.59
   2   3  -1 2797.62   65.49
   2   3  -1 2722.03   63.99
  -1  -3   1  939.61   26.80
   1  -3  -1  943.71   21.80
  -1   3   1  995.50   22.90
   1   3  -1  979.00   23.80
   1   3  -1  847.52   27.90
  -1   3   1  934.31   29.30
   1   3  -1  941.41   22.50
   0  -3   1 5242.48  119.29
   0  -3  -1 5001.60  118.59
   0   3   1 5065.29  111.59
   0   3   1 4979.70  128.39
   0   3  -1 5026.90  111.59
   0   3  -1 4992.60  129.39
   0   3  -1 5154.48  116.49
   1  -3   1 1480.45   36.40
  -1  -3  -1 1505.45   34.70
  -1  -3  -1 1474.75   38.30
  -1   3  -1 1341.27   42.70
  -1   3  -1 1488.95   34.80
  -1   3  -1 1527.25   34.60
   1   3   1 1490.85   35.30
   1   3   1 1489.05   41.00
  -2  -3  -1 2318.27   53.19
   2  -3   1 2257.47   53.49
  -2  -3  -1 2255.07   57.59
  -2   3  -1 2221.78   50.99
   2   3   1 2270.97   58.99
  -2   3  -1 2291.47   53.39
  -2   3  -1 2127.49   62.49
   2   3   1 2205.38   51.99
   3  -3   1  197.88    6.70
  -3  -3  -1  195.18    7.30
  -3  -3  -1  189.38    9.90
  -3   3  -1  189.08    7.70
  -3   3  -1  192.18   11.70
   3   3   1  182.58    8.10
   3   3   1  183.48    7.50
  -3   3  -1  206.28    7.20
  -4  -3  -1  967.70   25.50
  -4  -3  -1  902.81   28.20
  -4   3  -1  925.21   26.10
   4   3   1  934.01   24.60
   4   3   1  938.01   25.50
  -4   3  -1  964.50   23.90
  -4   3  -1  952.60   32.00
  -5  -3  -1  501.95   16.30
  -5  -3  -1  488.35   18.50
  -5   3  -1  528.85   15.20
  -5   3  -1  525.55   21.50
   5   3   1  517.95   15.80
  -5   3  -1  524.55   14.70
  -5   3  -1  500.35   17.30
  -6  -3  -1  733.03   22.50
  -6  -3  -1  730.93   24.60
   6   3   1  758.42   21.50
  -6   3  -1  741.73   20.70
  -6   3  -1  718.63   23.80
  -6   3  -1  742.83   20.40
   7  -3   1   90.79   10.00
  -7  -3  -1   76.69    7.20
  -7  -3  -1   59.79    7.50
  -7   3  -1   76.99    6.30
   7   3   1   67.79    6.40
  -7   3  -1   69.79    5.20
  -7   3  -1   80.89    8.20
  -8  -3  -1  698.93   25.00
  -8  -3  -1  695.53   23.60
   8  -3   1  693.83   20.80
  -8   3  -1  721.43   25.60
   8   3   1  708.93   22.10
  -9  -3  -1   20.00    6.00
  -9  -3  -1   21.50    5.60
   9  -3   1   15.10    4.50
   9   3   1   14.90    4.80
  -9   3  -1   20.20    6.60
 -10  -3  -1  505.85   21.40
 -10  -3  -1  438.46   19.80
  10  -3   1  485.55   17.80
 -10   3  -1  465.95   22.10
  10   3   1  489.55   18.90
   9  -4  -1  435.96   15.80
  -9  -4   1  412.56   20.60
   9   4  -1  461.85   18.40
  -9   4   1  478.55   20.00
  -8  -4   1  182.78   13.10
  -8   4   1  193.08    9.70
  -8   4   1  177.58   15.50
   8   4  -1  181.48   11.00
  -8   4   1  183.18    9.30
  -8   4   1  186.48   12.00
  -7  -4   1   75.19    7.00
  -7  -4   1   69.69    9.00
  -7   4   1   68.19    5.90
  -7   4   1  103.59   13.00
  -7   4   1   71.09    5.80
  -7   4   1   80.99    7.70
   7   4  -1   65.39    7.10
  -6  -4   1    0.80    3.70
  -6  -4   1    5.20    3.00
   6   4  -1    5.20    3.60
  -6   4   1    3.00    2.50
  -6   4   1    1.00    2.50
  -6   4   1    0.80    2.80
  -6   4   1   -4.90    4.60
  -5  -4   1  413.26   17.40
   5  -4  -1  399.96   13.30
  -5   4   1  402.36   20.60
   5   4  -1  422.16   14.60
  -5   4   1  432.96   14.20
  -5   4   1  407.36   12.90
  -4  -4   1  122.09    9.10
   4  -4  -1  117.39    6.00
  -4  -4   1  130.89    7.00
  -4   4   1  123.09    6.00
  -4   4   1  127.39    5.90
   4   4  -1  129.09    6.10
   4   4  -1  118.39    6.90
  -4   4   1   97.89   10.90
   3  -4  -1  304.37   10.90
  -3  -4   1  340.37   13.20
  -3  -4   1  320.17   14.20
  -3   4   1  318.57   10.30
   3   4  -1  341.57   10.40
  -3   4   1  345.17   16.90
   3   4  -1  382.36   12.40
   2  -4  -1  197.38    7.80
  -2  -4   1  191.48   10.30
   2  -4  -1  199.78    5.50
  -2   4   1  204.78   12.40
  -2   4   1  199.78    7.30
   2   4  -1  199.68    6.40
   2   4  -1  180.88    8.10
  -1  -4   1  844.02   25.70
   1  -4  -1  807.72   22.90
  -1   4   1  860.51   21.50
   1   4  -1  837.12   20.00
  -1   4   1  849.61   28.60
   1   4  -1  815.42   27.30
   0  -4   1  349.07   12.70
   0   4   1  323.37   14.70
   0   4  -1  331.77   15.40
   0   4   1  350.96   11.10
   0   4  -1  367.16   11.40
  -1  -4  -1 2080.39   53.99
   1  -4   1 2045.50   52.09
   1   4   1 2074.49   58.29
  -1   4  -1 2140.89   49.10
   1   4   1 2050.29   49.60
  -1   4  -1 2217.58   48.70
  -1   4  -1 2157.28   60.79
   1   4   1 2101.49   48.40
  -2  -4  -1  204.88    6.40
  -2  -4  -1  174.68   10.20
   2  -4   1  179.58    7.50
   2   4   1  198.78   10.10
  -2   4  -1  197.98    7.60
  -2   4  -1  215.08    6.70
   2   4   1  196.28    8.40
  -2   4  -1  198.58   12.70
  -3  -4  -1 1034.60   32.40
  -3  -4  -1 1090.39   27.50
   3  -4   1 1094.99   27.90
  -3   4  -1 1079.49   27.00
   3   4   1 1051.39   28.20
  -3   4  -1 1144.09   28.10
  -3   4  -1 1034.90   36.50
   3   4   1 1092.69   31.90
  -4  -4  -1  324.37   11.10
  -4  -4  -1  311.87   14.60
   4  -4   1  332.27   10.70
  -4   4  -1  352.36   12.00
  -4   4  -1  313.47   10.80
  -4   4  -1  315.27   17.40
   4   4   1  312.67   12.00
   4   4   1  319.17   12.10
   5  -4   1 2291.07   55.09
  -5  -4  -1 2241.98   56.09
  -5  -4  -1 2244.48   60.89
  -5   4  -1 2268.27   53.39
  -5   4  -1 2225.08   67.29
  -5   4  -1 2308.77   57.39
   5   4   1 2198.98   54.59
  -6  -4  -1   -0.80    4.10
   6  -4   1    1.70    2.20
  -6  -4  -1    3.10    2.90
  -6   4  -1    2.60    2.80
   6   4   1    7.10    3.50
  -6   4  -1    4.40    3.50
  -7  -4  -1 2917.61   72.19
  -7  -4  -1 2913.01   76.39
   7  -4   1 2731.83   82.89
   7   4   1 2774.02   69.09
  -7   4  -1 2886.71   67.89
  -7   4  -1 2974.30   74.19
  -8  -4  -1    9.50    4.40
  -8  -4  -1   16.90    5.90
   8  -4   1   12.40    6.60
  -8   4  -1   -2.20    4.50
  -8   4  -1    8.70    3.90
   8   4   1    1.30    3.70
  -9  -4  -1 1953.80   53.69
  -9  -4  -1 1910.51   56.79
   9  -4   1 2022.40   49.70
   9   4   1 1978.10   51.89
  -9   4  -1 1952.20   56.09
   8  -5  -1  780.62   23.70
  -8  -5   1  694.63   28.40
  -8   5   1  674.43   32.70
  -8   5   1  736.63   22.50
   8   5  -1  744.13   24.00
   8   5  -1  749.13   24.70
   7  -5  -1  129.39    8.10
  -7  -5   1  104.39   11.00
  -7   5   1  125.19    7.80
  -7   5   1  140.49   15.50
   7   5  -1  143.89   10.10
   7   5  -1  119.99    8.10
   6  -5  -1  169.08    8.80
  -6  -5   1  153.98   12.20
  -6   5   1  186.98   17.60
   6   5  -1  168.68    9.80
   6   5  -1  177.68    8.80
  -6   5   1  171.58    8.70
  -5  -5   1  120.89   11.20
   5  -5  -1  125.49    7.30
   5   5  -1  119.99    8.40
   5   5  -1  116.69    6.50
  -5   5   1  107.89    6.60
  -5   5   1  119.09   13.40
  -4  -5   1  477.55   19.50
   4  -5  -1  464.65   15.50
  -4   5   1  484.05   14.70
  -4   5   1  495.45   23.30
   4   5  -1  460.05   16.10
  -3  -5   1    8.50    3.50
  -3  -5   1    1.20    3.60
   3  -5  -1    7.30    2.70
  -3   5   1    5.80    4.80
   3   5  -1    0.60    2.50
  -3   5   1    7.60    2.50
   2  -5  -1  685.43   20.40
  -2  -5   1  673.43   23.60
  -2   5   1  653.03   26.80
  -2   5   1  690.63   19.00
   1  -5  -1  386.46   14.00
  -1  -5   1  408.06   16.40
   1   5  -1  387.86   17.50
  -1   5   1  407.76   13.00
  -1   5   1  401.46   18.80
   1   5  -1  400.46   13.60
   0  -5  -1  186.68    9.50
   0  -5   1  217.88   10.50
   0   5   1  208.18   12.70
   0   5   1  216.08    8.80
   0   5  -1  192.08   12.10
   0   5  -1  203.68    8.70
  -1  -5  -1  285.27   13.00
   1  -5   1  318.97   12.10
  -1   5  -1  271.17   10.40
   1   5   1  281.67   14.40
  -1   5  -1  302.07   15.90
   1   5   1  304.27   11.20
   2  -5   1 2074.99   51.39
  -2  -5  -1 2033.30   55.49
  -2   5  -1 2074.09   48.60
   2   5   1 1969.30   49.30
   2   5   1 2032.50   57.69
  -2   5  -1 2012.40   61.09
  -3  -5  -1  526.45   20.60
   3  -5   1  546.45   16.40
  -3   5  -1  495.45   23.40
  -3   5  -1  517.25   15.80
   3   5   1  497.85   16.70
   3   5   1  527.55   19.50
  -4  -5  -1 1806.92   50.99
  -4  -5  -1 1857.61   44.40
   4  -5   1 1803.52   45.40
  -4   5  -1 1703.33   56.59
  -4   5  -1 1774.12   43.70
  -5  -5  -1  204.68   12.90
  -5  -5  -1  215.08    9.10
   5  -5   1  215.18    9.10
  -5   5  -1  225.28   16.60
   5   5   1  203.88   10.30
  -5   5  -1  195.28    9.30
  -6  -5  -1 2442.26   67.89
  -6  -5  -1 2458.65   61.69
   6  -5   1 2495.35   61.19
  -6   5  -1 2422.86   59.29
   6   5   1 2516.35   61.39
   7  -5   1    7.30    6.70
  -7  -5  -1    9.00    5.90
  -7  -5  -1    5.60    3.70
  -7   5  -1    4.80    3.60
   7   5   1    4.50    4.30
   8  -5   1 1334.77   49.50
  -8  -5  -1 1353.36   39.10
  -8  -5  -1 1523.65   45.50
  -8   5  -1 1343.87   37.60
   8   5   1 1461.95   40.40
  -8  -6   1   95.39   12.50
  -8   6   1   88.79   14.90
   8   6  -1  107.99   10.80
  -7  -6   1 1189.48   40.10
   7  -6  -1 1218.08   34.40
  -7   6   1 1129.79   32.40
   7   6  -1 1179.28   35.00
  -7   6   1 1245.38   47.50
   6  -6  -1   14.50    4.20
  -6  -6   1   24.40    7.50
  -6   6   1   17.00    4.50
  -6   6   1    8.20    7.20
   6   6  -1   12.10    4.80
  -5  -6   1 2727.83   75.49
   5  -6  -1 2885.81   70.09
   5   6  -1 2787.92   68.09
  -5   6   1 2796.62   84.89
  -5   6   1 2733.53   65.89
  -4  -6   1  103.39   10.20
   4  -6  -1  104.39    7.40
   4   6  -1   91.59    8.30
  -4   6   1   92.19    6.80
  -4   6   1  124.09   14.00
  -3  -6   1 2590.64   69.59
  -3  -6   1 2501.45   67.59
   3  -6  -1 2432.26   63.19
  -3   6   1 2462.85   75.19
  -3   6   1 2506.25   59.39
   3   6  -1 2477.35   60.69
  -2  -6   1  119.89   10.80
  -2  -6   1  108.69    9.40
   2  -6  -1  100.49    7.50
  -2   6   1   97.59   12.00
  -2   6   1  108.09    7.10
   2   6  -1  101.69    7.20
   1  -6  -1 2278.27   59.19
  -1  -6   1 2230.78   61.49
   1   6  -1 2282.17   66.09
   1   6  -1 2195.28   55.09
  -1   6   1 2362.86   54.99
  -1   6   1 2278.37   67.79
   0  -6   1  193.08   11.50
   0  -6  -1  230.68   11.90
   0   6  -1  208.18   14.10
   0   6   1  212.98    9.90
   0   6   1  234.18   14.60
   0   6  -1  219.78   10.20
   1  -6   1 1305.87   38.30
  -1  -6  -1 1348.17   40.40
  -1   6  -1 1371.16   35.60
  -1   6  -1 1357.06   45.40
   1   6   1 1401.06   43.90
   1   6   1 1397.26   35.70
   2  -6   1  351.46   14.10
  -2  -6  -1  363.46   17.20
   2   6   1  324.17   16.70
   2   6   1  365.16   13.60
  -2   6  -1  383.36   20.40
  -2   6  -1  347.57   13.10
  -3  -6  -1  521.25   21.90
   3  -6   1  512.35   17.80
   3   6   1  537.35   18.20
  -3   6  -1  551.04   17.40
   3   6   1  541.75   21.10
  -3   6  -1  524.55   25.50
  -4  -6  -1  378.56   18.20
   4  -6   1  396.96   14.60
   4   6   1  384.96   15.30
  -4   6  -1  384.66   22.40
  -4   6  -1  397.16   14.40
   5  -6   1  774.92   23.30
  -5  -6  -1  772.52   28.20
   5   6   1  710.33   23.90
  -5   6  -1  771.02   34.00
  -5   6  -1  778.12   23.00
  -6  -6  -1   -1.80    5.30
   6   6   1    4.10    4.40
  -6   6  -1    4.30    3.80
  -7  -6  -1  136.09   13.50
   7  -6   1  106.39   14.70
  -7   6  -1  125.49    9.20
   7   6   1  121.29   10.90
   6  -7  -1 1800.42   48.40
  -6  -7   1 1710.53   53.19
  -6   7   1 1685.73   45.20
   6   7  -1 1702.53   47.10
  -6   7   1 1868.11   63.09
  -5  -7   1    5.80    5.40
   5  -7  -1    5.30    4.20
  -5   7   1    6.30    4.30
  -5   7   1   11.40    7.70
   5   7  -1    9.00    4.60
  -4  -7   1 2048.79   58.89
   4  -7  -1 2036.60   54.49
  -4   7   1 1989.60   50.99
   4   7  -1 2024.30   52.39
  -4   7   1 2112.89   67.59
   3  -7  -1    3.90    3.80
  -3  -7   1    4.10    4.90
  -3   7   1    1.20    3.80
   3   7  -1    4.40    4.10
  -3   7   1    3.50    7.00
  -2  -7   1 2144.19   60.09
  -2  -7   1 2203.68   62.79
   2  -7  -1 2151.98   57.19
  -2   7   1 2065.79   52.49
  -2   7   1 2035.10   65.89
   2   7  -1 2061.79   52.89
  -1  -7   1   33.50    7.40
  -1  -7   1   35.40    7.10
   1  -7  -1   44.10    6.90
  -1   7   1   40.50    5.90
  -1   7   1   26.70    7.90
   1   7  -1   37.00    5.60
   0  -7   1 2147.19   59.69
   0  -7  -1 2137.49   59.19
   0   7   1 2132.49   53.29
   0   7  -1 2086.09   53.39
   0   7   1 2157.78   65.19
   1  -7   1   19.50    5.50
  -1  -7  -1    8.90    5.30
   1   7   1   18.30    4.50
  -1   7  -1   21.00    7.30
  -1   7  -1   16.20    4.80
   1   7   1   28.40    7.30
  -2  -7  -1  740.73   28.10
   2  -7   1  712.83   24.80
   2   7   1  735.13   28.30
  -2   7  -1  750.02   31.80
  -2   7  -1  712.23   22.70
   2   7   1  710.33   22.80
   3  -7   1  282.47   13.70
  -3  -7  -1  252.37   16.00
   3   7   1  278.27   12.80
  -3   7  -1  305.17   19.80
  -3   7  -1  270.57   12.70
   3   7   1  293.37   17.70
   4  -7   1  483.15   18.10
  -4  -7  -1  459.25   21.60
   4   7   1  456.45   17.80
  -4   7  -1  467.85   17.50
  -5  -7  -1   78.79   10.60
  -5   7  -1   75.19    7.90
   5   7   1   67.19    8.20
   6  -7   1  215.28   18.80
  -6  -7  -1  255.67   17.00
  -6   7  -1  247.78   12.80
   6   7   1  259.67   14.20
   4  -8  -1    4.30    4.90
  -4  -8   1    1.80    5.70
   4   8  -1   -1.70    4.10
  -4   8   1   -1.50    4.50
  -4   8   1  -12.50    7.40
  -3  -8   1  254.47   16.40
   3  -8  -1  253.37   14.80
  -3   8   1  219.98   19.40
   3   8  -1  274.97   13.90
  -3   8   1  261.87   13.30
  -2  -8   1   70.09   10.20
  -2  -8   1   72.59   10.50
   2  -8  -1   78.49    9.80
  -2   8   1   62.19    7.50
  -2   8   1   74.19   12.50
   2   8  -1   74.69    8.50
   1  -8  -1  370.36   18.80
  -1  -8   1  333.57   19.30
  -1  -8   1  413.56   21.10
  -1   8   1  384.36   15.90
  -1   8   1  410.96   23.00
   1   8  -1  381.06   16.60
   0  -8  -1  137.89   13.40
   0  -8   1   98.59   11.60
   0  -8   1  106.79   13.00
   0   8  -1  120.09   10.00
   0   8   1  109.29   13.40
   0   8   1  118.59    9.80
  -1  -8  -1  685.23   28.00
   1  -8   1  704.23   30.70
   1  -8   1  668.33   26.70
  -1   8  -1  661.63   23.10
   1   8   1  673.43   29.40
   1   8   1  662.43   22.80
  -2  -8  -1  682.33   28.40
   2  -8   1  695.43   31.20
   2  -8   1  697.83   26.50
   2   8   1  675.13   23.00
   2   8   1  694.73   28.80
  -2   8  -1  685.33   23.40
   3  -8   1 1165.48   36.70
  -3  -8  -1 1059.19   38.80
   3  -8   1 1137.59   44.40
  -3   8  -1 1179.78   34.00
   3   8   1 1165.58   33.50
   4  -8   1  272.07   20.90
  -4  -8  -1  280.17   17.70
  -4   8  -1  265.37   14.20
   4   8   1  251.37   14.00
 -10   0   2 2081.69   57.19
 -10   0   2 2171.38   60.19
  10   0  -2 2187.28   53.09
  -9   0   2   -1.00    3.30
  -9   0   2   -7.70    4.10
   9   0  -2   -0.30    2.80
   8   0  -2 2147.29   49.90
  -8   0   2 2031.40   53.89
  -8   0   2 2074.89   56.19
  -7   0   2   -2.80    3.10
   7   0  -2    3.40    2.10
  -7   0   2    0.40    2.40
   6   0  -2 4873.11  108.79
  -6   0   2 5161.08  124.89
  -6   0   2 4791.22  118.29
  -6   0   2 4844.12  116.79
  -5   0   2   -3.30    1.60
  -5   0   2   -1.90    1.60
   5   0  -2   -1.80    1.30
  -5   0   2   -0.70    2.20
  -4   0   2 5336.57  125.99
   4   0  -2 5156.18  113.59
  -4   0   2 4691.43  119.29
  -4   0   2 5140.59  118.89
   3   0  -2   -0.20    0.70
  -3   0   2   -0.80    1.30
  -3   0   2    1.20    1.20
  -3   0   2   -0.60    1.10
  -2   0   2 1087.79   26.10
   2   0  -2 1078.89   23.60
   2   0  -2 1013.20   26.20
  -2   0   2 1065.59   27.50
   1   0  -2    1.60    0.50
   1   0  -2    1.50    0.70
  -1   0   2   -2.30    0.60
  -1   0   2   -1.50    0.50
   0   0  -2 2307.47   51.59
   0   0   2 2266.67   57.19
   0   0   2 2337.07   54.09
   0   0  -2 2299.57   55.39
  -1   0  -2   -0.10    0.70
  -1   0  -2   -0.10    0.60
  -1   0  -2   -0.60    0.60
   1   0   2   -0.90    0.70
   2   0   2  286.57    8.90
  -2   0  -2  278.87    8.60
  -2   0  -2  291.67    7.90
   2   0   2  276.47    7.70
   3   0   2   -3.50    1.00
   3   0   2   -3.70    0.90
  -3   0  -2   -1.60    1.40
  -3   0  -2   -2.50    1.00
  -4   0  -2   88.09    5.20
  -4   0  -2   83.19    4.20
   4   0   2   87.89    4.30
  -5   0  -2   -2.30    1.30
   5   0   2   -2.40    1.20
   5   0   2   -1.20    1.40
  -5   0  -2   -2.50    2.20
   6   0   2   98.29    5.50
  -6   0  -2  106.39    7.10
  -6   0  -2  106.59    5.80
   6   0   2  115.49    5.30
   7   0   2    3.00    2.20
  -7   0  -2   -1.70    3.10
  -7   0  -2    2.90    2.30
  -8   0  -2  704.73   21.20
   8   0   2  676.53   20.40
  -8   0  -2  694.33   24.20
  -9   0  -2    5.20    4.50
   9   0   2    1.00    3.40
  -9   0  -2   -0.40    2.90
 -10   0  -2 1111.39   36.70
  10   0   2 1149.19   32.20
 -10  -1   2  100.29    9.40
 -10  -1   2  103.19   10.60
 -10   1   2   72.39    9.70
 -10   1   2  103.69    9.20
  10   1  -2  103.69    8.00
  -9  -1   2 1110.29   35.00
  -9  -1   2 1133.29   34.20
   9  -1  -2 1174.08   30.10
  -9   1   2 1123.59   36.00
  -9   1   2 1141.29   32.90
   9   1  -2 1121.59   30.50
  -8  -1   2  132.89    9.30
  -8  -1   2  131.99    8.90
   8  -1  -2  135.39    7.10
  -8   1   2  138.79   10.30
  -8   1   2  131.99    8.30
   8   1  -2  129.59    7.30
   7  -1  -2 1502.85   36.20
  -7  -1   2 1539.55   41.60
  -7  -1   2 1510.95   40.70
   7   1  -2 1492.55   36.70
  -7   1   2 1470.95   39.40
  -7   1   2 1495.25   42.10
  -6  -1   2  140.99    7.80
  -6  -1   2  153.48    8.60
   6  -1  -2  148.59    6.00
   6   1  -2  149.49    6.40
  -6   1   2  160.88    9.40
  -6   1   2  136.19    6.90
  -6   1   2  134.19    8.60
  -5  -1   2 1267.97   30.20
   5  -1  -2 1132.09   27.50
  -5  -1   2 1146.29   31.30
  -5  -1   2 1162.18   31.80
   5   1  -2 1182.58   28.20
  -5   1   2 1150.68   34.30
  -5   1   2 1150.08   30.20
  -5   1   2 1121.49   32.00
  -4  -1   2  195.68    8.30
  -4  -1   2  210.58    6.50
   4  -1  -2  195.28    6.10
  -4   1   2  198.18    7.30
  -4   1   2  193.68    9.00
   4   1  -2  196.38    6.60
  -4   1   2  193.98    8.30
  -3  -1   2 4652.03  110.09
  -3  -1   2 4906.11  116.19
  -3  -1   2 4879.41  110.59
   3   1  -2 4619.64  104.69
  -3   1   2 4865.01  103.99
  -3   1   2 4494.05  109.89
  -3   1   2 4644.84  109.59
  -3   1   2 4638.54  117.79
  -2  -1   2 5508.55  128.59
   2  -1  -2 5485.45  132.79
  -2  -1   2 5661.33  138.79
  -2   1   2 5702.13  134.79
  -2   1   2 5508.35  138.99
  -2   1   2 5675.03  122.89
   2   1  -2 5394.16  124.89
   2   1  -2 5349.67  133.29
   1  -1  -2 2493.35   61.29
  -1  -1   2 2592.64   64.09
  -1  -1   2 2663.63   60.19
  -1   1   2 2517.85   56.39
  -1   1   2 2598.34   60.59
   1   1  -2 2471.85   59.39
  -1   1   2 2536.25   64.29
   1   1  -2 2542.05   56.39
   0  -1   2  447.46   11.60
   0  -1   2  446.76   13.50
   0  -1  -2  445.66   11.20
   0   1   2  443.26   10.80
   0   1   2  439.86   13.00
   0   1  -2  453.35   11.40
   1  -1   2 3360.46   77.99
  -1  -1  -2 3442.16   79.69
  -1  -1  -2 3464.95   78.39
   1   1   2 3292.07   84.09
  -1   1  -2 3286.67   74.09
   1   1   2 3258.57   74.99
  -1   1  -2 3370.66   77.39
  -2  -1  -2 2637.44   61.29
   2  -1   2 2531.95   66.69
  -2  -1  -2 2466.95   62.69
   2   1   2 2723.13   64.79
  -2   1  -2 2642.84   61.29
  -2   1  -2 2607.34   61.39
  -2   1  -2 2667.23   57.99
  -3  -1  -2 3302.17   76.89
   3  -1   2 3197.28   81.79
  -3  -1  -2 3136.99   75.89
  -3   1  -2 3260.47   71.59
  -3   1  -2 3131.09   76.09
   3   1   2 3366.66   79.29
  -3   1  -2 3222.28   75.09
   3   1   2 3118.89   71.39
   4  -1   2  518.65   16.40
  -4  -1  -2  484.95   15.20
  -4  -1  -2  513.05   15.20
  -4   1  -2  510.25   13.90
   4   1   2  512.65   13.60
   4   1   2  524.25   13.90
  -4   1  -2  486.05   13.30
  -4   1  -2  475.95   15.30
   5  -1   2 1042.20   29.20
  -5  -1  -2  959.90   27.70
  -5  -1  -2  980.40   27.20
   5   1   2  980.40   25.20
  -5   1  -2 1038.70   25.60
  -5   1  -2  974.50   28.20
   5   1   2 1056.59   25.60
  -6  -1  -2  686.43   20.20
   6  -1   2  648.44   20.80
   6  -1   2  667.03   18.40
  -6  -1  -2  648.74   20.90
   6   1   2  680.33   18.70
  -6   1  -2  653.73   21.60
  -6   1  -2  711.33   18.80
   7  -1   2 1173.38   29.10
  -7  -1  -2 1117.29   32.70
  -7  -1  -2 1111.79   31.10
   7   1   2 1063.69   28.90
  -7   1  -2 1132.39   29.50
  -7   1  -2 1086.29   33.10
  -8  -1  -2  119.39    9.00
  -8  -1  -2  131.69    8.20
   8  -1   2  129.39    7.20
  -8   1  -2  124.19   10.70
  -8   1  -2  125.29    7.10
   8   1   2  106.89    7.30
  -9  -1  -2  592.24   22.70
  -9  -1  -2  629.24   20.90
   9  -1   2  607.64   19.50
  -9   1  -2  601.44   23.60
   9   1   2  641.14   20.10
 -10  -1  -2  264.77   15.20
  10  -1   2  249.08   12.10
 -10  -1  -2  255.57   13.00
 -10   1  -2  196.68   13.90
  10   1   2  262.07   12.60
 -10  -2   2  161.58   12.10
 -10   2   2  149.99    9.90
  10   2  -2  172.08   10.20
 -10   2   2  164.68   12.80
  -9  -2   2    2.80    4.00
  -9  -2   2    7.80    4.70
   9  -2  -2    3.80    3.20
  -9   2   2    2.20    5.10
   9   2  -2    7.60    3.80
  -9   2   2    5.60    3.50
  -8  -2   2  474.25   17.90
  -8  -2   2  448.66   18.00
   8  -2  -2  460.65   14.40
  -8   2   2  458.05   16.10
  -8   2   2  423.86   18.40
   8   2  -2  444.96   15.40
   7  -2  -2   -1.80    1.90
  -7  -2   2    0.40    3.20
  -7  -2   2    2.70    3.30
  -7   2   2   -1.50    3.60
  -7   2   2   -2.80    3.20
   7   2  -2    7.80    2.90
  -7   2   2    0.10    2.40
  -6  -2   2   84.59    6.20
   6  -2  -2   77.59    4.50
  -6  -2   2   85.19    7.50
  -6   2   2   77.59    5.40
   6   2  -2   70.89    5.10
  -6   2   2   81.29    6.50
  -6   2   2   81.59    8.90
  -5  -2   2   67.99    6.10
  -5  -2   2   68.59    5.20
  -5   2   2   68.99    4.00
  -5   2   2   69.79    5.70
   5   2  -2   72.39    4.70
  -5   2   2   79.69    4.80
  -5   2   2   66.09    7.50
  -4  -2   2  870.21   22.80
  -4  -2   2  909.51   25.40
  -4  -2   2  878.61   24.10
  -4   2   2  883.91   21.20
  -4   2   2  874.91   24.10
  -4   2   2  871.11   28.00
  -4   2   2  878.01   23.10
   4   2  -2  866.11   22.40
  -3  -2   2  781.92   22.30
  -3  -2   2  794.52   21.30
   3   2  -2  766.82   20.80
  -3   2   2  786.32   24.50
   3   2  -2  774.22   20.00
  -3   2   2  773.72   18.50
  -3   2   2  780.22   20.40
  -2  -2   2 2726.53   66.69
   2  -2  -2 2728.43   61.29
  -2  -2   2 2602.24   63.89
  -2   2   2 2586.34   61.89
  -2   2   2 2670.73   57.69
  -2   2   2 2674.13   68.39
   2   2  -2 2470.85   61.59
   2   2  -2 2538.85   59.19
  -1  -2   2   28.00    3.20
   1  -2  -2   28.20    2.10
  -1  -2   2   23.60    3.00
   1  -2  -2   30.50    1.50
  -1   2   2   25.90    1.70
  -1   2   2   33.40    3.60
   1   2  -2   27.30    1.90
   1   2  -2   22.50    2.20
   0  -2   2 3128.89   79.09
   0  -2  -2 3508.25   78.09
   0  -2   2 3301.87   85.49
   0  -2  -2 3348.36   78.19
   0   2  -2 3384.76   78.79
   0   2   2 3311.97   84.19
   0   2   2 3345.87   73.79
   0   2  -2 3429.96   73.79
   1  -2   2   64.79    5.00
   1  -2   2   50.99    2.70
  -1  -2  -2   55.89    2.50
  -1  -2  -2   51.19    3.60
   1   2   2   50.69    3.40
  -1   2  -2   53.79    2.80
  -1   2  -2   53.09    2.60
  -2  -2  -2 9393.36  224.48
  -2  -2  -2 9976.30  226.98
   2  -2   2 9411.16  244.28
   2  -2   2 9999.00  226.18
   2   2   2 9391.16  218.88
  -2   2  -2 9688.73  215.28
  -2   2  -2 9612.14  229.58
   2   2   2 9749.52  241.88
  -3  -2  -2   13.00    2.30
   3  -2   2    8.60    3.10
  -3  -2  -2    7.70    2.80
   3   2   2   11.60    1.80
  -3   2  -2   13.60    2.50
  -3   2  -2   10.30    2.00
   3   2   2    9.00    1.90
  -3   2  -2   17.30    1.70
   4  -2   2 5555.74  144.69
  -4  -2  -2 5630.04  133.09
  -4  -2  -2 5572.94  135.49
  -4   2  -2 5771.52  132.39
   4   2   2 5909.21  139.29
   4   2   2 5749.12  125.79
  -4   2  -2 5573.44  133.69
  -4   2  -2 5799.32  125.69
   5  -2   2  107.29    7.90
  -5  -2  -2  115.09    6.60
  -5  -2  -2  123.49    7.40
  -5   2  -2   95.19    6.60
  -5   2  -2  114.29    4.90
  -5   2  -2  111.29    5.80
   5   2   2  115.69    5.90
   6  -2   2 4445.16  113.69
  -6  -2  -2 4414.06  106.59
  -6  -2  -2 4239.28  105.49
  -6   2  -2 4358.16   98.79
  -6   2  -2 4435.76  102.89
   6   2   2 4332.87   98.99
  -6   2  -2 4463.45  106.89
  -7  -2  -2    2.40    3.40
   7  -2   2    0.20    2.50
  -7  -2  -2    5.60    3.40
   7  -2   2    1.60    3.00
  -7   2  -2    4.90    2.30
  -7   2  -2    2.50    3.80
   7   2   2    2.80    2.90
  -8  -2  -2 1175.48   34.70
  -8  -2  -2 1168.78   35.00
   8  -2   2 1235.68   31.50
  -8   2  -2 1162.38   36.70
   8   2   2 1174.18   31.70
   9  -2   2    4.00    3.70
  -9  -2  -2    5.60    4.40
  -9  -2  -2    2.40    4.70
   9   2   2    4.30    4.10
  -9   2  -2    3.80    5.50
  10  -2   2  661.63   21.20
 -10  -2  -2  620.84   23.40
 -10  -2  -2  640.04   24.60
  10   2   2  627.64   21.80
 -10   2  -2  650.93   26.30
 -10  -3   2   58.69    9.20
  10   3  -2   66.79    8.10
  10   3  -2   62.29    8.40
 -10   3   2   63.59    7.30
  -9  -3   2  303.17   16.30
   9   3  -2  317.77   13.80
   9   3  -2  309.27   14.70
  -9   3   2  310.17   13.20
   8  -3  -2   78.49    5.80
  -8  -3   2   86.79    9.50
   8   3  -2   62.49    6.60
  -8   3   2   85.29    9.00
  -8   3   2   77.29    6.70
  -7  -3   2  601.44   22.70
  -7   3   2  681.33   22.30
  -7   3   2  639.94   19.70
   7   3  -2  633.94   19.90
  -7   3   2  655.23   27.00
  -6  -3   2  129.29    9.30
  -6   3   2  130.69    6.40
  -6   3   2  136.19   11.60
   6   3  -2  136.99    7.60
  -6   3   2  142.79    8.40
  -6   3   2  125.79    6.90
  -5  -3   2 1848.52   50.59
   5   3  -2 1855.31   45.90
  -5   3   2 1823.82   56.29
  -5   3   2 1964.60   48.30
  -5   3   2 1983.30   44.20
  -5   3   2 1869.91   47.10
  -4  -3   2  690.93   20.20
   4   3  -2  735.73   20.10
  -4   3   2  721.13   18.10
  -4   3   2  739.63   26.10
   4   3  -2  689.23   19.70
  -4   3   2  702.23   19.60
  -3  -3   2  590.94   20.10
   3  -3  -2  638.94   16.80
  -3  -3   2  614.24   19.20
  -3   3   2  630.24   22.50
   3   3  -2  638.84   17.40
  -3   3   2  647.64   16.00
   3   3  -2  634.04   17.80
   2  -3  -2 1977.10   48.90
  -2  -3   2 1957.10   51.79
  -2  -3   2 1974.10   53.99
   2  -3  -2 2064.99   47.40
   2   3  -2 2033.80   48.20
   2   3  -2 2044.60   47.50
  -2   3   2 2044.50   45.70
  -2   3   2 2101.49   56.09
   1  -3  -2 2282.07   51.29
   1  -3  -2 2284.97   53.79
  -1  -3   2 2172.68   56.19
  -1  -3   2 2103.89   59.69
   1   3  -2 2278.17   51.49
   1   3  -2 2210.28   52.09
  -1   3   2 2325.87   50.49
  -1   3   2 2176.88   59.89
   0  -3   2 1140.09   30.90
   0  -3  -2 1204.78   27.10
   0  -3  -2 1135.39   29.80
   0  -3   2 1149.89   34.80
   0   3  -2 1164.28   28.00
   0   3   2 1145.29   33.20
   0   3   2 1205.18   28.00
   0   3  -2 1142.09   27.60
   1  -3   2 2955.00   70.29
  -1  -3  -2 2947.91   68.19
  -1  -3  -2 2969.10   71.69
   1   3   2 2858.71   75.99
  -1   3  -2 3019.60   68.59
  -1   3  -2 3034.50   66.29
   1   3   2 2882.11   66.79
   2  -3   2  712.83   18.60
  -2  -3  -2  726.43   18.50
  -2  -3  -2  757.22   22.50
   2   3   2  707.23   19.10
  -2   3  -2  718.63   18.40
   2   3   2  720.63   21.40
  -2   3  -2  699.33   18.90
   3  -3   2 2487.05   58.59
  -3  -3  -2 2457.85   59.39
  -3  -3  -2 2588.44   64.19
  -3   3  -2 2441.16   59.99
  -3   3  -2 2496.95   56.69
   3   3   2 2415.36   63.69
   3   3   2 2513.45   57.39
  -4  -3  -2    4.80    3.10
  -4  -3  -2    1.70    1.80
   4  -3   2    0.30    3.20
   4  -3   2    2.00    1.30
   4   3   2   -0.20    1.80
  -4   3  -2    2.10    2.00
   4   3   2    3.40    1.70
  -4   3  -2    2.00    2.10
  -5  -3  -2 2321.57   58.49
   5  -3   2 2346.67   66.89
  -5  -3  -2 2348.07   61.69
  -5   3  -2 2473.15   56.39
   5   3   2 2279.07   55.49
  -5   3  -2 2336.87   59.59
  -5   3  -2 2355.26   55.09
   6  -3   2   90.59    9.40
  -6  -3  -2   73.19    6.50
  -6  -3  -2   75.19    7.80
   6   3   2   78.69    6.50
  -6   3  -2   77.59    7.60
  -6   3  -2   85.49    4.80
  -6   3  -2   86.29    6.00
  -7  -3  -2 1636.74   44.70
  -7  -3  -2 1604.84   46.40
   7  -3   2 1755.82   50.89
  -7   3  -2 1621.34   41.40
   7   3   2 1698.53   42.30
  -7   3  -2 1616.64   46.40
  -8  -3  -2  350.06   15.50
  -8  -3  -2  377.86   16.90
  -8   3  -2  369.06   17.30
   8   3   2  366.96   14.40
  -9  -3  -2 1065.89   33.30
   9  -3   2 1064.29   29.80
  -9  -3  -2 1010.50   33.90
   9   3   2 1094.99   31.30
  -9   3  -2 1057.59   35.40
 -10  -3  -2  172.58   12.50
 -10  -3  -2  174.58   12.80
  10  -3   2  184.28   10.80
  10   3   2  159.48   11.20
 -10   3  -2  174.58   14.30
   9  -4  -2    7.90    5.00
  -9  -4   2   -1.20    5.20
   9   4  -2    3.10    4.80
  -9   4   2    3.70    3.90
   9   4  -2    2.60    4.40
  -8  -4   2 1135.79   39.00
   8   4  -2 1290.27   35.40
  -8   4   2 1246.78   34.70
   8   4  -2 1267.97   36.00
  -8   4   2 1314.87   45.70
  -7  -4   2    4.60    5.10
   7   4  -2    0.40    3.80
  -7   4   2    4.90    3.00
   7   4  -2    4.60    3.40
  -7   4   2    3.80    6.10
  -7   4   2   -1.20    2.80
  -6  -4   2 3241.48   86.19
   6   4  -2 3351.46   78.89
  -6   4   2 3356.86   81.29
  -6   4   2 3230.78   95.39
   6   4  -2 3467.45   81.79
  -6   4   2 3424.36   76.59
  -5  -4   2  204.28   12.00
   5  -4  -2  228.48    9.00
  -5   4   2  218.68   15.00
   5   4  -2  225.78   10.10
   5   4  -2  219.98    9.30
  -5   4   2  221.08    8.40
  -4  -4   2 2203.98   60.29
  -4  -4   2 2355.76   60.09
   4  -4  -2 2303.87   54.59
   4  -4  -2 2229.18   55.79
   4   4  -2 2359.86   55.49
  -4   4   2 2210.28   66.39
   4   4  -2 2277.97   54.69
  -4   4   2 2221.68   52.19
  -3  -4   2  147.79    8.40
  -3  -4   2  161.38    9.60
   3  -4  -2  157.48    5.40
   3  -4  -2  152.78    6.80
   3   4  -2  146.59    7.30
   3   4  -2  144.49    6.00
  -3   4   2  148.59   11.00
  -3   4   2  145.79    6.00
  -2  -4   2 1576.54   44.10
  -2  -4   2 1526.45   42.20
   2  -4  -2 1535.25   38.80
   2  -4  -2 1559.64   35.90
   2   4  -2 1523.55   36.90
  -2   4   2 1498.25   46.00
  -2   4   2 1528.35   36.10
   1  -4  -2  152.38    6.90
  -1  -4   2  142.19    8.50
  -1  -4   2  145.69    9.10
   1   4  -2  135.89    6.70
  -1   4   2  144.09    9.30
  -1   4   2  143.99    6.10
   1   4  -2  145.09    4.80
   0  -4   2 1629.94   48.60
   0  -4  -2 1634.94   42.50
   0  -4   2 1622.04   43.70
   0   4  -2 1694.23   40.00
   0   4   2 1702.33   39.80
   0   4  -2 1673.93   39.00
   0   4   2 1695.43   47.70
  -1  -4  -2   48.40    5.00
   1  -4   2   53.59    4.80
  -1  -4  -2   63.99    2.60
  -1   4  -2   59.79    3.00
   1   4   2   52.99    6.00
   1   4   2   59.99    4.40
  -1   4  -2   53.99    4.00
  -2  -4  -2  196.58    6.60
   2  -4   2  197.78    7.60
  -2  -4  -2  193.78   10.40
  -2   4  -2  194.68    7.60
  -2   4  -2  206.88    7.10
   2   4   2  182.48    8.10
  -2   4  -2  180.28   12.00
   2   4   2  202.68   10.00
  -3  -4  -2   11.50    4.20
   3  -4   2   12.90    2.30
  -3  -4  -2   12.70    2.30
   3   4   2   11.20    3.00
  -3   4  -2   14.70    2.70
  -3   4  -2   10.60    2.70
   3   4   2   14.10    3.30
   4  -4   2  214.28    7.80
  -4  -4  -2  197.18    8.30
  -4  -4  -2  203.78   11.70
   4   4   2  202.48    9.40
  -4   4  -2  205.48    8.30
   4   4   2  201.68    9.10
  -4   4  -2  209.28    9.10
  -5  -4  -2   13.50    3.20
   5  -4   2   14.40    2.60
  -5  -4  -2   15.80    4.80
   5  -4   2   17.90    5.90
   5   4   2   15.70    3.60
  -5   4  -2   23.90    4.20
  -5   4  -2   17.60    3.60
  -6  -4  -2   86.59    9.20
  -6  -4  -2   81.79    6.50
   6  -4   2   74.89   10.00
   6  -4   2   88.89    5.40
  -6   4  -2   99.19    8.50
  -6   4  -2   86.79    6.60
   6   4   2   90.39    6.90
  -7  -4  -2   32.20    5.30
  -7  -4  -2   36.20    7.00
   7  -4   2   32.90    7.60
   7   4   2   30.30    5.20
  -7   4  -2   19.50    4.40
  -7   4  -2   26.00    5.80
  -8  -4  -2  655.93   25.30
   8  -4   2  626.84   27.20
  -8  -4  -2  658.53   22.40
   8   4   2  615.34   21.60
  -8   4  -2  640.64   24.20
  -8   4  -2  639.24   20.70
   9  -4   2   77.29    7.60
  -9  -4  -2   59.49    9.20
  -9  -4  -2   80.29    8.90
   9   4   2   53.99    7.70
  -9   4  -2   79.09   10.00
   8  -5  -2   23.30    5.00
  -8  -5   2    8.50    6.50
   8   5  -2   15.10    4.70
  -8   5   2   17.50    8.90
   8   5  -2   13.20    5.40
  -7  -5   2 1877.11   55.49
   7  -5  -2 1946.71   49.90
   7   5  -2 1828.02   49.30
   7   5  -2 1935.61   49.70
  -7   5   2 1888.41   46.90
  -7   5   2 1934.31   63.49
  -6  -5   2  157.18   11.60
   6  -5  -2  139.69    8.30
  -6   5   2  150.78    8.00
   6   5  -2  149.49    9.30
   6   5  -2  138.79    8.00
  -6   5   2  180.18   17.50
   5  -5  -2 1672.63   43.70
  -5  -5   2 1668.33   48.70
   5   5  -2 1688.73   42.70
  -5   5   2 1697.93   41.00
  -5   5   2 1706.73   55.89
   5   5  -2 1668.83   43.30
   4  -5  -2   69.69    5.80
  -4  -5   2  103.79   10.10
  -4   5   2   82.79   10.60
  -4   5   2   89.99    5.60
   4   5  -2  101.49    7.90
   4   5  -2  102.79    5.50
  -3  -5   2 1792.72   49.20
   3  -5  -2 1693.23   44.70
  -3  -5   2 1806.22   50.19
   3   5  -2 1759.42   43.80
  -3   5   2 1745.73   54.89
  -3   5   2 1719.93   41.80
  -2  -5   2 1004.80   31.70
   2  -5  -2  945.91   26.90
  -2  -5   2 1001.20   30.50
  -2   5   2  939.51   24.80
   2   5  -2  911.51   26.00
  -2   5   2  986.70   34.30
  -1  -5   2 1231.38   36.40
   1  -5  -2 1230.48   33.80
  -1  -5   2 1297.27   39.50
  -1   5   2 1269.07   31.50
   1   5  -2 1222.68   32.10
  -1   5   2 1236.98   40.20
   0  -5   2  700.83   25.60
   0  -5  -2  619.84   20.70
   0  -5   2  659.83   22.00
   0   5   2  675.33   19.00
   0   5  -2  656.63   19.30
   0   5   2  650.83   24.60
   1  -5   2  559.94   18.50
  -1  -5  -2  555.34   19.60
  -1   5  -2  589.14   17.20
   1   5   2  563.34   21.80
   1   5   2  557.24   17.00
  -2  -5  -2  305.77   14.60
   2  -5   2  326.97   12.20
   2   5   2  318.17   14.90
   2   5   2  342.57   12.30
  -2   5  -2  341.97   11.70
  -3  -5  -2  347.37   16.20
   3  -5   2  328.47   11.70
   3   5   2  315.07   12.40
  -3   5  -2  323.87   11.80
   3   5   2  340.77   14.80
   4  -5   2    5.90    2.40
  -4  -5  -2    5.00    2.50
  -4  -5  -2    8.20    4.70
  -4   5  -2    5.20    2.70
   4   5   2    5.30    3.10
  -5  -5  -2  682.53   25.40
  -5  -5  -2  687.43   20.30
   5  -5   2  600.34   28.30
   5  -5   2  690.73   19.80
  -5   5  -2  682.03   20.40
   5   5   2  700.73   21.90
   6  -5   2  103.09   13.10
  -6  -5  -2  108.19   11.10
  -6  -5  -2   99.89    7.20
   6   5   2  113.69    8.50
  -6   5  -2  105.09    7.70
   7  -5   2  384.16   22.40
  -7  -5  -2  438.26   20.10
  -7  -5  -2  396.96   15.30
   7   5   2  395.46   16.50
  -7   5  -2  385.56   15.10
   8  -5   2  110.19   14.00
  -8  -5  -2  104.49   11.60
  -8  -5  -2  108.49    9.30
  -8   5  -2  116.69    9.00
   8   5   2  118.09   11.00
   7  -6  -2   18.20    4.80
  -7  -6   2    0.30    5.60
  -7   6   2    7.30    8.20
   7   6  -2    1.60    4.80
   6  -6  -2  170.28   10.10
  -6  -6   2  168.68   13.40
  -6   6   2  174.08   17.50
   6   6  -2  176.18   11.00
  -6   6   2  165.18    9.00
   5  -6  -2  146.69    8.70
  -5  -6   2  113.59   11.50
  -5   6   2  119.29    7.40
  -5   6   2  125.89   14.70
   5   6  -2  124.79    8.90
   4  -6  -2  408.06   15.50
  -4  -6   2  452.75   19.60
  -4   6   2  436.86   23.70
  -4   6   2  426.76   14.40
   4   6  -2  416.26   15.70
  -3  -6   2   43.40    6.80
   3  -6  -2   52.59    6.10
  -3  -6   2   54.39    7.90
  -3   6   2   45.00    9.20
  -3   6   2   50.39    5.20
   3   6  -2   39.50    5.20
  -2  -6   2 2083.79   57.29
   2  -6  -2 2047.10   53.89
  -2  -6   2 2160.98   60.49
  -2   6   2 1996.40   63.39
  -2   6   2 2127.59   50.19
   2   6  -2 2019.40   51.29
   1  -6  -2  253.17   11.70
  -1  -6   2  233.98   13.00
  -1  -6   2  229.68   13.90
  -1   6   2  224.08   10.00
   1   6  -2  226.58   10.50
  -1   6   2  213.08   14.50
   0  -6   2 1856.61   54.59
   0  -6   2 1678.93   48.50
   0  -6  -2 1690.23   47.70
   0   6  -2 1766.22   44.10
   0   6   2 1743.63   43.30
   0   6   2 1706.63   53.69
   1  -6   2  303.77   13.70
   1  -6   2  330.57   17.80
  -1  -6  -2  290.07   14.50
   1   6   2  291.77   16.20
   1   6   2  314.97   12.30
  -1   6  -2  304.97   12.10
   2  -6   2 2513.75   63.99
  -2  -6  -2 2509.25   67.99
   2   6   2 2509.75   60.19
  -2   6  -2 2507.65   60.09
   2   6   2 2427.76   70.69
   3  -6   2   15.60    5.90
  -3  -6  -2   10.60    5.60
   3  -6   2   14.00    3.90
   3   6   2   20.20    5.30
   3   6   2   17.60    4.20
  -3   6  -2   12.70    4.00
  -4  -6  -2 2072.59   60.09
   4  -6   2 2100.19   67.39
   4  -6   2 2166.98   54.49
   4   6   2 2148.19   53.79
  -4   6  -2 2137.29   52.49
   5  -6   2   15.70    7.90
  -5  -6  -2   19.50    6.70
  -5   6  -2   20.90    4.70
   5   6   2   15.60    4.60
   6  -6   2 1751.12   61.79
  -6  -6  -2 1827.52   54.89
  -6   6  -2 1867.91   47.60
   6   6   2 1946.81   49.70
  -7  -6  -2   44.50    8.80
   7  -6   2   24.90    9.00
   7   6   2   41.30    7.00
  -7   6  -2   40.70    6.50
  -6  -7   2   21.50    7.60
   6  -7  -2   28.20    6.00
   6   7  -2   29.70    6.80
  -6   7   2   36.10   11.00
   5  -7  -2  385.46   16.30
  -5  -7   2  349.37   19.10
   5   7  -2  356.96   16.00
  -5   7   2  349.37   23.90
  -5   7   2  385.56   14.60
  -4  -7   2   14.50    6.20
   4  -7  -2   10.30    4.40
   4   7  -2    8.00    5.00
  -4   7   2   16.20    4.40
  -4   7   2   14.80    7.90
   3  -7  -2  436.56   17.30
  -3  -7   2  431.86   19.80
   3   7  -2  411.86   16.40
  -3   7   2  394.86   23.40
  -3   7   2  401.26   15.20
  -2  -7   2  315.87   16.80
  -2  -7   2  308.37   16.30
   2  -7  -2  297.87   14.30
   2   7  -2  283.77   13.00
  -2   7   2  307.27   12.80
  -2   7   2  264.37   18.60
  -1  -7   2 1859.01   54.19
   1  -7  -2 1875.51   52.79
  -1  -7   2 1989.00   58.69
   1   7  -2 1868.51   48.70
  -1   7   2 1870.71   60.29
  -1   7   2 1920.91   48.10
   0  -7   2  146.79   13.70
   0  -7  -2  114.99   10.40
   0  -7   2  125.29   11.40
   0   7  -2  120.89    9.70
   0   7   2  127.19    8.70
   0   7   2  111.99   12.30
  -1  -7  -2 1643.44   49.20
   1  -7   2 1693.43   48.00
   1  -7   2 1694.83   54.29
   1   7   2 1624.54   52.59
  -1   7  -2 1587.54   43.00
   1   7   2 1667.13   42.80
   2  -7   2  254.97   17.80
  -2  -7  -2  263.07   15.80
   2  -7   2  239.18   12.90
   2   7   2  244.38   11.60
  -2   7  -2  238.38   12.10
   2   7   2  221.68   14.80
  -3  -7  -2 1620.94   50.69
   3  -7   2 1710.73   57.09
   3  -7   2 1627.64   46.30
  -3   7  -2 1713.03   43.90
   3   7   2 1662.53   43.80
  -4  -7  -2   46.60    8.80
   4  -7   2   37.60    9.40
   4   7   2   41.80    6.90
  -4   7  -2   55.29    7.00
  -5  -7  -2 1734.83   53.09
   5  -7   2 1769.22   60.89
  -5   7  -2 1730.03   45.90
   5   7   2 1728.63   46.70
   6  -7   2   38.70   11.10
  -6  -7  -2   77.19   11.20
  -6   7  -2   54.59    7.40
   6   7   2   49.10    8.00
   4  -8  -2  966.30   31.60
  -4  -8   2  934.61   33.90
  -4   8   2  940.41   40.80
  -4   8   2  895.01   28.00
   4   8  -2  913.41   29.30
  -3  -8   2  170.78   13.70
   3  -8  -2  126.19   11.60
   3   8  -2  150.48   11.20
  -3   8   2  155.68   10.60
  -3   8   2  150.78   17.60
  -2  -8   2  706.53   28.80
   2  -8  -2  689.43   26.40
  -2  -8   2  720.43   27.70
  -2   8   2  708.73   32.50
   2   8  -2  668.83   23.30
  -2   8   2  660.03   22.70
  -1  -8   2  228.58   14.90
   1  -8  -2  198.08   13.90
  -1  -8   2  199.88   15.30
   1   8  -2  182.18   12.00
  -1   8   2  201.18   11.70
  -1   8   2  198.68   18.60
   0  -8   2  370.16   21.20
   0  -8  -2  367.36   19.40
   0  -8   2  384.06   19.30
   0   8  -2  401.36   16.70
   0   8   2  409.26   16.10
   0   8   2  380.96   22.10
   1  -8   2  292.47   16.50
   1  -8   2  258.17   18.60
  -1  -8  -2  270.37   17.40
   1   8   2  287.37   13.90
  -1   8  -2  276.37   13.90
   1   8   2  303.77   18.90
   2  -8   2  340.07   21.40
   2  -8   2  308.77   16.90
  -2  -8  -2  283.47   18.30
   2   8   2  288.67   14.20
   2   8   2  315.17   18.90
  -2   8  -2  309.77   14.70
   3  -8   2   -2.50    5.70
  -3  -8  -2    7.90    6.60
  -3   8  -2    0.60    4.90
   3   8   2    6.00    5.00
   4  -8   2  327.57   22.30
  -4  -8  -2  306.37   19.10
  -4   8  -2  331.87   16.00
   4   8   2  361.26   16.30
 -10   0   3    7.00    4.50
  10   0  -3   -4.00    4.80
   9   0  -3   51.29    5.40
  -9   0   3   49.80    6.60
   8   0  -3    2.30    2.40
  -8   0   3   -1.60    2.90
  -7   0   3  899.61   26.60
   7   0  -3  923.31   23.60
  -7   0   3  925.41   28.60
   6   0  -3   -0.70    1.50
  -6   0   3    2.80    2.50
  -6   0   3    5.20    2.50
  -6   0   3   -2.30    2.80
   5   0  -3 4580.34  100.59
  -5   0   3 4555.24  108.49
  -5   0   3 4597.24  114.79
   4   0  -3   -0.20    0.90
   4   0  -3    0.40    1.90
  -4   0   3    1.80    1.60
  -4   0   3    0.20    1.40
   3   0  -3 6878.51  153.38
  -3   0   3 6979.10  175.68
  -3   0   3 6830.22  166.78
  -2   0   3   -2.30    1.10
   2   0  -3   -2.00    1.00
  -2   0   3   -2.30    1.00
   2   0  -3   -1.90    0.50
  -1   0   3 5206.88  131.29
   1   0  -3 5108.59  110.79
   1   0  -3 5000.40  120.89
  -1   0   3 5016.20  120.19
   0   0   3  -13.70    0.50
   0   0  -3  -13.50    0.50
   0   0  -3  -14.00    0.60
   0   0   3  -14.70    1.00
  -1   0  -3 5018.30  117.89
  -1   0  -3 5011.10  119.79
  -1   0  -3 5063.99  111.99
   1   0   3 4963.00  126.89
  -2   0  -3   -7.00    0.80
  -2   0  -3   -6.30    1.10
   2   0   3   -5.20    1.20
   3   0   3 6583.14  164.78
   3   0   3 6392.16  148.79
  -3   0  -3 6361.36  153.78
  -3   0  -3 6854.31  155.48
  -4   0  -3    0.00    1.20
   4   0   3    1.70    1.30
  -4   0  -3    0.80    1.60
   4   0   3   -0.80    1.20
   5   0   3 2223.38   52.69
  -5   0  -3 2345.87   55.29
   5   0   3 2313.47   58.69
  -5   0  -3 2268.37   57.19
  -6   0  -3    0.00    1.70
   6   0   3    2.90    1.80
   6   0   3   -0.10    1.80
  -6   0  -3    4.40    3.00
   7   0   3  663.63   19.20
  -7   0  -3  668.03   19.50
  -7   0  -3  659.93   22.30
  -8   0  -3    2.10    2.50
  -8   0  -3   -0.50    3.40
   8   0   3    1.00    3.10
  -9   0  -3  268.97   14.70
   9   0   3  291.77   12.50
  10   0   3    0.00    4.20
 -10   0  -3    0.40    5.60
 -10  -1   3  753.92   26.50
  10  -1  -3  724.93   28.10
  10   1  -3  791.32   27.80
 -10   1   3  780.62   25.70
  10   1  -3  735.43   24.70
  -9  -1   3  154.88   10.60
  -9   1   3  160.08    9.80
   9   1  -3  163.28    8.60
   9   1  -3  162.18   11.70
  -8  -1   3  731.23   24.00
   8  -1  -3  749.82   20.30
   8   1  -3  721.03   20.80
  -8   1   3  728.83   22.90
  -7  -1   3  816.52   25.10
   7  -1  -3  865.81   21.60
  -7   1   3  800.92   24.10
   7   1  -3  817.72   22.10
  -7   1   3  813.52   26.40
  -6  -1   3 1312.07   36.10
   6  -1  -3 1369.96   31.90
  -6   1   3 1395.36   39.90
   6   1  -3 1334.47   32.60
  -6   1   3 1320.37   35.30
  -6   1   3 1327.37   37.30
   5  -1  -3 1308.17   30.30
  -5  -1   3 1306.77   34.50
  -5  -1   3 1327.47   34.20
  -5   1   3 1290.17   33.70
  -5   1   3 1352.56   37.60
   5   1  -3 1283.77   31.10
   5   1  -3 1258.97   34.90
  -4  -1   3 2533.45   62.19
   4  -1  -3 2536.15   56.39
  -4  -1   3 2605.74   64.09
   4  -1  -3 2466.85   61.99
   4   1  -3 2470.75   62.09
   4   1  -3 2568.54   57.39
  -4   1   3 2648.64   66.69
  -3  -1   3  648.94   17.40
  -3  -1   3  623.34   17.30
   3  -1  -3  593.74   17.00
   3  -1  -3  619.24   14.40
   3   1  -3  579.54   17.10
  -3   1   3  619.14   18.80
  -3   1   3  627.54   16.80
   3   1  -3  624.74   15.60
  -2  -1   3 1655.23   39.40
  -2  -1   3 1632.04   41.60
   2  -1  -3 1585.54   38.70
  -2   1   3 1572.74   42.30
   2   1  -3 1619.74   36.70
   2   1  -3 1564.74   39.00
  -2   1   3 1655.43   35.30
  -2   1   3 1621.84   38.90
  -1  -1   3 1601.54   40.30
  -1  -1   3 1585.14   37.00
   1  -1  -3 1549.34   36.50
  -1   1   3 1523.15   36.80
   1   1  -3 1519.25   34.40
  -1   1   3 1496.75   40.30
  -1   1   3 1600.24   33.80
   1   1  -3 1500.15   36.80
   0  -1   3 3709.63   90.19
   0  -1  -3 3696.13   86.99
   0  -1   3 3648.33   84.79
   0  -1  -3 3520.15   84.09
   0   1  -3 3561.94   86.69
   0   1   3 3676.03   89.59
   0   1  -3 3459.55   78.79
   0   1   3 3489.65   79.49
   1  -1   3  418.56   13.70
  -1  -1  -3  423.06   11.60
  -1  -1  -3  445.56   11.50
   1   1   3  432.76   12.90
  -1   1  -3  434.76   10.90
  -1   1  -3  437.86   11.60
   1   1   3  441.36   10.80
  -2  -1  -3 2879.61   71.39
  -2  -1  -3 3005.60   69.99
   2  -1   3 2932.11   76.09
  -2   1  -3 3123.49   68.99
  -2   1  -3 3074.79   66.29
   2   1   3 2872.61   65.89
  -2   1  -3 2954.70   70.09
   2   1   3 3032.30   74.49
  -3  -1  -3  624.44   18.40
  -3  -1  -3  661.93   18.00
   3  -1   3  667.83   20.00
   3   1   3  653.83   16.60
  -3   1  -3  664.33   18.20
  -3   1  -3  655.13   15.90
  -3   1  -3  626.34   16.70
   3   1   3  664.13   18.10
  -4  -1  -3 4270.47  100.79
   4  -1   3 4297.07  107.79
  -4  -1  -3 4444.86  101.19
  -4   1  -3 4203.48   98.59
   4   1   3 4076.69   94.59
  -4   1  -3 4254.97  101.19
  -4   1  -3 4155.98   94.89
   4   1   3 4416.56  105.39
  -5  -1  -3  520.25   16.70
  -5  -1  -3  548.75   16.40
   5  -1   3  536.15   17.50
   5   1   3  549.65   14.90
   5   1   3  491.55   14.80
  -5   1  -3  510.55   17.10
  -5   1  -3  538.25   14.40
  -6  -1  -3 1594.84   42.90
   6  -1   3 1623.94   44.20
  -6  -1  -3 1600.64   41.60
   6  -1   3 1621.44   39.00
   6   1   3 1563.84   39.00
  -6   1  -3 1656.23   39.80
  -6   1  -3 1609.74   43.40
   7  -1   3  429.16   14.10
  -7  -1  -3  422.26   16.40
  -7  -1  -3  441.36   15.20
   7   1   3  418.16   14.10
  -7   1  -3  420.26   16.70
  -7   1  -3  451.75   13.60
   8  -1   3  502.45   16.30
  -8  -1  -3  496.05   17.20
  -8  -1  -3  495.55   19.10
   8   1   3  505.85   16.70
  -8   1  -3  474.85   19.70
   9  -1   3  438.16   15.70
  -9  -1  -3  427.56   16.30
  -9  -1  -3  433.06   18.70
  -9   1  -3  421.56   19.50
   9   1   3  443.36   15.90
  10  -1   3  751.02   23.50
 -10  -1  -3  756.12   27.70
 -10   1  -3  744.73   28.40
  10   1   3  699.13   23.30
 -10  -2   3   -0.20    5.00
  10  -2  -3   -1.50    4.60
 -10   2   3    4.80    4.20
  10   2  -3   -7.30    4.10
  10   2  -3   -2.90    3.70
  -9  -2   3 2151.68   58.09
   9  -2  -3 2001.90   58.29
   9   2  -3 2115.49   57.49
   9   2  -3 2133.79   52.49
  -9   2   3 2150.08   55.59
  -8  -2   3   49.50    7.00
   8  -2  -3   37.50    4.20
   8   2  -3   37.80    5.00
   8   2  -3   41.30    6.30
  -8   2   3   39.60    5.30
   7  -2  -3 1747.23   40.80
  -7  -2   3 1710.33   47.00
   7   2  -3 1686.63   42.20
  -7   2   3 1636.54   44.50
   7   2  -3 1758.92   46.60
  -7   2   3 1801.02   52.79
   6  -2  -3    7.80    2.00
  -6  -2   3   12.00    3.90
   6   2  -3    9.90    2.70
   6   2  -3    9.10    3.10
  -6   2   3   14.50    3.10
  -6   2   3   12.10    4.60
  -5  -2   3  742.53   22.50
   5  -2  -3  760.22   21.90
  -5   2   3  706.83   25.00
  -5   2   3  723.43   20.60
  -5   2   3  742.33   18.40
   5   2  -3  707.53   19.60
  -4  -2   3   48.30    3.30
   4  -2  -3   49.10    4.40
  -4  -2   3   44.30    4.50
  -4   2   3   37.60    5.00
  -4   2   3   48.10    3.70
   4   2  -3   43.10    3.90
  -4   2   3   52.39    2.90
   4   2  -3   39.80    3.90
   3  -2  -3  833.42   21.20
  -3  -2   3  811.52   22.60
  -3  -2   3  817.22   22.90
  -3   2   3  802.52   21.30
   3   2  -3  770.52   20.60
  -3   2   3  825.92   19.00
   3   2  -3  803.22   21.60
  -3   2   3  803.92   24.80
   2  -2  -3  695.73   17.80
  -2  -2   3  672.43   19.50
  -2  -2   3  701.43   20.50
   2   2  -3  698.13   18.40
   2   2  -3  708.23   18.00
  -2   2   3  681.83   18.30
  -2   2   3  717.63   16.30
  -2   2   3  706.83   21.50
  -1  -2   3  632.74   19.50
  -1  -2   3  618.84   17.80
   1  -2  -3  661.93   15.90
   1  -2  -3  639.24   16.70
  -1   2   3  643.64   15.10
  -1   2   3  620.04   19.30
   1   2  -3  610.94   16.30
   1   2  -3  632.14   16.00
   0  -2   3  328.77   10.40
   0  -2   3  341.77   12.70
   0  -2  -3  347.67    9.00
   0   2   3  330.07    9.30
   0   2  -3  334.57    9.40
   1  -2   3  293.97    9.10
   1  -2   3  295.57   12.10
  -1  -2  -3  304.37    8.60
   1   2   3  299.47   10.30
  -1   2  -3  284.97    8.60
  -1   2  -3  299.87    8.90
   1   2   3  297.67    8.70
   2  -2   3  816.22   26.40
   2  -2   3  875.61   20.80
  -2  -2  -3  873.11   24.30
  -2  -2  -3  867.31   22.00
  -2   2  -3  869.11   22.30
   2   2   3  853.21   21.20
   2   2   3  860.11   23.80
  -2   2  -3  861.11   21.20
  -3  -2  -3  582.74   16.50
  -3  -2  -3  590.04   18.90
   3  -2   3  600.34   14.60
   3  -2   3  563.04   19.90
  -3   2  -3  599.34   17.00
   3   2   3  593.44   15.70
  -3   2  -3  566.04   15.60
   3   2   3  602.14   16.80
   4  -2   3    4.00    2.80
  -4  -2  -3    1.60    2.30
  -4  -2  -3    1.70    1.90
   4   2   3    2.70    1.40
  -4   2  -3    1.60    1.70
  -4   2  -3    1.30    1.90
  -4   2  -3    2.10    1.10
   4   2   3    2.00    1.90
  -5  -2  -3 1162.18   33.20
   5  -2   3 1188.68   35.90
  -5  -2  -3 1166.28   32.00
  -5   2  -3 1228.88   33.00
  -5   2  -3 1182.38   30.00
   5   2   3 1183.78   29.90
  -5   2  -3 1225.78   29.40
   6  -2   3    6.60    3.30
  -6  -2  -3    4.50    3.10
  -6  -2  -3    5.00    3.10
   6   2   3    3.50    2.30
  -6   2  -3    6.10    1.80
  -6   2  -3    7.00    2.70
  -6   2  -3    6.30    3.50
   7  -2   3 1318.07   39.00
  -7  -2  -3 1329.87   37.00
  -7  -2  -3 1260.37   36.80
   7  -2   3 1327.77   33.50
  -7   2  -3 1299.37   38.00
   7   2   3 1295.87   33.80
  -8  -2  -3   42.10    5.90
  -8  -2  -3   38.00    5.90
   8  -2   3   34.10    5.00
   8   2   3   32.30    5.20
  -8   2  -3   35.80    6.80
  -9  -2  -3 1433.06   41.90
   9  -2   3 1424.46   37.50
  -9  -2  -3 1348.07   40.20
  -9   2  -3 1434.06   43.70
   9   2   3 1391.46   37.70
 -10  -2  -3   -2.50    4.80
  10  -2   3    2.10    4.10
 -10   2  -3   -0.90    5.60
  10   2   3    3.00    4.70
 -10  -3   3  890.21   32.40
  10  -3  -3  869.51   31.50
  10   3  -3  970.80   31.10
  10   3  -3  911.41   28.50
 -10   3   3  931.21   29.10
  -9  -3   3  327.77   17.20
   9  -3  -3  341.27   16.60
   9   3  -3  332.37   15.70
   9   3  -3  329.47   14.40
  -9   3   3  349.47   14.40
  -8  -3   3  977.90   32.80
   8  -3  -3 1032.10   31.80
   8   3  -3 1043.50   31.10
   8   3  -3 1060.59   29.30
  -8   3   3  993.70   29.40
   7  -3  -3  603.54   16.80
  -7  -3   3  612.64   22.30
   7  -3  -3  563.34   20.20
   7   3  -3  618.74   20.30
  -7   3   3  597.14   19.00
   7   3  -3  580.04   18.90
  -7   3   3  615.24   26.50
  -6  -3   3 1822.62   50.29
   6  -3  -3 1881.91   48.00
   6   3  -3 1818.72   45.50
  -6   3   3 1802.62   46.90
  -6   3   3 1889.01   43.50
  -6   3   3 1857.51   56.49
   6   3  -3 1850.11   47.90
  -5  -3   3 1386.16   40.20
   5  -3  -3 1439.16   37.50
   5   3  -3 1490.35   37.90
  -5   3   3 1440.16   34.00
   5   3  -3 1426.36   36.20
  -5   3   3 1498.05   45.30
  -5   3   3 1412.66   37.00
  -4  -3   3 1224.18   33.80
   4  -3  -3 1259.57   31.80
  -4  -3   3 1241.18   35.10
   4   3  -3 1252.87   32.40
  -4   3   3 1230.88   32.10
  -4   3   3 1267.17   38.80
  -4   3   3 1266.07   29.40
   4   3  -3 1231.68   31.40
  -3  -3   3  220.38    9.30
  -3  -3   3  232.78   10.30
   3  -3  -3  218.78    7.30
  -3   3   3  220.08    8.10
  -3   3   3  206.68    6.70
  -3   3   3  211.98   11.30
   3   3  -3  214.28    7.90
   3   3  -3  227.98    8.60
  -2  -3   3 1392.86   39.00
   2  -3  -3 1471.75   35.10
  -2  -3   3 1489.25   41.20
   2  -3  -3 1481.05   36.70
   2   3  -3 1492.95   35.60
  -2   3   3 1484.25   42.20
   2   3  -3 1471.05   36.00
  -2   3   3 1523.85   33.80
  -1  -3   3  103.69    6.20
   1  -3  -3  108.09    3.60
  -1  -3   3   94.99    6.90
   1   3  -3  115.89    5.10
  -1   3   3  104.79    6.70
  -1   3   3  112.29    4.40
   1   3  -3  106.99    4.30
   0  -3   3 1565.14   40.50
   0  -3   3 1523.05   44.80
   0  -3  -3 1527.95   39.20
   0  -3  -3 1644.14   36.90
   0   3  -3 1579.94   37.60
   0   3   3 1579.04   36.80
   0   3   3 1547.15   43.10
   0   3  -3 1621.14   37.00
   1  -3   3  215.18    8.10
   1  -3   3  201.58   10.80
  -1  -3  -3  214.38    8.60
  -1  -3  -3  222.68    6.60
  -1   3  -3  220.08    7.00
   1   3   3  206.58    7.50
  -1   3  -3  225.68    7.50
   1   3   3  210.38    9.00
   2  -3   3  568.94   21.00
  -2  -3  -3  557.34   14.90
  -2  -3  -3  561.24   18.10
   2  -3   3  542.65   14.90
  -2   3  -3  567.24   15.50
   2   3   3  543.95   15.40
  -2   3  -3  566.94   15.10
   2   3   3  534.35   17.20
   3  -3   3  505.95   20.30
  -3  -3  -3  535.15   15.00
  -3  -3  -3  525.35   18.60
   3  -3   3  518.75   13.80
   3   3   3  495.55   16.00
  -3   3  -3  524.45   15.60
  -3   3  -3  521.65   14.60
   3   3   3  522.35   15.10
   4  -3   3  447.66   18.70
   4  -3   3  438.56   12.00
  -4  -3  -3  428.36   16.60
  -4  -3  -3  427.26   13.70
   4   3   3  433.46   13.70
  -4   3  -3  430.56   14.50
  -4   3  -3  448.16   13.50
   5  -3   3  963.90   32.90
  -5  -3  -3  944.51   27.10
  -5  -3  -3 1014.90   30.30
   5   3   3 1004.50   26.30
  -5   3  -3  999.00   28.50
  -5   3  -3  957.50   25.80
   6  -3   3 1237.58   39.00
  -6  -3  -3 1169.18   35.40
  -6  -3  -3 1170.78   33.30
   6   3   3 1234.48   31.70
  -6   3  -3 1196.98   31.30
  -6   3  -3 1200.78   34.90
  -7  -3  -3  191.98   11.70
  -7  -3  -3  202.08   10.70
   7  -3   3  212.18   13.20
   7   3   3  199.98    9.70
  -7   3  -3  196.28    9.70
  -7   3  -3  196.58   11.70
  -8  -3  -3 1492.75   43.70
  -8  -3  -3 1505.85   42.60
   8   3   3 1563.34   40.00
  -8   3  -3 1433.96   44.20
  -9  -3  -3  324.27   15.80
  -9  -3  -3  325.47   16.10
   9  -3   3  319.87   13.60
  -9   3  -3  303.37   17.10
   9   3   3  328.37   14.60
   9  -4  -3  198.88   12.70
  -9  -4   3  207.08   14.90
   9   4  -3  197.48   12.00
  -9   4   3  206.88   11.40
   9   4  -3  199.68   11.90
  -8  -4   3   10.40    6.10
   8  -4  -3   20.50    5.00
  -8   4   3   16.60    4.40
  -8   4   3   29.90    9.30
   8   4  -3   24.90    5.40
   8   4  -3   17.30    4.70
  -7  -4   3  636.94   24.60
   7  -4  -3  665.73   21.40
  -7   4   3  652.03   20.70
  -7   4   3  684.03   30.10
   7   4  -3  677.53   21.60
   7   4  -3  672.23   21.40
   6  -4  -3  142.79    7.80
  -6  -4   3  127.49   10.40
  -6   4   3  143.79    6.80
   6   4  -3  132.79    7.90
  -6   4   3  138.39    7.70
   6   4  -3  144.09    8.60
  -6   4   3  140.69   13.90
  -5  -4   3 1260.17   38.40
   5  -4  -3 1305.27   33.60
   5   4  -3 1360.46   34.50
  -5   4   3 1280.77   43.40
   5   4  -3 1283.57   34.10
  -5   4   3 1304.87   31.70
   4  -4  -3  107.59    5.10
  -4  -4   3  108.79    6.90
   4  -4  -3  106.89    5.80
  -4  -4   3   99.89    8.80
  -4   4   3  110.49    5.20
  -4   4   3   88.19    9.70
   4   4  -3  110.09    5.80
   4   4  -3   86.39    6.10
   3  -4  -3 2364.86   54.99
  -3  -4   3 2422.46   63.19
   3  -4  -3 2299.97   57.29
  -3  -4   3 2322.97   61.19
  -3   4   3 2290.17   66.19
   3   4  -3 2301.47   55.39
   3   4  -3 2346.77   56.19
  -3   4   3 2337.77   53.09
  -2  -4   3  364.26   15.20
   2  -4  -3  369.66    9.70
  -2  -4   3  376.96   14.70
   2  -4  -3  360.56   12.10
  -2   4   3  372.26   16.20
  -2   4   3  389.26   10.90
   2   4  -3  368.06   10.80
   2   4  -3  350.36   12.20
   1  -4  -3 4388.16  103.29
  -1  -4   3 4384.66  113.59
  -1  -4   3 4400.76  105.89
   1  -4  -3 4608.14   99.39
   1   4  -3 4312.27   97.79
   1   4  -3 4160.08  100.39
  -1   4   3 4447.55   96.79
  -1   4   3 4074.69  112.69
   0  -4  -3   17.60    1.40
   0  -4   3   15.60    3.70
   0  -4   3   17.40    4.70
   0  -4  -3   13.20    3.00
   0   4  -3   15.50    1.90
   0   4  -3    9.50    2.40
   0   4   3    8.20    2.30
   0   4   3   13.70    3.80
  -1  -4  -3 5256.97  127.59
   1  -4   3 5516.25  126.99
   1  -4   3 5273.97  139.49
  -1  -4  -3 5479.05  122.69
   1   4   3 5241.08  135.89
   1   4   3 5307.77  119.29
  -1   4  -3 5409.06  118.99
  -1   4  -3 5321.47  123.49
   2  -4   3   53.39    7.60
  -2  -4  -3   67.49    6.70
   2  -4   3   66.99    4.50
  -2  -4  -3   57.99    3.30
   2   4   3   55.69    5.70
  -2   4  -3   58.09    4.20
  -2   4  -3   55.89    3.90
   2   4   3   52.89    4.70
  -3  -4  -3 2590.74   66.69
   3  -4   3 2573.14   60.69
  -3  -4  -3 2554.64   60.59
   3   4   3 2513.65   59.69
   3   4   3 2467.45   66.59
  -3   4  -3 2496.05   61.39
  -3   4  -3 2503.85   58.69
  -4  -4  -3   57.49    4.80
   4  -4   3   52.59    3.70
  -4  -4  -3   43.00    6.50
   4  -4   3   47.10    8.20
  -4   4  -3   48.30    4.90
   4   4   3   42.80    4.80
   4   4   3   50.69    5.30
  -4   4  -3   49.20    4.90
  -5  -4  -3 1456.35   37.80
   5  -4   3 1441.86   36.30
   5  -4   3 1353.96   46.20
  -5  -4  -3 1442.76   42.10
   5   4   3 1468.05   37.20
  -5   4  -3 1470.15   39.20
  -5   4  -3 1363.76   35.90
   6  -4   3  193.28   14.30
  -6  -4  -3  215.08   10.30
  -6  -4  -3  243.48   13.70
  -6   4  -3  223.58   11.80
   6   4   3  232.08   10.60
  -6   4  -3  228.28   10.30
   7  -4   3 1332.17   44.50
  -7  -4  -3 1264.07   36.80
  -7  -4  -3 1278.07   40.10
  -7   4  -3 1338.67   39.10
  -7   4  -3 1275.77   34.90
   7   4   3 1366.76   36.20
  -8  -4  -3   92.39   10.60
  -8  -4  -3  105.09    9.30
   8  -4   3   95.59   11.80
  -8   4  -3  102.39    8.60
   8   4   3   94.49    8.50
  -8   4  -3   96.39   10.10
  -9  -4  -3  402.86   17.70
  -9  -4  -3  397.46   19.50
   9   4   3  393.76   17.30
  -9   4  -3  410.66   19.80
   8  -5  -3  942.01   28.80
  -8  -5   3  905.61   33.50
  -8   5   3  981.80   40.50
   8   5  -3  949.31   28.60
   8   5  -3  891.61   28.70
  -7  -5   3  371.46   19.00
   7  -5  -3  433.46   15.80
  -7   5   3  382.46   23.70
   7   5  -3  396.46   16.10
   7   5  -3  424.06   15.50
  -6  -5   3  449.16   20.20
   6  -5  -3  449.66   16.00
   6   5  -3  457.05   16.90
  -6   5   3  457.15   24.80
   6   5  -3  440.56   15.30
   5  -5  -3  583.84   18.60
  -5  -5   3  575.14   22.50
   5   5  -3  575.34   17.70
  -5   5   3  577.34   27.00
   5   5  -3  588.54   19.20
  -5   5   3  563.54   16.80
   4  -5  -3 1389.96   37.30
  -4  -5   3 1400.46   41.70
  -4   5   3 1372.16   46.90
   4   5  -3 1439.76   36.90
  -4   5   3 1385.56   34.30
   4   5  -3 1433.86   35.80
  -3  -5   3  103.09    8.40
   3  -5  -3   94.29    6.40
  -3  -5   3  100.09    9.10
  -3   5   3  105.69    5.60
   3   5  -3   92.09    6.50
  -3   5   3   77.79    9.60
  -2  -5   3 3800.92   98.49
   2  -5  -3 3731.33   89.29
  -2  -5   3 3711.63   92.59
  -2   5   3 3663.63   83.19
  -2   5   3 3642.54  100.49
   2   5  -3 3551.54   84.79
  -1  -5   3   44.60    7.00
   1  -5  -3   51.29    5.50
  -1  -5   3   55.99    6.70
  -1   5   3   47.10    4.50
   1   5  -3   40.50    4.70
  -1   5   3   41.60    6.60
   0  -5  -3 2997.50   74.79
   0  -5   3 3067.09   83.79
   0  -5   3 3053.29   76.29
   0   5   3 2927.21   81.99
   0   5   3 2973.70   69.39
   0   5  -3 3024.80   70.09
  -1  -5  -3    3.60    2.80
   1  -5   3    1.40    2.70
   1  -5   3    4.40    3.80
   1   5   3    1.30    3.40
   1   5   3    2.60    2.60
  -1   5  -3    3.70    2.50
   2  -5   3 3610.74   86.49
  -2  -5  -3 3677.93   90.29
   2  -5   3 3481.35   98.69
  -2   5  -3 3527.25   81.59
   2   5   3 3543.25   94.39
   2   5   3 3477.25   81.99
  -3  -5  -3   75.09    8.50
   3  -5   3  105.59    6.20
   3  -5   3  114.79   12.30
   3   5   3  106.19    8.10
  -3   5  -3   99.89    6.30
   3   5   3  118.79    7.50
   4  -5   3 1289.27   32.40
   4  -5   3 1132.19   42.50
  -4  -5  -3 1239.98   38.30
   4   5   3 1246.88   33.20
  -4   5  -3 1212.38   32.10
   5  -5   3  588.44   27.40
  -5  -5  -3  654.83   24.60
  -5  -5  -3  644.14   19.50
   5   5   3  622.24   20.70
  -5   5  -3  632.34   19.60
   6  -5   3  841.02   34.80
  -6  -5  -3  891.01   30.90
  -6  -5  -3  868.51   25.70
  -6   5  -3  846.92   25.30
   6   5   3  880.71   26.90
  -7  -5  -3  170.68   13.40
   7  -5   3  178.08   15.60
  -7  -5  -3  180.58   10.10
  -7   5  -3  179.68   10.40
   7   5   3  200.28   11.90
  -8  -5  -3  688.23   27.40
  -8  -5  -3  641.24   22.70
   8  -5   3  652.63   30.30
  -8   5  -3  636.14   21.90
   8   5   3  697.73   24.10
  -7  -6   3  793.42   31.70
   7  -6  -3  891.41   27.50
   7   6  -3  899.61   27.80
  -7   6   3  854.61   38.80
   6  -6  -3  112.19    8.50
  -6  -6   3  148.99   13.30
   6   6  -3   95.59    8.70
  -6   6   3  121.49   15.90
   5  -6  -3  714.83   23.10
  -5  -6   3  737.03   27.40
  -5   6   3  772.72   33.20
  -5   6   3  690.23   20.80
   5   6  -3  736.03   23.30
   4  -6  -3  199.18   10.20
  -4  -6   3  197.28   13.10
  -4   6   3  181.98    8.90
   4   6  -3  200.18   10.40
  -4   6   3  225.48   17.20
   3  -6  -3  333.77   13.90
  -3  -6   3  377.26   17.30
  -3  -6   3  366.46   17.00
  -3   6   3  349.67   20.30
   3   6  -3  351.06   13.90
  -3   6   3  368.86   12.60
  -2  -6   3  173.08   11.80
  -2  -6   3  183.48   11.50
   2  -6  -3  157.28    9.30
  -2   6   3  143.29   12.60
   2   6  -3  154.18    9.20
  -2   6   3  160.58    8.10
   1  -6  -3  458.75   17.30
  -1  -6   3  447.56   18.70
  -1  -6   3  510.15   21.70
  -1   6   3  522.45   22.90
  -1   6   3  446.36   15.20
   1   6  -3  456.05   16.30
   0  -6   3    6.90    3.90
   0  -6   3    2.40    4.70
   0  -6  -3    9.90    4.10
   0   6   3    9.20    3.40
   0   6  -3    6.80    3.40
   0   6   3   10.70    5.50
  -1  -6  -3  347.67   16.10
   1  -6   3  398.56   20.10
   1  -6   3  383.56   15.90
   1   6   3  368.76   18.20
   1   6   3  379.46   13.80
  -1   6  -3  335.27   13.40
  -2  -6  -3   23.70    6.00
   2  -6   3   14.20    4.20
   2  -6   3   17.20    6.60
  -2   6  -3    7.30    3.80
   2   6   3   10.20    3.90
   3  -6   3  500.55   25.10
  -3  -6  -3  509.95   21.80
   3  -6   3  499.45   17.80
  -3   6  -3  520.55   17.40
   3   6   3  538.55   21.60
   3   6   3  550.94   18.20
   4  -6   3  204.38   16.00
  -4  -6  -3  245.58   14.60
   4   6   3  229.58   11.40
  -4   6  -3  211.48   10.80
  -5  -6  -3  816.22   29.70
   5  -6   3  750.32   33.80
  -5   6  -3  798.32   24.20
   5   6   3  763.22   25.00
  -6  -6  -3  383.66   19.60
   6  -6   3  370.86   22.80
  -6   6  -3  397.76   15.80
   6   6   3  390.36   16.50
   7  -6   3  599.34   30.90
  -7  -6  -3  616.84   26.60
   7   6   3  660.83   23.50
  -7   6  -3  621.74   21.70
  -6  -7   3 1123.99   38.30
   6  -7  -3 1100.29   33.70
   6   7  -3 1066.09   32.80
  -6   7   3 1086.79   45.50
   5  -7  -3   85.69    8.50
  -5  -7   3  109.49   11.70
   5   7  -3   83.59    8.50
  -5   7   3  128.59   16.60
   4  -7  -3  533.85   20.20
  -4  -7   3  535.25   23.30
  -4   7   3  572.04   18.30
   4   7  -3  518.35   19.50
  -4   7   3  600.34   29.10
  -3  -7   3  151.28   12.90
   3  -7  -3  118.99    9.50
  -3   7   3  133.49    8.40
  -3   7   3  124.09   14.10
   3   7  -3  125.79    9.90
   2  -7  -3  191.68   11.80
  -2  -7   3  223.38   14.50
  -2  -7   3  230.38   13.90
   2   7  -3  198.08   11.10
  -2   7   3  216.38   10.50
  -2   7   3  240.68   17.00
   1  -7  -3  267.27   14.20
  -1  -7   3  282.47   16.90
  -1  -7   3  314.67   15.90
  -1   7   3  254.87   12.00
   1   7  -3  260.37   12.90
  -1   7   3  283.37   18.40
   0  -7   3   31.90    6.60
   0  -7  -3   41.40    7.20
   0  -7   3   41.80    7.90
   0   7   3   40.00    5.80
   0   7   3   47.50    9.30
   0   7  -3   27.10    5.20
  -1  -7  -3   56.69    8.30
   1  -7   3   52.39    7.50
   1  -7   3   62.69   10.30
  -1   7  -3   57.69    6.90
   1   7   3   58.09    9.60
   1   7   3   47.30    6.10
   2  -7   3  286.07   14.90
   2  -7   3  349.57   20.20
  -2  -7  -3  338.47   18.10
  -2   7  -3  308.97   13.70
   2   7   3  330.47   18.30
   2   7   3  313.17   13.60
   3  -7   3   40.70    9.20
  -3  -7  -3   12.90    6.20
  -3   7  -3   27.50    5.50
   3   7   3   27.90    5.50
   4  -7   3  486.45   26.80
  -4  -7  -3  495.85   23.20
  -4   7  -3  498.15   18.60
   4   7   3  504.65   19.00
  -5  -7  -3  109.79   12.10
   5  -7   3  145.49   17.30
  -5   7  -3  124.59   10.00
   5   7   3  125.69   10.50
  -6  -7  -3  519.95   24.20
   6  -7   3  484.95   28.50
   6   7   3  514.65   20.80
  -6   7  -3  495.75   19.40
  -4  -8   3  146.69   13.80
   4  -8  -3  165.68   12.10
   4   8  -3  145.29   11.50
  -4   8   3  164.58   18.70
  -3  -8   3 1399.86   44.30
   3  -8  -3 1410.16   42.40
  -3   8   3 1374.76   38.10
  -3   8   3 1390.06   51.69
   3   8  -3 1385.26   39.30
  -2  -8   3  199.88   15.10
  -2  -8   3  188.08   14.20
   2  -8  -3  190.78   13.40
  -2   8   3  214.48   11.70
  -2   8   3  193.68   19.20
   2   8  -3  194.98   12.50
  -1  -8   3 1009.60   37.60
  -1  -8   3  989.00   34.00
   1  -8  -3  979.10   34.00
  -1   8   3  986.80   39.70
  -1   8   3  988.80   29.40
   1   8  -3  977.80   30.70
   0  -8  -3   -4.30    4.90
   0  -8   3   -2.50    6.00
   0  -8   3    6.80    5.50
   0   8   3    4.90    6.40
   0   8  -3   -4.40    4.30
   0   8   3    7.10    4.80
  -1  -8  -3 1267.27   43.00
   1  -8   3 1259.77   40.60
   1  -8   3 1278.57   46.40
   1   8   3 1370.76   46.60
   1   8   3 1269.57   35.80
  -1   8  -3 1267.27   37.10
  -2  -8  -3   28.00    8.10
   2  -8   3   28.60    9.30
   2   8   3   28.80    6.20
  -2   8  -3   27.00    6.80
   2   8   3   41.10    8.80
  -3  -8  -3 1147.69   40.80
   3  -8   3 1191.68   45.80
  -3   8  -3 1130.89   34.30
   3   8   3 1151.28   33.60
  -4  -8  -3  206.68   16.50
   4  -8   3  205.88   20.50
   4   8   3  224.98   13.20
  -4   8  -3  202.18   13.10
 -10   0   4 1383.26   41.30
  10   0  -4 1456.05   44.10
  -9   0   4    1.70    4.00
   9   0  -4    5.10    5.20
   8   0  -4  112.79    6.30
  -8   0   4  110.19    8.20
   8   0  -4  107.09    9.80
   7   0  -4    0.10    1.80
  -7   0   4   -0.90    2.40
   7   0  -4   -2.90    3.20
   6   0  -4  562.04   15.00
  -6   0   4  546.85   17.70
  -6   0   4  577.64   18.80
  -5   0   4    1.70    2.00
   5   0  -4   22.90    3.90
  -5   0   4    1.30    2.00
   5   0  -4    0.30    1.20
   4   0  -4  501.95   15.90
   4   0  -4  515.45   12.90
  -4   0   4  524.45   16.20
  -4   0   4  526.45   15.40
  -3   0   4    1.10    1.80
   3   0  -4   -3.70    1.30
   3   0  -4   -3.20    0.70
  -3   0   4   -3.70    1.30
   2   0  -4  797.72   21.10
  -2   0   4  811.72   23.10
  -2   0   4  821.82   20.90
   2   0  -4  829.22   18.30
  -1   0   4   -2.40    1.40
   1   0  -4   -2.10    0.50
   1   0  -4   -4.00    0.80
  -1   0   4   -4.40    0.70
   0   0  -4  258.47    6.50
   0   0   4  256.57    6.80
   0   0   4  226.78    8.80
  -1   0  -4   -0.20    0.50
   1   0   4   -0.80    1.00
  -1   0  -4    0.40    0.90
  -1   0  -4    0.00    0.80
  -2   0  -4  810.02   20.50
   2   0   4  792.32   22.20
  -2   0  -4  737.03   19.50
   3   0   4   -1.50    0.90
  -3   0  -4    3.30    1.20
  -3   0  -4    0.70    1.40
   3   0   4   -1.10    1.30
  -4   0  -4 4324.17   98.69
   4   0   4 4163.08   93.99
   4   0   4 4223.58  106.19
  -4   0  -4 4233.28  100.49
  -5   0  -4    0.30    2.20
  -5   0  -4   -0.20    1.30
   5   0   4    1.10    1.80
   5   0   4   -0.30    1.60
   6   0   4 2514.15   61.29
  -6   0  -4 2762.82   63.99
   6   0   4 2699.43   68.29
  -6   0  -4 2615.64   66.59
   7   0   4   -0.20    2.60
  -7   0  -4    3.10    3.30
  -7   0  -4    3.40    2.20
   8   0   4 2947.91   69.39
  -8   0  -4 2920.91   75.79
  -9   0  -4    5.50    5.10
   9   0   4    1.10    3.90
  10   0   4 1615.34   43.60
 -10   0  -4 1682.43   49.80
  10  -1  -4   83.09    9.80
 -10  -1   4   87.09    9.40
  10   1  -4   97.79   10.80
 -10   1   4   98.49    9.00
   9  -1  -4  774.52   28.30
  -9  -1   4  836.92   27.50
  -9   1   4  816.12   26.30
   9   1  -4  888.51   28.80
  -8  -1   4  229.98   11.70
   8  -1  -4  179.58   11.80
  -8   1   4  200.58   10.50
   8   1  -4  202.68    9.00
  -7  -1   4 1051.59   30.30
   7  -1  -4 1032.10   25.60
  -7   1   4 1022.30   29.20
   7   1  -4 1016.60   26.50
   6  -1  -4  693.43   22.10
  -6  -1   4  699.13   21.30
   6  -1  -4  682.83   17.40
  -6   1   4  681.33   20.50
   6   1  -4  668.83   21.80
   6   1  -4  661.13   18.30
  -6   1   4  701.43   23.40
   5  -1  -4  831.12   19.90
  -5  -1   4  854.41   23.50
  -5  -1   4  802.12   23.70
   5  -1  -4  823.12   24.20
  -5   1   4  863.91   25.90
  -5   1   4  841.32   23.20
   5   1  -4  819.82   21.00
   5   1  -4  809.82   24.20
  -4  -1   4   41.90    3.50
  -4  -1   4   42.80    4.00
   4  -1  -4   39.90    2.20
   4  -1  -4   41.20    4.10
  -4   1   4   50.89    5.00
   4   1  -4   41.90    4.10
  -4   1   4   42.80    3.50
   4   1  -4   47.50    3.20
   3  -1  -4 3481.25   74.39
  -3  -1   4 3341.47   85.59
  -3  -1   4 3366.16   80.89
   3  -1  -4 3494.05   80.49
   3   1  -4 3407.66   80.79
   3   1  -4 3288.37   75.49
  -3   1   4 3457.15   80.59
  -3   1   4 3442.46   86.79
  -2  -1   4   13.00    2.00
   2  -1  -4   19.20    2.20
  -2  -1   4   27.40    3.00
   2   1  -4   17.80    2.30
  -2   1   4   12.90    1.80
  -2   1   4   15.50    2.70
   2   1  -4   14.20    1.60
   1  -1  -4 1857.21   44.10
  -1  -1   4 1913.31   48.80
  -1  -1   4 1816.62   44.20
  -1   1   4 1962.70   40.50
  -1   1   4 1819.62   44.30
   1   1  -4 1931.71   41.30
   1   1  -4 1752.62   44.30
  -1   1   4 1854.21   48.60
   0  -1  -4 3739.33   85.59
   0  -1   4 3744.73   93.49
   0  -1  -4 3645.64   87.89
   0  -1   4 3859.81   86.69
   0   1  -4 3778.82   84.19
   0   1   4 3581.74   92.79
   0   1  -4 3610.24   87.39
   0   1   4 3645.54   82.49
   1  -1   4  826.52   23.90
  -1  -1  -4  804.32   20.60
  -1  -1  -4  843.62   20.60
  -1   1  -4  805.22   19.50
  -1   1  -4  806.82   20.90
   1   1   4  801.52   22.90
   1   1   4  807.42   19.20
   2  -1   4 3368.16   86.89
  -2  -1  -4 3373.06   79.89
  -2  -1  -4 3442.96   81.09
  -2   1  -4 3413.86   75.59
   2   1   4 3433.26   85.59
  -2   1  -4 3426.46   80.19
   2   1   4 3395.76   75.29
   3  -1   4 2564.74   67.29
  -3  -1  -4 2626.44   62.09
  -3  -1  -4 2357.16   62.59
   3   1   4 2635.14   65.69
  -3   1  -4 2608.94   58.59
  -3   1  -4 2618.54   62.39
   3   1   4 2618.14   58.29
  -3   1  -4 2624.44   59.49
   4  -1   4  839.52   25.70
  -4  -1  -4  834.62   23.70
  -4  -1  -4  881.71   23.90
  -4   1  -4  858.31   22.20
  -4   1  -4  845.62   24.10
  -4   1  -4  878.51   21.10
   4   1   4  870.81   22.00
   4   1   4  885.31   24.00
   5  -1   4 1431.06   40.50
  -5  -1  -4 1424.66   38.30
  -5  -1  -4 1489.45   37.70
  -5   1  -4 1477.65   35.30
   5   1   4 1487.25   38.40
  -5   1  -4 1510.35   39.00
   5   1   4 1409.46   35.30
  -6  -1  -4  347.87   13.70
   6  -1   4  338.77   13.40
   6  -1   4  362.16   12.10
  -6  -1  -4  359.26   12.60
  -6   1  -4  345.37   14.00
   6   1   4  365.86   12.20
  -6   1  -4  358.96   10.80
   7  -1   4 1854.41   45.40
  -7  -1  -4 1855.81   47.70
  -7  -1  -4 1818.02   49.70
   7   1   4 1861.41   45.50
  -7   1  -4 1884.91   50.49
  -8  -1  -4   35.60    6.10
   8  -1   4   30.60    4.80
  -8  -1  -4   32.50    4.80
  -8   1  -4   28.60    5.90
   8   1   4   30.90    4.70
  -9  -1  -4 1075.99   35.00
   9  -1   4 1140.19   31.10
  -9   1  -4 1102.69   35.80
   9   1   4 1109.99   31.20
  10  -1   4  100.09    9.00
 -10  -1  -4   79.39    9.90
 -10   1  -4   79.59   10.60
  10   1   4   79.59    8.00
 -10  -2   4  370.36   18.50
  10  -2  -4  343.47   18.10
 -10   2   4  406.06   16.90
  10   2  -4  421.86   19.00
  -9  -2   4   -1.60    4.40
   9  -2  -4    1.10    4.80
  -9   2   4    2.10    3.70
   9   2  -4   11.10    5.40
   9   2  -4    0.80    3.20
  -8  -2   4 1858.21   50.69
   8  -2  -4 1738.33   50.29
  -8   2   4 1807.02   48.30
   8   2  -4 1869.21   45.50
   8   2  -4 1849.91   49.99
  -7  -2   4    8.10    4.00
   7  -2  -4    3.00    3.80
   7   2  -4    6.40    3.90
   7   2  -4    4.90    2.80
  -7   2   4    7.00    4.70
  -7   2   4    8.90    3.40
   6  -2  -4 1886.31   49.30
  -6  -2   4 1903.51   49.99
   6  -2  -4 1940.31   43.40
  -6   2   4 1834.92   47.90
   6   2  -4 1908.31   49.30
   6   2  -4 1853.31   45.30
  -6   2   4 1868.11   54.69
   5  -2  -4  279.97    8.10
   5  -2  -4  271.27   10.80
  -5  -2   4  277.57   11.60
  -5  -2   4  277.17    9.60
  -5   2   4  270.77   10.20
   5   2  -4  277.97    9.80
  -5   2   4  281.57   13.20
   5   2  -4  264.97   10.80
  -4  -2   4 4740.03  117.49
   4  -2  -4 4766.92  110.89
  -4  -2   4 4853.21  112.79
  -4   2   4 4780.42  102.89
   4   2  -4 4542.75  111.19
  -4   2   4 4663.33  120.69
  -4   2   4 4774.42  111.19
   4   2  -4 4599.44  104.99
  -3  -2   4  212.88    8.70
   3  -2  -4  224.88    7.80
  -3  -2   4  228.48    8.90
  -3   2   4  221.28    6.10
  -3   2   4  208.68    7.90
  -3   2   4  215.28   10.10
   3   2  -4  208.28    8.10
   3   2  -4  220.38    7.80
  -2  -2   4 6865.51  157.68
  -2  -2   4 6933.31  168.08
   2  -2  -4 6543.35  156.48
  -2   2   4 7001.60  148.89
  -2   2   4 6588.74  168.48
   2   2  -4 6747.73  159.58
   2   2  -4 6514.35  151.48
  -2   2   4 6945.11  163.98
  -1  -2   4  642.94   17.70
   1  -2  -4  643.94   16.40
  -1  -2   4  664.53   20.40
   1  -2  -4  632.64   17.10
   1   2  -4  666.13   16.30
  -1   2   4  665.43   15.40
  -1   2   4  639.84   19.90
   1   2  -4  617.84   17.00
   0  -2  -4 7300.77  171.08
   0  -2   4 7567.04  171.98
   0  -2   4 7543.35  180.78
   0  -2  -4 7397.16  170.68
   0   2   4 6964.40  160.68
   0   2   4 7286.37  182.18
   0   2  -4 6863.61  173.18
   0   2  -4 7021.70  164.28
  -1  -2  -4    7.30    1.80
   1  -2   4    7.20    1.30
  -1  -2  -4    6.50    1.30
   1  -2   4    4.50    2.50
  -1   2  -4    6.30    1.50
  -1   2  -4    7.60    1.60
   1   2   4   11.20    1.70
   1   2   4    4.50    1.80
   2  -2   4 2775.62   68.09
  -2  -2  -4 3000.70   69.19
  -2  -2  -4 3033.30   71.39
   2  -2   4 2923.91   77.29
  -2   2  -4 2971.90   65.89
   2   2   4 2891.51   65.59
   2   2   4 2968.20   74.59
  -2   2  -4 2933.81   69.59
   3  -2   4   16.50    3.80
  -3  -2  -4   15.90    3.50
   3  -2   4   20.60    1.30
  -3  -2  -4   18.70    2.70
   3   2   4   18.50    2.60
  -3   2  -4   15.60    2.70
   3   2   4   20.60    2.70
  -3   2  -4   11.30    2.20
  -4  -2  -4  808.12   25.20
  -4  -2  -4  853.41   23.70
   4  -2   4  850.41   27.40
  -4   2  -4  887.41   20.90
   4   2   4  833.42   22.20
  -4   2  -4  846.12   22.30
   4   2   4  897.61   23.90
  -4   2  -4  886.31   24.50
  -5  -2  -4   40.70    5.20
   5  -2   4   40.60    5.60
  -5  -2  -4   45.00    4.90
  -5   2  -4   50.99    4.80
   5   2   4   38.00    4.10
  -5   2  -4   38.60    4.80
   5   2   4   42.30    3.30
  -5   2  -4   44.20    2.70
  -6  -2  -4  432.06   16.10
  -6  -2  -4  449.26   16.10
   6  -2   4  453.05   17.70
   6   2   4  456.45   14.60
  -6   2  -4  465.85   17.00
  -6   2  -4  448.46   14.70
  -7  -2  -4    0.60    2.90
   7  -2   4    0.00    3.10
   7  -2   4    1.20    2.70
  -7  -2  -4   -0.80    3.00
  -7   2  -4   -2.10    3.40
   7   2   4    7.30    3.50
  -8  -2  -4   94.19    8.40
  -8  -2  -4   91.59    9.00
   8  -2   4  109.39    7.50
   8   2   4  103.99    7.40
  -8   2  -4   99.69    9.80
  -9  -2  -4   24.10    6.20
  -9  -2  -4   40.70    6.20
   9  -2   4   21.60    4.80
   9   2   4   27.00    5.60
  -9   2  -4   25.10    7.20
 -10  -2  -4  150.08   13.00
  10  -2   4  156.68   10.00
 -10   2  -4  134.29   13.40
  10   2   4  159.18   11.00
   9  -3  -4  630.54   24.10
  -9  -3   4  658.73   25.60
   9   3  -4  699.93   24.10
  -9   3   4  641.44   22.40
   9   3  -4  688.83   22.20
  -8  -3   4  582.44   22.80
   8  -3  -4  585.64   21.40
  -8   3   4  597.84   19.90
   8   3  -4  590.94   19.50
   8   3  -4  589.34   20.80
   7  -3  -4 1808.02   47.30
  -7  -3   4 1740.43   49.40
  -7   3   4 1672.63   45.80
  -7   3   4 1840.52   56.09
   7   3  -4 1752.12   46.90
   7   3  -4 1743.23   44.20
  -6  -3   4    5.50    4.10
   6  -3  -4    6.90    3.10
  -6   3   4    2.90    4.60
   6   3  -4    6.20    2.90
   6   3  -4    3.90    3.00
  -6   3   4    6.50    2.70
   5  -3  -4 2657.63   65.39
  -5  -3   4 2789.72   68.99
   5   3  -4 2758.02   63.09
  -5   3   4 2686.33   74.89
  -5   3   4 2540.65   65.49
  -5   3   4 2687.93   60.39
   5   3  -4 2664.13   65.99
  -4  -3   4    1.40    2.80
   4  -3  -4    3.70    1.80
  -4  -3   4    1.70    2.10
  -4   3   4    5.60    3.40
  -4   3   4    6.10    1.60
   4   3  -4    4.10    2.20
   4   3  -4    2.90    2.10
  -4   3   4    1.90    2.10
  -3  -3   4 1832.92   49.50
   3  -3  -4 1862.11   44.00
  -3  -3   4 1833.92   47.70
  -3   3   4 1832.72   45.30
  -3   3   4 1842.62   51.69
   3   3  -4 1766.92   43.40
  -3   3   4 1858.41   41.20
   3   3  -4 1783.32   45.00
  -2  -3   4    2.10    2.30
   2  -3  -4    3.00    1.60
   2  -3  -4    1.80    1.10
  -2  -3   4    2.30    2.30
  -2   3   4    5.90    2.90
  -2   3   4    3.60    1.30
   2   3  -4    0.20    1.40
   2   3  -4    0.00    1.60
  -1  -3   4 3013.10   76.09
  -1  -3   4 3138.69   82.69
   1  -3  -4 3113.99   72.59
   1  -3  -4 3157.98   74.69
  -1   3   4 3083.39   81.79
   1   3  -4 3063.19   73.49
   1   3  -4 3220.98   70.89
  -1   3   4 3301.47   69.69
   0  -3   4 1601.34   46.80
   0  -3   4 1596.54   41.50
   0  -3  -4 1738.23   38.90
   0  -3  -4 1648.44   40.90
   0   3  -4 1594.94   39.60
   0   3   4 1662.53   45.10
   0   3  -4 1641.24   38.40
   0   3   4 1631.04   38.30
  -1  -3  -4 3227.88   72.09
   1  -3   4 3068.49   82.89
  -1  -3  -4 3187.08   74.69
   1  -3   4 3031.00   74.19
  -1   3  -4 3133.89   69.59
   1   3   4 3006.60   79.49
  -1   3  -4 3048.99   72.69
   1   3   4 3004.50   69.69
   2  -3   4  745.43   20.20
  -2  -3  -4  759.42   20.00
  -2  -3  -4  791.22   23.10
   2  -3   4  737.93   26.30
   2   3   4  753.82   20.00
  -2   3  -4  783.52   20.00
  -2   3  -4  763.52   20.70
   2   3   4  779.72   23.00
   3  -3   4 1665.03   39.70
   3  -3   4 1593.44   48.90
  -3  -3  -4 1654.23   41.10
  -3  -3  -4 1725.13   45.60
  -3   3  -4 1613.14   39.50
  -3   3  -4 1674.63   41.90
   3   3   4 1680.73   39.80
   3   3   4 1678.93   44.30
  -4  -3  -4 1353.06   38.80
   4  -3   4 1434.46   42.70
   4  -3   4 1335.67   32.70
  -4  -3  -4 1287.67   34.90
   4   3   4 1397.16   36.80
   4   3   4 1385.46   34.00
  -4   3  -4 1369.76   33.80
  -4   3  -4 1335.07   36.10
  -5  -3  -4 1044.60   31.70
  -5  -3  -4 1063.89   29.00
   5  -3   4 1097.59   35.20
  -5   3  -4 1042.10   30.00
  -5   3  -4 1021.10   27.40
   5   3   4 1019.40   27.50
  -6  -3  -4  107.99    7.60
   6  -3   4  123.09    9.90
  -6  -3  -4  135.09    9.60
  -6   3  -4  117.79    7.10
   6   3   4  115.99    7.10
  -6   3  -4  105.99    8.40
   7  -3   4  419.66   18.90
  -7  -3  -4  423.66   16.30
  -7  -3  -4  396.96   17.20
  -7   3  -4  424.96   17.70
  -7   3  -4  409.06   15.00
   7   3   4  401.16   14.80
  -8  -3  -4    4.10    4.30
  -8  -3  -4    6.30    4.50
  -8   3  -4    5.00    4.90
   8   3   4    8.30    3.90
  -9  -3  -4  293.77   15.20
  -9  -3  -4  300.27   15.10
   9  -3   4  303.17   13.10
   9   3   4  300.47   13.70
  -9   3  -4  290.37   16.80
  -9  -4   4   89.19   11.20
   9  -4  -4   72.59    8.50
   9   4  -4   81.69    8.70
  -9   4   4   96.49    8.50
   9   4  -4   89.79    8.80
   8  -4  -4  635.34   22.20
  -8  -4   4  625.74   25.60
  -8   4   4  691.13   31.20
   8   4  -4  649.54   22.20
  -8   4   4  658.63   21.70
   8   4  -4  680.43   22.00
  -7  -4   4   88.89   10.10
   7  -4  -4   86.89    7.40
   7   4  -4   91.79    7.80
   7   4  -4   86.59    7.90
  -7   4   4   75.29    6.80
  -7   4   4  103.79   13.40
  -6  -4   4  994.70   32.70
   6  -4  -4 1029.00   28.30
   6   4  -4 1022.40   28.70
  -6   4   4 1033.10   37.90
   6   4  -4 1059.79   29.20
  -6   4   4  988.60   28.70
   5  -4  -4  104.29    5.80
  -5  -4   4   96.29    9.50
   5   4  -4  104.79    7.10
   5   4  -4  101.39    6.50
  -5   4   4  114.99   12.00
  -5   4   4  104.49    5.40
   4  -4  -4  112.69    6.40
   4  -4  -4   97.89    5.00
  -4  -4   4   93.59    8.50
  -4  -4   4  100.19    7.20
  -4   4   4   99.29    4.80
   4   4  -4  100.09    5.80
   4   4  -4  102.49    6.50
  -4   4   4   89.19    9.50
  -3  -4   4   84.29    7.00
   3  -4  -4   90.19    5.50
  -3  -4   4   68.49    7.20
   3  -4  -4   81.19    3.90
  -3   4   4  101.39    9.70
  -3   4   4   91.39    4.40
   3   4  -4   88.59    5.10
   3   4  -4   77.69    5.50
  -2  -4   4   37.00    5.50
  -2  -4   4   56.29    6.10
   2  -4  -4   22.30    3.10
   2  -4  -4   34.90    2.30
   2   4  -4   24.60    3.70
  -2   4   4   16.70    4.30
   2   4  -4   25.40    2.90
  -2   4   4   25.00    2.70
  -1  -4   4   61.39    7.10
   1  -4  -4   77.99    3.20
  -1  -4   4   71.99    6.50
   1  -4  -4   76.09    5.10
  -1   4   4   81.79    4.40
   1   4  -4   75.89    4.00
  -1   4   4   62.79    6.80
   1   4  -4   72.69    4.90
   0  -4  -4  305.07   11.20
   0  -4   4  302.57   15.00
   0  -4  -4  316.27    8.40
   0  -4   4  283.97   11.80
   0   4  -4  293.07   10.20
   0   4   4  298.77    9.90
   0   4   4  284.67   13.00
   0   4  -4  288.37    9.10
   1  -4   4   70.49    5.70
  -1  -4  -4   75.49    6.40
  -1  -4  -4   77.39    3.50
   1  -4   4   45.30    6.80
   1   4   4   70.39    4.90
  -1   4  -4   75.19    4.90
  -1   4  -4   74.59    4.10
   1   4   4   64.29    6.60
  -2  -4  -4 1294.77   31.80
  -2  -4  -4 1313.77   36.40
   2  -4   4 1293.17   33.60
   2  -4   4 1239.18   41.20
  -2   4  -4 1299.57   32.70
   2   4   4 1292.57   37.10
  -2   4  -4 1278.37   31.90
   2   4   4 1246.08   32.30
  -3  -4  -4  147.29   10.00
   3  -4   4  150.28   11.70
   3  -4   4  152.98    6.50
  -3  -4  -4  143.59    6.40
  -3   4  -4  152.08    7.40
  -3   4  -4  156.68    7.40
   3   4   4  156.78    7.80
   3   4   4  141.89    8.00
  -4  -4  -4 1966.30   49.80
   4  -4   4 2029.80   60.79
  -4  -4  -4 2110.19   55.79
   4   4   4 1969.10   53.69
   4   4   4 1999.30   48.90
  -4   4  -4 1998.20   51.09
  -4   4  -4 1982.40   48.30
   5  -4   4  135.29   11.40
  -5  -4  -4  144.79    7.60
  -5  -4  -4  134.79   10.50
  -5   4  -4  140.59    8.70
   5   4   4  135.19    7.90
  -5   4  -4  124.09    7.20
  -6  -4  -4 2047.00   52.39
  -6  -4  -4 2135.19   57.09
   6  -4   4 1980.60   61.79
  -6   4  -4 2036.90   54.29
  -6   4  -4 1960.80   49.80
   6   4   4 1983.00   50.49
  -7  -4  -4    5.50    3.80
   7  -4   4    8.30    5.40
  -7  -4  -4    1.10    4.40
   7   4   4    0.30    3.70
  -7   4  -4   -1.00    3.20
  -7   4  -4    4.70    4.60
  -8  -4  -4 1808.52   52.39
   8  -4   4 1822.62   56.79
  -8  -4  -4 1828.52   49.70
  -8   4  -4 1767.72   51.79
  -8   4  -4 1745.53   46.60
   8   4   4 1810.62   47.50
  -9  -4  -4    5.80    5.70
  -9  -4  -4    0.20    4.60
   9   4   4    4.20    4.40
  -9   4  -4    2.40    5.60
  -8  -5   4  231.28   16.20
   8  -5  -4  262.57   12.90
   8   5  -4  245.08   13.20
   8   5  -4  242.58   12.20
  -8   5   4  227.28   19.80
   7  -5  -4  357.36   14.50
  -7  -5   4  324.47   18.10
   7   5  -4  347.27   14.90
  -7   5   4  401.46   23.80
   7   5  -4  338.37   14.00
  -6  -5   4   15.00    6.00
   6  -5  -4   21.80    4.60
  -6   5   4   29.40    9.20
   6   5  -4   16.00    4.80
   6   5  -4   15.10    4.00
  -5  -5   4  344.37   17.10
   5  -5  -4  383.66   14.30
   5   5  -4  399.86   13.40
  -5   5   4  383.56   21.20
   5   5  -4  388.06   14.70
  -4  -5   4   26.40    5.80
   4  -5  -4   34.60    4.70
  -4   5   4   25.80    3.40
   4   5  -4   27.90    4.60
   4   5  -4   31.30    3.80
  -4   5   4   24.10    6.80
  -3  -5   4  224.18   12.20
  -3  -5   4  235.08   12.60
   3  -5  -4  199.78    9.30
   3   5  -4  220.78    8.20
  -3   5   4  217.58    8.20
   3   5  -4  224.88   10.10
  -3   5   4  185.88   13.10
  -2  -5   4    4.90    4.00
  -2  -5   4    3.60    3.40
   2  -5  -4   -0.50    2.50
  -2   5   4    4.70    2.30
   2   5  -4   -1.20    2.80
  -2   5   4    0.30    3.60
  -1  -5   4  776.92   28.20
   1  -5  -4  767.32   22.90
  -1  -5   4  786.72   24.80
  -1   5   4  762.22   20.60
   1   5  -4  718.23   21.70
  -1   5   4  733.83   27.10
   0  -5   4  705.73   26.60
   0  -5   4  655.53   22.00
   0  -5  -4  669.03   21.20
   0   5  -4  647.64   19.60
   0   5   4  650.23   18.90
   0   5   4  665.03   24.40
   1  -5   4 2263.97   57.29
  -1  -5  -4 2125.19   57.39
   1  -5   4 2227.28   65.59
   1   5   4 2216.48   61.89
   1   5   4 2204.68   52.69
  -1   5  -4 2173.48   52.69
   2  -5   4  487.25   22.80
   2  -5   4  519.45   17.40
  -2  -5  -4  515.35   19.50
   2   5   4  505.05   19.50
   2   5   4  525.15   16.60
  -2   5  -4  492.05   16.00
   3  -5   4 1078.99   39.90
  -3  -5  -4 1135.89   35.80
   3  -5   4 1154.78   30.70
   3   5   4 1095.39   34.60
  -3   5  -4 1106.69   29.70
   3   5   4 1152.48   30.60
   4  -5   4  386.56   21.00
  -4  -5  -4  372.66   17.90
   4   5   4  387.36   14.60
  -4   5  -4  358.66   13.40
  -5  -5  -4 1813.72   50.69
   5  -5   4 1640.04   55.79
  -5  -5  -4 1730.63   44.40
  -5   5  -4 1623.14   43.10
   5   5   4 1742.43   44.80
  -6  -5  -4  144.49   12.70
   6  -5   4  183.38   17.30
  -6  -5  -4  156.28    9.30
   6   5   4  178.78   10.80
  -6   5  -4  185.28    9.70
   7  -5   4 1182.18   44.90
  -7  -5  -4 1296.47   40.50
  -7  -5  -4 1177.48   34.80
  -7   5  -4 1217.28   34.00
   7   5   4 1193.18   35.00
  -8  -5  -4    7.90    4.80
  -8  -5  -4    4.90    6.00
   8  -5   4   19.90    8.30
  -8   5  -4   13.60    5.20
   8   5   4    7.10    5.60
  -7  -6   4   86.99   11.50
   7  -6  -4   84.89    8.50
  -7   6   4  110.59   15.90
   7   6  -4   83.19    9.00
  -6  -6   4 1183.68   39.20
   6  -6  -4 1168.78   34.30
  -6   6   4 1156.98   46.10
   6   6  -4 1208.18   33.70
   5  -6  -4   30.50    5.20
  -5  -6   4   24.90    7.00
   5   6  -4   38.40    5.70
  -5   6   4   35.90    9.90
   4  -6  -4 2211.78   57.69
  -4  -6   4 2252.37   61.99
  -4   6   4 2195.68   69.59
   4   6  -4 2227.68   55.59
  -4   6   4 2258.27   52.99
  -3  -6   4   13.40    5.20
  -3  -6   4    6.40    4.60
   3  -6  -4   13.50    4.00
   3   6  -4    9.60    4.20
  -3   6   4   21.80    6.70
  -3   6   4   14.40    3.50
  -2  -6   4 2265.07   60.69
  -2  -6   4 2349.06   65.59
   2  -6  -4 2222.28   58.09
  -2   6   4 2267.57   53.29
   2   6  -4 2129.59   54.99
  -2   6   4 2187.48   67.19
  -1  -6   4   46.80    6.70
   1  -6  -4   32.00    5.30
  -1  -6   4   42.00    7.90
  -1   6   4   34.20    7.10
   1   6  -4   41.20    5.60
  -1   6   4   40.80    4.90
   0  -6  -4 2095.79   56.19
   0  -6   4 2209.78   57.09
   0  -6   4 2104.99   63.69
   0   6   4 2032.80   62.29
   0   6  -4 2024.00   51.89
   0   6   4 2126.09   50.99
   1  -6   4  111.29   12.40
   1  -6   4  122.39    9.00
  -1  -6  -4   96.89    9.40
  -1   6  -4  110.89    7.50
   1   6   4  106.89    7.30
   1   6   4  100.79   10.60
  -2  -6  -4 1705.63   48.60
   2  -6   4 1605.84   54.19
   2  -6   4 1621.14   45.40
   2   6   4 1713.13   42.50
  -2   6  -4 1608.04   42.20
   2   6   4 1638.14   50.19
   3  -6   4  280.87   18.60
  -3  -6  -4  267.87   15.60
   3   6   4  277.17   12.10
   3   6   4  281.47   15.00
  -3   6  -4  259.87   12.00
   4  -6   4  449.95   24.90
  -4  -6  -4  445.96   21.20
   4   6   4  509.95   18.10
  -4   6  -4  487.75   17.30
   5  -6   4  262.27   19.60
  -5  -6  -4  231.78   15.50
   5   6   4  269.37   13.40
  -5   6  -4  281.97   12.90
  -6  -6  -4  450.45   21.70
   6  -6   4  419.86   25.40
   6   6   4  487.55   18.50
  -6   6  -4  442.06   17.40
  -7  -6  -4   10.20    6.50
   7  -6   4   11.20    8.40
  -7   6  -4    4.70    4.80
   7   6   4    5.90    5.80
  -6  -7   4  129.39   13.30
   6  -7  -4  128.39   10.30
   6   7  -4  109.39    9.80
  -6   7   4  139.59   17.30
   5  -7  -4 2331.67   61.79
  -5  -7   4 2311.87   65.89
   5   7  -4 2303.27   58.99
  -5   7   4 2349.36   76.29
   4  -7  -4   -0.70    4.00
  -4  -7   4    1.50    5.20
  -4   7   4    3.10    7.10
   4   7  -4    2.70    4.50
   3  -7  -4 2091.59   56.59
  -3  -7   4 2096.29   59.29
  -3   7   4 2024.30   67.19
   3   7  -4 2122.09   53.69
  -3   7   4 2106.89   51.39
   2  -7  -4   13.50    5.00
  -2  -7   4   11.70    6.00
  -2  -7   4   12.80    5.50
  -2   7   4   13.00    7.30
   2   7  -4    8.50    4.80
  -2   7   4   12.80    4.10
  -1  -7   4 1727.43   54.19
   1  -7  -4 1685.73   47.80
  -1  -7   4 1682.73   48.40
   1   7  -4 1611.34   44.20
  -1   7   4 1674.63   55.39
  -1   7   4 1653.03   42.80
   0  -7   4  265.87   17.30
   0  -7  -4  238.38   14.00
   0  -7   4  250.67   14.00
   0   7   4  221.88   11.00
   0   7   4  233.08   16.70
   0   7  -4  246.78   12.30
   1  -7   4 1100.89   40.10
   1  -7   4 1040.10   33.10
  -1  -7  -4 1021.10   34.50
   1   7   4  996.00   37.50
   1   7   4  999.70   29.00
  -1   7  -4 1029.00   30.40
  -2  -7  -4  297.17   17.20
   2  -7   4  270.97   18.70
  -2   7  -4  293.17   13.50
   2   7   4  288.97   12.70
   2   7   4  302.87   17.80
  -3  -7  -4  641.74   27.40
   3  -7   4  716.63   32.30
  -3   7  -4  657.93   22.70
   3   7   4  689.93   22.40
  -4  -7  -4  109.19   12.40
   4  -7   4  115.59   15.80
   4   7   4  127.19   10.20
  -4   7  -4  125.19    9.50
   5  -7   4  305.17   22.80
  -5  -7  -4  351.66   19.60
  -5   7  -4  376.16   16.30
   5   7   4  357.96   16.40
  -6  -7  -4   82.89   11.30
   6  -7   4   88.29   14.70
  -6   7  -4   88.99    9.50
   6   7   4   78.19    9.20
  -4  -8   4  383.76   20.10
   4  -8  -4  386.86   18.20
   4   8  -4  399.36   17.60
  -4   8   4  364.16   24.70
  -3  -8   4   22.60    7.20
   3  -8  -4   31.30    7.00
   3   8  -4   43.70    7.40
  -3   8   4   40.40   11.60
  -2  -8   4  576.74   26.10
   2  -8  -4  532.25   22.70
  -2  -8   4  573.94   23.90
   2   8  -4  532.65   20.60
  -2   8   4  557.74   28.70
  -2   8   4  547.85   19.50
  -1  -8   4   89.49   12.10
  -1  -8   4  100.29   10.80
   1  -8  -4   98.59   11.30
  -1   8   4   92.09   13.90
   1   8  -4   97.99    9.50
  -1   8   4  106.69    9.00
   0  -8  -4  351.86   19.10
   0  -8   4  375.66   18.50
   0  -8   4  346.87   21.30
   0   8  -4  352.06   16.40
   0   8   4  393.46   22.90
   0   8   4  386.86   15.80
   1  -8   4   98.09   13.40
  -1  -8  -4  100.89   12.30
   1   8   4   97.69    8.70
   1   8   4   99.29   13.30
  -1   8  -4   97.89   10.00
   2  -8   4  707.73   32.20
  -2  -8  -4  580.34   27.40
   2   8   4  602.04   21.70
  -2   8  -4  666.43   23.80
   2   8   4  690.53   29.60
   3  -8   4  164.78   18.20
  -3  -8  -4  162.68   15.50
   3   8   4  155.08   11.10
  -3   8  -4  141.49   11.80
   4  -8   4  781.12   37.10
  -4  -8  -4  846.12   33.30
   4   8   4  809.12   26.90
  -4   8  -4  825.12   28.00
 -10   0   5    4.50    4.90
  10   0  -5   -1.00    5.60
   9   0  -5 2357.36   65.39
  -9   0   5 2464.65   63.69
  -8   0   5   -0.40    3.40
   8   0  -5    5.50    4.00
   7   0  -5 3860.61   85.49
  -7   0   5 3782.42   93.19
   7   0  -5 3777.52   94.59
   6   0  -5    4.00    1.70
   6   0  -5    0.80    3.10
  -6   0   5    1.90    2.40
  -6   0   5    2.20    2.60
  -5   0   5 3517.25   85.49
  -5   0   5 3636.54   90.89
   5   0  -5 3605.24   78.39
   5   0  -5 3423.26   85.99
   4   0  -5   -1.50    1.70
  -4   0   5   -0.30    1.50
   4   0  -5    1.10    1.10
  -4   0   5    0.80    1.90
  -3   0   5 3901.01   98.99
   3   0  -5 3902.61   85.29
  -3   0   5 3917.21   92.39
   3   0  -5 3955.80   92.49
   2   0  -5    0.90    1.20
  -2   0   5    3.00    1.30
  -2   0   5    0.10    1.50
   2   0  -5    0.40    0.40
   1   0  -5  488.45   10.80
  -1   0   5  476.05   12.60
  -1   0   5  437.56   14.80
   1   0  -5  459.65   13.00
   0   0   5    1.20    0.80
   0   0  -5    3.20    1.20
   0   0  -5    1.60    0.80
   0   0   5   -0.40    1.50
   1   0   5 2587.44   68.69
  -1   0  -5 2695.13   63.29
  -1   0  -5 2722.93   59.39
  -1   0  -5 2706.83   61.99
  -2   0  -5   -0.60    1.40
  -2   0  -5   -0.30    1.20
   2   0   5   -0.70    1.70
   3   0   5  619.54   19.10
  -3   0  -5  618.34   16.00
   3   0   5  601.44   16.00
   4   0   5   -3.30    1.60
   4   0   5   -3.20    1.50
  -4   0  -5    0.20    1.30
  -4   0  -5   -3.70    1.90
  -5   0  -5  104.09    6.60
   5   0   5   97.09    6.20
  -5   0  -5  103.89    4.80
   5   0   5  108.79    5.70
   6   0   5    4.40    2.30
  -6   0  -5    0.70    1.70
  -6   0  -5   -1.10    3.00
   6   0   5    0.00    2.10
   7   0   5  415.96   14.00
  -7   0  -5  400.36   16.40
  -8   0  -5   -2.60    3.50
   8   0   5    0.30    3.20
  -9   0  -5  234.08   14.20
   9   0   5  246.18   11.90
 -10   0  -5    2.60    5.10
  10   0   5    0.80    4.50
 -10  -1   5  951.00   31.30
  10  -1  -5  892.11   32.10
 -10   1   5  898.51   30.00
  10   1  -5  979.70   32.60
   9  -1  -5   21.60    6.30
  -9  -1   5   21.50    5.40
  -9   1   5   19.40    5.00
   9   1  -5   25.90    6.70
   8  -1  -5 1114.49   35.20
  -8  -1   5 1169.28   34.40
   8   1  -5 1177.28   35.20
  -8   1   5 1160.68   33.40
   7  -1  -5   11.50    4.40
  -7  -1   5   13.00    4.00
  -7   1   5    7.60    3.30
   7   1  -5    8.50    2.70
   7   1  -5    9.00    4.20
   6  -1  -5 1495.75   40.30
   6  -1  -5 1476.45   34.10
  -6  -1   5 1466.35   39.70
   6   1  -5 1422.86   40.00
   6   1  -5 1496.45   35.60
  -6   1   5 1508.85   43.00
  -6   1   5 1441.46   38.80
   5  -1  -5  125.79    4.40
  -5  -1   5  122.29    6.60
   5  -1  -5  129.79    7.30
  -5  -1   5  126.29    6.90
   5   1  -5  127.89    5.70
  -5   1   5  119.09    6.60
   5   1  -5  117.39    7.30
  -5   1   5  123.19    7.70
  -4  -1   5 2661.63   64.49
   4  -1  -5 2693.33   57.79
   4  -1  -5 2654.83   64.29
  -4  -1   5 2644.84   67.99
  -4   1   5 2676.53   69.49
  -4   1   5 2677.23   64.09
   4   1  -5 2547.34   64.49
   4   1  -5 2552.74   59.49
   3  -1  -5 2132.49   51.79
  -3  -1   5 2166.48   52.09
  -3  -1   5 2113.09   55.69
   3   1  -5 2121.69   48.10
  -3   1   5 2114.49   56.39
  -3   1   5 2187.58   51.89
   3   1  -5 2077.39   52.09
   2  -1  -5 1698.93   40.70
  -2  -1   5 1663.53   44.70
  -2  -1   5 1709.53   40.90
   2   1  -5 1735.23   37.60
  -2   1   5 1643.64   40.80
   2   1  -5 1599.24   41.00
  -2   1   5 1639.54   45.00
  -1  -1   5 2835.12   66.49
  -1  -1   5 2772.32   72.89
   1  -1  -5 2785.72   66.49
   1   1  -5 2843.82   66.99
  -1   1   5 2871.71   61.39
   1   1  -5 2870.41   62.19
  -1   1   5 2817.42   66.69
  -1   1   5 2858.01   72.89
   0  -1   5 3659.83   94.29
   0  -1  -5 3572.74   87.29
   0  -1   5 3751.42   87.59
   0  -1  -5 3730.63   86.29
   0   1  -5 3563.54   86.49
   0   1   5 3745.23   93.79
   0   1   5 3839.72   82.49
   0   1  -5 3779.72   81.19
   1  -1   5  420.06   14.60
  -1  -1  -5  420.76   12.00
  -1  -1  -5  395.46   11.40
   1  -1   5  415.76    9.90
  -1   1  -5  420.56   11.10
   1   1   5  404.86   13.70
  -1   1  -5  407.86   12.10
   1   1   5  414.36   10.70
  -2  -1  -5 1933.51   46.80
  -2  -1  -5 1946.11   46.50
   2  -1   5 1899.51   51.29
  -2   1  -5 1879.61   46.60
  -2   1  -5 1953.50   43.80
   2   1   5 1868.31   43.30
   2   1   5 1883.91   50.09
  -3  -1  -5   10.20    2.30
  -3  -1  -5   22.80    3.20
   3  -1   5   10.40    2.80
  -3   1  -5   13.60    2.30
   3   1   5   10.00    1.90
   3   1   5   12.00    2.50
  -3   1  -5   15.10    2.70
   4  -1   5  590.24   19.70
  -4  -1  -5  597.34   17.80
  -4  -1  -5  595.04   18.10
  -4   1  -5  579.44   16.70
  -4   1  -5  612.84   18.50
   4   1   5  625.34   18.50
  -4   1  -5  635.34   14.90
   4   1   5  593.44   16.50
   5  -1   5   10.00    3.00
  -5  -1  -5    4.80    2.80
  -5  -1  -5    8.70    2.60
   5   1   5    8.70    2.50
   5   1   5    8.50    2.30
  -5   1  -5    5.90    3.00
  -6  -1  -5 1042.40   28.20
   6  -1   5 1035.80   30.90
  -6  -1  -5 1047.20   29.80
   6  -1   5 1004.80   27.00
  -6   1  -5 1027.60   30.30
   6   1   5 1004.90   26.90
  -7  -1  -5  275.27   11.00
  -7  -1  -5  247.28   12.50
   7  -1   5  277.97   10.90
   7   1   5  275.37   10.90
  -7   1  -5  272.17   13.30
  -8  -1  -5  963.50   30.70
   8  -1   5  954.90   27.20
   8   1   5  979.10   27.50
  -8   1  -5  975.40   31.60
   9  -1   5  269.07   11.90
  -9  -1  -5  240.98   14.30
   9   1   5  235.88   12.00
  -9   1  -5  263.27   14.80
 -10  -1  -5  679.03   26.50
  10  -1   5  661.33   22.60
 -10   1  -5  664.43   27.00
  10   1   5  667.53   22.90
 -10  -2   5    1.80    5.50
  10  -2  -5    3.30    5.20
  10   2  -5   -1.90    5.40
 -10   2   5   -3.70    4.10
   9  -2  -5  186.78   12.70
  -9  -2   5  180.78   12.40
   9   2  -5  182.28   12.30
  -9   2   5  162.38   10.50
  -8  -2   5    1.30    4.00
   8  -2  -5   -1.30    4.00
   8   2  -5    3.50    3.10
   8   2  -5    6.90    4.50
  -8   2   5    3.30    3.70
   7  -2  -5   33.80    5.40
  -7  -2   5   47.40    6.20
  -7   2   5   42.30    7.40
  -7   2   5   54.59    5.80
   7   2  -5   41.20    4.90
   7   2  -5   74.69    7.60
   6  -2  -5   14.70    3.80
  -6  -2   5   21.40    4.50
   6   2  -5   15.50    4.10
   6   2  -5   19.00    3.40
  -6   2   5   20.30    5.10
  -6   2   5   18.90    3.70
   5  -2  -5   95.39    3.80
  -5  -2   5   84.29    6.50
   5  -2  -5   85.29    5.90
  -5  -2   5   95.59    5.60
   5   2  -5   80.59    6.20
   5   2  -5   90.39    5.50
  -5   2   5   84.59    7.40
  -5   2   5   86.69    5.80
  -4  -2   5   14.60    3.20
   4  -2  -5   14.10    2.70
  -4  -2   5   14.90    2.90
  -4   2   5   12.20    2.50
   4   2  -5   15.20    3.00
  -4   2   5   12.30    3.50
   4   2  -5   16.70    2.80
   3  -2  -5  694.53   19.40
  -3  -2   5  734.43   22.20
  -3  -2   5  711.93   20.80
  -3   2   5  746.63   20.10
   3   2  -5  705.73   18.70
  -3   2   5  739.03   23.30
   3   2  -5  711.83   20.20
  -3   2   5  759.32   16.60
  -2  -2   5  221.88    8.20
   2  -2  -5  222.88    7.30
  -2  -2   5  226.98    9.70
  -2   2   5  217.68    7.80
   2   2  -5  212.48    7.10
   2   2  -5  211.58    7.80
  -2   2   5  214.78    9.80
  -2   2   5  215.68    5.50
  -1  -2   5 3449.25   79.69
   1  -2  -5 3253.07   79.49
   1  -2  -5 3387.66   78.79
  -1  -2   5 3355.36   87.29
   1   2  -5 3343.77   74.79
  -1   2   5 3580.54   73.99
  -1   2   5 3383.16   86.79
   1   2  -5 3292.37   79.39
   0  -2  -5   39.20    3.00
   0  -2   5   49.70    2.80
   0  -2   5   46.70    5.20
   0  -2  -5   40.90    2.70
   0   2   5   44.70    2.70
   0   2  -5   38.60    2.70
   0   2   5   36.10    4.00
   0   2  -5   39.90    3.10
   1  -2   5 3613.04   94.99
  -1  -2  -5 3711.03   85.69
   1  -2   5 3764.92   84.49
  -1  -2  -5 3639.14   86.69
  -1   2  -5 3567.94   86.09
  -1   2  -5 3739.23   81.49
   1   2   5 3647.44   93.29
   1   2   5 3682.13   80.99
   2  -2   5    0.90    2.20
  -2  -2  -5    5.00    1.80
  -2  -2  -5    3.20    2.10
  -2   2  -5    4.30    1.60
   2   2   5    2.00    1.40
   2   2   5    0.70    1.80
  -2   2  -5    3.70    1.90
   3  -2   5 4508.15  116.79
  -3  -2  -5 4468.15  106.39
  -3  -2  -5 4527.75  109.49
   3   2   5 4579.94  100.69
  -3   2  -5 4565.54  107.09
  -3   2  -5 4434.36  100.89
   3   2   5 4623.24  113.69
  -4  -2  -5    0.60    2.00
  -4  -2  -5   -1.10    2.40
   4  -2   5    4.70    2.90
  -4   2  -5   -1.00    1.80
  -4   2  -5    1.20    2.00
   4   2   5    0.80    1.70
   4   2   5   -0.50    1.90
  -5  -2  -5 3031.10   75.29
   5  -2   5 3094.29   82.19
  -5  -2  -5 2966.40   76.49
   5   2   5 3029.00   70.79
   5   2   5 3215.38   78.19
  -5   2  -5 3102.39   71.29
  -5   2  -5 3110.29   76.29
   6  -2   5    2.80    3.10
  -6  -2  -5    4.40    3.10
  -6  -2  -5    2.00    2.70
  -6   2  -5    5.50    2.80
   6   2   5   -1.00    2.60
  -6   2  -5    7.20    3.60
  -7  -2  -5 3034.70   77.29
   7  -2   5 3074.29   82.29
  -7  -2  -5 3053.19   76.89
   7  -2   5 3046.50   71.89
   7   2   5 3092.89   72.19
  -7   2  -5 3072.99   78.59
  -8  -2  -5    7.50    3.80
   8  -2   5    7.20    3.80
  -8  -2  -5    6.10    4.00
  -8   2  -5    9.30    5.00
   8   2   5    9.50    4.00
  -9  -2  -5 1404.26   42.20
   9  -2   5 1366.46   37.80
  -9   2  -5 1471.65   43.90
   9   2   5 1362.76   38.00
   9  -3  -5   14.20    5.50
  -9  -3   5   20.10    6.90
   9   3  -5   10.50    5.70
  -9   3   5   16.30    4.90
   8  -3  -5  442.96   17.80
  -8  -3   5  432.96   19.30
  -8   3   5  423.16   16.60
   8   3  -5  450.55   17.80
   8   3  -5  479.15   16.40
  -7  -3   5   38.20    6.20
   7  -3  -5   32.40    5.10
  -7   3   5   36.80    8.10
   7   3  -5   34.40    5.60
   7   3  -5   34.00    5.00
  -7   3   5   35.90    5.10
  -6  -3   5  709.63   24.30
   6  -3  -5  702.93   21.80
  -6   3   5  727.93   27.80
   6   3  -5  719.83   21.10
   6   3  -5  730.13   22.50
  -6   3   5  718.73   21.80
  -5  -3   5  444.66   16.90
   5  -3  -5  438.06   14.40
  -5   3   5  439.86   14.80
   5   3  -5  474.35   15.60
  -5   3   5  450.65   19.40
   5   3  -5  435.96   14.50
  -4  -3   5  843.42   25.70
   4  -3  -5  854.81   22.70
  -4  -3   5  829.02   25.50
  -4   3   5  850.71   28.50
   4   3  -5  814.02   22.70
  -4   3   5  874.11   20.20
   4   3  -5  848.52   23.80
  -4   3   5  825.32   23.50
  -3  -3   5  487.75   16.40
   3  -3  -5  482.95   13.60
  -3  -3   5  463.35   17.00
   3   3  -5  469.75   14.30
  -3   3   5  501.95   18.50
   3   3  -5  457.75   14.50
  -3   3   5  484.45   11.90
  -3   3   5  463.05   14.60
   2  -3  -5 1967.70   46.30
   2  -3  -5 1952.70   47.70
  -2  -3   5 1979.80   49.40
  -2  -3   5 1938.61   53.49
   2   3  -5 1867.91   47.20
   2   3  -5 1904.41   45.40
  -2   3   5 1999.50   43.30
  -2   3   5 1871.01   53.49
  -1  -3   5 1044.10   27.50
   1  -3  -5  995.50   26.50
   1  -3  -5 1014.30   25.00
  -1  -3   5 1035.40   31.50
  -1   3   5 1039.90   24.10
   1   3  -5  947.81   25.80
   1   3  -5 1024.90   25.20
  -1   3   5  983.20   30.40
   0  -3   5 1625.24   40.60
   0  -3  -5 1586.54   40.50
   0  -3  -5 1656.93   38.80
   0  -3   5 1650.73   47.00
   0   3   5 1629.74   44.80
   0   3  -5 1621.34   38.10
   0   3  -5 1565.34   39.60
   0   3   5 1600.54   37.80
   1  -3   5  121.09    8.60
  -1  -3  -5  125.59    5.00
  -1  -3  -5  132.79    6.50
   1  -3   5  112.39    5.40
  -1   3  -5  128.79    5.70
  -1   3  -5  105.09    5.40
   1   3   5  121.09    5.60
   1   3   5  117.69    7.10
  -2  -3  -5 2161.08   51.69
   2  -3   5 2039.10   51.39
  -2  -3  -5 2194.38   54.69
   2  -3   5 2150.78   60.89
   2   3   5 2111.89   49.80
  -2   3  -5 2124.39   52.49
  -2   3  -5 2201.48   49.99
   2   3   5 2198.98   57.09
  -3  -3  -5   18.90    2.90
   3  -3   5    9.70    3.90
  -3  -3  -5   17.80    4.30
   3  -3   5   17.70    2.10
  -3   3  -5   13.00    2.80
   3   3   5   18.20    3.20
  -3   3  -5   16.40    2.80
   3   3   5   17.50    3.00
   4  -3   5 3548.74   96.39
  -4  -3  -5 3746.03   90.29
  -4  -3  -5 3484.35   85.59
  -4   3  -5 3478.45   86.59
  -4   3  -5 3587.04   81.69
   4   3   5 3580.04   81.59
   4   3   5 3622.54   90.99
  -5  -3  -5   21.30    3.90
   5  -3   5   24.50    5.60
  -5  -3  -5   20.10    4.90
  -5   3  -5   17.40    4.00
  -5   3  -5   15.80    3.30
   5   3   5   21.20    3.60
  -6  -3  -5 2085.19   54.09
   6  -3   5 2091.49   60.89
  -6  -3  -5 2075.29   56.49
  -6   3  -5 2113.29   55.49
  -6   3  -5 2103.59   51.19
   6   3   5 2073.39   51.09
  -7  -3  -5  345.97   14.80
  -7  -3  -5  329.17   15.50
   7  -3   5  402.16   18.00
   7   3   5  318.27   13.40
  -7   3  -5  339.77   15.90
  -7   3  -5  347.37   13.80
  -8  -3  -5  837.02   27.30
  -8  -3  -5  763.32   27.20
   8   3   5  802.62   24.90
  -8   3  -5  853.71   29.10
   9  -3   5   70.29    7.50
  -9  -3  -5   58.09    8.20
   9   3   5   55.59    7.00
  -9   3  -5   66.59    9.50
   9  -4  -5 1351.56   39.40
  -9  -4   5 1317.67   43.20
   9   4  -5 1352.36   37.60
  -9   4   5 1318.17   38.60
   9   4  -5 1324.17   39.10
   8  -4  -5   13.80    4.60
  -8  -4   5    7.60    5.90
   8   4  -5   18.90    5.40
  -8   4   5   33.30    9.50
   8   4  -5   23.30    5.40
  -8   4   5   18.30    4.90
  -7  -4   5 2541.85   69.39
   7  -4  -5 2530.55   64.09
   7   4  -5 2503.85   62.19
   7   4  -5 2583.04   64.99
  -7   4   5 2515.75   64.69
  -7   4   5 2625.34   77.79
  -6  -4   5    0.90    4.30
   6  -4  -5    1.30    2.60
  -6   4   5    7.80    5.90
   6   4  -5    5.90    3.50
   6   4  -5    3.50    3.30
  -6   4   5    7.70    3.40
   5  -4  -5 3307.17   80.09
  -5  -4   5 3249.67   85.59
   5   4  -5 3403.16   78.49
  -5   4   5 3344.97   93.39
   5   4  -5 3468.45   81.69
  -4  -4   5   61.69    7.10
  -4  -4   5   86.19    7.10
   4  -4  -5   84.59    5.90
   4  -4  -5   83.39    4.70
   4   4  -5   75.49    5.60
   4   4  -5   78.79    6.10
  -4   4   5   81.19    9.40
  -3  -4   5 3203.98   83.69
   3  -4  -5 3344.97   78.39
  -3  -4   5 3383.76   88.89
   3  -4  -5 3409.66   80.99
   3   4  -5 3425.06   79.99
   3   4  -5 3369.16   77.29
  -3   4   5 3341.07   74.39
  -3   4   5 3310.47   90.59
   2  -4  -5   38.10    2.80
  -2  -4   5   36.20    5.00
   2  -4  -5   32.60    3.80
  -2  -4   5   38.40    5.90
   2   4  -5   32.10    3.80
  -2   4   5   31.50    5.60
   2   4  -5   31.10    3.30
  -2   4   5   38.20    3.10
  -1  -4   5 1419.36   39.70
   1  -4  -5 1519.75   35.40
  -1  -4   5 1386.46   44.30
   1  -4  -5 1511.85   38.30
  -1   4   5 1458.35   43.20
  -1   4   5 1521.95   35.00
   1   4  -5 1476.55   36.40
   1   4  -5 1483.95   36.60
   0  -4   5  635.84   24.70
   0  -4  -5  696.23   17.10
   0  -4   5  632.64   20.10
   0  -4  -5  652.23   19.80
   0   4   5  680.43   22.80
   0   4  -5  673.73   18.50
   0   4  -5  638.94   18.00
   0   4   5  653.63   18.00
   1  -4   5  316.97   16.00
   1  -4   5  310.77   11.90
  -1  -4  -5  339.37    9.90
  -1  -4  -5  313.77   12.40
  -1   4  -5  316.17   10.60
   1   4   5  312.07   13.60
   1   4   5  340.87   11.20
  -1   4  -5  343.87   11.30
   2  -4   5  307.97   16.30
  -2  -4  -5  314.47   10.10
   2  -4   5  330.87   11.70
  -2  -4  -5  319.67   13.30
   2   4   5  303.47   13.10
  -2   4  -5  318.77   11.10
   2   4   5  332.77   11.50
  -2   4  -5  327.67   11.20
  -3  -4  -5  215.38    8.40
  -3  -4  -5  201.38   11.80
   3  -4   5  195.38   13.20
   3   4   5  232.68   10.50
   3   4   5  230.28    9.50
  -3   4  -5  210.78    9.20
  -3   4  -5  206.08    8.80
   4  -4   5   27.90    6.70
  -4  -4  -5   33.90    6.20
  -4  -4  -5   27.00    3.80
  -4   4  -5   32.90    4.60
   4   4   5   30.50    4.40
  -4   4  -5   28.70    4.00
   4   4   5   24.20    3.90
  -5  -4  -5  500.65   20.60
  -5  -4  -5  505.85   16.90
   5  -4   5  500.55   23.00
   5   4   5  504.65   17.00
  -5   4  -5  526.85   18.30
  -5   4  -5  508.55   16.80
   6  -4   5    5.80    5.10
  -6  -4  -5    7.90    5.10
  -6  -4  -5    0.60    3.20
  -6   4  -5    9.50    3.80
   6   4   5    0.40    3.50
  -6   4  -5   11.50    4.60
  -7  -4  -5   52.79    6.80
  -7  -4  -5   58.29    8.30
   7  -4   5   52.09    8.90
  -7   4  -5   48.10    7.50
   7   4   5   47.90    6.20
  -7   4  -5   47.00    6.00
  -8  -4  -5   56.59    8.80
  -8  -4  -5   64.99    7.90
   8  -4   5   62.99   10.00
  -8   4  -5   66.69    8.90
  -8   4  -5   69.99    7.50
   8   4   5   55.99    7.00
  -9  -4  -5  286.07   15.60
   9   4   5  316.37   15.00
  -9   4  -5  295.67   17.60
   8  -5  -5 1345.97   39.30
  -8  -5   5 1302.37   44.00
   8   5  -5 1372.26   38.00
   8   5  -5 1349.07   38.70
  -8   5   5 1448.96   52.79
  -7  -5   5   -2.40    5.00
   7  -5  -5    3.40    3.80
  -7   5   5    3.10    7.20
   7   5  -5    3.10    3.80
   7   5  -5   -3.00    3.70
   6  -5  -5 1566.94   42.50
  -6  -5   5 1537.35   47.10
  -6   5   5 1602.54   53.99
   6   5  -5 1605.64   41.80
   6   5  -5 1535.45   41.10
   5  -5  -5  277.87   12.00
  -5  -5   5  262.47   14.80
  -5   5   5  305.27   18.70
   5   5  -5  303.77   11.30
   5   5  -5  255.37   12.00
   4  -5  -5 1364.96   37.40
  -4  -5   5 1358.06   41.00
  -4   5   5 1415.16   46.30
   4   5  -5 1428.76   36.10
   4   5  -5 1355.66   36.30
  -3  -5   5  527.65   20.60
  -3  -5   5  456.45   18.70
   3  -5  -5  501.15   16.80
   3   5  -5  505.25   15.10
  -3   5   5  464.55   21.50
   3   5  -5  489.65   16.50
  -3   5   5  494.65   14.10
  -2  -5   5 1673.23   50.39
   2  -5  -5 1631.64   43.70
  -2  -5   5 1627.74   46.40
   2   5  -5 1703.23   42.30
  -2   5   5 1723.33   39.90
  -2   5   5 1673.13   51.19
   2   5  -5 1675.53   41.40
   1  -5  -5  164.18    9.00
  -1  -5   5  181.28   10.30
  -1  -5   5  175.28   12.40
   1   5  -5  189.48    8.90
  -1   5   5  195.28   12.30
  -1   5   5  188.28    7.90
   0  -5   5  823.12   24.90
   0  -5   5  720.83   28.80
   0  -5  -5  796.42   24.10
   0   5   5  812.72   21.60
   0   5   5  724.33   26.90
   0   5  -5  784.82   22.40
   1  -5   5  125.79    8.00
  -1  -5  -5  116.69    8.40
   1  -5   5  104.29   11.20
   1   5   5  125.29    7.00
  -1   5  -5  125.79    7.20
   1   5   5  117.79    9.10
   2  -5   5  599.14   19.20
  -2  -5  -5  595.54   21.30
   2  -5   5  531.85   24.90
   2   5   5  569.34   18.00
   2   5   5  551.14   21.10
  -2   5  -5  587.64   17.80
  -3  -5  -5   25.80    6.10
   3  -5   5   35.70    7.80
   3   5   5   39.00    5.80
  -3   5  -5   31.60    4.70
   3   5   5   40.30    5.20
  -4  -5  -5  546.65   22.40
   4  -5   5  488.45   24.80
  -4   5  -5  544.75   17.70
   4   5   5  546.95   18.30
   5  -5   5   15.90    7.00
  -5  -5  -5    7.80    4.90
  -5  -5  -5   10.80    3.90
  -5   5  -5   17.00    4.40
   5   5   5   16.10    4.90
  -6  -5  -5  228.38   14.90
   6  -5   5  235.48   17.30
  -6  -5  -5  245.98   11.60
  -6   5  -5  221.08   11.10
   6   5   5  213.38   12.00
   7  -5   5  141.19   15.30
  -7  -5  -5  172.78   13.40
  -7  -5  -5  138.89    9.90
   7   5   5  162.48   11.10
  -7   5  -5  127.49    9.20
   8  -5   5  495.65   26.20
  -8  -5  -5  554.04   23.80
  -8   5  -5  520.75   19.90
   8   5   5  507.65   20.60
   7  -6  -5  165.28   11.20
  -7  -6   5  186.88   14.90
   7   6  -5  175.68   11.30
  -7   6   5  205.48   20.90
   6  -6  -5   16.30    5.00
  -6  -6   5   12.50    6.50
   6   6  -5   11.60    5.00
  -6   6   5   18.50    9.10
  -5  -6   5  487.05   21.30
   5  -6  -5  457.55   17.60
  -5   6   5  474.65   25.70
   5   6  -5  460.95   17.50
   4  -6  -5  151.88    9.40
  -4  -6   5  162.48   12.30
  -4   6   5  151.08   15.60
   4   6  -5  153.88    9.70
  -3  -6   5  228.88   13.30
   3  -6  -5  211.38   11.00
  -3  -6   5  201.68   13.50
   3   6  -5  199.88   10.80
  -3   6   5  206.18   15.90
  -2  -6   5  100.99   11.10
   2  -6  -5   87.49    7.90
  -2  -6   5   96.59    9.70
   2   6  -5  100.19    8.50
  -2   6   5   92.19   11.50
  -2   6   5   97.39    6.50
  -1  -6   5 1402.66   45.20
  -1  -6   5 1400.96   40.00
   1  -6  -5 1314.87   38.20
   1   6  -5 1286.87   36.10
  -1   6   5 1360.86   44.90
  -1   6   5 1371.56   34.60
   0  -6  -5  402.76   16.90
   0  -6   5  456.15   17.70
   0  -6   5  433.66   21.70
   0   6   5  413.16   20.10
   0   6   5  419.16   14.60
   0   6  -5  449.76   16.00
   1  -6   5 1674.83   45.70
   1  -6   5 1631.34   54.09
  -1  -6  -5 1593.14   46.60
   1   6   5 1627.94   41.50
  -1   6  -5 1667.13   42.60
   1   6   5 1654.63   50.79
   2  -6   5  457.85   24.00
  -2  -6  -5  447.16   19.80
  -2   6  -5  446.56   16.50
   2   6   5  478.25   16.40
   2   6   5  496.35   20.80
  -3  -6  -5 1941.71   58.19
   3  -6   5 2113.89   66.29
   3   6   5 2078.59   59.59
   3   6   5 2057.29   51.29
  -3   6  -5 1971.00   50.99
  -4  -6  -5    9.00    5.50
   4  -6   5    4.20    6.70
   4   6   5    5.10    4.00
  -4   6  -5    9.70    4.50
  -5  -6  -5 1869.21   54.29
   5  -6   5 1721.23   61.09
   5   6   5 1826.62   47.60
  -5   6  -5 1752.42   46.50
   6  -6   5   46.10   10.40
  -6  -6  -5   52.29    9.20
  -6   6  -5   57.09    7.50
   6   6   5   52.59    7.70
  -7  -6  -5 1130.29   39.20
   7  -6   5 1084.09   44.60
  -7   6  -5 1057.29   32.90
   7   6   5 1188.78   34.90
  -6  -7   5  317.67   18.90
   6  -7  -5  329.97   15.90
   6   7  -5  333.97   15.70
  -6   7   5  348.67   24.30
   5  -7  -5   38.30    6.80
  -5  -7   5   45.00    8.90
   5   7  -5   42.70    7.10
  -5   7   5   46.10   11.10
  -4  -7   5  330.67   17.70
   4  -7  -5  345.97   15.70
  -4   7   5  325.07   22.50
   4   7  -5  342.07   15.20
   3  -7  -5  278.77   14.20
  -3  -7   5  274.97   15.70
  -3   7   5  296.77   20.50
   3   7  -5  259.47   13.10
  -2  -7   5  646.74   24.40
  -2  -7   5  624.04   26.70
   2  -7  -5  604.84   22.30
  -2   7   5  626.54   19.30
   2   7  -5  575.74   20.90
  -2   7   5  567.24   27.60
  -1  -7   5  204.58   15.20
   1  -7  -5  196.18   12.20
  -1  -7   5  179.08   12.20
  -1   7   5  189.48   15.50
  -1   7   5  171.08    9.50
   1   7  -5  157.18   10.40
   0  -7   5 1027.60   32.80
   0  -7   5 1063.49   39.20
   0  -7  -5 1027.90   33.60
   0   7  -5  985.80   30.20
   0   7   5 1014.90   38.00
   0   7   5 1018.60   28.70
  -1  -7  -5  125.89   11.90
   1  -7   5  106.19   14.10
   1   7   5  116.39    8.40
   1   7   5  116.59   12.70
  -1   7  -5  103.59    9.50
   2  -7   5 2383.46   74.69
  -2  -7  -5 2295.67   66.59
   2   7   5 2384.86   70.39
  -2   7  -5 2294.57   59.29
   2   7   5 2399.76   58.39
   3  -7   5   13.50    8.00
  -3  -7  -5   26.20    7.80
  -3   7  -5   12.90    5.40
   3   7   5    8.10    4.20
  -4  -7  -5 1733.83   54.99
   4  -7   5 1766.12   62.59
   4   7   5 1784.82   47.60
  -4   7  -5 1881.61   48.40
   5  -7   5  -12.10    7.00
  -5  -7  -5   -3.10    5.70
   5   7   5    7.70    5.50
  -5   7  -5   10.80    5.00
  -3  -8   5 1003.90   34.60
   3  -8  -5  956.70   32.80
  -3   8   5  975.80   42.10
   3   8  -5  986.20   30.90
  -2  -8   5  222.18   16.30
   2  -8  -5  218.68   14.40
  -2  -8   5  221.98   15.00
  -2   8   5  186.18   18.90
   2   8  -5  209.28   12.80
  -1  -8   5  545.05   26.20
   1  -8  -5  512.65   22.90
  -1  -8   5  503.45   21.90
   1   8  -5  499.75   20.30
  -1   8   5  555.34   28.00
  -1   8   5  563.54   19.50
   0  -8   5  122.89   14.40
   0  -8  -5   94.39   11.30
   0   8   5  129.89   15.20
   0   8   5  115.69    9.40
   0   8  -5  132.19   11.50
  -1  -8  -5  794.32   31.50
   1  -8   5  805.32   35.50
  -1   8  -5  735.83   26.80
   1   8   5  832.62   25.50
   1   8   5  877.21   35.20
   2  -8   5  189.38   19.60
  -2  -8  -5  186.18   16.90
  -2   8  -5  196.98   13.20
   2   8   5  185.18   16.10
   2   8   5  193.78   11.60
   3  -8   5  320.07   23.70
  -3  -8  -5  358.76   21.10
  -3   8  -5  362.56   17.50
   3   8   5  352.96   15.90
  10   0  -6  236.88   15.60
 -10   0   6  242.18   14.00
  -9   0   6    8.40    4.70
   9   0  -6    0.20    5.20
  -8   0   6  121.19    8.60
   8   0  -6  129.59    9.90
   7   0  -6   -1.20    3.30
  -7   0   6    3.90    3.30
   6   0  -6 1575.14   42.40
  -6   0   6 1627.64   44.20
  -6   0   6 1472.35   41.00
   5   0  -6    2.50    1.50
  -5   0   6    3.10    2.40
  -5   0   6    1.00    2.20
   5   0  -6    4.90    2.90
  -4   0   6 1818.92   48.20
  -4   0   6 1813.22   44.60
   4   0  -6 1742.63   39.70
   4   0  -6 1698.43   44.80
   3   0  -6   -2.50    1.50
  -3   0   6    5.50    2.50
  -3   0   6   -1.40    1.50
   3   0  -6    2.00    0.70
   2   0  -6 3875.81   79.79
  -2   0   6 3800.92   86.89
  -2   0   6 3478.05   93.99
   2   0  -6 3607.94   86.99
  -1   0   6   -1.60    1.00
   1   0  -6   -1.80    0.60
  -1   0   6   -2.90    1.50
   1   0  -6   -2.80    1.30
   0   0  -6 9255.47  228.68
   0   0   6 9660.13  225.08
   0   0  -6 9950.70  212.08
   0   0   6 9218.58  238.28
  -1   0  -6    0.30    1.10
  -1   0  -6   -4.90    1.10
   1   0   6   -4.90    1.80
  -2   0  -6 4466.45  100.89
  -2   0  -6 4109.49   99.49
   2   0   6 4280.67  108.69
  -3   0  -6    0.40    2.00
   3   0   6   -0.60    2.00
   3   0   6   -1.50    1.40
  -3   0  -6   -2.00    1.10
  -4   0  -6 4931.91  115.99
   4   0   6 4936.41  123.49
   4   0   6 4757.92  108.39
  -4   0  -6 4914.31  113.19
  -5   0  -6   -0.20    2.50
   5   0   6    4.10    2.30
   5   0   6   -0.30    2.20
   6   0   6 2695.73   70.49
   6   0   6 2663.93   62.79
  -7   0  -6   -1.50    3.50
   7   0   6    4.00    2.80
   8   0   6  386.56   14.80
  -8   0  -6  412.36   17.50
  -9   0  -6    3.20    5.00
   9   0   6   -2.40    3.90
 -10  -1   6   67.09    9.00
  10  -1  -6   63.89    9.60
  10   1  -6   68.79    9.70
   9  -1  -6  494.75   21.30
  -9  -1   6  514.05   20.20
   9   1  -6  546.95   21.80
  -9   1   6  503.85   19.50
  -8  -1   6   42.30    6.40
   8  -1  -6   33.90    6.60
  -8   1   6   37.10    5.80
   8   1  -6   36.90    6.80
  -7  -1   6 1073.89   31.30
   7  -1  -6 1045.60   31.80
  -7   1   6 1047.40   30.40
   7   1  -6 1045.00   31.70
   6  -1  -6  480.65   17.50
  -6  -1   6  497.15   17.30
   6   1  -6  523.65   17.90
  -6   1   6  504.65   19.10
   6   1  -6  486.75   14.50
  -5  -1   6 1408.46   38.30
  -5  -1   6 1326.47   36.40
   5  -1  -6 1389.96   36.80
   5   1  -6 1365.56   32.80
   5   1  -6 1307.67   36.70
  -5   1   6 1359.66   36.00
  -5   1   6 1408.36   39.80
  -4  -1   6 1099.59   31.40
  -4  -1   6 1092.09   29.40
   4  -1  -6 1097.29   29.30
   4  -1  -6 1090.09   24.30
   4   1  -6 1064.59   26.10
   4   1  -6 1087.99   29.70
  -4   1   6 1101.09   32.30
  -3  -1   6 1812.12   46.20
   3  -1  -6 1890.61   46.20
  -3  -1   6 1805.22   50.09
  -3   1   6 1946.51   46.30
  -3   1   6 1878.81   50.79
   3   1  -6 1860.81   46.60
   3   1  -6 1880.91   42.10
   2  -1  -6  199.38    7.30
  -2  -1   6  196.08    7.10
  -2  -1   6  183.98    8.90
   2   1  -6  190.58    7.60
   2   1  -6  204.08    5.80
  -2   1   6  195.28    9.10
  -2   1   6  193.68    7.20
  -1  -1   6 3792.32   87.09
  -1  -1   6 3687.73   95.49
   1  -1  -6 3773.42   87.39
   1   1  -6 3669.33   87.79
   1   1  -6 3717.53   81.49
  -1   1   6 3763.42   87.39
  -1   1   6 3733.43   95.29
  -1   1   6 3712.63   80.89
   0  -1   6  171.48    5.30
   0  -1   6  167.38    8.30
   0  -1  -6  161.68    5.70
   0  -1  -6  171.58    6.40
   0   1  -6  172.48    5.50
   0   1  -6  171.68    6.60
   0   1   6  152.98    7.90
   0   1   6  162.68    4.90
   1  -1   6 3220.48   85.39
   1  -1   6 3290.17   76.19
  -1  -1  -6 3283.27   77.29
  -1  -1  -6 3361.76   77.89
   1   1   6 3296.07   72.79
  -1   1  -6 3382.76   73.29
   1   1   6 3276.47   84.59
  -2  -1  -6    6.80    1.90
   2  -1   6   16.70    3.50
  -2  -1  -6    6.10    1.80
  -2   1  -6    6.70    1.70
  -2   1  -6    9.20    2.40
   2   1   6    8.30    1.70
   2   1   6    7.00    2.30
  -3  -1  -6 1788.92   43.60
  -3  -1  -6 1685.33   44.10
   3  -1   6 1695.53   47.90
  -3   1  -6 1761.92   41.00
  -3   1  -6 1715.53   43.80
   3   1   6 1760.32   46.70
   3   1   6 1733.03   40.40
  -4  -1  -6  984.90   27.20
  -4  -1  -6  958.90   26.60
   4  -1   6  979.00   29.80
  -4   1  -6  984.90   25.40
  -4   1  -6  974.90   27.60
   4   1   6 1010.70   28.60
   4   1   6  995.40   25.00
   5  -1   6 1182.98   35.10
  -5  -1  -6 1193.18   32.80
  -5  -1  -6 1221.68   31.50
   5   1   6 1177.88   33.40
  -5   1  -6 1173.98   33.20
   5   1   6 1185.98   30.10
  -6  -1  -6 1084.99   29.20
   6  -1   6 1105.09   32.80
   6  -1   6 1056.09   28.30
  -6  -1  -6 1055.69   31.00
   6   1   6 1082.29   28.40
  -6   1  -6 1064.19   31.60
  -7  -1  -6 1248.08   35.60
   7  -1   6 1188.98   32.00
   7   1   6 1192.58   32.10
  -7   1  -6 1238.18   36.20
  -8  -1  -6  254.17   13.30
   8  -1   6  217.68   10.70
   8   1   6  247.08   11.50
  -8   1  -6  249.48   14.10
   9  -1   6  605.74   20.70
  -9  -1  -6  608.74   23.90
   9   1   6  630.14   21.10
  -9   1  -6  637.74   24.90
   9  -2  -6    0.10    5.10
  -9  -2   6    1.60    5.00
  -9   2   6   -3.80    3.90
   9   2  -6    1.70    5.00
  -8  -2   6 1955.40   55.09
   8  -2  -6 2055.09   54.99
   8   2  -6 1980.10   54.49
  -8   2   6 2046.30   53.49
   7  -2  -6   72.59    7.60
  -7  -2   6   65.69    7.30
   7   2  -6   79.09    6.40
  -7   2   6   82.69    9.50
   7   2  -6   67.09    7.30
  -7   2   6   53.49    6.00
   6  -2  -6 1635.64   43.10
  -6  -2   6 1639.84   44.00
  -6   2   6 1562.14   42.40
   6   2  -6 1600.94   39.60
  -6   2   6 1636.74   48.40
   6   2  -6 1603.44   43.50
  -5  -2   6   17.80    4.00
  -5  -2   6   12.60    3.00
   5  -2  -6   18.30    3.50
   5   2  -6   15.90    3.00
  -5   2   6   11.40    4.00
  -5   2   6   12.70    3.30
   5   2  -6   15.50    3.70
  -4  -2   6 1231.18   32.80
  -4  -2   6 1186.28   34.30
   4  -2  -6 1217.68   31.50
   4   2  -6 1134.19   29.40
  -4   2   6 1220.08   31.80
   4   2  -6 1207.38   32.40
  -4   2   6 1225.18   36.20
  -3  -2   6    1.00    1.90
  -3  -2   6    2.00    2.40
   3  -2  -6    2.10    1.60
  -3   2   6    4.10    2.20
  -3   2   6    1.80    2.70
   3   2  -6    2.80    1.90
   3   2  -6    2.90    1.70
   2  -2  -6  164.38    6.60
  -2  -2   6  168.28    7.00
  -2  -2   6  184.58    9.20
  -2   2   6  180.48    7.10
   2   2  -6  172.48    6.20
  -2   2   6  173.38    9.00
  -2   2   6  168.08    4.30
   2   2  -6  174.48    7.20
   1  -2  -6   55.09    3.70
   1  -2  -6   59.59    3.60
  -1  -2   6   64.59    6.30
  -1  -2   6   59.29    3.60
   1   2  -6   57.69    4.10
  -1   2   6   58.79    2.80
   1   2  -6   63.69    3.50
  -1   2   6   64.99    5.30
   0  -2  -6  288.97    9.10
   0  -2  -6  284.57    9.30
   0  -2   6  291.27    8.40
   0  -2   6  305.87   12.90
   0   2   6  281.67    8.20
   0   2  -6  291.67    8.70
   0   2   6  285.37   11.70
   0   2  -6  289.97    9.70
  -1  -2  -6   45.10    3.70
  -1  -2  -6   45.70    3.40
   1  -2   6   52.29    6.20
   1  -2   6   45.90    2.10
   1   2   6   50.19    5.10
   1   2   6   44.80    3.00
  -1   2  -6   45.90    3.40
  -1   2  -6   50.69    3.90
   2  -2   6   23.90    4.60
  -2  -2  -6   24.20    3.50
  -2  -2  -6   17.00    2.60
   2   2   6   28.20    2.90
  -2   2  -6   20.50    3.10
   2   2   6   16.50    3.20
  -2   2  -6   17.50    2.80
  -3  -2  -6   69.39    6.40
   3  -2   6   51.29    6.00
  -3  -2  -6   63.39    4.60
   3   2   6   65.39    4.20
   3   2   6   67.09    5.10
  -3   2  -6   69.69    5.20
  -3   2  -6   63.29    4.30
  -4  -2  -6   98.49    6.20
   4  -2   6   93.49    7.60
  -4  -2  -6   96.69    7.10
  -4   2  -6   92.09    5.50
   4   2   6   97.19    5.50
   4   2   6   95.99    6.10
  -4   2  -6   95.09    6.60
  -5  -2  -6   57.89    5.70
   5  -2   6   57.09    6.90
  -5  -2  -6   57.39    6.10
   5   2   6   59.49    4.90
   5   2   6   50.59    4.70
  -5   2  -6   62.69    6.40
  -5   2  -6   67.89    5.90
  -6  -2  -6  643.64   20.70
  -6  -2  -6  620.84   20.70
   6  -2   6  628.94   22.80
  -6   2  -6  626.74   19.20
  -6   2  -6  631.94   21.50
   6   2   6  615.64   18.80
   7  -2   6   60.89    7.50
   7  -2   6   68.89    6.30
  -7  -2  -6   68.29    7.10
  -7  -2  -6   73.69    7.10
   7   2   6   63.09    6.20
  -7   2  -6   72.29    7.70
  -8  -2  -6 1311.67   39.60
   8  -2   6 1360.06   36.20
   8   2   6 1352.26   36.40
  -8   2  -6 1370.06   41.20
   9  -2   6   44.60    6.70
  -9  -2  -6   27.10    6.50
   9   2   6   23.90    5.60
  -9   2  -6   27.90    7.50
  -9  -3   6 1285.67   41.20
   9  -3  -6 1292.27   39.20
  -9   3   6 1284.57   38.00
   9   3  -6 1326.57   39.10
   8  -3  -6   23.00    5.40
  -8  -3   6   36.10    6.90
  -8   3   6   37.00    5.90
   8   3  -6   26.90    6.00
   7  -3  -6 1327.07   36.20
  -7  -3   6 1291.27   38.60
   7   3  -6 1272.87   36.50
  -7   3   6 1307.67   43.70
  -7   3   6 1225.08   35.60
   7   3  -6 1234.08   33.70
  -6  -3   6  315.87   14.60
   6  -3  -6  304.27   12.30
   6   3  -6  324.57   13.30
   6   3  -6  311.77   12.00
  -6   3   6  331.27   12.90
  -6   3   6  305.77   16.60
  -5  -3   6 1030.00   30.90
   5  -3  -6 1040.40   28.10
   5   3  -6 1053.39   29.30
  -5   3   6  995.70   28.60
   5   3  -6 1055.19   27.50
  -5   3   6 1015.70   34.40
  -4  -3   6  370.96   14.50
   4  -3  -6  365.56   11.90
  -4  -3   6  363.36   14.20
   4   3  -6  339.97   12.00
  -4   3   6  367.06   16.30
  -4   3   6  354.76   12.60
   4   3  -6  373.76   13.00
   3  -3  -6 1153.98   29.50
  -3  -3   6 1178.28   32.10
  -3  -3   6 1156.18   34.70
   3   3  -6 1129.49   29.00
  -3   3   6 1168.28   35.80
  -3   3   6 1166.08   30.70
   3   3  -6 1164.78   30.70
   2  -3  -6  168.48    7.20
  -2  -3   6  168.08    7.90
   2  -3  -6  156.58    6.10
  -2  -3   6  154.98    9.30
   2   3  -6  147.39    6.90
  -2   3   6  160.48    5.00
   2   3  -6  169.18    6.90
  -1  -3   6  562.24   16.90
   1  -3  -6  585.74   16.80
  -1  -3   6  572.24   20.90
   1  -3  -6  550.74   15.40
   1   3  -6  559.94   16.40
  -1   3   6  532.95   19.70
  -1   3   6  598.14   14.70
   1   3  -6  592.54   15.80
   0  -3  -6  126.09    6.20
   0  -3   6  130.99    5.80
   0  -3   6  117.69    8.60
   0  -3  -6  134.59    5.30
   0   3   6  128.99    5.50
   0   3  -6  133.79    5.80
   0   3  -6  122.29    6.00
   0   3   6  131.79    8.00
  -1  -3  -6  703.03   18.60
   1  -3   6  685.53   24.70
  -1  -3  -6  698.53   20.10
   1  -3   6  726.23   18.10
   1   3   6  711.93   22.50
   1   3   6  648.34   18.00
  -1   3  -6  672.63   19.40
  -1   3  -6  674.83   18.40
  -2  -3  -6   67.59    4.30
   2  -3   6   70.59    2.90
  -2  -3  -6   66.79    6.00
   2  -3   6   51.19    6.80
  -2   3  -6   56.79    4.70
   2   3   6   66.49    5.60
   2   3   6   59.79    4.20
  -2   3  -6   62.99    4.60
  -3  -3  -6 1407.36   35.60
   3  -3   6 1342.97   42.60
  -3  -3  -6 1404.16   39.10
   3   3   6 1398.46   38.90
   3   3   6 1374.16   34.10
  -3   3  -6 1373.66   36.50
  -3   3  -6 1379.96   34.30
   4  -3   6  252.57   13.70
  -4  -3  -6  236.18   10.00
  -4  -3  -6  243.08   12.70
  -4   3  -6  237.78    9.90
  -4   3  -6  255.77   11.00
   4   3   6  279.17   10.20
   4   3   6  269.97   10.90
  -5  -3  -6 1363.66   38.70
   5  -3   6 1276.67   41.60
  -5  -3  -6 1266.57   35.40
  -5   3  -6 1328.37   36.90
   5   3   6 1314.77   33.80
  -5   3  -6 1319.87   34.00
   6  -3   6  371.56   17.80
  -6  -3  -6  389.66   16.50
  -6  -3  -6  381.06   14.70
  -6   3  -6  356.36   15.60
   6   3   6  381.66   13.90
  -6   3  -6  355.36   13.70
  -7  -3  -6  736.03   24.40
   7  -3   6  668.03   26.10
  -7  -3  -6  690.23   23.20
  -7   3  -6  659.33   21.50
  -7   3  -6  698.13   24.60
   7   3   6  633.44   21.00
  -8  -3  -6  217.18   12.80
  -8   3  -6  239.38   14.50
   8   3   6  236.18   12.00
  -9  -3  -6  891.41   31.40
   9  -3   6  972.40   28.90
  -9   3  -6  956.40   33.60
   9   3   6  964.80   29.40
   9  -4  -6   68.49    8.40
  -9  -4   6   57.29   10.10
  -9   4   6   64.49    7.90
   9   4  -6   73.49    8.70
   8  -4  -6  275.47   13.00
  -8  -4   6  249.68   15.80
  -8   4   6  279.47   13.30
  -8   4   6  276.87   19.90
   8   4  -6  278.67   13.70
   8   4  -6  279.77   13.10
   7  -4  -6   71.49    6.80
  -7  -4   6   67.29    9.20
   7   4  -6   76.59    7.40
   7   4  -6   70.69    7.00
  -7   4   6   81.49    7.70
  -7   4   6   75.49   11.50
   6  -4  -6  462.25   15.60
  -6  -4   6  474.35   19.90
   6   4  -6  495.25   17.20
  -6   4   6  441.66   16.50
   6   4  -6  486.45   16.60
  -6   4   6  506.35   23.50
  -5  -4   6  132.19   10.00
   5  -4  -6  126.39    6.60
   5   4  -6  129.69    7.70
  -5   4   6  145.19   12.10
   5   4  -6  133.19    7.90
  -4  -4   6 1597.44   44.20
  -4  -4   6 1571.64   45.60
   4  -4  -6 1541.05   41.00
   4  -4  -6 1592.24   39.20
   4   4  -6 1548.74   39.50
  -4   4   6 1592.34   48.70
   4   4  -6 1560.14   40.60
  -3  -4   6  252.87   13.00
  -3  -4   6  256.47   12.10
   3  -4  -6  252.67   10.20
   3  -4  -6  268.67    8.80
   3   4  -6  266.87   10.40
   3   4  -6  273.67   10.10
  -3   4   6  256.27   14.10
  -2  -4   6 4395.86  106.49
   2  -4  -6 4530.45  101.89
  -2  -4   6 4244.78  114.99
   2  -4  -6 4369.96  104.59
   2   4  -6 4396.26  103.29
  -2   4   6 4489.85   96.49
   2   4  -6 4152.48   98.89
  -2   4   6 4455.25  115.09
   1  -4  -6   37.00    4.20
  -1  -4   6   28.60    5.70
  -1  -4   6   40.20    4.80
   1  -4  -6   35.70    2.90
   1   4  -6   30.00    3.40
  -1   4   6   32.00    5.50
  -1   4   6   42.40    3.60
   1   4  -6   37.90    4.30
   0  -4  -6 3103.79   71.09
   0  -4   6 2998.40   73.99
   0  -4  -6 3051.79   74.19
   0  -4   6 3027.70   83.89
   0   4   6 2983.20   80.79
   0   4   6 3037.80   68.89
   0   4  -6 3090.39   69.69
   0   4  -6 2899.01   72.19
   1  -4   6    4.80    4.30
  -1  -4  -6    2.60    1.60
   1  -4   6    1.60    2.10
  -1  -4  -6    1.30    2.50
   1   4   6    3.40    2.20
  -1   4  -6   -1.10    1.80
  -1   4  -6    2.50    2.40
   1   4   6   -0.20    2.80
  -2  -4  -6 5837.12  137.39
  -2  -4  -6 5935.41  132.89
   2  -4   6 5669.93  150.08
  -2   4  -6 5638.54  133.89
   2   4   6 5618.24  144.89
  -2   4  -6 5587.94  127.29
   2   4   6 5654.23  127.49
  -3  -4  -6  219.18   12.00
   3  -4   6  203.58   13.90
  -3  -4  -6  206.08    8.50
  -3   4  -6  203.08    9.10
  -3   4  -6  208.28    9.50
   3   4   6  209.68   10.40
   3   4   6  194.58    9.00
  -4  -4  -6 3786.62   95.79
  -4  -4  -6 3730.73   89.79
   4  -4   6 3643.44  103.29
  -4   4  -6 3721.23   86.29
   4   4   6 3785.72   96.79
  -4   4  -6 3733.93   91.29
   4   4   6 3771.12   86.39
  -5  -4  -6   68.39    8.40
   5  -4   6   60.69    9.30
  -5  -4  -6   73.59    6.50
  -5   4  -6   71.59    6.60
   5   4   6   69.69    6.30
  -5   4  -6   63.89    7.00
  -6  -4  -6 1078.19   30.50
   6  -4   6  987.60   37.10
  -6  -4  -6 1033.40   33.60
  -6   4  -6 1033.80   31.80
  -6   4  -6 1005.60   29.10
   6   4   6 1013.20   29.30
  -7  -4  -6   47.30    8.00
  -7  -4  -6   61.49    7.30
   7  -4   6   42.20    8.30
  -7   4  -6   55.59    7.90
   7   4   6   38.60    6.20
  -7   4  -6   55.39    7.20
  -8  -4  -6  377.06   18.90
  -8  -4  -6  418.96   18.00
   8  -4   6  379.06   20.50
  -8   4  -6  391.96   16.50
   8   4   6  379.86   16.60
  -8   4  -6  427.96   19.60
   8  -5  -6   56.39    7.50
  -8  -5   6   54.49    9.50
   8   5  -6   64.79    7.80
   8   5  -6   56.39    7.20
  -8   5   6   71.09   13.90
   7  -5  -6  451.35   17.30
  -7  -5   6  375.06   19.80
  -7   5   6  452.65   25.50
   7   5  -6  429.66   16.40
   7   5  -6  407.86   16.30
  -6  -5   6  208.48   14.00
   6  -5  -6  191.68   10.70
  -6   5   6  204.08   16.90
   6   5  -6  200.88   10.80
   6   5  -6  207.88   10.20
   5  -5  -6 1148.19   33.90
  -5  -5   6 1173.48   37.90
   5   5  -6 1232.88   33.30
   5   5  -6 1271.27   33.30
  -5   5   6 1241.98   43.50
  -4  -5   6  203.48   12.50
   4  -5  -6  197.88   10.00
  -4   5   6  203.78   14.30
   4   5  -6  213.98   10.40
   4   5  -6  214.98    9.40
   3  -5  -6 1966.50   50.79
  -3  -5   6 1998.70   57.49
  -3  -5   6 1916.81   53.49
   3   5  -6 1892.61   48.50
   3   5  -6 2037.30   49.00
  -3   5   6 1940.51   59.19
   2  -5  -6   58.69    6.00
  -2  -5   6   56.79    6.80
  -2  -5   6   75.99    9.40
   2   5  -6   65.69    6.50
   2   5  -6   60.49    5.00
  -2   5   6   47.40    7.40
  -2   5   6   65.19    4.60
  -1  -5   6 1850.51   51.39
  -1  -5   6 1900.71   58.19
   1  -5  -6 1911.61   50.29
   1   5  -6 1928.11   47.80
  -1   5   6 1991.70   57.29
  -1   5   6 1982.20   45.80
   1   5  -6 1973.10   47.90
   0  -5   6   17.40    5.50
   0  -5   6   18.30    4.30
   0  -5  -6   18.50    4.10
   0   5  -6   23.70    3.40
   0   5  -6   16.10    3.80
   0   5   6   16.50    3.30
   0   5   6   15.60    5.00
  -1  -5  -6 1941.91   52.69
   1  -5   6 2039.20   51.69
   1  -5   6 1977.30   61.29
   1   5   6 1995.10   57.19
   1   5   6 1995.00   48.10
  -1   5  -6 1976.20   48.70
   2  -5   6   32.40    7.90
  -2  -5  -6   24.30    5.30
   2   5   6   29.00    5.40
  -2   5  -6   28.10    4.40
   2   5   6   36.90    4.90
   3  -5   6 1889.01   60.79
  -3  -5  -6 1984.50   54.69
   3   5   6 1897.41   54.39
   3   5   6 1901.01   47.80
  -3   5  -6 1913.21   47.70
  -4  -5  -6   70.29    9.00
   4  -5   6   95.89   12.60
  -4   5  -6   63.99    6.30
   4   5   6   72.59    7.10
   5  -5   6 1032.80   39.70
  -5  -5  -6 1024.80   34.60
   5   5   6 1060.09   30.00
  -5   5  -6  972.60   29.00
  -6  -5  -6  201.98   14.00
   6  -5   6  157.18   16.00
   6   5   6  211.68   11.80
  -6   5  -6  183.78   10.90
   7  -5   6  785.82   34.40
  -7  -5  -6  847.92   30.90
  -7   5  -6  773.92   25.80
   7   5   6  846.32   27.00
   7  -6  -6  207.48   12.50
  -7  -6   6  182.48   15.80
  -7   6   6  254.37   21.60
   7   6  -6  211.88   12.30
   6  -6  -6  847.72   27.60
  -6  -6   6  875.71   32.00
   6   6  -6  832.62   26.50
  -6   6   6  896.21   38.40
   5  -6  -6  197.68   11.20
  -5  -6   6  208.38   14.10
   5   6  -6  195.18   11.10
  -5   6   6  172.98   17.90
   4  -6  -6  801.32   25.30
  -4  -6   6  786.02   28.50
   4   6  -6  793.52   24.60
  -4   6   6  763.22   33.00
  -3  -6   6  307.37   15.70
   3  -6  -6  324.07   13.90
  -3  -6   6  348.17   17.80
  -3   6   6  294.07   18.40
   3   6  -6  339.97   14.20
   2  -6  -6  425.06   16.60
  -2  -6   6  409.26   17.80
  -2  -6   6  455.05   21.20
   2   6  -6  414.36   16.10
  -2   6   6  394.16   21.00
  -1  -6   6   77.59   10.50
  -1  -6   6  107.39    9.90
   1  -6  -6  110.79    8.50
  -1   6   6  123.39   12.30
   1   6  -6  111.49    8.50
  -1   6   6  103.19    6.70
   0  -6   6  148.29   14.40
   0  -6   6  156.18   10.20
   0  -6  -6  130.79    9.50
   0   6   6  152.18    8.10
   0   6  -6  124.09    8.90
   0   6   6  137.99   11.90
   1  -6   6   50.59    9.30
  -1  -6  -6   43.90    7.00
   1   6   6   44.00    7.40
  -1   6  -6   48.80    6.20
   1   6   6   47.60    5.30
  -2  -6  -6  179.28   12.70
   2  -6   6  207.18   16.60
  -2   6  -6  196.18   10.70
   2   6   6  212.38   10.30
   2   6   6  199.38   13.00
  -3  -6  -6  216.58   14.10
   3  -6   6  183.38   15.90
  -3   6  -6  215.18   11.20
   3   6   6  200.68   10.80
   3   6   6  223.18   13.60
  -4  -6  -6  197.98   14.60
   4  -6   6  186.48   18.50
  -4   6  -6  203.28   10.90
   4   6   6  195.78   10.80
   5  -6   6   46.30   10.90
  -5  -6  -6   47.00    8.70
   5   6   6   37.20    6.20
  -5   6  -6   42.90    6.40
   6  -6   6  555.34   30.10
  -6  -6  -6  605.34   25.90
   6   6   6  584.64   21.70
  -6   6  -6  586.84   21.40
   5  -7  -6  657.23   24.50
  -5  -7   6  707.43   28.00
  -5   7   6  691.33   34.40
   5   7  -6  726.33   24.00
  -4  -7   6  110.69   11.80
   4  -7  -6  136.29   10.40
   4   7  -6  118.79   10.40
  -4   7   6  124.99   15.10
   3  -7  -6  357.76   16.30
  -3  -7   6  376.56   18.10
  -3   7   6  351.76   22.50
   3   7  -6  339.37   15.70
  -2  -7   6   45.50    9.00
  -2  -7   6   46.90    7.70
   2  -7  -6   49.60    7.10
   2   7  -6   33.60    6.20
  -2   7   6   45.30    9.60
   1  -7  -6  241.48   13.80
  -1  -7   6  256.37   17.60
  -1  -7   6  245.48   14.20
  -1   7   6  242.08   11.10
   1   7  -6  217.78   12.70
  -1   7   6  251.27   17.90
   0  -7   6   -1.10    6.10
   0  -7  -6    4.20    4.90
   0   7   6    6.40    3.80
   0   7   6    5.40    6.40
   0   7  -6    2.30    4.70
  -1  -7  -6  237.98   15.00
   1  -7   6  255.47   18.70
   1   7   6  262.77   11.90
  -1   7  -6  245.98   13.30
   1   7   6  239.18   16.70
  -2  -7  -6    0.20    5.40
   2  -7   6    7.10    7.60
   2   7   6   20.70    7.20
   2   7   6   18.00    4.90
  -2   7  -6   19.00    5.90
   3  -7   6  237.78   21.80
  -3  -7  -6  165.58   15.10
  -3   7  -6  207.88   11.90
   3   7   6  205.88   11.60
  -4  -7  -6   36.90    8.90
   4  -7   6   38.00   10.20
   4   7   6   58.29    7.80
  -4   7  -6   44.20    7.60
   5  -7   6  668.63   35.20
  -5  -7  -6  783.22   31.00
   5   7   6  749.62   25.90
  -5   7  -6  764.72   25.70
   3  -8  -6  114.09   11.60
  -3  -8   6  103.29   11.50
   3   8  -6  108.59   10.80
  -3   8   6  121.59   16.40
   2  -8  -6 1105.09   36.60
  -2  -8   6 1083.19   41.20
  -2  -8   6 1173.28   37.40
  -2   8   6 1117.79   45.10
   2   8  -6 1056.59   33.90
  -1  -8   6  108.99   13.50
   1  -8  -6  104.59   11.90
  -1   8   6  116.39   15.30
   1   8  -6   87.49    9.50
   0  -8  -6 1219.28   41.50
   0  -8   6 1280.87   47.20
   0   8   6 1261.27   35.30
   0   8  -6 1242.38   37.70
   0   8   6 1312.17   47.70
   1  -8   6   59.69   12.00
  -1  -8  -6   59.09   10.10
   1   8   6   50.79   10.80
   1   8   6   50.09    6.80
  -1   8  -6   55.59    8.50
   2  -8   6 1268.67   48.20
  -2  -8  -6 1166.98   42.30
   2   8   6 1210.18   44.70
  -2   8  -6 1169.28   36.50
   2   8   6 1193.18   34.30
  10   0  -7   -3.60    5.10
   9   0  -7  802.02   28.90
  -9   0   7  854.01   28.00
   8   0  -7   -1.90    3.90
  -8   0   7    2.20    3.90
  -7   0   7  791.72   24.60
   7   0  -7  760.32   25.70
  -6   0   7    0.90    3.00
  -6   0   7    1.10    2.90
   6   0  -7   -1.10    2.80
  -5   0   7   19.60    3.60
  -5   0   7   20.60    4.10
   5   0  -7   20.00    3.90
   4   0  -7    3.20    2.50
  -4   0   7    2.00    2.00
  -4   0   7   -1.00    2.40
   3   0  -7   14.80    2.90
  -3   0   7   14.00    2.70
  -3   0   7   18.40    3.90
  -2   0   7   -1.00    2.30
  -2   0   7   -2.60    1.40
   2   0  -7   -1.50    0.60
   2   0  -7   -1.70    1.60
  -1   0   7  422.36   15.50
  -1   0   7  434.86   12.30
   1   0  -7  416.36   13.10
   1   0  -7  440.26   10.50
   0   0  -7    1.70    1.80
   0   0   7   -0.70    1.90
   0   0  -7    1.30    1.00
   0   0   7    1.70    1.10
   1   0   7 1258.47   36.30
  -1   0  -7 1240.48   32.30
  -1   0  -7 1262.17   30.40
  -1   0  -7 1297.07   29.70
  -2   0  -7    1.00    1.70
   2   0   7    1.00    1.40
   2   0   7    0.00    1.80
  -2   0  -7    1.00    1.20
  -3   0  -7 1580.24   40.80
  -3   0  -7 1569.54   38.50
   3   0   7 1587.54   44.40
   3   0   7 1636.04   37.70
   4   0   7   -2.30    2.10
   4   0   7   -0.50    1.70
  -4   0  -7    3.50    2.60
  -5   0  -7 2729.33   67.39
   5   0   7 2566.14   62.09
   5   0   7 2747.93   71.29
   6   0   7   -2.10    2.30
   6   0   7    0.50    2.80
  -6   0  -7    1.70    3.40
  -7   0  -7 1702.43   47.00
   7   0   7 1667.33   42.30
  -8   0  -7    0.40    4.50
   8   0   7    1.50    3.40
   9   0   7 2086.59   53.39
  -9   0  -7 2097.19   59.19
  -9  -1   7  611.34   23.00
   9  -1  -7  592.24   23.90
   9   1  -7  618.84   23.70
  -9   1   7  602.34   22.10
  -8  -1   7  994.50   31.30
   8  -1  -7 1029.20   32.40
  -8   1   7  995.30   30.50
   8   1  -7 1011.80   32.20
  -7  -1   7  479.05   17.60
   7  -1  -7  438.86   17.90
   7   1  -7  457.75   18.30
  -7   1   7  483.65   17.10
  -6  -1   7 1248.68   34.30
   6  -1  -7 1211.68   34.40
  -6   1   7 1180.18   33.40
  -6   1   7 1246.58   37.50
   6   1  -7 1182.28   34.60
  -5  -1   7  102.39    6.60
  -5  -1   7  101.99    7.10
   5  -1  -7  110.99    6.90
  -5   1   7  103.29    7.90
   5   1  -7  113.99    7.30
   5   1  -7  104.49    5.20
  -5   1   7  115.69    6.80
   4  -1  -7  644.64   19.20
  -4  -1   7  656.83   19.30
  -4  -1   7  613.54   20.90
  -4   1   7  647.24   19.10
  -4   1   7  620.24   21.60
   4   1  -7  652.03   19.80
   4   1  -7  656.53   16.20
   3  -1  -7   59.59    4.30
  -3  -1   7   49.90    4.10
  -3  -1   7   51.59    5.40
  -3   1   7   54.69    4.10
   3   1  -7   56.69    2.80
   3   1  -7   55.09    4.50
  -3   1   7   63.99    6.50
   2  -1  -7 1060.99   27.60
  -2  -1   7 1052.69   31.50
  -2  -1   7 1032.00   27.20
  -2   1   7 1086.19   27.50
  -2   1   7 1067.59   31.60
   2   1  -7 1070.89   28.20
   2   1  -7 1048.20   24.30
  -1  -1   7    5.60    1.50
  -1  -1   7    4.80    2.80
   1  -1  -7    8.10    1.90
  -1   1   7    5.30    0.90
  -1   1   7    6.30    2.50
   1   1  -7   10.10    2.20
   1   1  -7    7.00    1.40
  -1   1   7    3.70    1.60
   0  -1  -7 2346.07   55.19
   0  -1   7 2265.87   62.19
   0  -1  -7 2283.97   55.89
   0  -1   7 2327.67   54.39
   0   1  -7 2380.16   51.99
   0   1   7 2342.77   51.29
   0   1  -7 2311.17   56.29
   0   1   7 2267.07   61.69
   1  -1   7 1726.63   47.20
  -1  -1  -7 1646.04   40.70
  -1  -1  -7 1658.73   41.60
  -1   1  -7 1725.73   38.90
   1   1   7 1675.03   46.20
   1   1   7 1679.93   38.30
  -1   1  -7 1645.64   41.90
   2  -1   7 2092.49   56.79
  -2  -1  -7 2091.29   50.59
  -2  -1  -7 2077.59   50.99
   2   1   7 2053.29   47.30
  -2   1  -7 2008.60   51.19
  -2   1  -7 2098.59   47.90
   2   1   7 2074.59   55.69
   3  -1   7 1139.69   33.80
  -3  -1  -7 1143.09   30.00
  -3  -1  -7 1093.59   30.30
  -3   1  -7 1143.89   30.40
   3   1   7 1122.99   32.60
  -3   1  -7 1112.49   28.10
   3   1   7 1101.29   27.50
   4  -1   7 1667.63   48.40
  -4  -1  -7 1750.32   44.50
  -4  -1  -7 1658.53   43.60
   4   1   7 1690.33   41.00
   4   1   7 1772.72   47.30
  -4   1  -7 1742.23   44.90
  -4   1  -7 1758.02   41.70
   5  -1   7  149.29    9.00
   5  -1   7  129.89    7.00
  -5  -1  -7  155.48    8.50
  -5  -1  -7  134.29    7.50
   5   1   7  133.29    7.00
  -5   1  -7  122.99    8.30
   5   1   7  140.89    7.90
   6  -1   7 1075.19   29.00
  -6  -1  -7 1094.09   32.00
   6  -1   7 1127.69   33.90
  -6   1  -7 1095.49   32.60
   6   1   7 1085.19   29.10
   7  -1   7   94.59    7.20
  -7  -1  -7   82.89    8.00
  -7   1  -7   84.79    8.60
   7   1   7   94.09    7.20
  -8  -1  -7 1061.79   33.60
   8  -1   7 1086.19   30.40
   8   1   7 1031.80   29.80
  -8   1  -7 1078.89   34.30
   9  -1   7   42.50    6.70
  -9  -1  -7   35.80    7.70
   9   1   7   37.10    6.40
  -9   1  -7   34.80    7.90
  -9  -2   7  551.04   22.70
   9  -2  -7  560.84   22.40
  -9   2   7  569.64   21.40
   9   2  -7  571.04   22.70
   8  -2  -7    2.70    4.50
  -8  -2   7    3.00    4.60
   8   2  -7   -0.40    4.60
  -8   2   7    1.80    3.90
   7  -2  -7 2443.56   61.79
  -7  -2   7 2328.97   62.49
  -7   2   7 2269.27   60.69
   7   2  -7 2374.06   62.09
  -7   2   7 2406.86   68.49
   6  -2  -7    5.30    3.20
  -6  -2   7    2.40    3.40
  -6   2   7    5.60    4.10
   6   2  -7   -1.70    2.30
  -6   2   7   -1.80    2.70
   6   2  -7    3.00    3.30
  -5  -2   7 4023.00  103.39
  -5  -2   7 4107.59   98.19
   5  -2  -7 4003.80   96.69
   5   2  -7 3856.11   90.39
   5   2  -7 3967.70   97.59
  -5   2   7 4112.79  106.29
  -5   2   7 4100.29   97.19
   4  -2  -7   40.60    4.30
  -4  -2   7   39.20    5.20
  -4  -2   7   40.20    4.90
  -4   2   7   40.40    5.90
  -4   2   7   46.00    4.70
   4   2  -7   40.20    3.60
   4   2  -7   42.40    4.60
   3  -2  -7 5359.36  128.49
  -3  -2   7 5613.24  129.89
  -3  -2   7 5597.24  139.99
   3   2  -7 5470.95  129.59
  -3   2   7 5577.84  129.59
   3   2  -7 5552.14  121.09
  -3   2   7 5374.26  140.29
   2  -2  -7  246.18    8.60
  -2  -2   7  222.78    8.60
  -2  -2   7  268.27   11.90
  -2   2   7  248.78    9.00
   2   2  -7  248.38    7.70
  -2   2   7  251.27   11.60
   2   2  -7  223.78    9.20
  -1  -2   7 4937.21  121.59
  -1  -2   7 4599.04  109.89
   1  -2  -7 4688.53  110.49
   1  -2  -7 4838.32  110.09
   1   2  -7 4426.96  110.69
   1   2  -7 4687.63  103.69
  -1   2   7 4632.24  120.39
  -1   2   7 4910.31  102.69
   0  -2  -7   50.29    3.60
   0  -2  -7   42.80    3.50
   0  -2   7   42.90    2.70
   0  -2   7   41.80    5.50
   0   2   7   47.30    2.80
   0   2  -7   35.30    3.60
   0   2  -7   40.80    3.10
   0   2   7   46.00    5.50
  -1  -2  -7 2570.34   61.19
  -1  -2  -7 2496.75   61.39
   1  -2   7 2626.04   58.79
   1  -2   7 2460.75   68.99
  -1   2  -7 2556.64   61.89
   1   2   7 2502.05   57.09
  -1   2  -7 2562.24   57.89
   1   2   7 2564.64   67.59
  -2  -2  -7  254.37    9.20
   2  -2   7  238.48   12.20
  -2  -2  -7  234.98    9.50
   2   2   7  246.98    8.30
   2   2   7  252.87   11.00
  -2   2  -7  243.78    9.60
  -2   2  -7  252.47    8.80
  -3  -2  -7 2148.98   53.29
  -3  -2  -7 2211.78   55.49
   3  -2   7 2174.28   60.19
   3   2   7 2136.19   57.59
   3   2   7 2129.99   49.90
  -3   2  -7 2094.99   53.89
  -3   2  -7 2146.99   50.49
  -4  -2  -7   55.59    5.30
   4  -2   7   35.80    5.50
  -4  -2  -7   50.09    5.90
   4   2   7   45.70    4.90
   4   2   7   43.80    4.30
  -4   2  -7   37.30    4.20
  -4   2  -7   42.60    5.00
   5  -2   7   67.39    7.60
  -5  -2  -7   81.79    7.00
  -5  -2  -7   78.19    7.10
  -5   2  -7   70.49    6.70
   5   2   7   74.19    5.40
   5   2   7   69.79    5.70
  -5   2  -7   80.29    5.90
   6  -2   7   67.49    8.00
  -6  -2  -7   82.49    7.20
  -6  -2  -7   65.09    7.10
  -6   2  -7   60.89    6.30
   6   2   7   58.49    5.60
  -6   2  -7   65.29    7.20
  -7  -2  -7  401.46   16.40
   7  -2   7  410.46   14.80
   7  -2   7  397.16   17.70
  -7   2  -7  417.06   17.80
   7   2   7  382.16   14.50
  -8  -2  -7    5.50    4.80
   8  -2   7    5.30    4.00
   8   2   7    3.40    3.60
  -8   2  -7    2.10    5.00
  -9  -2  -7  107.79   10.70
   9  -2   7  113.09    9.40
   9   2   7  120.79   10.10
  -9   2  -7  114.99   12.20
  -9  -3   7  167.78   13.60
   9  -3  -7  192.18   12.70
   9   3  -7  178.98   12.60
  -9   3   7  175.48   11.70
   8  -3  -7  684.63   23.40
  -8  -3   7  659.23   25.30
   8   3  -7  658.63   23.40
  -8   3   7  663.33   22.90
  -7  -3   7  290.37   14.50
   7  -3  -7  299.87   13.00
   7   3  -7  271.67   13.40
  -7   3   7  280.97   17.30
  -7   3   7  282.77   12.90
  -6  -3   7 1246.68   36.60
   6  -3  -7 1212.28   33.90
  -6   3   7 1200.18   34.30
   6   3  -7 1225.98   32.20
  -6   3   7 1246.68   41.10
   6   3  -7 1272.47   35.20
   5  -3  -7  297.77   11.30
  -5  -3   7  290.07   13.30
   5   3  -7  287.47   11.20
  -5   3   7  325.17   16.00
  -5   3   7  306.37   12.00
   5   3  -7  318.57   12.70
   4  -3  -7 2747.72   66.99
  -4  -3   7 2801.02   74.49
  -4  -3   7 2837.22   70.09
  -4   3   7 2792.92   76.49
  -4   3   7 2744.43   68.29
   4   3  -7 2765.32   68.39
   4   3  -7 2729.93   64.29
  -3  -3   7   38.30    5.60
  -3  -3   7   38.10    4.80
   3  -3  -7   38.30    3.80
  -3   3   7   36.10    4.10
  -3   3   7   32.20    5.60
   3   3  -7   34.50    3.90
   3   3  -7   43.40    4.50
  -2  -3   7 2666.93   71.29
   2  -3  -7 2571.44   63.29
  -2  -3   7 2656.73   63.99
   2  -3  -7 2607.34   61.99
   2   3  -7 2636.54   59.59
   2   3  -7 2522.95   63.29
  -2   3   7 2503.45   70.49
  -1  -3   7   56.49    4.20
   1  -3  -7   57.79    3.80
  -1  -3   7   49.50    6.40
   1  -3  -7   47.20    4.30
  -1   3   7   64.39    3.30
   1   3  -7   56.49    4.60
  -1   3   7   79.19    7.60
   1   3  -7   68.89    4.30
   0  -3  -7 2049.49   48.40
   0  -3   7 2055.39   57.59
   0  -3   7 2044.40   48.30
   0  -3  -7 1975.60   49.60
   0   3  -7 1907.31   49.40
   0   3   7 2016.50   46.00
   0   3  -7 1993.00   46.60
   0   3   7 1940.21   55.09
  -1  -3  -7  617.84   18.70
   1  -3   7  617.44   15.90
  -1  -3  -7  643.94   17.50
   1   3   7  636.54   16.90
  -1   3  -7  626.34   17.20
  -1   3  -7  590.34   18.30
   1   3   7  622.74   21.10
   2  -3   7 1299.77   41.30
  -2  -3  -7 1302.87   33.90
  -2  -3  -7 1329.77   36.00
  -2   3  -7 1315.57   34.90
  -2   3  -7 1331.67   32.80
   2   3   7 1331.07   32.40
   2   3   7 1359.46   38.40
  -3  -3  -7  198.28   10.60
  -3  -3  -7  211.48    8.80
   3  -3   7  189.28   12.00
  -3   3  -7  210.58    8.80
   3   3   7  206.38    8.30
   3   3   7  206.08    9.90
  -3   3  -7  197.98    9.30
  -4  -3  -7 1266.57   37.10
  -4  -3  -7 1278.47   33.60
   4  -3   7 1269.27   40.20
  -4   3  -7 1185.18   34.40
   4   3   7 1216.48   35.50
   4   3   7 1202.58   31.50
  -4   3  -7 1239.68   32.10
  -5  -3  -7  188.48   11.50
  -5  -3  -7  208.28   10.20
   5  -3   7  187.48   12.60
  -5   3  -7  200.18    9.40
  -5   3  -7  205.98   10.90
   5   3   7  190.68    9.20
  -6  -3  -7  790.22   26.20
   6  -3   7  767.22   28.40
  -6  -3  -7  756.42   24.20
  -6   3  -7  719.83   22.80
  -6   3  -7  758.92   25.70
   6   3   7  776.52   22.80
  -7  -3  -7  117.09   11.20
  -7  -3  -7  134.39    9.70
   7  -3   7  136.19   11.20
  -7   3  -7  117.69    8.40
  -7   3  -7  129.59   11.10
   7   3   7  118.69    8.60
  -8  -3  -7  303.57   15.00
   8  -3   7  276.37   13.30
   8   3   7  314.87   14.10
  -8   3  -7  310.37   16.70
  -8  -4   7   30.30    8.00
   8  -4  -7   45.60    6.50
  -8   4   7   37.60    6.40
   8   4  -7   47.70    7.00
  -8   4   7   41.00   10.60
   7  -4  -7   69.89    6.80
  -7  -4   7   74.39    9.60
   7   4  -7   63.19    7.40
  -7   4   7   72.79   11.50
  -7   4   7   80.69    8.00
   7   4  -7   72.49    7.10
  -6  -4   7    2.60    4.60
   6  -4  -7    5.70    3.00
  -6   4   7   10.10    3.80
   6   4  -7    4.30    3.40
  -6   4   7    1.80    5.30
   6   4  -7    9.80    3.90
  -5  -4   7  191.28   11.60
   5  -4  -7  160.88    7.90
   5   4  -7  176.28    9.20
  -5   4   7  178.58   13.40
   5   4  -7  175.88    9.20
  -4  -4   7  114.79    9.20
   4  -4  -7  117.19    7.30
   4  -4  -7  121.99    6.10
  -4  -4   7  118.99    8.90
   4   4  -7  119.69    7.40
  -4   4   7  109.49   10.90
   4   4  -7  128.29    7.50
  -3  -4   7  179.88   11.20
   3  -4  -7  167.98    6.90
  -3  -4   7  179.78    9.80
   3  -4  -7  157.18    8.20
  -3   4   7  134.99   10.50
   3   4  -7  171.88    8.30
   3   4  -7  169.98    8.30
  -2  -4   7   19.60    5.20
   2  -4  -7   18.50    3.60
  -2  -4   7   21.10    4.10
   2  -4  -7   17.90    2.60
   2   4  -7   15.30    3.30
   2   4  -7   15.60    3.30
  -2   4   7   20.80    4.90
   1  -4  -7   74.99    4.30
  -1  -4   7   70.99    5.70
  -1  -4   7   74.89    9.10
   1  -4  -7   77.39    5.80
   1   4  -7   66.69    5.30
  -1   4   7   77.79    4.40
  -1   4   7   69.79    7.60
   1   4  -7   79.39    5.60
   0  -4  -7  191.08    9.00
   0  -4   7  214.88   13.40
   0  -4   7  216.78    8.80
   0  -4  -7  203.78    7.50
   0   4   7  196.58    7.90
   0   4  -7  215.98    8.80
   0   4  -7  191.28    8.40
   0   4   7  198.18   11.40
  -1  -4  -7  765.72   20.40
  -1  -4  -7  727.63   22.70
   1  -4   7  698.23   28.00
  -1   4  -7  756.92   21.50
   1   4   7  746.93   20.40
  -1   4  -7  755.42   20.90
   1   4   7  737.53   25.30
  -2  -4  -7   65.59    4.80
   2  -4   7   57.39    8.40
  -2  -4  -7   70.89    6.90
   2   4   7   66.59    7.00
  -2   4  -7   61.79    5.70
  -2   4  -7   55.79    5.10
   2   4   7   61.99    5.40
   3  -4   7 1052.19   36.70
  -3  -4  -7 1003.70   27.40
  -3  -4  -7  941.41   31.20
  -3   4  -7 1020.20   27.20
   3   4   7 1020.10   31.20
   3   4   7  989.90   27.00
  -3   4  -7  996.90   28.60
  -4  -4  -7  364.66   17.40
   4  -4   7  361.46   19.50
  -4  -4  -7  369.56   13.50
  -4   4  -7  374.26   14.70
  -4   4  -7  355.56   13.60
   4   4   7  369.56   15.10
   4   4   7  370.76   13.60
  -5  -4  -7 3333.57   85.49
  -5  -4  -7 3255.37   80.29
   5  -4   7 3217.28   92.49
  -5   4  -7 3222.98   76.99
   5   4   7 3275.87   76.99
  -5   4  -7 3255.87   82.09
  -6  -4  -7   10.40    5.30
  -6  -4  -7   10.50    4.20
   6  -4   7   25.20    7.50
   6   4   7   10.80    4.10
  -6   4  -7   18.70    5.40
  -6   4  -7   21.00    5.00
   7  -4   7 1543.45   51.69
  -7  -4  -7 1669.43   48.10
  -7  -4  -7 1578.74   44.70
  -7   4  -7 1637.44   46.90
   7   4   7 1595.14   42.70
  -7   4  -7 1551.34   42.70
  -8  -4  -7   16.20    5.70
   8  -4   7   29.20    7.90
   8   4   7   24.50    6.00
  -8   4  -7   15.90    5.60
  -8   4  -7   18.90    6.80
   7  -5  -7  154.58   10.50
  -7  -5   7  138.59   13.00
   7   5  -7  153.98   10.30
   7   5  -7  143.09   10.00
  -7   5   7  123.19   15.50
   6  -5  -7  520.75   18.70
  -6  -5   7  478.35   21.60
   6   5  -7  507.25   18.00
  -6   5   7  514.05   26.20
   6   5  -7  489.25   17.70
  -5  -5   7  193.88   13.00
   5  -5  -7  203.48   10.50
  -5   5   7  217.58   16.20
   5   5  -7  207.18   10.70
   5   5  -7  197.78   10.00
   4  -5  -7  686.03   22.20
  -4  -5   7  699.43   25.10
  -4  -5   7  694.43   26.30
  -4   5   7  704.33   28.70
   4   5  -7  643.94   21.20
   4   5  -7  725.03   21.30
  -3  -5   7   47.30    7.60
   3  -5  -7   46.80    5.70
  -3  -5   7   42.90    6.60
  -3   5   7   41.30    8.00
   3   5  -7   45.10    4.90
   3   5  -7   53.69    6.20
  -2  -5   7  587.74   21.00
  -2  -5   7  591.54   24.70
   2  -5  -7  649.74   20.10
   2   5  -7  607.54   18.30
  -2   5   7  613.04   25.00
   2   5  -7  569.14   19.00
   1  -5  -7   68.29    6.60
  -1  -5   7   73.89    7.20
  -1  -5   7   71.69    9.70
  -1   5   7   72.49    5.10
   1   5  -7   71.69    5.60
  -1   5   7   63.89    8.30
   1   5  -7   76.29    6.70
   0  -5   7  297.87   17.60
   0  -5   7  312.97   13.10
   0  -5  -7  345.77   14.00
   0   5  -7  336.07   11.90
   0   5  -7  352.56   13.10
   0   5   7  342.27   11.70
   0   5   7  348.77   16.70
   1  -5   7  124.79   13.00
  -1  -5  -7  124.09    8.90
  -1   5  -7  129.89    7.20
  -1   5  -7  131.09    7.90
   1   5   7  110.49    9.60
   1   5   7  127.79    7.40
  -2  -5  -7  848.32   28.10
   2  -5   7  846.32   33.80
   2   5   7  859.61   24.50
  -2   5  -7  860.51   24.80
   2   5   7  841.12   29.10
  -2   5  -7  900.31   25.30
   3  -5   7  232.88   16.30
  -3  -5  -7  183.98   12.60
   3   5   7  214.08   10.30
   3   5   7  202.48   11.70
  -3   5  -7  202.58   10.30
  -3   5  -7  204.08   10.30
   4  -5   7  742.43   32.60
  -4  -5  -7  842.22   29.70
   4   5   7  776.82   24.00
  -4   5  -7  798.52   24.00
   5  -5   7  146.89   15.60
  -5  -5  -7  118.49   12.00
  -5   5  -7  133.99    9.40
   5   5   7  128.39    9.30
  -6  -5  -7 1441.16   45.00
   6  -5   7 1416.86   50.59
  -6   5  -7 1431.46   39.30
   6   5   7 1444.86   39.80
   7  -5   7   76.39   12.20
  -7  -5  -7   67.39   10.00
   7   5   7   58.69    8.00
  -7   5  -7   57.09    7.80
   6  -6  -7  122.69   10.30
  -6  -6   7   90.69   11.30
   6   6  -7   87.89    8.60
  -6   6   7  125.89   15.50
   5  -6  -7 1902.41   51.59
  -5  -6   7 1841.52   55.09
   5   6  -7 1928.71   49.20
  -5   6   7 1904.01   62.89
  -4  -6   7   89.79   10.20
   4  -6  -7  103.59    8.80
   4   6  -7   99.99    8.70
  -4   6   7  127.39   14.50
   3  -6  -7 1693.13   47.10
  -3  -6   7 1858.61   54.69
  -3  -6   7 1690.53   49.60
  -3   6   7 1723.43   56.19
   3   6  -7 1699.23   45.30
  -2  -6   7  101.99    9.80
  -2  -6   7  143.49   13.90
   2  -6  -7  110.09    8.80
  -2   6   7  120.39   13.30
   2   6  -7  109.49    9.30
   1  -6  -7 2469.35   64.39
  -1  -6   7 2602.64   74.39
  -1  -6   7 2444.26   64.89
   1   6  -7 2368.86   60.49
  -1   6   7 2429.16   72.29
   0  -6   7  319.07   19.40
   0  -6  -7  333.57   15.40
   0   6  -7  340.47   14.40
   0   6   7  389.46   19.30
   0   6   7  360.06   13.00
   1  -6   7 1552.04   53.19
  -1  -6  -7 1530.25   45.00
   1   6   7 1569.84   39.70
   1   6   7 1516.75   48.70
  -1   6  -7 1588.54   41.30
  -2  -6  -7   69.29    9.30
   2  -6   7   59.79   10.60
   2   6   7   79.59    9.60
  -2   6  -7   74.89    7.80
   2   6   7   74.49    7.00
   3  -6   7  728.23   32.90
  -3  -6  -7  736.43   28.40
   3   6   7  752.12   23.30
  -3   6  -7  715.33   23.30
   3   6   7  712.53   27.50
   4  -6   7  360.86   22.80
  -4  -6  -7  352.66   19.40
   4   6   7  370.86   15.50
  -4   6  -7  368.26   15.30
   5  -6   7  443.16   26.80
  -5  -6  -7  487.15   23.00
  -5   6  -7  471.25   18.70
   5   6   7  502.65   19.20
  -6  -6  -7   51.59    9.70
   6  -6   7   47.70   11.80
  -6   6  -7   48.80    7.70
   6   6   7   58.39    8.20
   5  -7  -7   43.10    7.40
  -5  -7   7   41.50    8.90
   5   7  -7   36.90    7.00
  -5   7   7   38.90   10.90
   4  -7  -7 1113.89   34.30
  -4  -7   7 1045.80   36.40
  -4   7   7 1122.99   44.40
   4   7  -7 1061.19   32.50
   3  -7  -7   12.10    5.50
  -3  -7   7   11.70    5.90
   3   7  -7   17.20    5.80
  -3   7   7    5.40    7.00
  -2  -7   7 1754.92   50.79
  -2  -7   7 1827.72   57.29
   2  -7  -7 1730.33   49.70
  -2   7   7 1768.92   58.89
   2   7  -7 1701.43   47.00
  -1  -7   7    0.50    6.20
   1  -7  -7    0.00    4.20
   1   7  -7    3.80    5.10
  -1   7   7    5.40    6.80
   0  -7   7 1911.61   61.89
   0  -7  -7 1894.21   53.99
   0   7  -7 1833.22   49.60
   0   7   7 1849.21   59.99
  -1  -7  -7   90.79   10.50
   1  -7   7   81.99   13.10
   1   7   7   94.09    8.00
   1   7   7   85.59   11.20
  -1   7  -7   96.59    9.50
  -2  -7  -7  915.11   34.40
   2  -7   7 1015.70   41.40
   2   7   7 1002.00   28.70
  -2   7  -7  989.50   30.50
   2   7   7  963.70   36.40
  -3  -7  -7  209.38   15.80
   3  -7   7  208.58   20.70
  -3   7  -7  197.88   12.30
   3   7   7  221.78   12.00
  -4  -7  -7  586.84   26.90
   4  -7   7  574.94   31.10
   4   7   7  593.04   21.50
  -4   7  -7  593.44   21.90
  -2  -8   7   18.40    8.30
   1  -8  -7  342.07   18.70
  -1  -8   7  355.26   22.60
   1   8  -7  334.27   17.10
  -1   8   7  338.17   22.80
   0  -8  -7   79.19   11.00
   0  -8   7  100.99   14.40
   0   8   7   92.19   13.70
   0   8  -7   85.39   10.00
   1  -8   7  521.95   29.00
  -1  -8  -7  525.15   25.00
   1   8   7  517.05   27.00
  -1   8  -7  523.85   21.60
  -9   0   8   -1.10    4.70
   9   0  -8   -1.50    5.50
   8   0  -8 1960.50   54.39
  -8   0   8 1922.31   52.69
   7   0  -8    4.40    3.90
  -7   0   8   -0.30    3.30
  -6   0   8 2703.43   67.69
   6   0  -8 2668.23   68.49
  -6   0   8 2670.23   72.79
   5   0  -8    3.70    2.80
  -5   0   8    5.00    3.40
  -5   0   8    1.00    2.60
  -4   0   8 3365.56   79.49
   4   0  -8 3128.59   79.59
  -4   0   8 3329.87   86.39
   3   0  -8   -1.90    1.80
  -3   0   8    0.40    2.50
  -3   0   8    0.50    1.70
  -2   0   8 2407.76   58.99
   2   0  -8 2429.96   59.79
  -2   0   8 2364.66   65.59
   2   0  -8 2570.14   53.29
  -1   0   8   -0.20    1.30
   1   0  -8   -0.30    0.90
  -1   0   8    1.70    2.60
   1   0  -8   -0.20    1.70
   0   0  -8 1748.63   38.70
   0   0   8 1670.93   40.90
   0   0   8 1693.83   47.80
   1   0   8   -2.30    2.40
  -1   0  -8   -0.10    1.00
  -1   0  -8    1.40    1.90
  -2   0  -8   98.99    4.50
   2   0   8   93.19    6.90
  -2   0  -8   97.19    6.00
   2   0   8  100.69    4.70
   3   0   8   -0.40    2.50
  -3   0  -8    0.20    2.30
   3   0   8   -0.40    1.70
  -4   0  -8  351.56   13.60
   4   0   8  388.26   15.30
   4   0   8  381.66   12.20
   5   0   8    1.30    3.00
   5   0   8    3.30    2.40
  -5   0  -8   -3.30    2.70
   6   0   8  174.68    8.80
   6   0   8  166.18   10.00
   7   0   8   -2.40    3.20
  -7   0  -8    3.00    4.30
  -8   0  -8   12.40    4.90
   8   0   8   29.80    5.60
   9   0   8   -0.70    4.60
  -9   0  -8   -5.70    5.00
  -9  -1   8  805.62   27.80
   9  -1  -8  750.52   28.00
  -9   1   8  770.92   26.60
   9   1  -8  801.52   28.50
   8  -1  -8    3.90    4.90
  -8  -1   8   -0.90    4.00
   8   1  -8    3.30    5.00
  -8   1   8   -0.80    3.80
  -7  -1   8 1373.96   38.80
   7  -1  -8 1317.47   39.00
  -7   1   8 1430.66   43.40
   7   1  -8 1335.27   39.40
  -7   1   8 1350.16   38.10
  -6  -1   8   68.99    6.80
   6  -1  -8   58.09    6.30
  -6  -1   8   54.89    7.20
   6   1  -8   59.99    6.90
  -6   1   8   49.80    5.50
  -6   1   8   58.39    7.30
  -5  -1   8 1620.44   45.90
   5  -1  -8 1569.24   42.50
  -5  -1   8 1608.04   42.40
  -5   1   8 1664.33   42.40
   5   1  -8 1525.65   42.80
  -5   1   8 1639.04   47.00
  -4  -1   8   67.29    5.30
  -4  -1   8   67.49    6.70
   4  -1  -8   69.09    5.90
   4   1  -8   61.79    6.00
  -4   1   8   58.29    6.50
  -4   1   8   66.89    5.70
  -3  -1   8 2171.98   59.39
   3  -1  -8 2168.18   53.69
  -3  -1   8 2175.58   53.49
  -3   1   8 2210.28   53.69
  -3   1   8 2093.09   59.39
   3   1  -8 2218.28   48.20
   3   1  -8 2145.89   54.29
  -2  -1   8  752.82   25.40
  -2  -1   8  773.02   21.30
   2  -1  -8  781.92   22.00
  -2   1   8  797.62   25.70
  -2   1   8  847.32   21.80
   2   1  -8  805.72   18.70
   2   1  -8  770.12   22.30
  -1  -1   8  760.02   24.80
  -1  -1   8  760.42   19.70
   1  -1  -8  707.63   20.60
   1   1  -8  743.73   18.10
  -1   1   8  734.53   20.10
  -1   1   8  743.13   24.40
  -1   1   8  770.12   17.10
   1   1  -8  750.02   21.30
   0  -1   8  837.42   20.70
   0  -1  -8  803.12   21.40
   0  -1  -8  820.82   22.60
   0  -1   8  784.72   26.40
   0   1   8  824.22   19.50
   0   1  -8  847.72   23.20
   0   1   8  811.32   26.20
   0   1  -8  843.02   20.30
  -1  -1  -8 1046.00   26.30
  -1  -1  -8 1026.00   27.40
   1  -1   8  993.20   31.70
   1   1   8 1044.20   24.60
  -1   1  -8 1053.99   25.30
  -1   1  -8 1041.20   24.70
   1   1   8 1011.00   31.10
  -1   1  -8 1033.80   27.90
   2  -1   8 1005.70   31.70
  -2  -1  -8  991.40   27.40
  -2  -1  -8 1063.99   26.70
  -2   1  -8  987.70   27.70
   2   1   8  976.20   30.60
  -2   1  -8 1048.40   25.60
   2   1   8 1021.70   24.90
  -3  -1  -8 1635.24   42.10
   3  -1   8 1639.14   47.10
  -3  -1  -8 1648.54   42.40
   3   1   8 1625.14   38.80
  -3   1  -8 1623.04   39.40
  -3   1  -8 1640.04   42.60
   3   1   8 1613.54   45.80
   4  -1   8  234.68   12.00
  -4  -1  -8  230.88   10.20
   4   1   8  238.78    9.00
   4   1   8  212.48   10.80
  -4   1  -8  240.58    9.50
  -4   1  -8  215.48   10.30
   5  -1   8 1015.00   26.90
  -5  -1  -8  998.90   29.40
   5  -1   8 1016.50   32.20
  -5   1  -8  983.80   29.70
   5   1   8  997.60   26.70
   5   1   8 1024.40   30.80
   6  -1   8  143.19    8.10
   6  -1   8  139.29    9.90
  -6  -1  -8  135.99    9.40
  -6   1  -8  143.99    9.90
   6   1   8  150.78    8.30
   7  -1   8 1013.70   28.50
  -7  -1  -8  988.10   31.20
   7   1   8  997.40   28.30
  -7   1  -8 1022.10   32.00
   8  -1   8   51.89    6.40
  -8  -1  -8   40.10    6.80
  -8   1  -8   58.39    8.50
   8   1   8   56.29    6.70
   9  -1   8  495.25   18.40
  -9  -1  -8  469.35   21.20
   9   1   8  455.85   18.20
  -9   1  -8  453.05   21.00
   9  -2  -8    6.60    5.60
  -9  -2   8   10.00    6.00
   9   2  -8   -0.90    5.50
  -9   2   8    3.10    4.80
  -8  -2   8   86.49    9.30
   8  -2  -8   92.79    9.30
  -8   2   8   93.99    8.70
   8   2  -8   96.49    9.70
  -7  -2   8   -1.70    3.90
   7  -2  -8    1.20    3.80
  -7   2   8   -0.20    3.50
  -7   2   8   -1.10    4.20
   7   2  -8    6.00    4.60
  -6  -2   8  206.98   11.30
   6  -2  -8  216.68   10.60
   6   2  -8  221.98   11.60
  -6   2   8  203.88   10.20
  -6   2   8  226.38   13.30
  -5  -2   8    3.80    3.10
  -5  -2   8    3.20    3.30
   5  -2  -8    4.90    2.90
  -5   2   8    2.70    2.80
   5   2  -8    3.80    3.50
  -5   2   8    4.00    3.80
  -4  -2   8  700.63   21.50
  -4  -2   8  709.53   24.20
   4  -2  -8  731.43   21.10
  -4   2   8  694.03   24.90
   4   2  -8  712.23   22.00
   4   2  -8  712.33   18.70
  -4   2   8  733.73   21.40
   3  -2  -8   69.49    5.00
  -3  -2   8   73.19    7.30
  -3  -2   8   67.79    5.00
  -3   2   8   63.89    7.00
   3   2  -8   65.19    5.80
   3   2  -8   76.89    4.10
  -3   2   8   73.19    5.30
  -2  -2   8  610.74   22.30
  -2  -2   8  635.64   18.20
   2  -2  -8  647.44   18.40
   2   2  -8  654.33   19.40
  -2   2   8  660.63   18.60
  -2   2   8  638.24   22.30
   2   2  -8  632.64   16.40
  -1  -2   8   67.59    7.40
  -1  -2   8   71.09    4.00
   1  -2  -8   70.69    4.60
   1  -2  -8   64.69    4.50
  -1   2   8   75.39    6.50
   1   2  -8   64.59    5.40
   1   2  -8   65.09    3.80
  -1   2   8   70.99    3.10
   0  -2   8 2098.59   59.99
   0  -2   8 2172.48   50.79
   0  -2  -8 2154.18   52.39
   0  -2  -8 2138.29   52.39
   0   2  -8 2127.29   53.39
   0   2   8 2159.18   48.30
   0   2  -8 2164.18   49.20
   0   2   8 2157.08   58.89
  -1  -2  -8  251.27    9.20
  -1  -2  -8  239.98    9.20
   1  -2   8  256.67    7.00
   1  -2   8  258.57   13.00
  -1   2  -8  245.78   10.00
   1   2   8  244.48   11.60
   1   2   8  242.88    7.90
  -1   2  -8  257.37    8.70
  -2  -2  -8 4659.23  108.39
  -2  -2  -8 4579.94  107.59
   2  -2   8 4347.37  118.59
   2   2   8 4623.84  116.89
  -2   2  -8 4483.95  108.29
  -2   2  -8 4557.24  101.79
   2   2   8 4592.74  101.09
   3  -2   8  176.18   11.00
  -3  -2  -8  172.88    8.30
  -3  -2  -8  186.78    9.50
  -3   2  -8  164.98    8.50
  -3   2  -8  170.38    7.80
   3   2   8  180.98    7.40
   3   2   8  172.58    9.30
  -4  -2  -8 3450.85   84.49
  -4  -2  -8 3530.85   86.49
   4  -2   8 3408.26   92.89
  -4   2  -8 3445.96   79.89
   4   2   8 3442.86   79.09
   4   2   8 3593.74   90.39
  -4   2  -8 3368.76   85.19
  -5  -2  -8   23.70    4.80
   5  -2   8   28.10    5.70
  -5  -2  -8   27.90    4.70
  -5   2  -8   23.40    4.60
  -5   2  -8   30.80    4.70
   5   2   8   32.10    4.80
   5   2   8   27.40    4.20
   6  -2   8 2816.52   77.59
  -6  -2  -8 2746.83   71.19
   6   2   8 2839.32   66.59
  -6   2  -8 2727.93   66.99
  -6   2  -8 2870.01   72.59
   7  -2   8   29.80    6.00
   7  -2   8   22.70    5.10
  -7  -2  -8   21.70    5.20
   7   2   8   22.90    4.80
  -7   2  -8   22.40    6.20
  -8  -2  -8 1825.22   51.99
   8  -2   8 1837.32   47.80
   8   2   8 1895.51   48.20
  -8   2  -8 1850.81   53.39
  -9  -2  -8    5.90    5.60
  -9   2  -8    4.00    5.60
   8  -3  -8   26.80    5.90
  -8  -3   8   39.60    7.60
   8   3  -8   21.50    6.20
  -8   3   8   36.40    6.00
  -7  -3   8  358.86   16.80
   7  -3  -8  332.47   14.40
   7   3  -8  365.36   15.70
  -7   3   8  354.86   19.70
  -7   3   8  337.97   14.80
   6  -3  -8    1.20    3.10
  -6  -3   8    2.50    3.80
   6   3  -8   -3.00    3.60
  -6   3   8   -1.00    3.30
  -6   3   8    2.40    4.70
  -5  -3   8  444.06   18.70
   5  -3  -8  442.96   15.10
  -5  -3   8  442.36   17.00
  -5   3   8  439.76   20.00
   5   3  -8  450.75   16.40
  -5   3   8  427.36   15.60
   5   3  -8  457.65   14.50
  -4  -3   8  122.49    7.90
  -4  -3   8  132.79    9.40
   4  -3  -8  131.99    6.80
   4   3  -8  129.89    6.80
   4   3  -8  126.09    7.90
  -4   3   8  130.19    7.60
  -4   3   8  122.69   10.10
  -3  -3   8  668.23   20.50
   3  -3  -8  642.64   18.90
  -3  -3   8  690.43   24.40
   3   3  -8  657.03   20.50
   3   3  -8  678.53   18.50
  -3   3   8  673.73   24.40
   2  -3  -8  347.07   12.20
  -2  -3   8  345.17   16.10
   2  -3  -8  363.66   11.60
  -2  -3   8  335.97   12.10
   2   3  -8  349.27   11.10
   2   3  -8  345.27   12.60
  -2   3   8  360.66   15.70
  -1  -3   8 2229.98   54.09
   1  -3  -8 2247.48   55.09
   1  -3  -8 2264.77   53.99
  -1  -3   8 2199.68   62.99
   1   3  -8 2185.38   51.39
   1   3  -8 2192.18   55.19
  -1   3   8 2219.98   61.79
   0  -3   8  976.00   24.60
   0  -3   8 1008.00   33.00
   0  -3  -8  947.11   25.40
   0  -3  -8  974.80   26.50
   0   3   8  985.10   30.80
   0   3  -8  970.60   24.70
   0   3  -8  918.11   26.60
   0   3   8  971.10   24.00
  -1  -3  -8 2536.55   63.49
  -1  -3  -8 2610.14   62.29
   1  -3   8 2587.44   72.59
  -1   3  -8 2595.84   59.49
  -1   3  -8 2518.45   63.39
   1   3   8 2570.84   69.59
   1   3   8 2576.04   58.79
   2  -3   8  345.87   16.90
  -2  -3  -8  369.36   12.40
  -2  -3  -8  354.86   13.60
  -2   3  -8  360.06   12.10
   2   3   8  367.36   15.10
   2   3   8  372.36   11.70
  -2   3  -8  332.57   13.00
  -3  -3  -8 1614.04   44.40
  -3  -3  -8 1636.14   41.60
   3  -3   8 1624.44   49.50
  -3   3  -8 1536.65   42.40
   3   3   8 1636.04   39.30
   3   3   8 1597.74   45.70
  -3   3  -8 1598.64   39.70
  -4  -3  -8   92.59    6.80
  -4  -3  -8   75.19    8.30
   4  -3   8   89.89   10.00
  -4   3  -8  102.49    7.70
   4   3   8   95.89    6.30
   4   3   8  101.99    7.60
  -4   3  -8   92.49    6.40
  -5  -3  -8 1605.24   45.10
   5  -3   8 1532.55   48.80
  -5  -3  -8 1585.34   42.40
   5   3   8 1559.14   39.80
  -5   3  -8 1591.64   43.90
  -5   3  -8 1545.35   40.30
   6  -3   8   68.99    9.50
  -6  -3  -8   77.69    9.20
  -6  -3  -8   80.59    7.80
   6   3   8   76.29    7.10
  -6   3  -8   65.89    7.60
  -6   3  -8   49.80    6.40
   7  -3   8  889.81   32.90
  -7  -3  -8  910.61   29.00
   7   3   8  917.01   27.10
  -7   3  -8  901.51   30.70
  -7   3  -8  910.51   27.30
   8  -3   8  115.89    9.40
  -8  -3  -8   98.39   10.00
   8   3   8  115.09    9.90
  -8   3  -8  121.49   12.00
  -8  -4   8 1798.22   53.69
   8  -4  -8 1734.53   48.40
  -8   4   8 1862.21   61.59
   8   4  -8 1838.82   50.19
  -8   4   8 1801.62   49.90
  -7  -4   8   14.30    6.00
   7  -4  -8    4.10    3.60
   7   4  -8   11.00    4.90
  -7   4   8   17.20    7.30
  -7   4   8   13.10    4.60
  -6  -4   8 2052.09   56.39
   6  -4  -8 1980.10   51.19
  -6   4   8 2002.60   53.09
   6   4  -8 2090.09   53.19
   6   4  -8 2005.80   49.99
  -6   4   8 1923.91   61.99
  -5  -4   8   84.39    8.60
   5  -4  -8   88.79    6.30
   5   4  -8   86.59    7.70
   5   4  -8   80.19    7.00
  -5   4   8   87.79   10.80
  -4  -4   8 1333.57   41.60
   4  -4  -8 1330.97   36.50
  -4  -4   8 1358.36   38.70
   4  -4  -8 1365.86   34.70
  -4   4   8 1336.47   43.30
   4   4  -8 1292.27   34.60
   4   4  -8 1348.86   36.40
  -3  -4   8  243.88   11.20
   3  -4  -8  214.38    9.90
   3  -4  -8  211.18    8.40
  -3  -4   8  181.58   12.30
   3   4  -8  222.78    9.90
   3   4  -8  212.38    9.50
  -3   4   8  211.88   13.50
   2  -4  -8 1976.30   47.90
   2  -4  -8 1960.20   50.09
  -2  -4   8 1917.91   57.99
  -2  -4   8 1996.60   50.69
  -2   4   8 1964.60   57.19
   2   4  -8 1931.51   47.20
   2   4  -8 1930.91   49.60
   1  -4  -8  119.19    7.30
  -1  -4   8  143.49   11.30
   1  -4  -8  129.49    6.10
  -1  -4   8  125.49    7.10
   1   4  -8  128.99    7.40
   1   4  -8  135.39    7.10
  -1   4   8  142.69   10.40
   0  -4   8  908.91   33.30
   0  -4  -8  915.41   27.00
   0  -4  -8  961.30   25.00
   0   4   8  955.30   31.20
   0   4  -8  935.11   25.10
   0   4  -8  918.31   26.20
   0   4   8  970.30   24.40
  -1  -4  -8   91.09    7.50
  -1  -4  -8   73.59    5.00
   1  -4   8   80.89    9.90
   1   4   8   90.69    8.70
  -1   4  -8   83.79    6.00
   1   4   8   76.39    5.30
  -1   4  -8   77.99    6.00
   2  -4   8  213.98   14.20
  -2  -4  -8  210.08   11.20
  -2  -4  -8  207.38    8.80
  -2   4  -8  207.18   10.00
   2   4   8  238.78   12.40
  -2   4  -8  205.78    9.20
   2   4   8  222.58    9.40
  -3  -4  -8   25.30    5.50
  -3  -4  -8   12.70    3.30
   3  -4   8    6.20    5.20
   3   4   8   11.50    4.30
   3   4   8   12.90    3.40
  -3   4  -8   10.00    3.60
  -3   4  -8    7.40    3.60
   4  -4   8   76.29   10.00
  -4  -4  -8   72.69    6.60
  -4  -4  -8   76.69    9.40
  -4   4  -8   82.49    7.80
   4   4   8   77.49    7.50
   4   4   8   83.39    7.00
  -4   4  -8   83.99    7.20
  -5  -4  -8   -0.10    3.00
  -5  -4  -8    1.70    4.50
   5  -4   8    1.10    4.60
  -5   4  -8    3.60    3.90
   5   4   8   -2.70    3.00
  -5   4  -8   -2.00    3.60
   6  -4   8  107.69   12.50
  -6  -4  -8  101.09    8.70
  -6  -4  -8  104.79   10.70
  -6   4  -8  104.49    9.10
  -6   4  -8   99.89    9.70
   6   4   8   90.59    7.90
  -7  -4  -8   79.79    8.60
   7  -4   8   74.59   11.00
   7   4   8   63.19    7.40
  -7   4  -8   89.19    9.90
  -7   4  -8   70.09    8.30
  -8  -4  -8  389.96   18.10
  -8   4  -8  406.66   20.30
   7  -5  -8 1304.57   38.40
  -7  -5   8 1278.37   42.20
  -7   5   8 1319.97   49.10
   7   5  -8 1301.37   37.60
   6  -5  -8    4.60    4.30
  -6  -5   8   10.50    5.70
   6   5  -8    4.10    4.10
  -6   5   8    8.80    7.10
   6   5  -8    1.90    4.10
  -5  -5   8 1608.64   49.10
   5  -5  -8 1735.03   46.40
  -5   5   8 1750.22   56.09
   5   5  -8 1734.73   45.20
   5   5  -8 1665.83   43.90
   4  -5  -8   34.30    5.40
  -4  -5   8   44.50    7.20
  -4  -5   8   30.60    6.70
   4   5  -8   45.30    5.50
   4   5  -8   30.20    5.40
  -4   5   8   54.09    9.40
  -3  -5   8 1439.96   41.10
   3  -5  -8 1408.56   39.10
  -3  -5   8 1420.86   45.70
  -3   5   8 1368.26   46.10
   3   5  -8 1376.36   37.20
   3   5  -8 1467.35   37.90
  -2  -5   8  324.47   17.50
   2  -5  -8  271.97   12.30
  -2  -5   8  291.97   13.40
   2   5  -8  283.87   12.10
  -2   5   8  298.77   16.60
   2   5  -8  291.37   11.50
   1  -5  -8 1348.97   37.50
  -1  -5   8 1401.16   37.70
  -1  -5   8 1358.86   45.20
   1   5  -8 1345.77   35.30
   1   5  -8 1297.07   35.50
  -1   5   8 1298.47   42.90
   0  -5  -8  486.65   18.20
   0  -5   8  513.55   24.20
   0   5  -8  494.75   17.00
   0   5   8  532.75   22.00
   0   5   8  520.95   16.90
   0   5  -8  518.85   16.80
   1  -5   8  726.93   30.90
  -1  -5  -8  728.23   24.60
  -1   5  -8  757.62   22.70
   1   5   8  789.92   21.90
   1   5   8  734.63   27.50
  -1   5  -8  785.82   22.60
   2  -5   8  164.78   16.10
  -2  -5  -8  162.98   10.90
   2   5   8  159.58   11.20
  -2   5  -8  162.28    9.20
  -2   5  -8  167.68    9.10
   2   5   8  168.48    8.80
   3  -5   8  428.66   23.00
  -3  -5  -8  427.96   19.40
   3   5   8  427.06   18.70
  -3   5  -8  455.15   16.20
  -3   5  -8  458.45   16.70
   3   5   8  425.16   15.70
   4  -5   8   28.50    7.90
  -4  -5  -8   25.10    6.80
   4   5   8   36.60    5.80
  -4   5  -8   32.00    5.60
  -4   5  -8   37.30    6.10
  -5  -5  -8  240.68   15.50
   5  -5   8  238.98   17.40
   5   5   8  212.58   11.80
  -5   5  -8  211.08   11.40
  -6  -5  -8   15.30    6.90
   6  -5   8   17.50    8.00
   6   5   8   24.50    6.00
  -6   5  -8   16.10    5.40
  -7  -5  -8  410.46   20.60
   7  -5   8  422.06   24.20
  -7   5  -8  387.36   17.60
   7   5   8  428.66   18.10
   6  -6  -8  218.28   13.00
  -6  -6   8  223.38   15.70
   6   6  -8  225.68   12.80
  -6   6   8  251.17   19.70
   5  -6  -8  122.49   10.30
  -5  -6   8  118.89   12.00
  -5   6   8  121.69   14.90
   5   6  -8  113.99    9.80
  -4  -6   8  318.37   16.70
   4  -6  -8  305.67   14.60
  -4   6   8  372.06   21.80
   4   6  -8  339.17   15.00
   3  -6  -8  360.36   15.80
  -3  -6   8  407.46   20.40
  -3  -6   8  386.76   17.90
  -3   6   8  353.16   20.50
   3   6  -8  360.16   15.40
  -2  -6   8  809.42   32.40
   2  -6  -8  818.62   26.60
  -2  -6   8  826.92   27.80
  -2   6   8  843.12   32.90
   2   6  -8  795.12   25.40
   1  -6  -8  293.87   14.10
  -1  -6   8  260.67   17.90
   1   6  -8  285.77   13.20
  -1   6   8  285.97   17.50
   0  -6  -8 1016.80   32.50
   0  -6   8 1047.60   39.80
   0   6   8 1073.69   37.50
   0   6  -8 1055.69   30.40
  -1  -6  -8  134.09   10.70
   1  -6   8  109.99   13.50
  -1   6  -8  133.29    9.50
   1   6   8  135.59   12.90
   1   6   8  150.08    8.70
  -2  -6  -8 1503.55   45.40
   2  -6   8 1527.85   53.69
   2   6   8 1483.35   39.30
  -2   6  -8 1490.85   40.50
   2   6   8 1502.45   47.60
   3  -6   8   23.30    9.50
  -3  -6  -8    6.80    5.70
   3   6   8   23.00    5.20
  -3   6  -8   17.60    5.40
   3   6   8   24.00    6.30
  -4  -6  -8 1930.11   57.59
   4  -6   8 1790.42   64.39
  -4   6  -8 1891.21   49.90
   4   6   8 1982.30   49.99
  -5  -6  -8    6.10    6.10
   5  -6   8   -5.60    7.20
   5   6   8    1.20    4.80
  -5   6  -8    4.30    5.00
  -4  -7   8   29.50    7.90
   4  -7  -8   26.10    6.50
   4   7  -8   26.60    6.70
  -4   7   8   29.60    9.50
   3  -7  -8  310.67   15.90
  -3  -7   8  327.17   17.50
  -3   7   8  294.57   21.30
   3   7  -8  301.37   15.30
   2  -7  -8  142.39   11.30
  -2  -7   8  130.79   14.20
  -2   7   8  138.69   15.90
   2   7  -8  122.99   10.70
   1  -7  -8  933.71   31.40
  -1  -7   8  952.40   37.90
   1   7  -8  906.61   29.30
  -1   7   8  949.01   37.60
   0  -7   8  137.89   15.90
   0  -7  -8  131.29   12.10
   0   7   8  159.18   15.70
   0   7  -8  149.59   11.90
  -1  -7  -8  919.01   32.70
   1  -7   8  880.41   38.60
  -1   7  -8  911.11   29.20
   1   7   8  937.11   35.80
   2  -7   8  144.29   16.90
  -2  -7  -8  152.08   14.20
  -2   7  -8  157.18   11.20
   2   7   8  166.38   10.20
   2   7   8  174.08   14.80
   3  -7   8 1176.58   47.70
  -3  -7  -8 1197.38   41.60
  -3   7  -8 1187.78   35.50
   3   7   8 1128.19   33.40
  -4  -7  -8    4.20    6.60
   4  -7   8    0.70    7.90
  -4   7  -8   13.50    5.50
   4   7   8    1.00    5.00
  -9   0   9  244.98   14.10
   9   0  -9  246.18   15.60
   8   0  -9    0.40    5.00
  -8   0   9   -2.10    4.00
   7   0  -9  180.68   11.60
  -7   0   9  173.08   10.50
   6   0  -9   -1.20    3.30
  -6   0   9   -0.90    3.10
  -6   0   9    2.30    3.80
   5   0  -9  821.82   24.90
  -5   0   9  804.32   27.30
  -5   0   9  761.52   23.60
   4   0  -9    0.50    2.70
  -4   0   9   -0.40    2.90
  -4   0   9   -0.10    2.30
  -3   0   9 2264.17   54.69
  -3   0   9 2145.39   60.89
   3   0  -9 2202.28   55.59
  -2   0   9    1.30    1.80
  -2   0   9    1.20    2.70
   2   0  -9    2.30    2.30
   1   0  -9 6382.76  150.08
  -1   0   9 6301.47  162.78
  -1   0   9 6565.04  149.09
   0   0   9   -0.50    1.20
   0   0   9    3.90    3.10
   0   0  -9    5.20    2.30
  -1   0  -9 3642.94   88.39
   1   0   9 3721.23   81.69
  -1   0  -9 3684.63   85.89
   2   0   9    3.90    3.20
   2   0   9    1.00    1.60
  -2   0  -9   -0.30    2.50
   3   0   9 2829.02   65.49
  -3   0  -9 2894.81   70.99
   3   0   9 2883.51   77.39
   4   0   9    0.30    3.10
   4   0   9    0.80    2.30
  -4   0  -9    2.80    3.10
  -5   0  -9 3019.30   75.69
   5   0   9 2985.10   69.89
   5   0   9 2985.80   80.79
   6   0   9    1.40    2.80
   6   0   9   -2.00    3.10
  -6   0  -9    1.20    3.70
  -7   0  -9  465.45   19.30
   7   0   9  453.95   16.40
  -8   0  -9   -3.00    4.30
   8   0   9    5.70    4.50
  -9  -1   9   92.09    9.90
   9  -1  -9   89.59   10.10
  -9   1   9   78.09    8.80
   9   1  -9   82.39   10.00
   8  -1  -9  546.75   21.60
  -8  -1   9  526.05   20.60
  -8   1   9  498.75   19.80
   8   1  -9  535.65   21.50
  -7  -1   9  435.86   17.70
   7  -1  -9  461.85   18.40
   7   1  -9  477.45   19.00
  -7   1   9  459.95   17.60
  -7   1   9  460.25   20.50
  -6  -1   9  962.90   29.00
  -6  -1   9  951.00   31.40
   6  -1  -9  997.20   29.60
   6   1  -9  984.00   30.00
  -6   1   9  952.90   28.60
  -6   1   9  964.50   32.60
   5  -1  -9  505.55   17.80
  -5  -1   9  538.65   17.90
  -5  -1   9  523.95   20.00
  -5   1   9  535.75   20.80
  -5   1   9  535.15   17.80
   5   1  -9  533.85   18.60
   4  -1  -9 1597.24   42.50
  -4  -1   9 1689.93   47.50
  -4  -1   9 1615.84   42.20
  -4   1   9 1615.24   47.50
  -4   1   9 1624.04   42.20
   4   1  -9 1605.74   43.20
  -3  -1   9 1188.18   31.40
  -3  -1   9 1175.68   36.30
   3  -1  -9 1239.48   32.20
   3   1  -9 1116.49   32.30
  -3   1   9 1208.18   31.60
  -3   1   9 1185.08   36.50
   2  -1  -9 1866.11   47.20
  -2  -1   9 1910.41   53.39
  -2  -1   9 1856.51   46.30
   2   1  -9 1927.41   42.20
  -2   1   9 1820.22   52.79
  -2   1   9 1869.91   46.70
   2   1  -9 1872.81   47.90
  -1  -1   9  263.87    8.70
  -1  -1   9  266.47   13.10
   1  -1  -9  286.47   10.30
  -1   1   9  240.18    9.00
   1   1  -9  241.68   10.30
   1   1  -9  275.47    8.00
  -1   1   9  260.27   12.60
   0  -1   9 1963.40   46.80
   0  -1  -9 1978.30   47.70
   0  -1  -9 1920.71   48.90
   0  -1   9 1978.50   55.59
   0   1   9 2013.30   44.10
   0   1  -9 1988.40   44.90
   0   1  -9 1914.51   49.50
   0   1   9 1922.61   54.79
  -1  -1  -9    4.80    2.50
  -1  -1  -9    4.40    1.70
   1  -1   9    1.80    3.10
  -1   1  -9   -0.90    1.60
   1   1   9   -1.70    2.70
   1   1   9    2.00    1.50
  -1   1  -9    0.60    2.30
  -2  -1  -9 1260.07   32.70
  -2  -1  -9 1238.88   31.30
   2  -1   9 1193.08   37.20
   2   1   9 1211.08   29.30
  -2   1  -9 1225.38   30.10
  -2   1  -9 1172.28   32.70
   2   1   9 1151.08   36.10
   3  -1   9  402.76   17.00
  -3  -1  -9  395.86   14.30
  -3   1  -9  427.76   13.40
   3   1   9  401.76   12.60
  -3   1  -9  417.76   14.90
   3   1   9  422.06   16.60
   4  -1   9 1546.35   46.50
  -4  -1  -9 1576.54   42.10
  -4   1  -9 1569.24   42.60
   4   1   9 1581.64   38.60
   4   1   9 1594.94   45.50
   5  -1   9  112.19    9.20
  -5  -1  -9  121.19    8.50
   5  -1   9  131.59    7.30
   5   1   9  136.29    8.90
   5   1   9  135.69    7.20
  -5   1  -9  115.69    8.40
  -6  -1  -9  948.71   30.20
   6  -1   9  984.00   27.40
   6  -1   9 1028.90   32.70
   6   1   9  967.50   27.30
  -6   1  -9  994.10   31.00
  -7  -1  -9  433.46   18.10
   7  -1   9  405.06   15.50
   7   1   9  414.46   15.30
  -7   1  -9  393.56   17.80
   8  -1   9  542.75   19.70
  -8  -1  -9  556.34   22.10
  -8   1  -9  593.74   23.60
   8   1   9  559.64   19.70
  -9  -2   9 1195.18   38.60
   9  -2  -9 1201.48   38.30
  -9   2   9 1196.58   37.10
   9   2  -9 1218.68   38.50
  -8  -2   9   58.99    8.40
   8  -2  -9   50.39    7.60
   8   2  -9   48.30    7.90
  -8   2   9   42.60    6.80
  -7  -2   9 1903.51   51.89
   7  -2  -9 1821.22   50.69
   7   2  -9 1927.41   51.79
  -7   2   9 1887.61   57.29
  -7   2   9 1834.62   50.39
  -6  -2   9    0.50    3.50
   6  -2  -9    5.00    3.70
  -6   2   9    9.90    5.00
   6   2  -9    2.80    4.20
  -6   2   9    3.80    3.50
   5  -2  -9 1001.30   29.00
  -5  -2   9 1019.10   29.70
  -5  -2   9 1021.70   32.50
   5   2  -9 1009.80   30.20
  -5   2   9 1005.10   34.00
  -5   2   9 1025.80   29.30
  -4  -2   9   16.60    4.60
  -4  -2   9   18.60    3.80
   4  -2  -9   13.80    3.20
  -4   2   9   11.20    3.30
  -4   2   9   19.70    4.80
   4   2  -9   14.40    4.10
   3  -2  -9  805.32   23.50
  -3  -2   9  824.32   23.70
  -3  -2   9  851.91   28.50
   3   2  -9  856.01   20.90
  -3   2   9  853.91   28.50
  -3   2   9  851.41   24.00
   3   2  -9  837.42   24.90
   2  -2  -9  162.08    7.60
  -2  -2   9  151.58    6.90
  -2  -2   9  182.68   11.00
   2   2  -9  168.78    8.60
  -2   2   9  178.48   10.70
  -2   2   9  153.08    7.40
   2   2  -9  157.98    6.00
   1  -2  -9   35.50    3.80
  -1  -2   9   24.70    2.80
   1  -2  -9   24.40    3.30
  -1  -2   9   16.80    4.70
   1   2  -9   22.90    2.70
   1   2  -9   17.60    3.40
  -1   2   9   17.30    4.20
   0  -2  -9   75.59    5.20
   0  -2  -9   81.59    5.10
   0  -2   9   86.19    8.90
   0  -2   9   80.89    3.90
   0   2  -9   79.29    4.50
   0   2   9   87.29    7.60
   0   2   9   87.89    4.00
   0   2  -9   75.79    5.90
  -1  -2  -9  111.89    6.10
   1  -2   9  115.09    9.40
  -1  -2  -9  117.99    6.30
   1   2   9  115.39    5.10
  -1   2  -9  117.89    5.80
   1   2   9  118.09    8.20
  -1   2  -9  106.69    7.00
   2  -2   9    4.90    4.00
  -2  -2  -9    4.50    2.60
  -2  -2  -9    2.30    2.40
  -2   2  -9   -1.20    2.00
   2   2   9    0.60    1.80
  -2   2  -9   -1.20    2.60
   2   2   9    2.40    3.00
  -3  -2  -9  664.33   21.60
   3  -2   9  661.43   24.90
  -3  -2  -9  683.43   20.70
   3   2   9  661.73   18.60
  -3   2  -9  683.33   21.60
   3   2   9  672.43   23.20
  -3   2  -9  685.63   19.50
  -4  -2  -9    8.00    3.50
   4  -2   9   11.60    4.40
  -4  -2  -9    4.50    3.80
  -4   2  -9    7.90    3.60
   4   2   9    6.70    2.80
   4   2   9   10.70    3.80
  -4   2  -9   10.10    3.10
   5  -2   9  286.17   15.50
  -5  -2  -9  305.27   13.50
  -5   2  -9  312.77   14.10
  -5   2  -9  342.37   13.00
   5   2   9  334.47   12.30
   5   2   9  332.37   14.20
  -6  -2  -9   52.49    6.70
   6  -2   9   38.80    6.90
   6   2   9   40.30    5.20
  -6   2  -9   54.29    7.50
   7  -2   9 1188.18   40.10
  -7  -2  -9 1237.08   37.40
   7  -2   9 1297.37   34.70
  -7   2  -9 1288.67   39.00
   7   2   9 1224.58   34.10
  -8  -2  -9   28.00    7.00
   8  -2   9   31.50    6.00
   8   2   9   32.20    5.90
  -8   2  -9   40.10    8.20
   8  -3  -9 1003.40   31.60
  -8  -3   9  980.00   33.90
   8   3  -9 1049.40   32.90
  -8   3   9 1001.00   31.70
  -7  -3   9  102.39   10.40
   7  -3  -9   94.09    8.50
  -7   3   9  105.19   12.50
   7   3  -9   93.99    9.10
  -7   3   9  101.89    8.30
  -6  -3   9 1235.98   36.60
   6  -3  -9 1194.98   33.80
   6   3  -9 1262.37   35.70
  -6   3   9 1162.18   40.70
  -6   3   9 1186.68   34.60
  -5  -3   9  683.93   25.20
  -5  -3   9  683.73   23.20
   5  -3  -9  717.83   21.60
   5   3  -9  676.33   22.80
  -5   3   9  696.73   27.20
  -5   3   9  745.83   22.60
   4  -3  -9  813.62   23.50
  -4  -3   9  861.51   29.00
  -4  -3   9  791.02   24.90
  -4   3   9  824.92   24.40
   4   3  -9  837.32   22.20
  -4   3   9  782.62   29.00
   4   3  -9  821.82   25.10
   3  -3  -9 1340.17   34.50
  -3  -3   9 1303.97   35.40
  -3  -3   9 1293.07   41.20
  -3   3   9 1328.37   41.50
   3   3  -9 1350.26   32.60
   3   3  -9 1272.87   35.70
  -2  -3   9  605.34   24.00
   2  -3  -9  630.04   18.30
   2  -3  -9  609.14   19.00
  -2  -3   9  615.74   18.50
  -2   3   9  602.14   23.10
   2   3  -9  649.93   17.40
   2   3  -9  636.34   19.80
   1  -3  -9   10.10    2.90
   1  -3  -9    9.90    2.60
  -1  -3   9    9.00    2.30
  -1  -3   9    9.90    4.20
   1   3  -9    5.30    3.00
   1   3  -9    7.90    2.40
  -1   3   9    8.20    3.70
   0  -3  -9 1032.70   28.30
   0  -3   9 1033.20   35.00
   0  -3  -9 1067.69   27.70
   0   3   9  994.90   32.80
   0   3  -9 1040.20   29.00
   0   3  -9 1031.00   26.30
  -1  -3  -9  253.87    9.80
   1  -3   9  242.58   14.60
  -1  -3  -9  253.07   10.50
  -1   3  -9  245.98   10.90
   1   3   9  245.28   12.80
   1   3   9  265.27    9.10
  -1   3  -9  257.27    9.50
  -2  -3  -9  566.04   18.80
   2  -3   9  583.44   23.50
  -2  -3  -9  557.64   17.40
   2   3   9  549.65   20.60
  -2   3  -9  552.44   18.50
   2   3   9  561.44   16.10
  -2   3  -9  520.45   16.50
   3  -3   9  257.17   15.20
  -3  -3  -9  272.57   11.10
  -3  -3  -9  266.17   12.60
  -3   3  -9  241.58   11.60
   3   3   9  268.57   10.10
   3   3   9  268.57   13.00
  -3   3  -9  264.87   10.80
   4  -3   9  730.53   28.30
  -4  -3  -9  740.33   22.80
  -4  -3  -9  739.43   25.70
  -4   3  -9  719.53   23.90
   4   3   9  724.73   24.80
   4   3   9  733.13   21.10
  -4   3  -9  721.53   21.70
  -5  -3  -9  169.98   12.30
  -5  -3  -9  164.58    9.80
   5  -3   9  160.78   12.50
   5   3   9  155.58    8.70
  -5   3  -9  157.98   10.60
  -5   3  -9  150.48    9.30
  -6  -3  -9  797.12   26.30
   6  -3   9  795.82   30.70
  -6   3  -9  808.52   24.90
  -6   3  -9  845.92   28.10
   6   3   9  831.92   24.60
  -7  -3  -9  315.07   15.20
   7  -3   9  310.77   17.60
   7   3   9  300.67   13.30
  -7   3  -9  291.97   14.00
  -7   3  -9  302.07   16.30
   8  -3   9  756.62   24.60
  -8  -3  -9  738.33   27.00
  -8   3  -9  790.62   29.20
   8   3   9  751.92   24.90
   7  -4  -9  352.96   14.40
  -7  -4   9  354.06   18.00
   7   4  -9  372.26   16.20
  -7   4   9  365.16   22.00
  -7   4   9  323.17   15.40
  -6  -4   9  142.49   11.70
   6  -4  -9  150.88    8.70
   6   4  -9  162.28   10.50
  -6   4   9  146.29   14.50
  -6   4   9  164.88   10.10
   5  -4  -9 1200.78   33.10
   5  -4  -9 1233.68   34.90
  -5  -4   9 1249.88   37.10
   5   4  -9 1190.78   32.90
   5   4  -9 1224.58   34.90
  -5   4   9 1263.37   42.40
  -4  -4   9    4.50    3.90
   4  -4  -9    7.40    3.60
   4  -4  -9    9.70    3.10
  -4  -4   9    1.00    4.30
  -4   4   9   10.20    5.90
   4   4  -9    7.10    3.50
   4   4  -9    7.50    3.50
  -3  -4   9 1433.06   46.40
   3  -4  -9 1434.86   39.60
  -3  -4   9 1536.95   40.80
   3  -4  -9 1485.55   37.90
  -3   4   9 1424.26   46.20
   3   4  -9 1496.25   37.40
   3   4  -9 1492.25   39.80
  -2  -4   9   58.79    8.60
   2  -4  -9   57.69    5.90
  -2  -4   9   58.29    5.70
   2  -4  -9   62.49    4.80
   2   4  -9   59.69    6.10
   2   4  -9   49.99    5.10
  -2   4   9   53.99    7.70
  -1  -4   9 3254.67   77.29
   1  -4  -9 3289.67   76.29
  -1  -4   9 3134.69   89.49
   1  -4  -9 3155.58   78.29
  -1   4   9 3120.99   86.89
   1   4  -9 3177.28   73.59
   1   4  -9 3125.99   77.89
   0  -4  -9   20.00    3.30
   0  -4   9   23.10    6.20
   0  -4  -9   20.50    4.10
   0   4   9   25.40    5.90
   0   4  -9   16.20    3.50
   0   4  -9   23.20    4.20
  -1  -4  -9 3367.56   84.09
  -1  -4  -9 3564.04   81.79
   1  -4   9 3382.96   95.69
  -1   4  -9 3308.37   83.09
   1   4   9 3396.26   77.89
  -1   4  -9 3400.46   78.59
   1   4   9 3372.16   91.59
   2  -4   9    1.00    4.40
  -2  -4  -9    2.10    3.50
  -2  -4  -9    5.60    2.70
   2   4   9    0.20    3.50
  -2   4  -9    1.60    2.60
  -2   4  -9    3.40    3.10
   2   4   9    3.70    2.80
  -3  -4  -9 1504.45   43.70
  -3  -4  -9 1536.95   40.00
   3  -4   9 1542.95   50.19
  -3   4  -9 1428.66   41.20
   3   4   9 1487.15   38.20
   3   4   9 1522.95   45.00
  -3   4  -9 1528.05   38.90
  -4  -4  -9    8.20    5.10
  -4  -4  -9   12.50    3.90
   4  -4   9   11.00    5.90
   4   4   9   16.10    4.10
   4   4   9   16.90    5.10
  -4   4  -9   18.20    4.50
  -4   4  -9   21.30    5.20
   5  -4   9 1393.26   48.70
  -5  -4  -9 1471.55   40.40
  -5  -4  -9 1468.95   44.60
  -5   4  -9 1437.26   39.00
   5   4   9 1481.45   38.80
  -5   4  -9 1479.85   42.40
   6  -4   9  171.48   14.70
  -6  -4  -9  185.48   11.10
   6   4   9  188.18   10.90
  -6   4  -9  179.98   11.20
  -6   4  -9  184.28   12.60
  -7  -4  -9  575.74   22.00
   7  -4   9  566.74   26.70
   7   4   9  577.14   21.00
  -7   4  -9  540.85   20.50
  -7   4  -9  622.44   24.30
  -7  -5   9   57.69    9.60
   7  -5  -9   64.39    8.10
  -7   5   9   63.29   12.30
   7   5  -9   82.29    8.70
   6  -5  -9  469.75   18.80
  -6  -5   9  467.05   21.30
   6   5  -9  484.85   18.10
  -6   5   9  485.05   25.80
  -5  -5   9  334.17   16.60
   5  -5  -9  306.77   14.20
   5   5  -9  325.97   14.10
   5   5  -9  278.07   13.20
  -5   5   9  314.97   19.30
  -4  -5   9  941.91   33.10
   4  -5  -9  844.62   27.10
  -4  -5   9  894.81   29.40
  -4   5   9  865.31   34.10
   4   5  -9  908.51   26.70
   4   5  -9  798.42   25.60
  -3  -5   9  654.03   27.10
   3  -5  -9  665.93   22.00
  -3  -5   9  652.73   23.10
  -3   5   9  660.23   27.60
   3   5  -9  678.83   21.20
   3   5  -9  615.54   20.60
   2  -5  -9 1462.65   40.40
  -2  -5   9 1476.55   40.80
  -2  -5   9 1414.06   48.20
   2   5  -9 1420.86   38.20
   2   5  -9 1543.85   39.60
  -2   5   9 1440.76   47.30
  -1  -5   9   50.49    9.10
   1  -5  -9   56.29    6.60
   1   5  -9   59.59    6.10
   1   5  -9   60.79    6.40
  -1   5   9   52.99    8.20
   0  -5  -9 1273.47   36.60
   0  -5   9 1228.18   44.40
   0   5  -9 1307.27   35.00
   0   5  -9 1275.27   34.00
   0   5   9 1255.87   41.50
   1  -5   9   18.10    6.70
  -1  -5  -9   27.70    5.60
  -1   5  -9   25.70    4.50
  -1   5  -9   30.40    5.00
   1   5   9   28.70    6.70
   2  -5   9 3238.18   96.19
  -2  -5  -9 3244.88   85.09
   2   5   9 3453.65   90.89
  -2   5  -9 3256.77   81.89
  -2   5  -9 3264.27   78.09
   2   5   9 3375.86   77.59
  -3  -5  -9   50.19    8.00
   3  -5   9   57.49   10.70
  -3   5  -9   61.69    7.00
  -3   5  -9   48.80    6.30
   3   5   9   56.49    7.80
   3   5   9   63.79    6.70
  -4  -5  -9 1254.07   40.50
   4  -5   9 1246.08   45.90
  -4   5  -9 1183.78   34.00
   4   5   9 1161.18   33.90
  -4   5  -9 1274.87   36.50
  -5  -5  -9  110.59   12.10
   5  -5   9  129.59   15.70
  -5   5  -9  114.59    9.80
   5   5   9  119.79    9.30
  -6  -5  -9  977.10   33.90
   6  -5   9  901.01   38.00
  -6   5  -9  864.31   28.20
   6   5   9  907.71   28.70
  -5  -6   9  572.04   24.40
   5  -6  -9  626.54   22.50
   5   6  -9  585.44   21.20
  -5   6   9  570.74   29.60
  -4  -6   9  117.69   11.70
   4  -6  -9  107.69    9.50
  -4   6   9  105.69   13.60
   4   6  -9  100.19    9.20
   3  -6  -9  567.94   20.30
  -3  -6   9  467.35   20.50
  -3  -6   9  540.45   24.80
   3   6  -9  470.45   18.60
  -3   6   9  516.05   25.70
  -2  -6   9   30.70    8.50
   2  -6  -9   27.00    5.80
  -2   6   9   35.20    8.30
   2   6  -9   37.70    6.50
  -1  -6   9  291.27   19.00
   1  -6  -9  274.27   14.00
  -1   6   9  270.97   17.20
   1   6  -9  266.97   13.20
   0  -6   9    6.20    6.50
   0  -6  -9   -0.30    4.00
   0   6  -9   -0.30    4.20
   0   6   9   10.90    6.30
  -1  -6  -9  286.97   15.40
   1  -6   9  297.87   20.50
  -1   6  -9  298.17   13.80
   1   6   9  276.07   17.00
  -2  -6  -9    5.80    5.20
   2  -6   9    4.00    6.40
  -2   6  -9    1.70    4.30
   2   6   9    3.80    3.70
   2   6   9    2.90    5.30
   3  -6   9  314.97   22.40
  -3  -6  -9  327.57   18.90
   3   6   9  335.37   14.50
   3   6   9  328.37   18.00
  -3   6  -9  363.66   15.70
   4  -6   9   52.29   12.10
  -4  -6  -9   53.09    9.80
   4   6   9   72.29    8.10
  -4   6  -9   64.59    7.70
   5  -6   9  282.57   22.20
  -5  -6  -9  293.17   18.80
   5   6   9  299.77   14.90
  -5   6  -9  279.97   15.10
   3  -7  -9  205.98   13.30
  -3   7   9  156.48   16.70
   3   7  -9  180.38   12.50
  -2  -7   9  518.45   26.30
   2  -7  -9  515.95   21.20
  -2   7   9  467.95   25.60
   2   7  -9  451.75   19.40
  -1  -7   9   96.49   13.90
   1  -7  -9   72.19    9.30
   1   7  -9   77.19    9.10
  -1   7   9   78.29   11.90
   0  -7  -9  277.87   16.40
   0  -7   9  349.27   22.40
   0   7  -9  288.67   15.20
   0   7   9  308.27   20.10
  -1  -7  -9    0.00    5.50
   1  -7   9    7.50    8.00
  -1   7  -9    4.20    4.70
   1   7   9    1.20    6.30
   2  -7   9   67.19   12.90
  -2  -7  -9   45.30    9.20
   2   7   9   76.39   11.20
  -2   7  -9   58.29    7.90
  -3  -7  -9   15.50    7.90
   3  -7   9   14.90    9.80
   3   7   9   32.50    6.20
  -3   7  -9   22.50    6.20
  -8   0  10  535.35   20.80
   8   0 -10  544.95   22.50
   7   0 -10    2.30    4.60
  -7   0  10    1.20    4.00
  -6   0  10  538.85   21.90
   6   0 -10  561.24   20.50
  -6   0  10  555.64   19.30
   5   0 -10    3.30    3.50
  -5   0  10    4.90    3.00
  -5   0  10    1.00    4.00
  -4   0  10  231.78   10.10
   4   0 -10  238.28   11.10
  -4   0  10  227.78   12.70
  -3   0  10   -1.60    2.00
   3   0 -10    2.00    2.80
  -3   0  10    1.30    3.50
   2   0 -10  278.87   11.20
  -2   0  10  284.57   13.80
  -2   0  10  268.07    9.90
   1   0 -10    3.80    2.50
  -1   0  10    4.40    1.90
  -1   0  10    1.60    3.10
   0   0  10  178.98   10.70
   0   0 -10  190.48    8.90
   0   0  10  188.68    6.30
   1   0  10   -0.20    1.60
   1   0  10   -0.90    3.00
  -1   0 -10    7.00    3.00
  -2   0 -10  244.68   10.60
   2   0  10  217.68    8.10
   3   0  10    3.00    3.60
  -3   0 -10    1.90    2.80
   3   0  10    0.10    2.10
   4   0  10 1536.95   38.90
  -4   0 -10 1542.85   42.80
   4   0  10 1669.43   47.40
   5   0  10   -1.40    3.70
  -5   0 -10    1.70    3.80
   5   0  10    0.40    2.90
   6   0  10 1735.33   44.00
  -6   0 -10 1580.24   47.70
   6   0  10 1894.51   51.69
  -7   0 -10   -2.70    4.40
   7   0  10    3.00    3.50
  -8   0 -10 1950.90   55.79
   8   0  10 1954.90   50.69
   8  -1 -10  233.18   14.50
  -8  -1  10  247.38   14.00
  -8   1  10  252.87   13.60
   8   1 -10  266.17   15.00
  -7  -1  10  749.62   24.90
   7  -1 -10  724.83   25.20
  -7   1  10  728.03   28.10
   7   1 -10  705.03   25.30
  -7   1  10  718.73   24.30
   6  -1 -10  450.15   17.40
  -6  -1  10  431.16   19.00
  -6  -1  10  446.46   17.00
  -6   1  10  448.36   16.90
   6   1 -10  449.36   18.20
  -6   1  10  461.85   20.20
  -5  -1  10  628.64   23.50
   5  -1 -10  622.54   20.90
  -5  -1  10  630.94   20.40
  -5   1  10  615.84   20.20
   5   1 -10  611.84   21.40
  -5   1  10  637.84   24.00
  -4  -1  10    3.40    2.60
   4  -1 -10    0.60    3.00
  -4  -1  10    2.30    3.70
   4   1 -10    3.50    3.20
  -4   1  10    1.20    2.70
  -4   1  10    1.00    3.80
  -3  -1  10 1660.53   42.70
  -3  -1  10 1715.33   49.50
   3  -1 -10 1711.23   43.80
  -3   1  10 1663.63   43.00
  -3   1  10 1650.73   49.20
   3   1 -10 1637.84   44.20
  -2  -1  10   79.59    5.00
   2  -1 -10   77.79    5.80
  -2  -1  10   61.99    7.30
  -2   1  10   91.29    8.90
   2   1 -10   62.79    6.00
  -2   1  10   86.19    5.50
  -1  -1  10  918.61   24.30
   1  -1 -10  964.40   26.40
   1   1 -10  893.21   26.60
   1   1 -10  931.61   22.50
  -1   1  10  937.81   24.90
  -1   1  10  940.91   30.60
   0  -1 -10  343.47   10.70
   0  -1 -10  310.17   11.70
   0  -1  10  330.77    9.70
   0  -1  10  305.17   15.00
   0   1 -10  303.27   12.10
   0   1  10  299.67   14.60
   0   1 -10  330.77    9.90
  -1  -1 -10 1032.10   28.80
   1  -1  10 1019.20   33.70
  -1  -1 -10 1063.09   27.10
  -1   1 -10 1001.10   29.10
   1   1  10 1074.59   25.30
   1   1  10 1012.90   32.80
  -1   1 -10 1052.19   26.10
  -2  -1 -10  308.37   12.10
   2  -1  10  311.97   15.00
  -2   1 -10  317.47   10.80
  -2   1 -10  315.97   12.80
   2   1  10  323.77   14.70
   2   1  10  307.17   10.10
  -3  -1 -10 1890.31   49.40
   3  -1  10 1931.61   55.49
  -3   1 -10 1864.91   49.90
   3   1  10 1939.11   45.30
   3   1  10 1868.21   54.09
  -3   1 -10 1914.31   45.90
   4  -1  10  597.04   17.90
   4  -1  10  581.24   22.80
  -4  -1 -10  589.44   20.10
  -4   1 -10  603.74   20.60
   4   1  10  619.94   22.20
   4   1  10  576.04   17.50
   5  -1  10  871.01   24.80
  -5  -1 -10  852.01   27.20
   5  -1  10  883.01   30.50
   5   1  10  916.31   29.50
  -5   1 -10  862.21   27.90
   5   1  10  867.71   24.50
   6  -1  10  605.74   23.70
  -6  -1 -10  560.74   21.50
   6  -1  10  601.94   19.40
  -6   1 -10  629.04   22.70
   6   1  10  599.64   19.30
  -7  -1 -10  953.20   31.30
   7  -1  10  956.90   28.00
   7   1  10  920.41   27.60
  -7   1 -10  969.20   32.00
   8  -1  10   22.80    5.70
  -8  -1 -10   30.80    7.60
  -8   1 -10   26.00    6.80
   8   1  10   24.50    5.80
   8  -2 -10  854.01   29.00
  -8  -2  10  879.51   29.80
  -8   2  10  854.21   28.40
   8   2 -10  861.71   30.10
   7  -2 -10   31.40    6.00
  -7  -2  10   27.30    6.20
  -7   2  10   29.40    5.90
   7   2 -10   26.90    6.10
  -7   2  10   27.60    7.40
   6  -2 -10 1294.17   37.60
  -6  -2  10 1324.97   38.40
   6   2 -10 1331.77   39.00
  -6   2  10 1356.16   37.90
  -6   2  10 1372.46   43.70
  -5  -2  10  138.19    8.90
  -5  -2  10  124.89   10.20
   5  -2 -10  134.79    8.40
   5   2 -10  121.79    8.80
  -5   2  10  129.49   11.00
  -5   2  10  120.29    8.20
  -4  -2  10 2970.30   73.59
   4  -2 -10 2964.30   73.29
  -4  -2  10 2947.71   81.49
   4   2 -10 3058.69   74.99
  -4   2  10 2887.91   81.79
  -4   2  10 2997.70   73.69
  -3  -2  10   -2.20    2.10
   3  -2 -10    0.80    2.50
  -3  -2  10    5.00    4.30
  -3   2  10    2.00    2.70
  -3   2  10    2.80    3.90
   3   2 -10    1.60    3.20
  -2  -2  10 2841.12   69.39
  -2  -2  10 3020.20   80.09
   2  -2 -10 2857.81   70.19
  -2   2  10 2861.81   78.79
   2   2 -10 2768.22   71.29
   2   2 -10 2909.61   64.69
  -1  -2  10   52.89    7.60
   1  -2 -10   54.09    5.20
  -1  -2  10   56.39    4.00
   1  -2 -10   50.89    4.60
  -1   2  10   57.49    7.50
   1   2 -10   55.69    5.90
   1   2 -10   56.09    3.90
   0  -2 -10 2598.24   62.29
   0  -2 -10 2570.34   62.69
   0  -2  10 2558.24   71.79
   0   2 -10 2465.25   63.59
   0   2  10 2496.75   70.19
   0   2 -10 2581.14   58.39
  -1  -2 -10    2.80    2.30
   1  -2  10    4.40    3.70
  -1  -2 -10    2.10    2.60
   1   2  10    4.10    3.70
  -1   2 -10   -1.20    2.90
   1   2  10    3.60    1.80
  -1   2 -10   -0.20    2.00
  -2  -2 -10 2391.46   57.99
   2  -2  10 2242.98   65.99
  -2  -2 -10 2293.87   57.79
   2   2  10 2333.17   53.39
  -2   2 -10 2331.77   54.29
   2   2  10 2310.77   64.19
  -2   2 -10 2210.28   58.69
  -3  -2 -10   96.69    6.80
   3  -2  10  117.09   11.10
  -3  -2 -10  117.19    8.80
  -3   2 -10  101.49    6.40
   3   2  10  110.49    8.80
   3   2  10  112.19    6.20
  -3   2 -10  102.49    8.00
   4  -2  10  996.10   34.30
  -4  -2 -10 1038.70   29.70
  -4   2 -10 1005.50   30.50
  -4   2 -10  974.50   27.30
   4   2  10 1004.70   32.10
   4   2  10  984.10   26.70
  -5  -2 -10   18.60    4.90
   5  -2  10   12.50    5.40
  -5   2 -10   15.80    4.40
   5   2  10   11.60    4.50
  -5   2 -10   10.90    4.40
   5   2  10   10.00    3.60
   6  -2  10  386.96   14.60
  -6  -2 -10  374.46   16.20
   6  -2  10  343.77   17.80
   6   2  10  339.87   13.90
  -6   2 -10  375.16   17.30
   7  -2  10   15.20    6.00
  -7  -2 -10   22.60    6.00
   7  -2  10   37.30    6.10
   7   2  10   24.50    5.50
  -7   2 -10   39.80    7.70
  -8  -2 -10  107.59   10.90
   8  -2  10  136.69   10.80
  -8   2 -10  137.09   12.90
   8   2  10  125.49   10.30
   8  -3 -10  361.46   16.70
  -8  -3  10  386.16   18.90
  -8   3  10  372.56   17.00
   8   3 -10  380.16   18.00
  -7  -3  10 1012.10   33.10
   7  -3 -10  995.80   30.70
  -7   3  10  936.91   37.20
  -7   3  10  982.90   31.00
   7   3 -10 1069.29   32.40
  -6  -3  10   89.59    9.00
   6  -3 -10   97.69    8.10
  -6   3  10   86.09    8.20
   6   3 -10   86.89    9.00
  -6   3  10   99.89   11.50
  -5  -3  10 1496.55   46.10
  -5  -3  10 1515.95   42.20
   5  -3 -10 1457.15   40.00
  -5   3  10 1509.45   41.10
  -5   3  10 1513.85   48.00
   5   3 -10 1497.65   41.90
  -4  -3  10  103.49    7.60
   4  -3 -10   94.59    6.70
  -4  -3  10   83.79    9.40
  -4   3  10   91.79    7.30
  -4   3  10   98.09   10.70
   4   3 -10   87.09    7.90
   3  -3 -10 1313.07   35.30
  -3  -3  10 1292.47   35.10
  -3  -3  10 1247.58   41.40
   3  -3 -10 1278.47   34.40
   3   3 -10 1301.87   36.30
   3   3 -10 1331.57   32.10
  -3   3  10 1274.77   41.40
  -2  -3  10   -1.50    4.00
   2  -3 -10    3.20    2.70
   2  -3 -10    6.70    2.70
  -2  -3  10    1.10    2.30
  -2   3  10    3.80    3.80
   2   3 -10    1.90    3.40
   2   3 -10    1.50    2.30
  -1  -3  10 2678.63   75.59
   1  -3 -10 2676.33   64.59
   1  -3 -10 2634.04   65.19
   1   3 -10 2585.94   60.59
   1   3 -10 2599.64   65.99
  -1   3  10 2619.54   73.19
   0  -3 -10  245.48   10.30
   0  -3  10  268.57   15.50
   0  -3 -10  252.97   10.10
   0   3 -10  228.78   10.70
   0   3  10  258.57   13.80
   0   3 -10  250.07    9.40
  -1  -3 -10 1528.45   41.10
   1  -3  10 1600.14   49.60
  -1  -3 -10 1570.04   40.40
  -1   3 -10 1543.15   38.30
  -1   3 -10 1542.55   42.00
   1   3  10 1561.94   46.70
   2  -3  10  329.47   17.40
  -2  -3 -10  308.97   13.00
  -2  -3 -10  292.37   11.90
   2   3  10  302.27   10.80
  -2   3 -10  303.67   13.10
   2   3  10  288.27   14.40
  -2   3 -10  299.27   11.30
  -3  -3 -10  565.34   18.80
   3  -3  10  545.65   24.10
  -3  -3 -10  588.24   21.00
   3   3  10  575.54   17.30
   3   3  10  583.54   21.80
  -3   3 -10  588.44   18.20
  -3   3 -10  573.24   20.20
  -4  -3 -10 1033.50   30.70
   4  -3  10  999.70   36.90
  -4  -3 -10 1048.10   35.50
  -4   3 -10 1082.09   29.40
   4   3  10 1060.19   33.70
   4   3  10 1081.09   28.50
  -4   3 -10 1048.60   32.10
  -5  -3 -10  738.63   24.20
   5  -3  10  748.63   29.20
   5   3  10  738.63   22.30
  -5   3 -10  735.33   25.40
  -5   3 -10  714.03   22.80
   6  -3  10  262.17   16.30
  -6  -3 -10  252.87   13.50
   6   3  10  254.47   12.10
  -6   3 -10  275.27   15.10
  -6   3 -10  263.27   12.60
   7  -3  10  475.95   23.10
  -7  -3 -10  512.65   20.40
   7   3  10  466.35   18.00
  -7   3 -10  485.85   21.70
   7  -4 -10   49.40    6.50
  -7  -4  10   50.09    8.50
  -7   4  10   58.69   11.30
   7   4 -10   53.89    7.90
  -7   4  10   46.50    7.30
   6  -4 -10  436.96   16.20
  -6  -4  10  420.96   19.10
  -6   4  10  441.16   23.30
   6   4 -10  458.05   18.00
  -5  -4  10   38.10    6.50
   5  -4 -10   40.10    5.10
   5  -4 -10   41.00    5.80
  -5   4  10   55.89    9.40
   5   4 -10   45.30    6.50
  -4  -4  10   80.99    8.00
   4  -4 -10   90.69    6.50
   4  -4 -10   89.89    7.90
  -4  -4  10   97.69   10.90
  -4   4  10   90.09   11.10
   4   4 -10   78.19    7.60
   3  -4 -10    2.00    3.30
  -3  -4  10    1.50    3.20
  -3  -4  10    1.30    4.50
   3  -4 -10   -1.00    2.40
   3   4 -10   -0.70    2.80
   3   4 -10   -3.00    3.40
  -3   4  10   -0.10    4.60
   2  -4 -10  291.47   11.50
   2  -4 -10  316.37   13.00
  -2  -4  10  305.67   17.70
  -2  -4  10  332.17   12.60
   2   4 -10  319.27   13.30
   2   4 -10  323.87   12.00
  -2   4  10  359.36   17.70
  -1  -4  10   32.50    7.70
   1  -4 -10   38.00    4.30
   1  -4 -10   41.30    5.50
   1   4 -10   41.10    5.70
   1   4 -10   35.80    4.60
  -1   4  10   38.30    6.90
   0  -4 -10  782.42   24.10
   0  -4 -10  801.82   22.50
   0  -4  10  751.02   30.80
   0   4 -10  759.52   22.00
   0   4  10  780.82   28.60
   0   4 -10  780.02   24.00
   1  -4  10   45.70    9.00
  -1  -4 -10   50.29    6.00
  -1  -4 -10   41.40    4.80
  -1   4 -10   41.30    5.10
  -1   4 -10   40.40    5.60
   1   4  10   52.39    7.60
  -2  -4 -10  579.34   18.30
  -2  -4 -10  575.04   20.60
   2  -4  10  574.54   26.20
  -2   4 -10  570.64   19.80
   2   4  10  568.04   22.30
  -2   4 -10  550.24   17.90
   2   4  10  563.44   17.60
  -3  -4 -10  162.68    9.20
  -3  -4 -10  185.68   12.10
   3  -4  10  170.18   14.50
   3   4  10  171.18    9.10
  -3   4 -10  175.08    9.40
  -3   4 -10  168.68   10.40
   3   4  10  175.68   11.40
  -4  -4 -10  690.13   26.30
  -4  -4 -10  714.23   22.40
   4  -4  10  673.93   29.60
   4   4  10  672.63   21.10
   4   4  10  687.03   24.90
  -4   4 -10  696.13   21.90
  -4   4 -10  625.54   23.50
   5  -4  10   34.00    8.30
  -5  -4 -10   31.90    5.60
   5   4  10   21.20    5.10
  -5   4 -10   31.70    5.60
  -5   4 -10   29.90    6.60
   6  -4  10 1240.28   45.60
  -6  -4 -10 1337.17   38.50
   6   4  10 1321.27   36.50
  -6   4 -10 1265.17   36.80
  -6   4 -10 1324.37   40.50
  -6  -5  10  104.59   11.40
   6  -5 -10   81.29    8.60
   6   5 -10   94.49    9.00
  -6   5  10   91.09   13.10
   5  -5 -10  392.86   16.90
  -5  -5  10  428.26   19.20
   5   5 -10  427.16   16.90
  -5   5  10  385.26   22.50
   4  -5 -10   45.50    6.30
  -4  -5  10   44.20    8.50
  -4  -5  10   44.40    7.10
  -4   5  10   41.70    8.70
   4   5 -10   40.60    6.00
   4   5 -10   34.90    5.80
  -3  -5  10  158.18   13.70
  -3  -5  10  163.28   10.60
   3  -5 -10  167.38   10.40
   3   5 -10  184.38   10.10
   3   5 -10  173.88   10.00
  -3   5  10  170.48   14.30
   2  -5 -10    0.50    3.50
  -2  -5  10    5.80    5.80
  -2   5  10    2.40    5.00
   2   5 -10    5.10    3.90
   2   5 -10    3.20    3.70
  -1  -5  10  106.59   12.80
   1  -5 -10  102.59    8.80
   1   5 -10   90.49    7.60
  -1   5  10   84.79   10.50
   1   5 -10  104.89    7.80
   0  -5 -10  169.58   10.60
   0  -5  10  180.88   15.50
   0   5  10  189.58   13.70
   0   5 -10  176.28   10.10
   0   5 -10  183.58    9.90
   1  -5  10  746.33   32.70
  -1  -5 -10  775.32   25.70
   1   5  10  770.72   29.00
  -1   5 -10  743.73   23.00
  -1   5 -10  756.42   24.10
   2  -5  10  305.87   20.50
  -2  -5 -10  318.37   15.90
   2   5  10  359.36   17.60
  -2   5 -10  332.07   14.50
  -2   5 -10  313.37   13.60
  -3  -5 -10  716.83   27.60
   3  -5  10  738.43   33.00
  -3   5 -10  751.82   25.00
   3   5  10  743.43   27.90
   3   5  10  769.12   23.50
  -3   5 -10  782.42   24.10
  -4  -5 -10  337.47   18.80
   4  -5  10  362.96   22.50
  -4   5 -10  327.07   14.80
   4   5  10  332.77   14.30
  -4   5 -10  314.07   15.60
  -5  -5 -10 1221.98   39.80
   5  -5  10 1114.99   44.30
  -5   5 -10 1104.19   33.50
   5   5  10 1139.39   33.30
   5  -6 -10   18.50    5.80
  -5  -6  10   22.50    7.00
  -5   6  10   14.50    9.40
  -4  -6  10 1396.26   43.80
   4  -6 -10 1473.35   42.30
  -4   6  10 1479.05   51.69
   4   6 -10 1412.16   39.90
  -3  -6  10   14.70    7.40
   3  -6 -10    8.80    4.80
   3   6 -10    1.00    4.70
  -3   6  10    7.80    7.20
  -2  -6  10 1352.56   47.00
   2  -6 -10 1311.27   38.50
   2   6 -10 1214.98   35.90
  -2   6  10 1254.57   45.30
  -1  -6  10   65.19   11.50
   1  -6 -10   63.79    7.90
  -1   6  10   55.69   10.00
   1   6 -10   63.29    7.80
   0  -6  10 1290.27   48.40
   0  -6 -10 1337.27   39.80
   0   6 -10 1297.87   36.70
   0   6  10 1311.17   44.90
  -1  -6 -10  135.39   11.80
   1  -6  10  128.89   16.00
  -1   6 -10  157.58   10.60
   1   6  10  138.09   13.90
   2  -6  10 1214.68   48.30
  -2  -6 -10 1262.57   40.90
  -2   6 -10 1302.67   36.60
   2   6  10 1327.67   43.50
   3  -6  10  232.48   22.10
  -3  -6 -10  234.48   16.10
   3   6  10  229.68   15.20
  -3   6 -10  229.38   13.10
   4  -6  10  760.62   36.80
  -4  -6 -10  789.82   31.70
  -4   6 -10  743.73   25.90
   4   6  10  783.32   25.40
   2  -7 -10   24.50    6.90
  -2  -7  10   27.00    9.30
  -2   7  10   22.80    9.60
   2   7 -10   33.90    7.30
  -1  -7  10 1762.92   60.19
   1  -7 -10 1778.42   51.19
   1   7 -10 1648.83   47.40
  -1   7  10 1734.13   58.59
   0  -7 -10   64.09    9.30
   0  -7  10   81.59   13.70
   0   7 -10   52.39    8.20
   0   7  10   46.50   10.00
   1  -7  10  969.70   43.00
  -1  -7 -10 1066.79   36.60
  -1   7 -10 1062.59   32.90
   1   7  10 1031.00   39.60
  -8   0  11    1.30    4.50
   8   0 -11    3.30    5.70
   7   0 -11 1857.01   52.19
  -7   0  11 1826.62   50.39
  -6   0  11   -0.70    3.50
  -6   0  11   -1.80    4.20
   6   0 -11    0.60    3.80
  -5   0  11 3304.87   83.69
  -5   0  11 3415.96   92.79
   5   0 -11 3458.05   85.29
  -4   0  11   -0.50    3.80
   4   0 -11    3.20    3.50
  -4   0  11   -0.30    2.70
  -3   0  11 2552.74   62.19
   3   0 -11 2486.55   63.59
  -3   0  11 2472.65   70.39
   2   0 -11   -0.30    2.70
  -2   0  11    0.90    2.10
  -2   0  11    0.50    3.80
  -1   0  11 2716.73   75.79
  -1   0  11 2718.63   65.89
   1   0 -11 2772.42   68.29
   0   0  11    1.90    3.70
   0   0 -11    2.10    1.80
   0   0 -11    0.10    2.80
   1   0  11  727.13   18.70
  -1   0 -11  701.63   22.10
  -2   0 -11   -1.70    3.10
   2   0  11    0.00    1.90
   2   0  11   -0.10    3.60
  -3   0 -11   55.79    6.40
   3   0  11   56.99    4.90
   3   0  11   52.59    7.40
   4   0  11    0.50    2.50
  -4   0 -11    0.80    3.60
   4   0  11   -4.00    3.70
   5   0  11   15.70    4.00
   5   0  11   11.20    5.10
  -5   0 -11   13.70    5.00
   6   0  11   -0.40    3.10
   6   0  11   -0.40    4.10
  -6   0 -11   -3.30    4.00
  -7   0 -11  365.96   18.00
   7   0  11  376.96   15.30
  -8  -1  11  686.83   25.50
   8  -1 -11  729.93   26.80
   8   1 -11  688.63   26.80
  -8   1  11  720.73   25.40
   7  -1 -11   -9.40    4.20
  -7  -1  11    2.80    4.30
  -7   1  11    0.20    4.10
  -7   1  11    5.80    5.20
   7   1 -11    1.60    4.80
  -6  -1  11  620.74   25.10
  -6  -1  11  612.34   21.80
   6  -1 -11  702.73   23.50
  -6   1  11  670.73   22.20
  -6   1  11  626.24   25.70
   6   1 -11  676.83   23.90
  -5  -1  11  106.79    7.70
   5  -1 -11   88.59    8.00
  -5  -1  11   88.29    9.50
  -5   1  11   97.39   10.20
   5   1 -11   91.79    8.60
  -5   1  11   91.69    7.50
  -4  -1  11 1235.18   34.20
   4  -1 -11 1277.07   35.30
  -4  -1  11 1270.27   40.30
   4   1 -11 1221.28   35.70
  -4   1  11 1224.78   40.10
  -4   1  11 1274.67   34.50
   3  -1 -11  710.53   22.40
  -3  -1  11  735.93   26.60
  -3  -1  11  722.63   21.20
  -3   1  11  733.83   21.70
  -3   1  11  682.93   26.10
   3   1 -11  727.33   23.10
   2  -1 -11  950.90   27.70
  -2  -1  11  980.90   26.10
  -2  -1  11  959.60   32.80
   2   1 -11  948.91   28.30
  -2   1  11  954.50   32.30
  -2   1  11  982.90   26.60
  -1  -1  11  678.83   18.90
   1  -1 -11  685.93   21.10
  -1  -1  11  690.83   25.80
   1   1 -11  677.93   21.70
  -1   1  11  673.73   25.20
   0  -1  11 1545.55   47.70
   0  -1 -11 1514.15   41.00
   0  -1 -11 1562.74   39.30
   0   1 -11 1616.74   42.00
   0   1  11 1568.74   47.10
   0   1 -11 1554.24   36.90
  -1  -1 -11  274.87   11.70
  -1  -1 -11  282.97   10.00
   1  -1  11  271.97   15.00
   1   1  11  271.77   14.10
  -1   1 -11  271.07   12.10
  -1   1 -11  299.27    9.90
  -2  -1 -11 1135.29   32.30
   2  -1  11 1136.79   37.50
   2   1  11 1165.88   36.90
  -2   1 -11 1130.89   32.80
  -2   1 -11 1147.99   29.30
   2   1  11 1180.18   28.70
   3  -1  11  317.07   16.00
  -3  -1 -11  279.47   12.50
   3   1  11  310.77   15.20
   3   1  11  310.37   10.80
  -3   1 -11  290.87   13.30
   4  -1  11  651.73   19.20
  -4  -1 -11  637.94   21.60
   4  -1  11  602.54   24.40
  -4   1 -11  617.34   22.00
   4   1  11  661.63   24.20
   4   1  11  620.24   18.70
   5  -1  11   54.19    5.90
  -5  -1 -11   50.49    6.90
   5  -1  11   44.50    7.40
   5   1  11   55.59    7.60
  -5   1 -11   44.70    6.90
   5   1  11   47.90    5.60
  -6  -1 -11  925.21   29.70
   6  -1  11  877.01   26.00
   6  -1  11  888.11   31.90
   6   1  11  885.91   26.00
  -6   1 -11  884.11   30.00
   7  -1  11    5.60    4.60
  -7  -1 -11   13.80    6.00
  -7   1 -11    3.80    5.30
   7   1  11    4.10    4.50
   8  -2 -11   22.60    6.30
  -8  -2  11   25.20    6.80
   8   2 -11   20.70    7.10
  -8   2  11   35.60    6.80
   7  -2 -11  127.19   10.40
  -7  -2  11  130.09   10.40
  -7   2  11   97.29    9.20
   7   2 -11  126.59   11.20
  -7   2  11  124.89   13.20
   6  -2 -11   -3.10    3.60
  -6  -2  11   -3.60    3.70
   6   2 -11   -1.20    4.50
  -6   2  11    1.00    3.90
  -6   2  11    3.30    5.10
  -5  -2  11   18.10    4.60
   5  -2 -11   23.30    4.80
  -5  -2  11    9.70    5.10
  -5   2  11   10.80    4.10
  -5   2  11   25.00    6.50
   5   2 -11   10.30    4.80
  -4  -2  11   24.80    4.30
  -4  -2  11   22.70    6.00
   4  -2 -11   26.20    4.40
  -4   2  11   22.70    5.90
   4   2 -11   21.10    4.60
  -4   2  11   23.30    4.50
  -3  -2  11  620.14   19.20
   3  -2 -11  609.24   19.90
  -3  -2  11  618.04   24.80
  -3   2  11  650.83   19.90
   3   2 -11  621.14   21.10
  -3   2  11  635.44   24.70
  -2  -2  11   87.69    5.60
   2  -2 -11   96.79    6.60
   2  -2 -11  106.29    7.00
  -2  -2  11  100.19   10.40
  -2   2  11   80.89    9.10
   2   2 -11   94.79    7.40
  -1  -2  11  402.06   19.00
   1  -2 -11  385.76   14.10
   1  -2 -11  396.86   13.50
   1   2 -11  377.96   15.00
   1   2 -11  384.86   11.70
  -1   2  11  406.86   17.90
   0  -2 -11   50.59    4.90
   0  -2 -11   44.20    5.00
   0  -2  11   54.89    8.30
   0   2 -11   43.00    5.30
   0   2 -11   46.90    4.20
   0   2  11   36.30    6.50
  -1  -2 -11 2050.09   51.49
   1  -2  11 2001.70   60.49
  -1  -2 -11 2077.49   52.29
  -1   2 -11 2042.40   53.39
  -1   2 -11 2074.39   48.50
   1   2  11 2000.90   58.79
   2  -2  11    6.70    4.40
  -2  -2 -11    9.00    3.30
  -2  -2 -11    1.90    2.70
   2   2  11    0.00    2.00
   2   2  11    2.90    4.00
  -2   2 -11    0.90    3.50
  -2   2 -11    1.40    2.60
   3  -2  11 2512.05   73.09
  -3  -2 -11 2563.34   64.59
  -3   2 -11 2494.15   60.49
  -3   2 -11 2495.05   65.59
   3   2  11 2635.94   59.69
   3   2  11 2559.44   70.99
   4  -2  11   23.60    6.00
  -4  -2 -11   25.50    5.20
   4   2  11   23.50    4.00
  -4   2 -11   32.80    5.00
   4   2  11   29.30    5.90
  -4   2 -11   31.70    5.90
  -5  -2 -11 2139.99   55.79
   5  -2  11 2022.70   61.99
   5   2  11 2091.49   59.59
  -5   2 -11 1999.30   56.69
   5   2  11 2137.99   51.39
  -6  -2 -11   10.40    5.20
   6  -2  11   10.10    4.40
   6  -2  11   18.30    6.10
  -6   2 -11   15.30    5.90
   6   2  11   10.10    4.40
   7  -2  11 1773.12   45.10
  -7  -2 -11 1701.03   48.90
   7  -2  11 1600.94   52.39
   7   2  11 1681.13   44.70
  -7   2 -11 1688.53   50.19
   7  -3 -11   -0.60    4.30
  -7  -3  11    2.80    5.10
  -7   3  11    8.20    6.70
   7   3 -11    8.90    6.00
  -7   3  11    8.50    5.00
  -6  -3  11  832.22   27.40
   6  -3 -11  765.92   25.20
   6   3 -11  802.52   27.10
  -6   3  11  807.72   26.20
  -6   3  11  800.82   32.10
  -5  -3  11   67.79    9.10
   5  -3 -11   57.39    6.40
  -5  -3  11   68.69    7.60
   5   3 -11   60.19    7.70
  -5   3  11   62.09    7.10
  -5   3  11   73.89   10.10
  -4  -3  11  511.05   22.30
  -4  -3  11  482.65   17.50
   4  -3 -11  491.85   17.10
   4   3 -11  498.25   18.70
  -4   3  11  519.35   23.00
  -3  -3  11  200.48   14.10
  -3  -3  11  203.78    9.60
   3  -3 -11  197.58    9.60
   3  -3 -11  214.28   10.10
   3   3 -11  198.28   10.80
  -3   3  11  185.18   13.30
   2  -3 -11  975.00   27.80
   2  -3 -11 1008.80   28.30
  -2  -3  11  926.41   26.90
  -2  -3  11  995.40   35.40
   2   3 -11 1015.50   29.70
  -2   3  11  991.60   34.10
   2   3 -11 1005.20   25.70
  -1  -3  11  938.91   34.40
   1  -3 -11  938.31   27.10
   1  -3 -11  951.50   26.90
  -1   3  11  967.20   32.90
   1   3 -11  958.80   28.60
   1   3 -11  925.61   24.70
   0  -3 -11 1223.58   33.00
   0  -3 -11 1235.08   33.40
   0  -3  11 1176.68   41.10
   0   3 -11 1225.18   34.70
   0   3 -11 1216.08   30.80
   0   3  11 1186.58   39.10
  -1  -3 -11  436.16   15.70
  -1  -3 -11  426.66   15.20
   1  -3  11  465.25   21.90
  -1   3 -11  449.86   14.50
  -1   3 -11  407.76   16.50
   1   3  11  438.36   19.10
  -2  -3 -11 1045.30   30.20
   2  -3  11 1019.20   36.60
  -2  -3 -11  986.30   28.80
  -2   3 -11  987.50   30.40
   2   3  11 1021.00   33.70
  -2   3 -11  984.50   27.20
  -3  -3 -11  386.06   15.10
   3  -3  11  411.96   20.40
  -3  -3 -11  395.46   18.10
   3   3  11  395.86   17.80
   3   3  11  406.76   13.60
  -3   3 -11  390.06   14.30
  -3   3 -11  383.56   16.40
   4  -3  11 1744.23   55.59
  -4  -3 -11 1745.43   47.30
   4   3  11 1767.02   51.69
  -4   3 -11 1653.33   44.50
  -4   3 -11 1747.73   48.90
   4   3  11 1844.52   44.10
   5  -3  11   75.99   10.70
  -5  -3 -11   62.89    7.20
  -5   3 -11   50.69    6.40
  -5   3 -11   67.19    8.80
   5   3  11   62.09    6.70
  -6  -3 -11 1019.90   31.90
   6  -3  11  957.70   36.70
   6   3  11 1042.50   29.50
  -6   3 -11  999.70   33.60
  -6   3 -11  983.80   29.90
   7  -3  11  112.49   13.10
  -7  -3 -11  119.29   11.10
   7  -3  11  119.29   10.00
  -7   3 -11  116.99   12.10
   7   3  11  103.39    9.10
  -6  -4  11   -0.90    4.90
   6  -4 -11   -0.20    3.50
   6   4 -11    3.50    4.90
  -6   4  11    2.00    6.20
   5  -4 -11 2401.86   62.49
  -5  -4  11 2336.47   63.79
   5  -4 -11 2350.56   60.49
   5   4 -11 2456.15   62.99
  -5   4  11 2389.26   72.49
  -4  -4  11   68.39    9.80
  -4  -4  11   61.19    7.30
   4  -4 -11   64.49    6.10
   4  -4 -11   65.79    7.30
   4   4 -11   80.59    8.30
  -4   4  11   58.99   10.00
  -3  -4  11 1026.50   37.60
   3  -4 -11 1070.69   30.90
   3  -4 -11 1048.70   29.20
  -3  -4  11 1057.09   30.50
   3   4 -11 1040.80   31.30
  -3   4  11  994.40   36.80
   2  -4 -11   11.50    3.50
  -2  -4  11    6.60    5.70
   2  -4 -11    7.50    3.90
   2   4 -11   10.40    3.50
  -2   4  11    1.10    4.50
   2   4 -11    6.00    4.00
   1  -4 -11 1624.14   41.20
   1  -4 -11 1538.15   42.60
  -1  -4  11 1545.15   51.89
  -1   4  11 1587.94   49.90
   1   4 -11 1563.14   39.60
   1   4 -11 1602.04   43.30
   0  -4  11  220.38   15.60
   0  -4 -11  229.08    9.90
   0  -4 -11  203.78   10.80
   0   4 -11  198.98   11.00
   0   4  11  217.48   13.60
   0   4 -11  212.98    9.70
   1  -4  11  413.86   22.20
  -1  -4 -11  409.56   16.20
  -1  -4 -11  434.86   15.00
   1   4  11  403.26   19.20
  -1   4 -11  400.46   16.20
  -1   4 -11  401.86   14.50
   2  -4  11   14.80    7.10
  -2  -4 -11   29.20    5.80
  -2  -4 -11   20.50    4.30
  -2   4 -11    7.10    4.40
   2   4  11   19.30    5.80
  -2   4 -11   21.40    4.50
  -3  -4 -11  456.15   19.30
  -3  -4 -11  426.26   16.00
   3  -4  11  432.26   23.30
  -3   4 -11  395.76   15.50
   3   4  11  462.05   19.60
   3   4  11  409.76   14.90
  -3   4 -11  410.56   17.50
   4  -4  11    9.40    6.50
  -4  -4 -11    7.30    4.10
   4   4  11    3.50    4.60
   4   4  11   16.30    4.50
  -4   4 -11   10.10    4.40
  -4   4 -11    9.60    5.30
  -5  -4 -11  403.76   17.10
   5  -4  11  409.66   23.10
   5   4  11  411.86   16.10
  -5   4 -11  417.66   16.80
  -5   4 -11  402.46   18.70
  -6  -4 -11   22.10    5.90
   6  -4  11   30.80    9.10
  -6   4 -11   33.60    6.60
  -6   4 -11   39.50    7.90
   6   4  11   22.30    5.70
   5  -5 -11   24.20    5.90
  -5  -5  11   23.20    6.50
   5   5 -11   19.90    5.80
  -5   5  11   30.30    9.10
  -4  -5  11 1446.06   42.00
   4  -5 -11 1380.56   40.70
  -4  -5  11 1476.45   48.40
   4   5 -11 1450.15   40.50
  -4   5  11 1353.26   48.70
  -3  -5  11  169.58   15.80
   3  -5 -11  188.98   11.20
   3   5 -11  181.98   10.30
  -3   5  11  201.38   15.80
   3   5 -11  193.18   11.30
   2  -5 -11 1240.88   36.20
  -2  -5  11 1168.88   44.00
   2   5 -11 1234.88   35.70
   2   5 -11 1288.87   34.00
  -2   5  11 1220.08   42.80
  -1  -5  11  314.57   20.20
   1  -5 -11  333.77   15.00
   1   5 -11  338.07   14.40
   1   5 -11  350.36   13.90
  -1   5  11  324.57   18.90
   0  -5  11  378.26   22.60
   0  -5 -11  378.66   16.50
   0   5  11  392.86   20.10
   0   5 -11  411.46   16.10
   0   5 -11  368.86   14.70
   1  -5  11  269.57   19.80
  -1  -5 -11  296.67   14.60
  -1   5 -11  284.87   13.70
   1   5  11  283.07   16.70
  -1   5 -11  290.77   12.80
   2  -5  11  664.73   31.00
  -2  -5 -11  648.24   24.20
  -2   5 -11  620.54   20.90
   2   5  11  609.54   25.50
  -2   5 -11  590.24   21.80
   3  -5  11  213.98   17.70
  -3  -5 -11  209.98   14.30
  -3   5 -11  218.08   12.60
   3   5  11  199.38   13.70
  -3   5 -11  207.68   11.70
   4  -5  11  332.57   22.60
  -4  -5 -11  324.67   18.90
  -4   5 -11  331.07   15.10
  -4   5 -11  334.17   16.40
   4   5  11  328.87   14.60
   5  -5  11   38.30    9.70
   5   5  11   38.50    6.70
  -5   5 -11   29.60    6.80
   4  -6 -11   39.80    7.20
  -4   6  11   45.60   10.60
   3  -6 -11  300.17   15.80
  -3  -6  11  365.86   21.50
   3   6 -11  311.97   14.90
  -3   6  11  327.07   21.50
   2  -6 -11   17.30    5.80
  -2  -6  11   30.10    9.20
   2   6 -11   22.20    6.00
  -2   6  11   23.50    8.30
  -1  -6  11  457.35   25.70
   1  -6 -11  453.65   19.30
   1   6 -11  426.16   17.60
  -1   6  11  458.05   23.30
   0  -6  11  167.48   17.70
   0  -6 -11  214.88   13.40
   0   6 -11  205.58   12.00
   0   6  11  189.08   15.50
  -1  -6 -11  933.71   32.20
   1  -6  11  885.71   39.50
  -1   6 -11  907.01   28.60
   1   6  11  931.71   35.10
   2  -6  11   36.30   10.70
  -2  -6 -11   48.00    8.60
  -2   6 -11   44.30    6.80
   2   6  11   58.49    9.80
   3  -6  11 1174.08   48.60
  -3  -6 -11 1252.77   41.70
  -3   6 -11 1194.18   35.70
   3   6  11 1194.68   41.60
   7   0 -12    2.00    4.80
  -7   0  12    7.50    4.70
  -6   0  12  980.70   30.20
   6   0 -12  992.10   31.90
  -6   0  12 1004.10   35.30
   5   0 -12    1.00    3.80
  -5   0  12   -0.60    4.60
  -5   0  12    1.40    3.40
   4   0 -12  580.44   20.70
  -4   0  12  580.04   19.10
  -4   0  12  591.34   24.20
  -3   0  12   -1.10    4.20
   3   0 -12   -1.50    3.60
  -3   0  12    1.60    2.80
   2   0 -12 1437.06   39.70
  -2   0  12 1450.55   45.70
  -2   0  12 1449.85   37.60
  -1   0  12    1.00    4.10
   1   0 -12   -4.80    3.00
  -1   0  12    0.30    2.10
   0   0 -12 4451.65  106.09
   0   0  12 4279.37  116.39
  -1   0 -12    6.00    3.70
   1   0  12   -0.70    3.70
   2   0  12 3596.44   80.49
   2   0  12 3519.85   96.79
  -2   0 -12 3522.45   87.89
   3   0  12    1.40    2.60
  -3   0 -12   -0.30    3.10
   3   0  12   -0.70    4.30
  -4   0 -12 2347.97   61.29
   4   0  12 2245.98   66.59
   4   0  12 2338.27   55.59
  -5   0 -12   -1.90    4.20
   5   0  12    2.30    3.40
   5   0  12    1.90    4.80
   6   0  12 1340.27   36.50
  -6   0 -12 1361.76   41.20
   6   0  12 1374.46   43.80
   7   0  12   -0.30    4.20
  -7   0 -12    3.50    5.50
   7  -1 -12  904.61   30.20
  -7  -1  12  870.41   29.10
   7   1 -12  908.51   31.10
  -7   1  12  878.01   28.90
  -7   1  12  888.01   36.20
   6  -1 -12  344.77   15.60
  -6  -1  12  337.17   14.90
  -6  -1  12  323.27   17.60
  -6   1  12  332.27   18.20
   6   1 -12  336.27   16.10
  -6   1  12  331.37   14.80
   5  -1 -12  851.71   26.80
  -5  -1  12  785.02   30.30
  -5  -1  12  829.52   25.60
  -5   1  12  803.82   25.50
   5   1 -12  852.81   27.70
  -5   1  12  801.02   30.60
  -4  -1  12  322.07   17.10
   4  -1 -12  337.87   14.40
  -4  -1  12  321.87   12.90
  -4   1  12  300.87   16.50
   4   1 -12  304.57   14.30
  -4   1  12  323.47   13.10
  -3  -1  12  813.92   23.60
  -3  -1  12  779.62   29.60
   3  -1 -12  805.42   25.20
  -3   1  12  804.62   23.90
   3   1 -12  806.72   26.00
  -3   1  12  827.32   30.00
  -2  -1  12   99.79    6.20
  -2  -1  12   86.59    9.70
   2  -1 -12   97.09    7.30
  -2   1  12   94.09    6.40
  -2   1  12  106.89   10.70
   2   1 -12  110.99    8.50
  -1  -1  12 1111.79   37.70
   1  -1 -12 1134.59   31.90
   1  -1 -12 1106.29   29.60
   1   1 -12 1107.19   32.40
  -1   1  12 1083.29   36.80
   0  -1 -12   35.20    5.20
   0  -1 -12   45.90    4.40
   0  -1  12   39.00    7.40
   0   1  12   34.90    6.90
   0   1 -12   32.00    5.30
   1  -1  12 1436.26   46.60
  -1  -1 -12 1456.45   40.40
   1   1  12 1496.15   46.30
  -1   1 -12 1529.65   41.30
  -1   1 -12 1486.35   36.10
   2  -1  12    0.30    4.70
  -2  -1 -12   -0.30    3.20
  -2   1 -12    4.00    4.00
   2   1  12    3.40    4.30
   3  -1  12 1147.09   38.50
   3  -1  12 1150.58   29.50
  -3  -1 -12 1103.69   33.00
  -3   1 -12 1097.89   33.60
   3   1  12 1172.38   29.40
   3   1  12 1091.89   37.00
   4  -1  12   55.19    5.80
   4  -1  12   47.10    8.10
  -4  -1 -12   41.50    6.40
   4   1  12   51.19    7.80
   4   1  12   49.50    5.40
  -4   1 -12   37.40    6.60
  -5  -1 -12  680.53   24.90
   5  -1  12  742.53   28.80
   5  -1  12  770.12   22.70
   5   1  12  780.92   22.70
   5   1  12  751.62   27.80
  -5   1 -12  738.73   26.00
   6  -1  12  207.98   10.70
   6  -1  12  223.28   14.90
  -6  -1 -12  205.78   13.20
  -6   1 -12  196.28   13.50
   6   1  12  216.78   11.10
  -7  -1 -12  673.33   26.20
   7  -1  12  704.83   23.30
  -7   1 -12  665.73   26.70
   7   1  12  751.62   23.60
   7  -2 -12   40.80    7.00
  -7  -2  12   33.30    6.90
   7   2 -12   51.89    8.40
  -7   2  12   35.30    8.80
  -7   2  12   32.40    6.50
   6  -2 -12  858.61   28.20
  -6  -2  12  897.41   28.40
   6   2 -12  846.02   29.30
  -6   2  12  899.71   28.10
  -6   2  12  863.91   33.30
  -5  -2  12  121.39   12.00
   5  -2 -12  108.19    8.70
  -5  -2  12  106.59    8.60
  -5   2  12   89.59    8.10
  -5   2  12  124.49   12.60
   5   2 -12   90.89    9.20
  -4  -2  12 1013.00   29.20
  -4  -2  12 1013.20   35.70
   4  -2 -12 1016.50   29.90
   4   2 -12  973.50   31.10
  -4   2  12  995.30   29.50
  -4   2  12 1024.90   35.60
   3  -2 -12  141.99    8.80
  -3  -2  12  114.89   11.90
  -3  -2  12  128.09    7.50
  -3   2  12  133.69   11.60
  -3   2  12  137.19    8.20
   3   2 -12  129.69    9.80
  -2  -2  12  393.76   19.40
   2  -2 -12  389.66   14.20
   2  -2 -12  394.36   14.80
   2   2 -12  427.16   16.60
  -2   2  12  402.36   19.00
  -1  -2  12    5.60    5.10
   1  -2 -12    3.10    2.70
   1  -2 -12    3.40    3.00
   1   2 -12    2.90    3.50
  -1   2  12    3.10    4.10
   0  -2 -12  249.88   11.20
   0  -2 -12  267.17   10.70
   0  -2  12  264.67   16.00
   0   2 -12  270.77   12.80
   0   2 -12  264.37    9.70
   1  -2  12   22.90    6.20
  -1  -2 -12   36.90    4.60
  -1  -2 -12   32.20    4.90
  -1   2 -12   44.30    4.60
  -1   2 -12   25.30    5.00
   1   2  12   36.40    7.00
  -2  -2 -12   63.59    6.70
   2  -2  12   62.89    9.30
   2   2  12   49.40    7.60
  -2   2 -12   64.59    5.90
  -3  -2 -12   26.90    5.00
   3  -2  12   29.90    7.40
   3   2  12   38.20    4.60
  -3   2 -12   36.60    5.00
  -3   2 -12   27.60    5.90
   3   2  12   40.10    7.10
   4  -2  12  202.88   14.30
  -4  -2 -12  168.38   10.80
   4   2  12  184.98   12.50
  -4   2 -12  202.48   12.40
   4   2  12  198.18    9.60
  -4   2 -12  185.88    9.90
   5  -2  12   63.59    9.50
  -5  -2 -12   64.19    7.60
   5  -2  12   71.29    6.80
   5   2  12   78.09    7.20
  -5   2 -12   76.49    9.00
   5   2  12   77.39    9.20
   6  -2  12  254.47   16.20
   6  -2  12  241.68   12.30
  -6  -2 -12  260.97   14.50
  -6   2 -12  270.47   15.60
   6   2  12  222.88   11.80
  -6  -3  12  268.57   14.30
   6  -3 -12  286.97   13.80
  -6   3  12  293.37   19.20
   6   3 -12  290.77   15.60
  -6   3  12  257.37   13.60
  -5  -3  12  777.02   30.50
  -5  -3  12  793.72   25.90
   5  -3 -12  780.72   25.10
  -5   3  12  799.12   25.80
   5   3 -12  823.12   27.30
  -5   3  12  783.12   31.50
  -4  -3  12  129.59   13.10
  -4  -3  12  125.39    8.40
   4  -3 -12  125.19    8.50
  -4   3  12  132.19   13.20
   4   3 -12  128.69   10.50
   3  -3 -12  858.01   25.90
  -3  -3  12  857.71   33.10
   3  -3 -12  888.31   26.50
  -3  -3  12  848.12   25.50
  -3   3  12  875.11   32.50
   3   3 -12  888.01   28.10
   2  -3 -12  258.57   11.60
  -2  -3  12  265.57   16.80
   2  -3 -12  268.57   11.60
   2   3 -12  267.27   13.30
  -2   3  12  270.57   15.90
  -1  -3  12  790.62   31.30
   1  -3 -12  763.22   23.60
   1  -3 -12  791.12   23.50
   1   3 -12  806.82   25.60
  -1   3  12  726.63   28.90
   0  -3 -12  218.18   10.40
   0  -3 -12  217.68   10.30
   0  -3  12  237.98   16.00
   0   3 -12  193.28   11.30
   0   3  12  202.58   13.80
   0   3 -12  215.98    9.30
  -1  -3 -12  332.57   13.40
  -1  -3 -12  349.37   13.90
   1  -3  12  355.06   19.60
   1   3  12  327.07   17.10
  -1   3 -12  317.27   14.70
  -1   3 -12  319.27   12.20
   2  -3  12   98.19   11.70
  -2  -3 -12  101.99    7.70
  -2   3 -12   93.89    8.80
  -2   3 -12   98.69    7.10
   2   3  12  110.49   11.00
  -3  -3 -12  558.74   19.80
   3  -3  12  560.44   25.60
  -3   3 -12  539.85   21.10
  -3   3 -12  569.94   18.60
   3   3  12  585.54   23.40
  -4  -3 -12  156.18   10.70
   4  -3  12  154.68   15.00
   4   3  12  150.18    8.90
  -4   3 -12  148.39    9.50
   4   3  12  142.69   11.20
  -4   3 -12  155.88   11.60
  -5  -3 -12  638.84   22.80
   5  -3  12  642.14   28.20
  -5   3 -12  604.34   24.20
   5   3  12  638.84   20.50
  -5   3 -12  607.44   21.00
  -6  -3 -12  153.28   11.60
   6  -3  12  141.49   14.70
  -6   3 -12  132.59   12.70
  -6   3 -12  138.49    9.90
   6   3  12  155.18   10.40
   6  -4 -12  292.77   15.20
  -6  -4  12  333.27   16.90
   6  -4 -12  328.67   14.70
   6   4 -12  368.76   17.00
  -6   4  12  350.26   21.40
   5  -4 -12   66.89    7.80
   5  -4 -12   87.69    7.90
  -5  -4  12   89.89    9.20
  -5   4  12   60.69   10.20
   5   4 -12   77.39    9.10
  -4  -4  12  827.32   33.90
   4  -4 -12  897.71   28.00
   4  -4 -12  834.32   26.10
  -4  -4  12  876.71   27.90
   4   4 -12  974.70   29.50
  -4   4  12  840.62   34.00
   3  -4 -12  243.08   11.30
  -3  -4  12  236.08   17.00
   3  -4 -12  247.28   12.30
  -3   4  12  218.18   16.00
   3   4 -12  260.57   13.30
   2  -4 -12 1936.01   49.30
  -2  -4  12 1873.31   60.69
   2  -4 -12 1893.21   50.69
   2   4 -12 1968.40   51.79
  -2   4  12 1820.52   58.49
   1  -4 -12    8.50    3.50
  -1  -4  12   19.00    7.70
   1  -4 -12    9.70    4.10
  -1   4  12   12.40    6.20
   1   4 -12    3.60    4.00
   1   4 -12   18.60    4.10
   0  -4 -12 1275.07   34.40
   0  -4  12 1208.68   44.50
   0  -4 -12 1259.47   35.80
   0   4 -12 1242.78   36.40
   0   4  12 1198.38   41.20
   0   4 -12 1227.38   32.70
   1  -4  12    9.50    6.50
  -1  -4 -12    8.90    4.20
  -1  -4 -12    8.60    3.80
   1   4  12    5.30    4.70
  -1   4 -12    6.20    4.40
  -1   4 -12    7.10    3.60
  -2  -4 -12 2209.18   55.19
   2  -4  12 2096.09   67.19
  -2  -4 -12 2169.78   57.89
  -2   4 -12 2062.79   52.49
  -2   4 -12 2019.60   56.79
   2   4  12 2142.49   62.89
  -3  -4 -12   12.60    4.60
   3  -4  12    8.80    6.90
  -3   4 -12   17.20    5.60
  -3   4 -12   17.00    4.80
   3   4  12   13.80    5.80
  -4  -4 -12 1765.22   46.90
   4  -4  12 1726.23   57.69
   4   4  12 1671.43   51.59
  -4   4 -12 1673.83   48.80
  -4   4 -12 1623.64   44.40
  -5  -4 -12   76.99    8.70
   5  -4  12   63.79   10.80
   5   4  12   86.89    8.30
  -5   4 -12   91.09    9.20
  -5   4 -12   67.29    9.30
   4  -5 -12   65.29    8.10
  -4  -5  12   53.19   10.30
   4   5 -12   59.19    7.80
  -4   5  12   59.49   10.80
  -3  -5  12 1534.15   51.79
   3  -5 -12 1409.46   42.20
   3   5 -12 1541.75   42.70
  -3   5  12 1460.35   50.59
   2  -5 -12  149.29   10.70
  -2  -5  12  142.69   16.10
  -2   5  12  175.58   16.30
   2   5 -12  173.08   11.40
   2   5 -12  176.28   10.40
   1  -5 -12 1240.18   36.50
  -1  -5  12 1100.69   44.40
   1   5 -12 1245.58   35.80
  -1   5  12 1216.08   42.50
   1   5 -12 1207.98   33.40
   0  -5  12   89.99   13.30
   0  -5 -12   99.39    9.60
   0   5 -12   98.79    8.40
   0   5 -12  120.79   10.00
   0   5  12  105.99   12.40
  -1  -5 -12 1693.33   48.30
   1  -5  12 1677.63   58.69
  -1   5 -12 1684.03   44.20
   1   5  12 1684.03   53.69
  -1   5 -12 1691.63   47.20
  -2  -5 -12   23.10    6.30
   2  -5  12   17.10    7.80
  -2   5 -12   16.60    5.60
  -2   5 -12   20.80    5.30
   2   5  12   21.50    7.00
   3  -5  12 1302.07   49.50
  -3  -5 -12 1335.17   42.10
   3   5  12 1266.47   42.70
  -3   5 -12 1220.08   35.90
  -3   5 -12 1260.87   38.60
   4  -5  12   78.49   13.10
  -4   5 -12   86.09    8.90
  -4   5 -12   88.09   10.00
  -2  -6  12  324.87   22.30
   2  -6 -12  357.76   17.30
  -2   6  12  370.36   22.50
   2   6 -12  345.27   16.10
   1  -6 -12   69.49    8.90
  -1  -6  12   79.49   13.60
   1   6 -12   68.69    8.30
  -1   6  12   86.09   12.50
   0  -6  12  165.88   18.70
   0  -6 -12  169.98   12.70
   0   6 -12  180.68   11.70
   0   6  12  181.28   17.00
  -1  -6 -12   12.90    6.40
   1  -6  12   11.50    9.20
   1   6  12    9.90    7.30
  -1   6 -12   12.70    5.60
   7   0 -13  758.52   28.30
  -7   0  13  757.92   26.50
   6   0 -13    5.20    4.80
  -6   0  13    1.50    5.60
  -6   0  13    6.70    4.40
  -5   0  13  122.09   12.40
  -5   0  13  131.69    9.30
   5   0 -13  160.68   11.40
   4   0 -13   -0.70    4.20
  -4   0  13    5.30    5.40
  -4   0  13    0.30    3.30
  -3   0  13    9.90    3.50
  -3   0  13   15.40    6.40
   3   0 -13    5.10    4.10
  -2   0  13    1.30    4.60
   2   0 -13   -3.10    3.70
  -2   0  13    1.20    2.60
  -1   0  13   59.69    8.70
   1   0 -13   65.59    7.00
   0   0 -13   -2.10    3.60
   0   0  13    2.50    4.20
   1   0  13  121.79   11.90
  -1   0 -13  118.79    9.20
  -2   0 -13   -0.90    4.00
   2   0  13   -5.20    4.50
  -3   0 -13 1063.69   32.50
   3   0  13 1003.20   36.20
   3   0  13 1084.79   28.10
   4   0  13   -4.50    4.50
   4   0  13   -1.00    3.10
  -4   0 -13    3.80    4.30
  -5   0 -13  967.30   32.20
   5   0  13 1003.10   35.50
   5   0  13  998.70   28.10
   6   0  13   -2.70    5.20
  -6   0 -13   -2.80    4.50
   6   0  13    0.30    3.90
   7  -1 -13  311.67   16.80
  -7  -1  13  321.37   15.70
  -7   1  13  313.87   15.40
   7   1 -13  317.97   17.60
  -6  -1  13  685.63   23.80
   6  -1 -13  688.43   25.20
  -6  -1  13  712.03   29.10
  -6   1  13  707.93   24.00
   6   1 -13  705.83   26.20
  -6   1  13  685.13   29.00
  -5  -1  13   57.59    9.20
   5  -1 -13   52.49    7.50
  -5  -1  13   51.69    6.50
  -5   1  13   51.29    8.80
  -5   1  13   70.39    7.30
   5   1 -13   55.69    8.10
  -4  -1  13  825.72   25.30
  -4  -1  13  828.82   31.90
   4  -1 -13  837.42   27.20
   4   1 -13  856.01   27.90
  -4   1  13  858.01   25.80
  -4   1  13  826.62   31.60
  -3  -1  13  176.38    9.00
  -3  -1  13  170.58   13.40
   3  -1 -13  202.98   11.10
   3   1 -13  159.68   11.10
  -3   1  13  174.68    9.30
  -3   1  13  166.58   12.70
  -2  -1  13  829.52   31.70
   2  -1 -13  837.42   26.30
  -2   1  13  850.31   31.50
   2   1 -13  835.62   27.00
  -1  -1  13   39.40    7.80
   1  -1 -13   37.00    5.50
   1  -1 -13   55.69    5.20
   1   1 -13   44.70    6.60
  -1   1  13   40.40    7.60
   0  -1  13 1043.30   36.20
   0  -1 -13 1003.90   29.70
   0   1 -13  958.00   30.10
   0   1  13  982.50   35.00
   1  -1  13  378.66   19.30
  -1  -1 -13  377.86   15.50
  -1   1 -13  401.06   16.30
   1   1  13  366.66   18.80
   2  -1  13  745.43   29.60
  -2  -1 -13  759.52   24.70
   2  -1  13  750.02   21.20
  -2   1 -13  792.72   25.60
   2   1  13  748.13   28.70
  -3  -1 -13  211.38   11.80
   3  -1  13  207.48   14.40
   3  -1  13  196.68    9.20
   3   1  13  164.38   12.90
  -3   1 -13  202.68   12.20
   4  -1  13  754.62   22.20
   4  -1  13  743.93   29.50
  -4  -1 -13  729.83   25.40
  -4   1 -13  745.53   26.20
   4   1  13  715.73   21.80
   4   1  13  753.82   28.70
   5  -1  13  223.08   15.40
  -5  -1 -13  223.28   13.10
   5  -1  13  251.67   11.70
   5   1  13  247.38   11.40
   5   1  13  268.57   15.90
  -5   1 -13  206.08   13.70
   6  -1  13  715.03   28.50
  -6  -1 -13  626.94   24.80
   6  -1  13  696.53   22.60
  -6   1 -13  643.04   26.00
   6   1  13  712.73   22.50
  -6  -2  13   71.49    8.20
   6  -2 -13   88.79    9.20
  -6   2  13   68.29    7.90
   6   2 -13   63.89    8.60
  -6   2  13   70.89   10.90
  -5  -2  13 1439.66   47.20
  -5  -2  13 1407.16   39.80
   5  -2 -13 1381.96   40.20
  -5   2  13 1371.06   39.60
   5   2 -13 1441.26   42.20
  -5   2  13 1392.16   47.00
  -4  -2  13   18.70    6.80
   4  -2 -13   15.00    4.60
  -4  -2  13   13.50    4.10
  -4   2  13   16.70    6.60
   4   2 -13   19.50    6.00
  -4   2  13   17.80    4.70
  -3  -2  13 3311.57   93.69
   3  -2 -13 3257.27   82.39
  -3   2  13 3319.07   92.89
   3   2 -13 3346.27   84.39
   2  -2 -13    0.60    3.20
  -2  -2  13    0.30    5.40
   2  -2 -13   -1.10    3.30
  -2   2  13    1.60    4.60
   2   2 -13   -3.40    3.90
  -1  -2  13 2503.55   74.49
   1  -2 -13 2473.95   64.09
   1  -2 -13 2544.45   63.09
  -1   2  13 2563.54   73.29
   1   2 -13 2521.55   65.99
   0  -2 -13    4.30    3.70
   0  -2  13    1.90    5.00
   0  -2 -13    6.90    3.40
   0   2 -13    5.40    4.50
   0   2  13    4.10    4.70
   1  -2  13 2404.76   72.39
  -1  -2 -13 2427.96   62.49
  -1   2 -13 2457.85   64.39
   1   2  13 2409.16   70.59
  -1   2 -13 2475.25   57.89
  -2  -2 -13  162.68   10.20
   2  -2  13  150.68   14.50
  -2   2 -13  168.08    8.70
   2   2  13  170.48   12.70
  -2   2 -13  163.38   11.20
  -3  -2 -13 1065.29   31.90
   3  -2  13 1051.09   38.10
   3   2  13 1040.40   36.10
  -3   2 -13 1042.80   28.90
  -3   2 -13 1028.80   32.90
  -4  -2 -13    2.90    4.30
   4  -2  13    2.10    5.50
   4   2  13   -1.80    3.10
   4   2  13    0.50    4.90
  -4   2 -13    3.20    5.10
   5  -2  13  428.16   21.90
   5  -2  13  419.86   16.10
  -5  -2 -13  423.46   18.60
  -5   2 -13  439.56   19.90
   5   2  13  433.56   16.20
   5   2  13  401.16   19.60
  -6  -2 -13   24.20    6.70
   6  -2  13    6.00    6.20
   6  -2  13    9.80    4.90
  -6   2 -13   17.10    6.90
   6   2  13   13.50    5.10
  -6  -3  13  955.60   31.00
   6  -3 -13  941.71   29.90
   6   3 -13  981.90   32.20
  -6   3  13  907.81   30.10
  -6   3  13  895.31   37.00
   5  -3 -13  107.09    9.10
  -5  -3  13  105.99   12.50
  -5  -3  13  109.49    9.60
   5   3 -13  147.19   12.20
  -5   3  13  112.49   12.90
   4  -3 -13  968.70   28.80
   4  -3 -13  928.51   28.80
  -4  -3  13  954.50   35.90
   4   3 -13  938.31   30.60
  -4   3  13  901.01   35.40
  -3  -3  13   97.19   12.40
   3  -3 -13   99.99    8.10
   3  -3 -13  101.79    8.10
   3   3 -13   96.39    9.20
  -3   3  13   75.99   10.60
  -2  -3  13 1086.29   40.40
   2  -3 -13 1094.19   31.60
   2  -3 -13 1113.89   31.90
  -2   3  13 1058.09   38.10
   2   3 -13 1114.89   33.90
   1  -3 -13  125.89    8.50
   1  -3 -13  115.69    8.10
  -1  -3  13  120.09   13.50
   1   3 -13  125.49   10.10
  -1   3  13  101.09   11.40
   0  -3 -13 1052.59   31.10
   0  -3  13 1087.29   39.90
   0  -3 -13 1075.59   31.10
   0   3 -13 1047.40   32.90
   0   3  13 1094.39   37.80
  -1  -3 -13  319.77   13.90
   1  -3  13  345.77   20.10
   1   3  13  322.77   17.70
  -1   3 -13  323.67   12.50
  -1   3 -13  304.57   15.20
  -2  -3 -13 1198.58   33.70
   2  -3  13 1188.58   42.40
  -2   3 -13 1124.09   30.90
  -2   3 -13 1069.79   34.80
   2   3  13 1130.79   38.90
   3  -3  13  137.79   14.20
  -3  -3 -13  140.99    9.90
  -3   3 -13  145.09    9.00
   3   3  13  144.29   12.50
  -3   3 -13  125.19   11.10
   4  -3  13  863.61   34.80
  -4  -3 -13  856.31   27.90
   4   3  13  870.01   31.40
  -4   3 -13  807.42   29.10
  -4   3 -13  844.72   25.90
  -5  -3 -13  245.58   14.00
   5  -3  13  243.68   17.70
  -5   3 -13  251.07   15.60
  -5   3 -13  267.17   13.10
   5   3  13  236.08   11.90
   5  -4 -13  361.86   16.60
   5  -4 -13  379.36   15.50
   5   4 -13  403.66   18.40
  -5   4  13  339.37   21.60
  -4  -4  13   27.60    8.70
   4  -4 -13   26.40    5.60
   4  -4 -13   29.00    5.30
   4   4 -13   30.30    6.80
  -4   4  13   28.70    8.90
   3  -4 -13   42.00    5.80
  -3  -4  13   51.59   10.30
   3  -4 -13   55.89    7.30
   3   4 -13   55.49    7.70
  -3   4  13   60.99   10.20
   2  -4 -13   16.60    4.30
  -2  -4  13   16.30    7.70
   2  -4 -13   12.50    4.60
   2   4 -13   28.40    6.40
  -2   4  13   15.40    7.20
   1  -4 -13  129.69    8.90
  -1  -4  13  113.29   13.50
   1  -4 -13  130.79    9.80
  -1   4  13  129.69   13.70
   1   4 -13  136.79   10.50
   0  -4 -13    6.60    4.30
   0  -4 -13   14.60    4.10
   0  -4  13   10.80    7.70
   0   4 -13    8.40    3.80
   0   4 -13   13.60    5.30
   0   4  13   11.90    6.40
   1  -4  13  204.88   17.30
  -1  -4 -13  196.28   11.90
  -1  -4 -13  172.08   10.40
  -1   4 -13  188.18    9.90
   1   4  13  188.08   14.20
  -1   4 -13  171.28   11.80
   2  -4  13   69.49   11.40
  -2  -4 -13   66.19    7.20
  -2   4 -13   57.69    6.80
  -2   4 -13   64.39    8.30
   2   4  13   47.50    8.50
  -3  -4 -13  566.04   20.30
   3  -4  13  553.74   28.20
  -3   4 -13  517.85   18.80
  -3   4 -13  501.35   21.40
   3   4  13  501.35   23.20
  -4  -4 -13   64.69    8.10
   4  -4  13   79.49   12.80
   4   4  13   78.89   10.20
  -4   4 -13   81.29    8.40
  -4   4 -13   75.89    9.80
   3  -5 -13   34.20    6.70
  -3  -5  13   39.10   10.10
   3   5 -13   32.20    6.90
  -3   5  13   34.50    9.00
   2  -5 -13  299.47   15.30
  -2  -5  13  292.47   20.80
   2   5 -13  314.47   15.50
  -2   5  13  366.96   21.30
   1  -5 -13   48.90    7.40
  -1  -5  13   77.39   13.10
   1   5 -13   55.89    7.80
  -1   5  13   74.09   11.50
   0  -5 -13  391.16   17.40
   0  -5  13  348.17   23.50
   0   5 -13  352.36   16.50
   0   5 -13  346.07   14.90
   0   5  13  360.96   20.70
   1  -5  13   70.69   13.10
  -1  -5 -13   89.99    9.60
  -1   5 -13   76.49    8.90
   1   5  13   86.69   11.30
  -1   5 -13   81.89    8.40
   2  -5  13  482.65   28.00
  -2  -5 -13  534.15   22.20
  -2   5 -13  444.26   20.00
  -2   5 -13  506.75   18.80
   2   5  13  495.45   23.60
  -6   0  14 2092.09   57.49
   6   0 -14 2173.78   60.19
  -6   0  14 2166.18   66.29
  -5   0  14    9.60    6.50
  -5   0  14   -0.50    3.80
   5   0 -14    5.10    4.90
  -4   0  14 1857.21   49.10
  -4   0  14 1876.11   58.69
   4   0 -14 1832.22   51.79
  -3   0  14    6.00    6.00
  -3   0  14   -3.30    3.00
   3   0 -14   -4.70    4.10
   2   0 -14  894.41   28.80
  -2   0  14  891.91   34.00
   1   0 -14    2.40    4.20
  -1   0  14   11.00    5.90
   0   0 -14  614.84   21.90
   0   0  14  628.14   26.60
  -1   0 -14   -0.60    3.70
   1   0  14    4.00    5.30
   2   0  14  387.56   20.30
  -2   0 -14  396.16   16.90
  -3   0 -14   -1.40    3.90
   3   0  14    1.40    4.90
   4   0  14  130.69   13.60
   4   0  14  141.29    8.60
  -4   0 -14  149.29   11.20
   5   0  14   -4.70    3.60
   5   0  14    6.60    5.80
  -5   0 -14   -1.10    5.30
  -6  -1  14   47.00    7.20
  -6  -1  14   56.69   10.50
   6  -1 -14   46.40    8.30
   6   1 -14   59.99    9.40
  -6   1  14   44.60    9.70
  -6   1  14   50.29    7.30
   5  -1 -14  771.52   26.60
  -5  -1  14  757.52   24.80
  -5  -1  14  773.02   31.40
  -5   1  14  734.73   24.60
   5   1 -14  746.43   27.10
  -5   1  14  725.13   30.70
  -4  -1  14   84.39   11.20
  -4  -1  14   99.99    8.00
   4  -1 -14   75.39    8.30
   4   1 -14   96.59   10.00
  -4   1  14   89.29   11.70
  -4   1  14   98.39    8.30
   3  -1 -14 1055.09   31.80
  -3  -1  14 1028.40   38.00
   3   1 -14 1059.49   32.80
  -3   1  14  954.90   36.50
  -3   1  14 1004.00   29.40
  -2  -1  14  239.48   16.50
   2  -1 -14  263.37   11.30
   2  -1 -14  292.27   13.80
   2   1 -14  273.07   14.20
  -2   1  14  243.08   16.40
   1  -1 -14  893.61   28.20
  -1  -1  14  913.21   34.30
  -1   1  14  876.31   33.40
   1   1 -14  889.01   28.90
   0  -1 -14  209.38   11.40
   0  -1  14  206.98   15.30
   0   1  14  190.38   13.90
   0   1 -14  202.18   12.20
  -1  -1 -14  959.40   29.80
   1  -1  14  961.20   36.00
  -1   1 -14  971.20   30.90
   1   1  14  948.41   35.10
   2  -1  14  259.47   16.80
  -2  -1 -14  248.88   13.30
   2   1  14  264.57   16.30
  -2   1 -14  231.48   13.60
  -3  -1 -14  830.32   27.40
   3  -1  14  780.12   31.40
   3   1  14  767.32   30.90
  -3   1 -14  825.32   28.10
  -4  -1 -14  221.08   13.00
   4  -1  14  194.48   15.30
   4  -1  14  227.48   10.90
  -4   1 -14  221.28   14.20
   4   1  14  233.28   15.60
   5  -1  14  533.35   25.40
   5  -1  14  569.84   19.30
  -5  -1 -14  535.35   22.30
   5   1  14  570.04   24.90
   5   1  14  543.55   18.80
  -5   1 -14  554.04   23.20
  -5  -2  14   -0.60    3.70
  -5  -2  14   -0.60    5.90
   5  -2 -14   -6.90    4.10
  -5   2  14   -2.50    4.00
  -5   2  14   -0.30    6.10
   5   2 -14   -4.70    5.10
  -4  -2  14  226.58   16.70
   4  -2 -14  217.38   12.40
   4   2 -14  210.68   13.90
  -4   2  14  235.98   12.10
  -4   2  14  215.08   16.00
  -3  -2  14   64.59   10.70
   3  -2 -14   51.09    6.20
   3  -2 -14   47.00    6.60
   3   2 -14   47.10    7.60
  -3   2  14   45.40    9.10
   2  -2 -14  454.75   16.00
   2  -2 -14  418.06   17.10
  -2  -2  14  404.86   21.90
   2   2 -14  445.56   18.80
  -2   2  14  425.96   21.90
   1  -2 -14   43.20    6.20
  -1  -2  14   38.20    8.90
   1  -2 -14   41.30    5.40
   1   2 -14   34.60    6.80
  -1   2  14   30.20    8.00
   0  -2  14 1193.08   42.00
   0  -2 -14 1122.39   33.30
   0   2  14 1142.09   39.90
   0   2 -14 1095.19   34.80
   1  -2  14   67.09   11.00
  -1  -2 -14   79.99    8.00
   1   2  14   57.09    8.90
  -1   2 -14   77.19    9.10
   2  -2  14 1212.78   43.40
  -2  -2 -14 1221.98   35.70
  -2   2 -14 1192.18   37.00
   2   2  14 1156.08   40.80
  -3  -2 -14    4.10    4.80
   3  -2  14   10.50    6.60
   3   2  14    6.80    5.60
  -3   2 -14    5.90    5.50
   4  -2  14 1814.22   46.60
   4  -2  14 1849.52   59.29
  -4  -2 -14 1758.42   51.09
  -4   2 -14 1896.61   53.39
   4   2  14 1884.71   57.29
   5  -2  14   34.20    6.00
  -5  -2 -14   56.39    8.20
   5  -2  14   37.60    9.20
  -5   2 -14   40.70    8.40
  -5  -3  14  424.86   23.70
   5  -3 -14  410.46   17.80
   5  -3 -14  426.86   17.70
   5   3 -14  439.76   20.20
  -5   3  14  400.56   22.90
   4  -3 -14  206.08   11.70
  -4  -3  14  200.28   16.80
   4  -3 -14  192.18   11.50
   4   3 -14  219.18   13.50
  -4   3  14  212.68   16.60
  -3  -3  14  468.55   24.70
   3  -3 -14  482.35   18.20
   3  -3 -14  466.95   18.10
   3   3 -14  481.05   20.50
  -3   3  14  492.75   24.20
  -2  -3  14  133.49   15.10
   2  -3 -14  151.38    9.70
   2  -3 -14  159.98   10.00
  -2   3  14  131.99   13.50
   2   3 -14  154.78   11.70
   1  -3 -14  598.94   20.70
  -1  -3  14  539.75   27.20
   1  -3 -14  597.64   20.30
   1   3 -14  606.04   22.70
  -1   3  14  574.84   26.10
   0  -3  14  216.18   16.60
   0  -3 -14  234.38   12.10
   0   3 -14  224.48   13.60
   0   3  14  233.48   16.10
   1  -3  14  794.22   32.90
  -1  -3 -14  780.12   25.10
  -1   3 -14  696.23   26.10
   1   3  14  732.13   29.70
  -2  -3 -14   69.39    7.70
   2  -3  14   59.99   10.80
   2   3  14   88.19   11.00
  -2   3 -14   91.79   10.00
  -2   3 -14   71.09    7.00
   3  -3  14 1012.70   39.70
  -3  -3 -14  983.80   31.30
   3   3  14 1040.90   36.60
  -3   3 -14  985.90   33.50
  -3   3 -14  993.10   29.10
  -4  -3 -14   92.09    9.60
   4  -3  14   95.19   13.10
  -4   3 -14   85.89   10.20
   4   3  14   90.09   11.20
  -4   3 -14  103.19    8.90
  -3  -4  14    4.10    6.50
   3  -4 -14    7.30    4.30
   3  -4 -14   13.90    5.30
   3   4 -14   13.80    6.10
  -3   4  14    3.40    6.90
   2  -4 -14 1223.48   35.00
   2  -4 -14 1224.48   36.00
  -2  -4  14 1234.88   46.30
   2   4 -14 1248.98   37.90
  -2   4  14 1148.99   43.20
   1  -4 -14  190.98   11.60
   1  -4 -14  194.78   11.20
  -1  -4  14  207.68   17.80
   1   4 -14  212.08   13.30
  -1   4  14  193.08   15.10
   0  -4  14  565.04   29.30
   0  -4 -14  603.04   21.80
   0  -4 -14  562.94   20.40
   0   4 -14  597.44   23.00
   0   4  14  580.04   26.50
   1  -4  14   88.29   13.60
  -1  -4 -14   67.09    7.60
   1   4  14   80.39   11.10
  -1   4 -14   61.09    8.50
   2  -4  14  511.35   27.50
  -2  -4 -14  485.85   18.90
   2   4  14  469.25   23.30
  -2   4 -14  465.55   20.60
  -2   4 -14  482.85   17.60
   3  -4  14   15.50    8.00
  -3  -4 -14   27.00    6.10
  -3   4 -14   23.10    5.70
   3   4  14   23.10    7.60
  -3   4 -14   24.60    7.20
  -5   0  15  477.55   25.20
   5   0 -15  505.45   21.50
  -5   0  15  444.66   18.20
  -4   0  15    3.30    6.50
  -4   0  15    1.00    3.90
   4   0 -15    1.40    5.50
   3   0 -15 1546.65   45.30
  -3   0  15 1560.34   52.09
   2   0 -15   -2.10    4.70
  -2   0  15    1.20    5.20
  -1   0  15 1985.70   62.99
   1   0 -15 2030.60   55.19
   0   0 -15    7.20    5.10
   0   0  15    4.40    5.90
   1   0  15 1328.47   46.10
  -1   0 -15 1361.96   40.30
  -2   0 -15    1.50    4.30
   2   0  15    2.30    5.80
  -3   0 -15 2248.08   61.69
   3   0  15 2243.48   68.49
   4   0  15   -0.40    5.40
  -4   0 -15   -2.20    5.40
   5  -1 -15  234.58   14.10
  -5  -1  15  230.78   17.60
  -5   1  15  261.27   18.30
   5   1 -15  240.08   15.60
   4  -1 -15  729.53   26.30
  -4  -1  15  765.52   32.50
  -4   1  15  754.72   32.00
   4   1 -15  792.12   28.10
  -4   1  15  758.02   24.60
   3  -1 -15  261.57   14.20
  -3  -1  15  255.67   18.00
  -3   1  15  242.08   17.40
   3   1 -15  241.28   14.80
   2  -1 -15  821.32   28.30
  -2  -1  15  914.01   35.20
   2   1 -15  875.41   29.70
  -2   1  15  839.02   33.70
   1  -1 -15  672.83   23.90
  -1  -1  15  665.83   29.40
   1   1 -15  672.53   24.70
  -1   1  15  683.23   29.10
   0  -1 -15  860.91   28.00
   0  -1  15  786.12   33.10
   0   1  15  850.71   33.50
   0   1 -15  862.31   28.80
   1  -1  15   85.19   11.80
  -1  -1 -15  120.09   10.40
   1   1  15   87.19   11.50
  -1   1 -15   94.59    9.50
  -2  -1 -15  608.24   22.70
   2  -1  15  605.64   28.00
  -2   1 -15  621.74   24.00
   2   1  15  649.83   27.80
   3  -1  15   38.50    8.30
  -3  -1 -15   47.00    7.80
   3   1  15   35.50    8.60
  -3   1 -15   41.60    7.80
   4  -1  15 1080.69   40.00
  -4  -1 -15 1092.19   34.90
  -4   1 -15 1017.50   35.00
   4   1  15 1051.79   38.70
   4  -2 -15   10.40    5.20
  -4  -2  15    7.80    7.10
  -4   2  15    7.90    6.40
   4   2 -15   11.90    6.20
   3  -2 -15  508.75   18.70
  -3  -2  15  507.85   26.00
   3  -2 -15  499.55   19.90
   3   2 -15  552.24   22.40
  -3   2  15  533.25   25.70
  -2  -2  15   59.19   11.00
   2  -2 -15   57.79    7.20
  -2   2  15   52.49   10.10
   2   2 -15   58.39    8.70
  -1  -2  15  209.58   17.20
   1  -2 -15  202.78   12.00
  -1   2  15  216.48   16.20
   1   2 -15  201.28   13.40
   0  -2  15   -1.60    6.00
   0  -2 -15    5.40    4.40
   0   2  15    0.30    5.80
   0   2 -15    1.30    4.80
   1  -2  15   93.59   13.00
  -1  -2 -15  123.29   10.40
  -1   2 -15  114.59   10.70
   1   2  15  130.29   13.50
   2  -2  15   33.00    8.90
  -2  -2 -15   40.10    6.80
   2   2  15   28.80    7.60
  -2   2 -15   45.10    8.20
  -3  -2 -15   47.70    7.50
   3  -2  15   55.09   10.80
  -3   2 -15   56.79    8.90
   3   2  15   43.70    9.00
   3  -3 -15  178.18   11.40
  -3  -3  15  187.68   18.40
   3  -3 -15  188.38   11.70
  -3   3  15  178.18   17.10
   3   3 -15  190.88   13.80
   2  -3 -15  436.16   17.70
  -2  -3  15  503.35   26.30
   2  -3 -15  475.55   18.40
   2   3 -15  465.05   20.70
  -2   3  15  437.56   23.10
   1  -3 -15   64.99    7.60
  -1  -3  15   85.39   13.30
  -1   3  15   88.49   12.00
   1   3 -15   79.19    9.70
   0  -3 -15  544.15   20.30
   0  -3  15  562.84   28.60
   0   3  15  538.95   25.80
   0   3 -15  522.75   22.10
   1  -3  15  106.59   14.10
  -1  -3 -15  135.59   10.80
  -1   3 -15  112.39   10.90
   1   3  15  123.99   13.30
  -2  -3 -15  558.24   20.90
   2  -3  15  552.04   28.10
   2   3  15  500.25   24.60
  -2   3 -15  487.95   22.00
   3   0 -16    5.80    5.00
  -3   0  16    4.80    6.70
  -2   0  16  203.68   16.90
   2   0 -16  218.58   14.00
   1   0 -16    1.30    4.80
  -1   0  16   12.40    7.20
   0   0  16  295.97   19.70
   0   0 -16  280.37   15.50
  -1   0 -16    1.70    5.20
   1   0  16    0.20    5.60
   2   0  16  345.27   20.90
  -2   0 -16  360.36   17.40
   3  -1 -16  755.52   26.80
  -3  -1  16  752.52   32.90
  -3   1  16  721.73   31.80
   3   1 -16  697.33   27.20
  -2  -1  16    1.80    7.00
   2  -1 -16    4.80    5.20
  -2   1  16    7.00    6.70
   2   1 -16    9.60    6.10
  -1  -1  16  518.55   26.40
   1  -1 -16  492.45   20.50
   1   1 -16  536.55   22.20
  -1   1  16  514.55   25.80
   0  -1 -16   58.19    8.10
   0  -1  16   51.49   10.10
   0   1  16   39.70    9.20
   0   1 -16   66.99    9.30
   1  -1  16  443.76   24.50
  -1  -1 -16  478.75   20.20
  -1   1 -16  480.65   20.80
   1   1  16  469.65   23.90
   2  -1  16  393.86   22.70
  -2  -1 -16  352.76   17.40
  -2   1 -16  395.56   19.20
   2   1  16  419.76   22.10
  -2  -2  16 1665.53   57.39
   2  -2 -16 1639.04   47.10
   2   2 -16 1704.03   49.80
  -2   2  16 1645.74   55.69
  -1  -2  16   22.60    8.60
   1  -2 -16   12.50    5.50
  -1   2  16   10.90    7.20
   1   2 -16   21.50    6.90
   0  -2 -16 1382.56   41.60
   0  -2  16 1414.66   51.19
   0   2  16 1425.16   49.30
   0   2 -16 1433.86   43.80
   1  -2  16    6.80    6.70
  -1  -2 -16   -4.30    4.60
  -1   2 -16    5.60    5.60
   1   2  16   -3.80    5.90
;
_shelx_hkl_checksum              40388
loop_
_space_group_symop_operation_xyz
'x, y, z'
'-x+1/2, y+1/2, -z+1/2'
'-x, -y, -z'
'x-1/2, -y-1/2, z-1/2'
loop_
_atom_site_label
_atom_site_type_symbol
_atom_site_fract_x
_atom_site_fract_y
_atom_site_fract_z
_atom_site_U_iso_or_equiv
_atom_site_adp_type
_atom_site_occupancy
_atom_site_site_symmetry_order
_atom_site_calc_flag
_atom_site_refinement_flags_posn
_atom_site_refinement_flags_adp
_atom_site_refinement_flags_occupancy
Th1 Th 0.0000 0.0000 0.0000 0.00521(4) Uani 1 2 d S U P
Rb1 Rb -0.04163(2) 0.22973(3) 0.33917(2) 0.01034(5) Uani 1 1 d . U .
N1 N -0.0322(2) 0.7376(3) 0.18506(13) 0.0094(4) Uani 1 1 d . U .
N2 N 0.7171(2) 0.2478(3) 0.05269(13) 0.0091(4) Uani 1 1 d . U .
N3 N 0.2227(2) 0.2815(3) 0.11112(14) 0.0080(3) Uani 1 1 d . U .
O1 O 0.08020(18) 0.7184(2) 0.12237(11) 0.0110(3) Uani 1 1 d . U .
O2 O -0.0605(2) 0.6187(2) 0.25180(12) 0.0150(3) Uani 1 1 d . U .
O3 O 0.88186(17) 0.8922(2) 0.17294(11) 0.0095(3) Uani 1 1 d . . .
O4 O 0.60571(18) 0.3594(2) 0.06030(12) 0.0128(3) Uani 1 1 d . U .
O5 O 0.70168(17) 0.0897(2) -0.00050(12) 0.0110(3) Uani 1 1 d . U .
O6 O 0.85649(17) 0.2776(2) 0.09422(11) 0.0101(3) Uani 1 1 d . U .
O7 O 0.19040(17) 0.2926(2) 0.01354(11) 0.0100(3) Uani 1 1 d . U .
O8 O 0.30936(18) 0.3956(2) 0.15762(12) 0.0115(3) Uani 1 1 d . U .
O9 O 0.15555(17) 0.1390(2) 0.15735(11) 0.0099(3) Uani 1 1 d . U .
loop_
_atom_site_aniso_label
_atom_site_aniso_U_11
_atom_site_aniso_U_22
_atom_site_aniso_U_33
_atom_site_aniso_U_23
_atom_site_aniso_U_13
_atom_site_aniso_U_12
Th1 0.00505(6) 0.00513(6) 0.00543(6) 0.00007(4) -0.00003(4) 0.00013(4)
Rb1 0.01211(10) 0.00882(10) 0.01011(10) 0.00136(8) 0.00074(7) 0.00199(8)
N1 0.0103(9) 0.0099(9) 0.0079(8) -0.0011(7) -0.0022(7) -0.0031(7)
N2 0.0108(8) 0.0088(9) 0.0078(8) 0.0024(7) 0.0017(7) 0.0004(7)
N3 0.0053(8) 0.0080(9) 0.0107(9) 0.0000(7) 0.0009(7) 0.0024(7)
O1 0.0110(7) 0.0134(8) 0.0086(7) 0.0014(6) 0.0009(6) 0.0030(6)
O2 0.0255(9) 0.0093(8) 0.0103(8) 0.0036(6) 0.0018(7) -0.0041(7)
O3 0.0107(7) 0.0088(7) 0.0090(7) 0.0009(6) 0.0007(6) 0.0016(6)
O4 0.0113(7) 0.0122(8) 0.0152(8) 0.0012(6) 0.0030(6) 0.0068(6)
O5 0.0099(7) 0.0091(8) 0.0140(8) -0.0044(6) -0.0003(6) 0.0008(6)
O6 0.0081(7) 0.0109(8) 0.0111(7) -0.0013(6) -0.0012(6) 0.0000(6)
O7 0.0116(7) 0.0110(7) 0.0073(7) -0.0002(6) -0.0018(6) -0.0015(6)
O8 0.0090(7) 0.0099(8) 0.0154(8) -0.0046(6) -0.0029(6) -0.0028(6)
O9 0.0115(7) 0.0089(7) 0.0093(7) 0.0024(6) -0.0001(6) -0.0030(6)
loop_
_atom_type_symbol
_atom_type_description
_atom_type_scat_dispersion_real
_atom_type_scat_dispersion_imag
_atom_type_scat_source
N N 0.0061 0.0033 'International Tables Vol C Tables 4.2.6.8 and 6.1.1.4'
O O 0.0106 0.0060 'International Tables Vol C Tables 4.2.6.8 and 6.1.1.4'
Rb Rb -0.9393 2.9676 'International Tables Vol C Tables 4.2.6.8 and 6.1.1.4'
Th Th -7.2400 8.8979 'International Tables Vol C Tables 4.2.6.8 and 6.1.1.4'
loop_
_geom_angle_atom_site_label_1
_geom_angle_atom_site_label_2
_geom_angle_atom_site_label_3
_geom_angle
_geom_angle_site_symmetry_1
_geom_angle_site_symmetry_3
O9 Th1 O9 180.0 3 .
O9 Th1 O5 112.02(5) 3 3_655
O9 Th1 O5 67.97(5) . 3_655
O9 Th1 O5 67.98(5) 3 1_455
O9 Th1 O5 112.03(5) . 1_455
O5 Th1 O5 180.00(7) 3_655 1_455
O9 Th1 O7 49.97(5) 3 3
O9 Th1 O7 130.03(5) . 3
O5 Th1 O7 114.04(5) 3_655 3
O5 Th1 O7 65.96(5) 1_455 3
O9 Th1 O7 130.03(5) 3 .
O9 Th1 O7 49.98(5) . .
O5 Th1 O7 65.96(5) 3_655 .
O5 Th1 O7 114.04(5) 1_455 .
O7 Th1 O7 180.00(4) 3 .
O9 Th1 O1 71.67(5) 3 3_565
O9 Th1 O1 108.33(5) . 3_565
O5 Th1 O1 114.39(5) 3_655 3_565
O5 Th1 O1 65.61(5) 1_455 3_565
O7 Th1 O1 113.98(5) 3 3_565
O7 Th1 O1 66.02(5) . 3_565
O9 Th1 O1 108.33(5) 3 1_545
O9 Th1 O1 71.67(5) . 1_545
O5 Th1 O1 65.61(5) 3_655 1_545
O5 Th1 O1 114.39(5) 1_455 1_545
O7 Th1 O1 66.02(5) 3 1_545
O7 Th1 O1 113.98(5) . 1_545
O1 Th1 O1 180.00(9) 3_565 1_545
O9 Th1 O3 67.79(5) 3 3_665
O9 Th1 O3 112.21(5) . 3_665
O5 Th1 O3 70.66(5) 3_655 3_665
O5 Th1 O3 109.34(5) 1_455 3_665
O7 Th1 O3 115.06(5) 3 3_665
O7 Th1 O3 64.94(5) . 3_665
O1 Th1 O3 49.65(5) 3_565 3_665
O1 Th1 O3 130.35(5) 1_545 3_665
O9 Th1 O3 112.21(5) 3 1_445
O9 Th1 O3 67.79(5) . 1_445
O5 Th1 O3 109.34(5) 3_655 1_445
O5 Th1 O3 70.66(5) 1_455 1_445
O7 Th1 O3 64.94(5) 3 1_445
O7 Th1 O3 115.06(5) . 1_445
O1 Th1 O3 130.35(5) 3_565 1_445
O1 Th1 O3 49.65(5) 1_545 1_445
O3 Th1 O3 180.00(9) 3_665 1_445
O9 Th1 O6 65.10(5) 3 3_655
O9 Th1 O6 114.90(5) . 3_655
O5 Th1 O6 49.89(5) 3_655 3_655
O5 Th1 O6 130.11(5) 1_455 3_655
O7 Th1 O6 71.45(5) 3 3_655
O7 Th1 O6 108.55(5) . 3_655
O1 Th1 O6 112.72(5) 3_565 3_655
O1 Th1 O6 67.28(5) 1_545 3_655
O3 Th1 O6 67.02(5) 3_665 3_655
O3 Th1 O6 112.98(5) 1_445 3_655
O9 Th1 O6 114.90(5) 3 1_455
O9 Th1 O6 65.10(5) . 1_455
O5 Th1 O6 130.11(5) 3_655 1_455
O5 Th1 O6 49.89(5) 1_455 1_455
O7 Th1 O6 108.55(5) 3 1_455
O7 Th1 O6 71.45(5) . 1_455
O1 Th1 O6 67.28(5) 3_565 1_455
O1 Th1 O6 112.72(5) 1_545 1_455
O3 Th1 O6 112.98(5) 3_665 1_455
O3 Th1 O6 67.02(5) 1_445 1_455
O6 Th1 O6 180.00(8) 3_655 1_455
O2 Rb1 O4 165.62(5) . 2_545
O2 Rb1 O9 85.04(4) . .
O4 Rb1 O9 106.26(4) 2_545 .
O2 Rb1 O8 137.43(4) . 2_545
O4 Rb1 O8 56.83(4) 2_545 2_545
O9 Rb1 O8 58.36(4) . 2_545
O2 Rb1 O3 66.73(4) . 2_545
O4 Rb1 O3 99.12(4) 2_545 2_545
O9 Rb1 O3 125.30(4) . 2_545
O8 Rb1 O3 151.55(4) 2_545 2_545
O2 Rb1 O5 84.89(4) . 4_566
O4 Rb1 O5 100.53(4) 2_545 4_566
O9 Rb1 O5 103.95(4) . 4_566
O8 Rb1 O5 83.95(4) 2_545 4_566
O3 Rb1 O5 118.03(4) 2_545 4_566
O2 Rb1 O4 123.23(4) . 4_566
O4 Rb1 O4 59.70(5) 2_545 4_566
O9 Rb1 O4 117.79(4) . 4_566
O8 Rb1 O4 66.79(4) 2_545 4_566
O3 Rb1 O4 116.88(4) 2_545 4_566
O5 Rb1 O4 41.11(4) 4_566 4_566
O2 Rb1 O3 113.88(4) . 1_445
O4 Rb1 O3 68.04(4) 2_545 1_445
O9 Rb1 O3 54.90(4) . 1_445
O8 Rb1 O3 64.19(4) 2_545 1_445
O3 Rb1 O3 94.14(3) 2_545 1_445
O5 Rb1 O3 147.55(4) 4_566 1_445
O4 Rb1 O3 121.78(4) 4_566 1_445
O2 Rb1 O7 106.48(4) . 4_566
O4 Rb1 O7 60.50(4) 2_545 4_566
O9 Rb1 O7 162.43(4) . 4_566
O8 Rb1 O7 114.56(4) 2_545 4_566
O3 Rb1 O7 52.13(4) 2_545 4_566
O5 Rb1 O7 90.50(4) 4_566 4_566
O4 Rb1 O7 67.35(4) 4_566 4_566
O3 Rb1 O7 107.68(4) 1_445 4_566
O2 Rb1 O6 61.53(4) . 1_455
O4 Rb1 O6 118.23(4) 2_545 1_455
O9 Rb1 O6 52.44(4) . 1_455
O8 Rb1 O6 103.59(4) 2_545 1_455
O3 Rb1 O6 72.86(4) 2_545 1_455
O5 Rb1 O6 138.15(4) 4_566 1_455
O4 Rb1 O6 169.97(4) 4_566 1_455
O3 Rb1 O6 52.36(4) 1_445 1_455
O7 Rb1 O6 121.13(4) 4_566 1_455
O2 Rb1 N2 106.90(4) . 4_566
O4 Rb1 N2 78.74(4) 2_545 4_566
O9 Rb1 N2 106.87(4) . 4_566
O8 Rb1 N2 68.87(4) 2_545 4_566
O3 Rb1 N2 125.39(4) 2_545 4_566
O5 Rb1 N2 22.07(4) 4_566 4_566
O4 Rb1 N2 20.64(4) 4_566 4_566
O3 Rb1 N2 132.02(4) 1_445 4_566
O7 Rb1 N2 82.86(4) 4_566 4_566
O6 Rb1 N2 154.84(4) 1_455 4_566
O2 Rb1 O5 64.09(4) . 2
O4 Rb1 O5 105.94(4) 2_545 2
O9 Rb1 O5 147.41(4) . 2
O8 Rb1 O5 141.99(4) 2_545 2
O3 Rb1 O5 53.10(4) 2_545 2
O5 Rb1 O5 65.04(4) 4_566 2
O4 Rb1 O5 75.30(4) 4_566 2
O3 Rb1 O5 146.33(4) 1_445 2
O7 Rb1 O5 48.54(4) 4_566 2
O6 Rb1 O5 114.11(4) 1_455 2
N2 Rb1 O5 74.76(4) 4_566 2
O2 N1 O1 123.19(18) . .
O2 N1 O3 121.34(17) . 1_455
O1 N1 O3 115.47(16) . 1_455
O2 N1 Th1 171.35(14) . 1_565
O1 N1 Th1 57.89(10) . 1_565
O3 N1 Th1 58.25(9) 1_455 1_565
O2 N1 Rb1 80.29(12) . 2_455
O1 N1 Rb1 134.74(12) . 2_455
O3 N1 Rb1 56.91(9) 1_455 2_455
Th1 N1 Rb1 93.39(4) 1_565 2_455
O4 N2 O6 123.42(18) . .
O4 N2 O5 121.21(17) . .
O6 N2 O5 115.36(16) . .
O4 N2 Th1 170.77(13) . 1_655
O6 N2 Th1 58.52(10) . 1_655
O5 N2 Th1 57.58(9) . 1_655
O4 N2 Rb1 64.95(10) . 4_665
O6 N2 Rb1 149.52(12) . 4_665
O5 N2 Rb1 64.34(10) . 4_665
Th1 N2 Rb1 108.59(5) 1_655 4_665
O8 N3 O7 123.14(18) . .
O8 N3 O9 121.96(17) . .
O7 N3 O9 114.90(16) . .
O8 N3 Th1 178.34(14) . .
O7 N3 Th1 57.87(9) . .
O9 N3 Th1 57.05(9) . .
N1 O1 Th1 97.46(11) . 1_565
N1 O2 Rb1 152.17(14) . .
N1 O2 Rb1 80.00(11) . 2_455
Rb1 O2 Rb1 111.19(5) . 2_455
N1 O3 Th1 96.55(11) 1_655 1_665
N1 O3 Rb1 102.31(11) 1_655 2
Th1 O3 Rb1 116.59(5) 1_665 2
N1 O3 Rb1 115.08(11) 1_655 1_665
Th1 O3 Rb1 107.08(5) 1_665 1_665
Rb1 O3 Rb1 117.48(5) 2 1_665
N2 O4 Rb1 138.09(13) . 2
N2 O4 Rb1 94.41(11) . 4_665
Rb1 O4 Rb1 120.30(5) 2 4_665
N2 O5 Th1 97.24(11) . 1_655
N2 O5 Rb1 93.58(11) . 4_665
Th1 O5 Rb1 135.15(6) 1_655 4_665
N2 O5 Rb1 108.31(11) . 2_545
Th1 O5 Rb1 102.56(5) 1_655 2_545
Rb1 O5 Rb1 114.96(4) 4_665 2_545
N2 O6 Th1 96.56(11) . 1_655
N2 O6 Rb1 126.10(11) . 1_655
Th1 O6 Rb1 105.75(5) 1_655 1_655
N3 O7 Th1 97.24(11) . .
N3 O7 Rb1 123.73(11) . 4_665
Th1 O7 Rb1 110.93(5) . 4_665
N3 O8 Rb1 151.14(13) . 2
N3 O9 Th1 97.86(11) . .
N3 O9 Rb1 117.73(11) . .
Th1 O9 Rb1 115.10(5) . .
loop_
_geom_bond_atom_site_label_1
_geom_bond_atom_site_label_2
_geom_bond_distance
_geom_bond_site_symmetry_2
Th1 O9 2.5458(14) 3
Th1 O9 2.5458(14) .
Th1 O5 2.5585(15) 3_655
Th1 O5 2.5585(15) 1_455
Th1 O7 2.5657(15) 3
Th1 O7 2.5657(15) .
Th1 O1 2.5695(15) 3_565
Th1 O1 2.5695(15) 1_545
Th1 O3 2.5746(14) 3_665
Th1 O3 2.5746(14) 1_445
Th1 O6 2.5814(15) 3_655
Th1 O6 2.5814(15) 1_455
Rb1 O2 2.9074(15) .
Rb1 O4 2.9182(15) 2_545
Rb1 O9 2.9737(15) .
Rb1 O8 3.0051(15) 2_545
Rb1 O3 3.0434(15) 2_545
Rb1 O5 3.0942(15) 4_566
Rb1 O4 3.1130(15) 4_566
Rb1 O3 3.2051(15) 1_445
Rb1 O7 3.2262(15) 4_566
Rb1 O6 3.2457(15) 1_455
Rb1 N2 3.4259(18) 4_566
Rb1 O5 3.5265(16) 2
N1 O2 1.216(2) .
N1 O1 1.265(2) .
N1 O3 1.289(2) 1_455
N1 Th1 3.0079(18) 1_565
N1 Rb1 3.5491(17) 2_455
N2 O4 1.211(2) .
N2 O6 1.275(2) .
N2 O5 1.290(2) .
N2 Th1 3.0069(18) 1_655
N2 Rb1 3.4259(18) 4_665
N3 O8 1.209(2) .
N3 O7 1.275(2) .
N3 O9 1.287(2) .
O1 Th1 2.5695(15) 1_565
O2 Rb1 3.5522(17) 2_455
O3 N1 1.289(2) 1_655
O3 Th1 2.5746(14) 1_665
O3 Rb1 3.0435(15) 2
O3 Rb1 3.2051(15) 1_665
O4 Rb1 2.9182(15) 2
O4 Rb1 3.1129(15) 4_665
O5 Th1 2.5585(15) 1_655
O5 Rb1 3.0942(15) 4_665
O5 Rb1 3.5265(16) 2_545
O6 Th1 2.5814(15) 1_655
O6 Rb1 3.2458(15) 1_655
O7 Rb1 3.2262(15) 4_665
O8 Rb1 3.0050(15) 2
