#------------------------------------------------------------------------------
#$Date: 2017-06-04 13:06:28 +0300 (Sun, 04 Jun 2017) $
#$Revision: 197249 $
#$URL: file:///home/coder/svn-repositories/cod/cif/4/12/61/4126100.cif $
#------------------------------------------------------------------------------
#
# This file is available in the Crystallography Open Database (COD),
# http://www.crystallography.net/
#
# All data on this site have been placed in the public domain by the
# contributors.
#
data_4126100
loop_
_publ_author_name
'Liu, Zhiqiang'
'Ishibashi, Jacob S. A.'
'Darrigan, Clovis'
'Dargelos, Alain'
'Chrostowska, Anna'
'Li, Bo'
'Vasiliu, Monica'
'Dixon, David A.'
'Liu, Shih-Yuan'
_publ_section_title
;
 The Least Stable Isomer of BN Naphthalene: Toward Predictive Trends for
 the Optoelectronic Properties of BN Acenes.
;
_journal_issue                   17
_journal_name_full               'Journal of the American Chemical Society'
_journal_page_first              6082
_journal_page_last               6085
_journal_paper_doi               10.1021/jacs.7b02661
_journal_volume                  139
_journal_year                    2017
_chemical_formula_moiety         'C8 H8 B N'
_chemical_formula_sum            'C8 H8 B N'
_chemical_formula_weight         128.96
_space_group_crystal_system      monoclinic
_space_group_IT_number           14
_space_group_name_Hall           '-P 2ybc'
_space_group_name_H-M_alt        'P 1 21/c 1'
_symmetry_space_group_name_Hall  '-P 2ybc'
_symmetry_space_group_name_H-M   'P 1 21/c 1'
_atom_sites_solution_hydrogens   difmap
_atom_sites_solution_primary     direct
_atom_sites_solution_secondary   difmap
_audit_creation_method           SHELXL-2014/7
_cell_angle_alpha                90
_cell_angle_beta                 112.370(4)
_cell_angle_gamma                90
_cell_formula_units_Z            2
_cell_length_a                   7.850(2)
_cell_length_b                   6.0119(16)
_cell_length_c                   7.995(2)
_cell_measurement_reflns_used    3629
_cell_measurement_temperature    100(2)
_cell_measurement_theta_max      28.67
_cell_measurement_theta_min      2.81
_cell_volume                     348.92(16)
_computing_cell_refinement       'SAINT (Bruker, 2014)'
_computing_data_collection       'APEX2 (Bruker, 2014)'
_computing_data_reduction        'SAINT (Bruker, 2014)'
_computing_molecular_graphics    'Bruker SHELXTL'
_computing_publication_material  'Bruker SHELXTL'
_computing_structure_refinement  'SHELXL-2014 (Sheldrick, 2014)'
_computing_structure_solution    'SHELXL-2014 (Sheldrick, 2014)'
_diffrn_ambient_temperature      100(2)
_diffrn_measured_fraction_theta_full 1.000
_diffrn_measured_fraction_theta_max 0.998
_diffrn_measurement_device_type  'Bruker Kappa DUO CCD diffractometer'
_diffrn_measurement_method       '\f and \w scans'
_diffrn_radiation_type           MoK\a
_diffrn_radiation_wavelength     0.71073
_diffrn_reflns_av_R_equivalents  0.0179
_diffrn_reflns_av_unetI/netI     0.0111
_diffrn_reflns_Laue_measured_fraction_full 1.000
_diffrn_reflns_Laue_measured_fraction_max 0.998
_diffrn_reflns_limit_h_max       10
_diffrn_reflns_limit_h_min       -10
_diffrn_reflns_limit_k_max       7
_diffrn_reflns_limit_k_min       -8
_diffrn_reflns_limit_l_max       9
_diffrn_reflns_limit_l_min       -10
_diffrn_reflns_number            5412
_diffrn_reflns_point_group_measured_fraction_full 1.000
_diffrn_reflns_point_group_measured_fraction_max 0.998
_diffrn_reflns_theta_full        25.242
_diffrn_reflns_theta_max         28.674
_diffrn_reflns_theta_min         2.806
_diffrn_source                   'fine-focus sealed tube'
_exptl_absorpt_coefficient_mu    0.071
_exptl_absorpt_correction_T_max  0.7457
_exptl_absorpt_correction_T_min  0.7082
_exptl_absorpt_correction_type   multi-scan
_exptl_absorpt_process_details
;
Sheldrick, G.M. (2013). SADABS. Bruker AXS Inc. Madison, WI USA.
;
_exptl_crystal_colour            colorless
_exptl_crystal_density_diffrn    1.228
_exptl_crystal_density_meas      ?
_exptl_crystal_density_method    none
_exptl_crystal_description       prism
_exptl_crystal_F_000             136
_exptl_crystal_size_max          0.510
_exptl_crystal_size_mid          0.320
_exptl_crystal_size_min          0.260
_refine_diff_density_max         0.335
_refine_diff_density_min         -0.211
_refine_diff_density_rms         0.043
_refine_ls_extinction_coef       na
_refine_ls_extinction_method     none
_refine_ls_goodness_of_fit_ref   1.062
_refine_ls_hydrogen_treatment    refall
_refine_ls_matrix_type           full
_refine_ls_number_parameters     62
_refine_ls_number_reflns         902
_refine_ls_number_restraints     0
_refine_ls_restrained_S_all      1.062
_refine_ls_R_factor_all          0.0395
_refine_ls_R_factor_gt           0.0380
_refine_ls_shift/su_max          0.000
_refine_ls_shift/su_mean         0.000
_refine_ls_structure_factor_coef Fsqd
_refine_ls_weighting_details
'w=1/[\s^2^(Fo^2^)+(0.0655P)^2^+0.0814P] where P=(Fo^2^+2Fc^2^)/3'
_refine_ls_weighting_scheme      calc
_refine_ls_wR_factor_gt          0.1058
_refine_ls_wR_factor_ref         0.1079
_reflns_Friedel_coverage         0.000
_reflns_number_gt                844
_reflns_number_total             902
_reflns_threshold_expression     'I > 2\s(I)'
_cod_data_source_file            ja7b02661_si_002.cif
_cod_data_source_block           C8H8BN
_cod_depositor_comments
;
The following automatic conversions were performed:

'_exptl_crystal_density_meas' value 'not measured' was changed to '?'
- the value is perceived as not measured.

Automatic conversion script
Id: cif_fix_values 4973 2017-02-22 13:04:09Z antanas 
;
_cod_original_cell_volume        348.89(16)
_cod_database_code               4126100
_shelx_shelxl_version_number     2014/7
_shelx_space_group_comment
;
The symmetry employed for this shelxl refinement is uniquely defined
by the following loop, which should always be used as a source of
symmetry information in preference to the above space-group names.
They are only intended as comments.
;
_shelx_estimated_absorpt_t_min   0.965
_shelx_estimated_absorpt_t_max   0.982
_shelx_res_file
;

    p21c_a.res created by SHELXL-2014/7


TITL p21c_a.res in P2(1)/c

CELL  0.71073   7.8496   6.0119   7.9948   90.000  112.370   90.000
ZERR    2.000   0.0021   0.0016   0.0021    0.000    0.004    0.000
LATT  1
SYMM -X, 1/2+Y, 1/2-Z
SFAC C H B N
UNIT 16 16 2 2
TEMP -173
SIZE 0.51 0.32 0.26
L.S. 10
BOND $H

FMAP 2
PLAN 20
EXYZ N1 C5
EXYZ C4 B1
EADP N1 C5
EADP C4 B1
CONF
HTAB
ACTA
WGHT    0.065500    0.081400
FVAR       2.09255
N1    4    0.462829    0.601315    0.512253    10.50000    0.01860    0.01359 =
         0.01543    0.00019    0.00885   -0.00014
C5    1    0.462829    0.601315    0.512253    10.50000    0.01860    0.01359 =
         0.01543    0.00019    0.00885   -0.00014
C1    1    0.571846    0.745692    0.648946    11.00000    0.02348    0.01564 =
         0.01787   -0.00163    0.01021   -0.00145
C2    1    0.750349    0.692437    0.761121    11.00000    0.02478    0.02253 =
         0.01879   -0.00342    0.00973   -0.00636
C3    1    0.828931    0.489122    0.739769    11.00000    0.01996    0.02766 =
         0.02268    0.00292    0.00983    0.00095
C4    1    0.722588    0.339851    0.601943    10.50000    0.02067    0.01965 =
         0.01901    0.00096    0.00917    0.00126
B1    3    0.722588    0.339851    0.601943    10.50000    0.02067    0.01965 =
         0.01901    0.00096    0.00917    0.00126
H1    2    0.512750    0.886880    0.660333    11.00000    0.02674
H2    2    0.822402    0.802762    0.856392    11.00000    0.03357
H3    2    0.956063    0.452411    0.822191    11.00000    0.03348
H4    2    0.768331    0.185870    0.577845    11.00000    0.02880
HKLF 4

REM  p21c_a.res in P2(1)/c
REM R1 =  0.0380 for     844 Fo > 4sig(Fo)  and  0.0395 for all     902 data
REM     62 parameters refined using      0 restraints

END

WGHT      0.0654      0.0816

REM No hydrogen bonds found for HTAB generation

REM Highest difference peak  0.335,  deepest hole -0.211,  1-sigma level  0.043
Q1    1   0.7736  0.4256  0.6573  11.00000  0.05    0.34
Q2    1   0.6366  0.3747  0.5441  11.00000  0.05    0.33
Q3    1   0.5165  0.6694  0.5854  11.00000  0.05    0.27
Q4    1   0.5000  0.5000  0.5000  10.50000  0.05    0.26
Q5    1   0.6668  0.7161  0.6985  11.00000  0.05    0.24
Q6    1   0.7850  0.5907  0.7490  11.00000  0.05    0.24
Q7    1   0.7485  0.9891  0.9128  11.00000  0.05    0.07
Q8    1   0.8472  0.7247  0.8953  11.00000  0.05    0.07
Q9    1   0.9130  0.1952  0.7770  11.00000  0.05    0.06
Q10   1   0.9407  1.0607  0.8355  11.00000  0.05    0.06
Q11   1   0.7909  0.8476  0.9726  11.00000  0.05    0.06
Q12   1   1.0020  0.9755  0.9313  11.00000  0.05    0.06
Q13   1   0.5548  0.7540  0.8594  11.00000  0.05    0.06
Q14   1   0.9386  0.8695  1.0585  11.00000  0.05    0.06
Q15   1   0.8689  0.9648  1.0037  11.00000  0.05    0.06
Q16   1   1.1560  0.3051  0.9341  11.00000  0.05    0.06
Q17   1   0.7504  1.1181  0.8199  11.00000  0.05    0.06
Q18   1   0.4717  0.7156  0.8159  11.00000  0.05    0.06
Q19   1   0.9708  0.7342  1.0031  11.00000  0.05    0.06
Q20   1   0.4341  1.1014  0.6662  11.00000  0.05    0.05
;
_shelx_res_checksum              23578
_shelx_hkl_file
;
   0   1   0   -1.10    0.20
   0   1   0   -1.10    0.20
   0   1   0   -0.80    0.10
   0  -1   0   -0.90    0.20
   0  -1   0   -0.90    0.20
   0  -1   0   -0.80    0.20
   0  -1   0   -0.80    0.20
   0   2   0  833.42   14.10
   0   2   0  824.32   14.00
   0  -2   0  829.82   14.00
   0  -2   0  812.32   14.10
   0  -2   0  843.92   14.10
   0  -2   0  822.42   14.30
   0  -2   0  828.62   14.10
   0   3   0    0.00    0.30
   0   3   0   -0.10    0.30
   0  -3   0   -0.10    0.10
   0  -3   0   -0.20    0.30
   0  -3   0   -0.20    0.30
   0  -3   0    0.00    0.30
   0  -3   0   -0.40    0.30
   0   4   0   33.80    1.40
   0  -4   0   33.30    1.00
   0  -4   0   34.50    1.50
   0  -4   0   32.50    1.40
   0  -4   0   34.30    1.40
   0   5   0    0.20    0.40
   0   5   0    0.30    0.30
   0  -5   0    0.10    0.40
   0  -5   0   -0.10    0.50
   0   6   0    4.70    0.70
   0  -6   0    5.70    1.00
   0  -6   0    5.20    0.90
   0  -7   0    0.50    0.70
   0  -7   0    1.00    0.70
   0  -8   0   58.49    3.00
   0  -8   0   55.89    2.80
   1  -8   0   57.99    2.80
   1  -8   0   50.99    3.00
   1  -7   0   12.50    1.40
   1  -7   0    9.20    1.30
   1  -6   0  383.66    8.50
   1  -6   0  386.56    8.30
  -1   6   0  381.56    7.90
   1  -5   0  110.39    2.60
   1  -5   0  108.69    3.10
   1  -5   0  111.39    3.20
   1  -5   0  107.89    3.40
  -1   5   0  107.69    3.00
   1  -4   0  136.29    3.00
   1  -4   0  136.99    3.40
   1  -4   0  140.89    3.40
   1  -4   0  135.99    3.60
  -1   4   0  140.89    3.40
   1  -3   0 1137.29   19.00
   1  -3   0 1153.68   19.50
   1  -3   0 1131.79   19.30
   1  -3   0 1107.59   19.30
  -1   3   0 1048.40   19.20
  -1   3   0 1170.88   19.30
   1  -2   0 1266.47   21.10
   1  -2   0 1254.47   21.80
   1  -2   0 1253.07   21.10
   1  -2   0 1277.67   21.20
  -1   2   0 1253.27   21.00
  -1   2   0 1220.58   21.10
   1  -1   0  236.68    4.30
   1  -1   0  236.38    4.20
   1  -1   0  233.68    4.20
   1  -1   0  238.88    4.30
  -1   1   0  232.28    4.20
   1   0   0 4455.65   74.29
  -1   0   0 4461.95   74.19
   1   1   0  237.38    4.10
   1   1   0  236.18    4.10
   1   1   0  235.18    3.90
  -1  -1   0  228.48    4.10
  -1  -1   0  221.88    4.10
  -1  -1   0  224.38    4.10
  -1  -1   0  232.98    3.90
   1   2   0 1251.27   20.90
   1   2   0 1197.88   20.90
  -1  -2   0 1260.57   21.00
  -1  -2   0 1265.17   21.00
  -1  -2   0 1262.27   20.90
   1   3   0 1112.69   19.00
   1   3   0 1128.19   19.00
  -1  -3   0 1126.19   19.20
  -1  -3   0 1091.29   19.20
  -1  -3   0 1114.79   19.10
   1   4   0  139.69    3.30
   1   4   0  140.39    3.50
  -1  -4   0  135.19    3.50
  -1  -4   0  138.69    3.50
  -1  -4   0  142.39    3.50
   1   5   0  115.39    3.20
   1   5   0  108.69    2.90
  -1  -5   0  109.19    3.30
  -1  -5   0  105.89    3.20
   1   6   0  379.26    8.10
   1   6   0  382.56    7.70
  -1  -6   0  382.06    8.30
  -1  -6   0  391.36    8.30
  -1  -7   0   14.30    1.50
  -1  -7   0   12.80    1.50
  -1  -8   0   51.29    2.80
   2  -7   0    3.60    1.00
   2  -7   0    4.20    1.00
   2  -7   0    3.90    1.10
   2  -6   0  858.41   17.00
   2  -6   0  898.01   16.60
   2  -6   0  897.21   16.60
  -2   6   0  912.01   16.50
   2  -5   0  297.97    6.00
   2  -5   0  293.97    6.40
   2  -5   0  296.67    6.80
   2  -5   0  292.57    6.40
  -2   5   0  295.67    6.40
   2  -4   0   30.90    1.50
   2  -4   0   32.30    1.40
   2  -4   0   31.60    1.30
   2  -4   0   32.00    1.60
  -2   4   0   29.40    1.40
   2  -3   0  500.05    9.20
   2  -3   0  489.45    9.30
   2  -3   0  495.35    9.00
   2  -3   0  492.65    8.90
  -2   3   0  487.35    9.10
  -2   3   0  496.65    9.10
   2  -2   0  210.78    4.30
   2  -2   0  207.88    4.20
   2  -2   0  204.78    4.00
   2  -2   0  208.68    4.10
  -2   2   0  203.28    4.20
   2  -1   0   59.29    1.50
   2  -1   0   61.19    1.60
   2  -1   0   61.19    1.60
   2  -1   0   60.49    1.30
  -2   1   0   58.09    1.50
   2   0   0  772.92   13.10
   2   0   0  786.02   13.00
   2   0   0  776.02   13.00
   2   0   0  777.72   13.10
  -2   0   0  765.12   13.20
  -2   0   0  766.42   13.00
  -2   0   0  724.63   13.30
   2   1   0   63.09    1.50
   2   1   0   62.69    1.30
   2   1   0   61.69    1.50
  -2  -1   0   60.39    1.50
  -2  -1   0   61.69    1.50
   2   2   0  211.58    3.60
   2   2   0  206.88    4.10
   2   2   0  209.28    4.40
   2   2   0  205.28    4.10
  -2  -2   0  216.98    4.20
  -2  -2   0  212.18    4.20
   2   3   0  481.35    9.30
   2   3   0  498.85    8.90
   2   3   0  489.55    8.90
  -2  -3   0  502.55    9.00
  -2  -3   0  488.75    9.10
  -2  -3   0  494.05    9.10
   2   4   0   33.50    1.30
  -2  -4   0   29.90    1.50
  -2  -4   0   29.20    1.40
   2   5   0  294.17    6.60
   2   5   0  291.97    6.00
  -2  -5   0  286.87    6.40
  -2  -5   0  299.37    6.50
   2   6   0  891.51   16.70
  -2  -6   0  857.11   16.60
  -2  -6   0  902.91   16.70
  -2  -7   0    1.40    0.70
  -2  -7   0    2.40    0.80
   3  -7   0   10.30    1.60
   3  -7   0    9.20    1.30
   3  -7   0    9.10    1.30
   3  -6   0   18.20    1.60
   3  -6   0   20.80    1.50
   3  -6   0   17.30    1.60
   3  -6   0   20.70    1.80
  -3   6   0   20.60    1.50
   3  -5   0   24.30    1.60
   3  -5   0   24.00    1.30
   3  -5   0   24.00    1.50
   3  -5   0   22.70    1.70
  -3   5   0   25.20    1.50
   3  -4   0   42.40    1.60
   3  -4   0   41.90    1.80
   3  -4   0   39.40    1.90
   3  -4   0   42.20    1.70
  -3   4   0   41.80    1.80
   3  -3   0  404.36    8.10
   3  -3   0  403.06    7.90
   3  -3   0  410.46    7.70
   3  -3   0  409.56    7.80
  -3   3   0  398.46    7.90
   3  -2   0  513.35    9.40
   3  -2   0  520.45    8.60
   3  -2   0  511.55    9.50
   3  -2   0  499.25    9.30
  -3   2   0  503.15    9.40
   3  -1   0   76.59    1.80
   3  -1   0   77.49    2.10
   3  -1   0   77.69    2.00
   3  -1   0   77.09    2.10
  -3   1   0   76.19    2.00
   3   0   0 2755.52   46.20
   3   0   0 2744.03   46.80
   3   0   0 2728.43   46.50
   3   0   0 2730.83   46.00
  -3   0   0 2714.63   46.60
  -3   0   0 2652.43   46.40
   3   1   0   78.59    2.20
   3   1   0   78.89    2.00
   3   1   0   77.39    2.00
   3   1   0   78.59    1.80
  -3  -1   0   77.99    2.00
  -3  -1   0   80.79    1.90
  -3  -1   0   78.19    2.00
   3   2   0  517.15    9.40
   3   2   0  522.15    9.80
   3   2   0  522.35    8.90
   3   2   0  506.25    9.30
  -3  -2   0  521.45    9.40
  -3  -2   0  516.15    9.40
  -3  -2   0  530.55    9.30
   3   3   0  418.06    8.30
   3   3   0  417.56    7.80
   3   3   0  413.06    7.80
  -3  -3   0  417.16    8.00
  -3  -3   0  412.66    7.90
  -3  -3   0  413.96    7.90
   3   4   0   41.50    1.90
   3   4   0   42.10    1.60
  -3  -4   0   43.70    1.80
  -3  -4   0   40.50    1.70
   3   5   0   23.90    1.30
   3   5   0   22.60    1.60
  -3  -5   0   21.70    1.50
  -3  -5   0   25.20    1.50
   3   6   0   18.20    1.50
  -3  -6   0   21.40    1.60
  -3  -6   0   15.40    1.40
   3   7   0   11.50    1.50
  -3  -7   0   10.60    1.40
  -3  -7   0    8.00    1.30
   4  -7   0   -0.10    0.60
   4  -7   0    0.40    0.80
   4  -6   0   20.50    1.70
   4  -6   0   22.60    1.90
   4  -6   0   22.40    1.60
   4  -6   0   22.00    1.50
  -4   6   0   23.50    1.70
   4  -5   0    1.10    0.60
   4  -5   0    0.50    0.50
   4  -5   0    0.30    0.50
   4  -5   0    0.30    0.60
  -4   5   0    1.30    0.60
   4  -4   0  331.97    7.40
   4  -4   0  321.07    6.80
   4  -4   0  330.47    6.70
   4  -4   0  322.07    7.00
  -4   4   0  326.67    7.00
   4  -3   0  634.54   11.70
   4  -3   0  620.24   12.00
   4  -3   0  616.64   11.30
   4  -3   0  632.94   11.60
  -4   3   0  622.34   11.70
   4  -2   0  236.28    5.10
   4  -2   0  231.48    5.00
   4  -2   0  231.98    5.20
   4  -2   0  235.78    4.30
  -4   2   0  241.28    5.10
   4  -1   0  326.17    6.40
   4  -1   0  330.37    6.40
   4  -1   0  325.87    6.10
   4  -1   0  316.57    6.60
  -4   1   0  325.97    6.40
   4   0   0 1747.93   29.60
   4   0   0 1718.63   29.40
   4   0   0 1778.82   29.50
   4   0   0 1741.43   29.40
  -4   0   0 1746.23   29.00
  -4   0   0 1733.13   29.50
   4   1   0  325.97    6.60
   4   1   0  333.97    6.20
   4   1   0  338.47    6.50
  -4  -1   0  337.47    6.20
  -4  -1   0  327.17    6.50
   4   2   0  233.38    4.90
   4   2   0  233.78    4.90
   4   2   0  240.98    5.30
   4   2   0  237.38    4.50
  -4  -2   0  238.58    4.80
  -4  -2   0  237.18    5.00
  -4  -2   0  210.88    5.40
   4   3   0  611.74   12.00
   4   3   0  617.84   11.40
  -4  -3   0  624.04   11.50
  -4  -3   0  651.23   11.70
   4   4   0  298.27    7.10
   4   4   0  335.87    6.60
  -4  -4   0  320.77    6.80
  -4  -4   0  326.87    6.80
   4   5   0    1.30    0.60
   4   5   0    2.30    0.60
  -4  -5   0    0.60    0.60
  -4  -5   0    0.70    0.60
   4   6   0   22.10    1.80
  -4  -6   0   23.10    1.70
  -4  -6   0   21.70    1.70
   4   7   0    0.80    0.70
  -4  -7   0    0.00    0.70
  -4  -7   0    0.40    0.70
   5  -6   0    9.00    1.20
   5  -6   0   10.40    1.60
  -5   6   0   10.50    1.30
   5  -5   0  146.19    4.10
   5  -5   0  135.39    4.50
   5  -5   0  137.29    3.90
  -5   5   0  145.29    4.20
   5  -4   0  363.06    7.40
   5  -4   0  372.86    8.00
   5  -4   0  365.86    7.80
   5  -4   0  366.06    8.30
  -5   4   0  371.06    8.00
   5  -3   0  589.54   11.30
   5  -3   0  577.84   11.60
   5  -3   0  601.34   11.40
   5  -3   0  590.84   10.80
  -5   3   0  584.04   11.30
   5  -2   0    7.10    0.90
   5  -2   0    2.00    0.60
   5  -2   0    3.10    0.70
   5  -2   0    3.10    0.40
  -5   2   0    2.10    0.60
   5  -1   0   37.20    1.70
   5  -1   0   36.90    1.60
   5  -1   0   39.50    1.60
   5  -1   0   36.10    1.40
  -5   1   0   37.20    1.60
   5   0   0    5.80    0.70
   5   0   0    7.90    0.90
   5   0   0    7.90    0.80
   5   0   0    7.80    0.80
  -5   0   0    8.00    0.60
  -5   0   0    9.00    0.90
   5   1   0   35.90    1.40
   5   1   0   34.70    1.60
   5   1   0   35.10    1.50
  -5  -1   0   36.00    1.30
  -5  -1   0   36.60    1.50
   5   2   0    2.90    0.50
   5   2   0    4.10    0.80
  -5  -2   0    2.50    0.60
  -5  -2   0    3.00    0.50
   5   3   0  598.64   11.10
   5   3   0  581.64   11.70
  -5  -3   0  585.74   11.30
  -5  -3   0  593.54   11.00
   5   4   0  357.36    8.30
   5   4   0  371.66    7.50
  -5  -4   0  374.36    7.90
  -5  -4   0  378.26    7.70
   5   5   0  142.09    4.60
  -5  -5   0  138.79    4.10
  -5  -5   0  142.69    4.10
   5   6   0   12.20    1.60
  -5  -6   0   11.40    1.40
  -5  -6   0    8.50    1.20
   6  -6   0   15.30    1.90
   6  -6   0   16.30    1.60
  -6   6   0   17.30    1.80
   6  -5   0  123.99    3.90
   6  -5   0  120.79    4.30
  -6   5   0  121.29    4.00
   6  -4   0   -0.50    0.50
   6  -4   0    0.10    0.60
  -6   4   0   -0.60    0.50
   6  -3   0  225.28    5.50
   6  -3   0  220.98    5.80
  -6   3   0  221.98    5.50
   6  -2   0  886.51   16.70
   6  -2   0  901.11   16.30
  -6   2   0  869.71   16.30
   6  -1   0   91.39    3.10
   6  -1   0   93.99    2.60
   6  -1   0   94.89    2.90
  -6   1   0   91.09    2.90
   6   0   0  145.19    3.70
   6   0   0  152.28    3.80
   6   0   0  146.19    4.00
  -6   0   0  136.79    3.80
   6   1   0   90.99    2.90
   6   1   0   95.89    3.00
   6   1   0   96.99    2.70
  -6  -1   0   91.49    2.90
  -6  -1   0   92.59    2.50
   6   2   0  938.41   16.40
   6   2   0  936.91   17.00
   6   2   0  938.41   17.50
  -6  -2   0  942.11   17.10
  -6  -2   0  914.91   16.50
   6   3   0  230.18    6.00
  -6  -3   0  238.38    5.60
  -6  -3   0  231.08    5.20
   6   4   0   -0.30    0.60
  -6  -4   0    0.70    0.60
  -6  -4   0    0.10    0.50
   6   5   0  118.19    4.30
  -6  -5   0  127.09    4.00
  -6  -5   0  124.89    3.80
   6   6   0   14.20    1.80
  -6  -6   0   19.00    1.80
  -6  -6   0   16.20    1.60
   7  -5   0    6.50    1.30
   7  -5   0    6.60    1.20
  -7   5   0    6.30    1.20
   7  -4   0   41.90    2.50
   7  -4   0   38.20    2.30
  -7   4   0   42.50    2.30
   7  -3   0   44.30    2.30
   7  -3   0   47.80    2.50
  -7   3   0   43.50    2.30
   7  -2   0   96.29    3.30
   7  -2   0   94.09    3.50
  -7   2   0  103.19    3.40
   7  -1   0  116.79    3.50
   7  -1   0  115.69    3.70
  -7   1   0  117.09    3.60
   7   0   0  371.36    7.80
   7   0   0  363.26    8.10
   7   0   0  368.06    7.70
  -7   0   0  375.66    8.00
   7   1   0  124.09    3.70
   7   1   0  128.19    3.80
   7   1   0  119.79    3.30
  -7  -1   0  109.99    3.60
  -7  -1   0  120.79    3.70
   7   2   0   99.19    3.30
   7   2   0   98.39    3.50
  -7  -2   0  110.49    2.90
  -7  -2   0   95.89    3.30
   7   3   0   44.80    2.10
   7   3   0   46.60    2.50
  -7  -3   0   46.40    2.30
  -7  -3   0   45.20    1.90
   7   4   0   42.90    2.60
  -7  -4   0   41.70    2.00
  -7  -4   0   46.10    2.40
   7   5   0    8.00    1.40
  -7  -5   0    8.70    1.30
  -7  -5   0    7.70    1.20
   8  -4   0   66.69    3.10
   8  -4   0   68.09    3.30
  -8   4   0   68.59    3.10
   8  -3   0    6.00    1.30
   8  -3   0    3.70    1.00
  -8   3   0    4.10    1.00
   8  -2   0   24.90    1.80
   8  -2   0   24.00    1.90
  -8   2   0   22.00    1.70
   8  -1   0    1.10    0.70
   8  -1   0    1.30    0.70
  -8   1   0    2.30    0.70
   8   0   0   33.80    1.90
   8   0   0   33.30    2.00
   8   0   0   35.20    1.90
  -8   0   0   33.60    2.00
   8   1   0    1.70    0.70
   8   1   0    3.60    0.80
   8   1   0    2.40    0.80
  -8  -1   0    1.50    0.70
   8   2   0   26.20    2.00
   8   2   0   27.10    1.80
  -8  -2   0   27.40    1.90
   8   3   0    5.20    1.20
  -8  -3   0    5.20    1.00
   8   4   0   66.99    3.30
  -8  -4   0   65.69    3.00
   9  -3   0   12.60    1.60
   9  -3   0   13.60    1.80
  -9   3   0   13.20    1.60
   9  -2   0   45.30    2.50
   9  -2   0   37.90    2.50
  -9   2   0   41.60    2.50
   9  -1   0    8.40    1.30
   9  -1   0   10.50    1.40
  -9   1   0   10.90    1.40
   9   0   0   28.80    1.90
   9   0   0   30.00    2.10
  -9   0   0   28.80    2.10
   9   1   0    9.30    1.30
   9   1   0   10.90    1.50
  -9  -1   0   11.30    1.40
   9   2   0   43.00    2.40
   9   2   0   39.40    2.50
  -9  -2   0   37.50    2.30
   9   3   0   15.20    1.90
  -9  -3   0   11.20    1.50
 -10  -1   1   11.60    1.60
  10   1  -1   12.70    1.70
 -10   0   1    0.30    0.70
  10   0  -1    0.20    0.70
  10   0  -1    0.30    0.80
 -10   1   1   10.00    1.60
  10  -1  -1   12.80    1.70
  10  -1  -1   14.80    1.70
  -9  -3   1   90.39    3.70
   9   3  -1   96.49    3.60
   9   3  -1   98.89    4.00
  -9  -2   1    4.00    1.00
   9   2  -1    3.60    1.00
   9   2  -1    2.00    0.90
  -9  -1   1    0.30    0.70
   9   1  -1    0.60    0.60
   9   1  -1   -0.60    0.60
   9   1  -1    0.10    0.70
  -9   0   1    0.10    0.60
   9   0  -1    0.20    0.60
   9   0  -1    0.60    0.60
  -9   1   1    0.00    0.60
   9  -1  -1   -0.90    0.50
   9  -1  -1   -0.50    0.50
  -9   2   1    4.30    1.00
   9  -2  -1    2.10    0.90
   9  -2  -1    4.70    1.10
  -9   3   1   95.39    3.70
   9  -3  -1   87.59    3.80
   9  -3  -1   91.19    3.60
  -8  -5   1   17.60    1.70
  -8  -5   1   17.50    1.90
   8   5  -1   17.50    3.00
  -8  -4   1   16.80    1.50
  -8  -4   1   16.00    1.70
   8   4  -1   14.70    1.80
   8   4  -1   15.80    1.60
  -8  -3   1    0.40    0.50
  -8  -3   1    1.30    0.70
   8   3  -1    0.90    0.80
   8   3  -1   -0.50    0.50
  -8  -2   1   55.79    2.50
  -8  -2   1   60.59    2.30
   8   2  -1   58.59    2.60
   8   2  -1   55.29    2.70
  -8  -1   1  122.19    3.80
  -8  -1   1  124.99    3.90
   8   1  -1  123.09    3.60
   8   1  -1  126.99    4.00
   8   1  -1  130.09    4.00
  -8   0   1   -0.40    0.50
   8   0  -1   -0.20    0.50
   8   0  -1    1.60    0.70
   8   0  -1    0.20    0.50
  -8   1   1  121.99    3.90
   8  -1  -1  129.39    4.20
   8  -1  -1  125.39    3.80
  -8   2   1   57.89    2.50
   8  -2  -1   53.39    2.50
   8  -2  -1   51.29    2.60
  -8   3   1    1.30    0.70
   8  -3  -1    0.20    0.70
   8  -3  -1    1.30    0.80
  -8   4   1   15.40    1.60
   8  -4  -1   17.40    1.70
   8  -4  -1   15.60    1.80
  -8   5   1   12.90    1.60
   8  -5  -1   12.90    1.60
   8  -5  -1   12.80    2.00
  -7  -5   1    4.80    1.10
  -7  -5   1    3.40    0.90
   7   5  -1    6.80    1.30
  -7  -4   1   22.60    1.60
  -7  -4   1   20.50    1.70
   7   4  -1   22.70    1.70
   7   4  -1   24.50    1.90
  -7  -3   1  636.04   12.00
  -7  -3   1  614.54   12.40
   7   3  -1  619.54   12.80
   7   3  -1  629.54   12.30
  -7  -2   1  153.78    3.90
  -7  -2   1  158.68    4.40
   7   2  -1  157.78    3.80
   7   2  -1  158.98    4.60
  -7  -1   1   -0.60    0.30
  -7  -1   1   -0.50    0.40
   7   1  -1    1.20    0.60
   7   1  -1   -0.20    0.40
   7   1  -1   -0.20    0.40
  -7   0   1    0.00    0.50
   7   0  -1    0.10    0.60
   7   0  -1   -0.10    0.50
   7   0  -1    0.00    0.40
  -7   1   1   -0.10    0.50
   7  -1  -1   -0.30    0.50
   7  -1  -1    0.00    0.50
   7  -1  -1    0.10    0.50
  -7   2   1  147.09    4.20
   7  -2  -1  148.49    4.40
   7  -2  -1  155.38    4.20
  -7   3   1  608.24   12.10
   7  -3  -1  606.64   12.50
   7  -3  -1  597.84   12.10
  -7   4   1   23.90    1.70
   7  -4  -1   18.80    1.60
   7  -4  -1   19.30    1.80
  -7   5   1    6.10    1.10
   7  -5  -1    7.70    1.40
   7  -5  -1    4.70    1.10
  -6  -6   1  238.78    6.20
  -6  -6   1  230.48    6.30
   6   6  -1  235.98    6.80
  -6  -5   1   -0.30    0.60
  -6  -5   1    0.50    0.60
   6   5  -1    0.30    0.60
   6   5  -1   -0.60    0.60
  -6  -4   1   43.40    2.10
  -6  -4   1   43.90    2.00
   6   4  -1   40.80    2.00
   6   4  -1   39.30    2.20
  -6  -3   1    8.00    0.90
  -6  -3   1    7.60    1.00
   6   3  -1    7.10    1.00
   6   3  -1    7.80    1.10
  -6  -2   1  166.78    4.00
  -6  -2   1  166.78    4.30
   6   2  -1  165.08    4.30
   6   2  -1  168.28    3.80
   6   2  -1  167.08    4.50
  -6  -1   1    1.40    0.50
  -6  -1   1    1.50    0.40
   6   1  -1    1.60    0.60
   6   1  -1    1.30    0.50
  -6   0   1    0.00    0.30
  -6   0   1   -0.30    0.30
   6   0  -1   -0.20    0.40
   6   0  -1    0.20    0.40
   6   0  -1   -0.60    0.40
   6   0  -1    0.50    0.40
  -6   1   1    1.10    0.50
   6  -1  -1    2.20    0.50
   6  -1  -1    0.30    0.50
   6  -1  -1    2.30    0.70
   6  -1  -1    1.90    0.60
  -6   2   1  166.58    4.20
   6  -2  -1  164.38    4.20
   6  -2  -1  143.99    4.00
   6  -2  -1  160.48    4.40
  -6   3   1    6.80    0.90
   6  -3  -1    9.10    1.20
   6  -3  -1    8.90    1.10
   6  -3  -1   10.80    1.30
  -6   4   1   41.60    2.10
   6  -4  -1   43.30    1.90
   6  -4  -1   43.70    2.20
   6  -4  -1   40.10    2.30
   6  -4  -1   42.50    2.10
  -6   5   1   -0.70    0.50
   6  -5  -1    1.10    0.80
   6  -5  -1   -0.30    0.50
   6  -5  -1   -0.10    0.60
  -6   6   1  234.78    6.10
   6  -6  -1  234.48    6.00
   6  -6  -1  235.58    6.70
  -5  -7   1   14.10    1.70
  -5  -7   1   14.50    1.70
   5   7  -1   14.50    1.80
  -5  -6   1   19.50    1.70
  -5  -6   1   15.50    1.60
   5   6  -1   16.70    1.80
  -5  -5   1    2.20    0.80
  -5  -5   1    3.50    0.80
   5   5  -1    1.60    0.70
   5   5  -1    3.50    0.80
  -5  -4   1   65.39    2.40
  -5  -4   1   60.89    2.40
   5   4  -1   66.19    2.40
   5   4  -1   63.79    2.70
  -5  -3   1  979.70   17.40
  -5  -3   1  985.60   17.60
   5   3  -1  975.90   17.50
   5   3  -1  968.80   18.00
  -5  -2   1  199.08    4.40
  -5  -2   1  201.48    4.70
   5   2  -1  205.38    4.20
   5   2  -1  203.58    4.90
   5   2  -1  207.28    4.70
  -5  -1   1   35.20    1.50
  -5  -1   1   35.50    1.30
   5   1  -1   33.90    1.30
   5   1  -1   35.20    1.60
   5   1  -1   31.90    1.40
   5   1  -1   34.10    1.50
  -5   0   1    0.10    0.30
  -5   0   1    0.30    0.30
   5   0  -1    0.00    0.30
   5   0  -1    0.00    0.30
   5   0  -1    0.20    0.40
   5   0  -1   -0.10    0.30
  -5   1   1   34.40    1.50
   5  -1  -1   35.80    1.50
   5  -1  -1   33.60    1.20
   5  -1  -1   34.80    1.50
   5  -1  -1   33.70    1.60
  -5   2   1  205.18    4.60
   5  -2  -1  198.48    4.80
   5  -2  -1  203.08    4.60
   5  -2  -1  195.98    3.70
   5  -2  -1  194.18    4.60
  -5   3   1  970.30   17.50
   5  -3  -1  983.80   17.60
   5  -3  -1  967.10   17.90
   5  -3  -1  986.20   17.60
  -5   4   1   63.89    2.40
   5  -4  -1   60.49    2.60
   5  -4  -1   61.59    2.30
   5  -4  -1   62.09    2.40
   5  -4  -1   62.99    2.30
  -5   5   1    3.00    0.70
   5  -5  -1    1.50    0.60
   5  -5  -1    2.70    0.80
   5  -5  -1    3.50    1.00
   5  -5  -1    3.00    0.80
  -5   6   1   20.80    1.60
   5  -6  -1   20.60    2.00
   5  -6  -1   19.10    1.70
   5  -6  -1   17.20    1.50
   5  -6  -1   19.90    1.50
   5  -7  -1   16.70    1.70
   5  -7  -1   16.80    2.00
  -4  -7   1   20.80    1.80
  -4  -7   1   21.20    1.90
   4   7  -1   20.50    1.80
  -4  -6   1    9.30    1.20
  -4  -6   1    7.20    1.10
   4   6  -1    8.50    1.30
   4   6  -1    8.60    1.00
  -4  -5   1    1.70    0.70
  -4  -5   1    1.80    0.70
   4   5  -1    0.40    0.50
   4   5  -1    1.10    0.60
  -4  -4   1   48.10    2.00
  -4  -4   1   51.59    2.00
   4   4  -1   44.20    1.80
  -4  -3   1   70.89    2.30
  -4  -3   1   73.79    2.20
   4   3  -1   68.09    2.20
   4   3  -1   73.19    1.60
  -4  -2   1  142.99    3.40
  -4  -2   1  153.38    3.60
   4   2  -1  153.18    3.60
   4   2  -1  154.48    3.10
   4   2  -1  150.08    3.50
  -4  -1   1  668.73   12.00
  -4  -1   1  678.43   11.80
   4   1  -1  669.93   12.00
   4   1  -1  683.23   11.80
   4   1  -1  660.13   12.10
  -4   0   1   -0.30    0.20
  -4   0   1   -0.30    0.20
   4   0  -1    0.20    0.30
   4   0  -1   -0.70    0.20
   4   0  -1   -0.10    0.30
   4   0  -1   -0.70    0.30
  -4   1   1  666.53   12.00
   4  -1  -1  671.63   12.00
   4  -1  -1  664.53   12.20
   4  -1  -1  682.93   11.60
  -4   2   1  152.58    3.60
   4  -2  -1  157.68    3.80
   4  -2  -1  153.68    3.60
   4  -2  -1  151.68    3.60
  -4   3   1   72.19    2.20
   4  -3  -1   73.29    2.20
   4  -3  -1   70.79    2.20
   4  -3  -1   70.29    2.40
   4  -3  -1   71.89    2.30
  -4   4   1   50.79    2.00
   4  -4  -1   49.20    2.20
   4  -4  -1   49.30    2.00
   4  -4  -1   52.39    2.00
   4  -4  -1   53.69    2.10
  -4   5   1    0.90    0.50
   4  -5  -1    1.70    0.60
   4  -5  -1    1.90    0.70
   4  -5  -1    0.40    0.70
   4  -5  -1    0.80    0.60
  -4   6   1    9.60    1.10
   4  -6  -1    7.20    1.20
   4  -6  -1    8.60    1.00
   4  -6  -1    8.50    1.20
   4  -6  -1    9.40    1.20
   4  -7  -1   25.70    2.20
   4  -7  -1   20.00    1.90
   4  -7  -1   22.70    1.90
  -3  -7   1   14.30    1.60
  -3  -7   1   13.70    1.60
   3   7  -1   14.50    1.70
  -3  -6   1   73.39    2.90
  -3  -6   1   75.79    3.00
   3   6  -1   80.89    3.10
   3   6  -1   79.59    2.70
  -3  -5   1  344.47    7.30
  -3  -5   1  336.97    7.40
   3   5  -1  335.47    7.00
  -3  -4   1   56.69    2.10
  -3  -4   1   60.69    2.20
   3   4  -1   62.49    2.10
  -3  -3   1  539.55   10.10
  -3  -3   1  553.04   10.00
   3   3  -1  540.25   10.00
   3   3  -1  532.65   10.00
   3   3  -1  550.74    9.10
  -3  -2   1   38.50    1.30
  -3  -2   1   36.60    1.40
   3   2  -1   38.60    1.40
   3   2  -1   39.50    1.00
   3   2  -1   40.70    1.40
  -3  -1   1   -0.20    0.30
  -3  -1   1    0.20    0.40
   3   1  -1    0.30    0.40
   3   1  -1    0.40    0.40
   3   1  -1   -0.10    0.30
  -3   0   1   -0.50    0.20
  -3   0   1   -0.30    0.20
   3   0  -1   -0.20    0.30
   3   0  -1   -0.30    0.20
   3   0  -1    0.00    0.30
  -3   1   1    0.30    0.40
   3  -1  -1    0.20    0.40
   3  -1  -1    0.00    0.40
   3  -1  -1    0.30    0.40
   3  -1  -1    0.50    0.30
  -3   2   1   37.80    1.30
   3  -2  -1   37.00    1.40
   3  -2  -1   38.50    1.40
  -3   3   1  531.95    9.80
   3  -3  -1  530.85    9.80
   3  -3  -1  523.85    9.70
   3  -3  -1  534.15   10.00
   3  -3  -1  537.55    9.90
  -3   4   1   63.99    2.10
   3  -4  -1   61.39    2.10
   3  -4  -1   65.99    2.00
   3  -4  -1   63.79    2.30
   3  -4  -1   62.89    2.20
  -3   5   1  348.77    7.10
   3  -5  -1  343.27    7.30
   3  -5  -1  344.77    7.00
   3  -5  -1  335.17    7.40
   3  -5  -1  352.76    7.70
  -3   6   1   78.09    2.90
   3  -6  -1   76.79    2.90
   3  -6  -1   76.49    3.10
   3  -6  -1   76.29    2.90
   3  -7  -1   13.70    1.40
   3  -7  -1   11.70    1.60
   3  -7  -1   10.50    1.40
  -2  -7   1  141.79    4.60
  -2  -6   1  118.29    3.80
  -2  -6   1  126.89    3.80
   2   6  -1  126.39    3.80
   2   6  -1  123.99    3.60
  -2  -5   1  294.17    6.50
  -2  -5   1  285.27    6.40
   2   5  -1  292.67    6.20
  -2  -4   1  112.59    3.10
  -2  -4   1  113.09    3.00
   2   4  -1  115.99    3.00
  -2  -3   1  423.86    7.80
  -2  -3   1  413.06    7.90
   2   3  -1  405.46    6.80
   2   3  -1  397.36    7.70
  -2  -2   1  269.87    5.00
  -2  -2   1  261.47    5.10
   2   2  -1  260.77    5.10
   2   2  -1  253.57    5.00
   2   2  -1  265.57    4.60
  -2  -1   1  243.58    4.50
  -2  -1   1  243.08    4.50
   2   1  -1  241.98    4.50
   2   1  -1  239.58    4.30
   2   1  -1  238.58    4.60
  -2   0   1   -0.20    0.20
  -2   0   1   -0.30    0.20
   2   0  -1    0.00    0.30
   2   0  -1   -0.30    0.30
   2   0  -1   -0.50    0.20
  -2   1   1  237.68    4.40
   2  -1  -1  244.18    4.50
   2  -1  -1  239.88    4.50
   2  -1  -1  240.98    4.50
   2  -2  -1  264.27    5.10
   2  -2  -1  269.97    5.20
   2  -2  -1  270.97    5.10
  -2   3   1  406.26    7.60
  -2   3   1  419.66    7.60
   2  -3  -1  411.96    7.50
   2  -3  -1  417.06    7.70
   2  -3  -1  409.16    7.80
   2  -3  -1  406.86    7.80
  -2   4   1  115.59    2.90
  -2   4   1  114.59    2.30
   2  -4  -1  112.29    2.70
   2  -4  -1  121.79    3.20
   2  -4  -1  116.59    3.10
   2  -4  -1  111.29    3.00
  -2   5   1  300.77    6.00
   2  -5  -1  287.07    6.20
   2  -5  -1  285.87    6.40
   2  -5  -1  290.07    6.50
   2  -5  -1  289.47    5.80
   2  -6  -1  119.09    3.80
   2  -6  -1  123.39    3.70
   2  -6  -1  131.89    4.00
   2  -7  -1  140.89    4.20
   2  -7  -1  143.99    4.40
  -1  -8   1    3.70    1.10
  -1  -8   1    5.20    1.10
  -1  -7   1    0.80    0.80
  -1  -7   1   -0.10    0.60
  -1  -6   1   -0.30    0.50
  -1  -6   1    1.30    0.70
   1   6  -1   -0.40    0.40
  -1  -5   1   90.29    2.80
  -1  -5   1   87.99    2.90
   1   5  -1   87.89    2.70
  -1  -4   1    1.30    0.50
  -1  -4   1    1.20    0.50
   1   4  -1    1.80    0.50
   1   4  -1    1.10    0.40
  -1  -3   1  458.95    8.60
  -1  -3   1  458.45    8.40
   1   3  -1  450.05    8.40
   1   3  -1  454.95    8.40
  -1  -2   1  700.93   12.10
  -1  -2   1  699.63   12.20
   1   2  -1  696.63   12.20
   1   2  -1  705.63   12.10
  -1  -1   1 8792.12  142.69
   1   1  -1 8288.07  142.49
   1   1  -1 8607.64  142.19
  -1   0   1  -10.70    0.30
  -1   0   1  -11.60    0.30
   1   0  -1  -11.10    0.30
   1   0  -1  -11.60    0.30
   1  -1  -1 8725.93  144.49
  -1   2   1  692.93   11.80
  -1   2   1  724.23   12.00
  -1   2   1  704.33   11.70
   1  -2  -1  684.03   12.10
   1  -2  -1  684.53   11.80
   1  -2  -1  696.53   11.90
   1  -2  -1  691.93   11.90
  -1   3   1  451.65    8.10
  -1   3   1  454.55    8.00
   1  -3  -1  453.35    8.20
   1  -3  -1  453.25    8.50
   1  -3  -1  456.25    8.00
   1  -3  -1  462.75    8.40
  -1   4   1    1.40    0.30
  -1   4   1    1.10    0.30
   1  -4  -1    1.50    0.50
   1  -4  -1    1.70    0.50
   1  -4  -1    1.10    0.30
   1  -4  -1    1.40    0.50
  -1   5   1   81.69    2.50
  -1   5   1   89.19    2.40
   1  -5  -1   86.09    2.80
   1  -5  -1   93.29    2.90
   1  -5  -1   84.59    2.20
   1  -5  -1   89.99    2.60
   1  -6  -1    0.70    0.60
   1  -6  -1   -0.30    0.60
   1  -7  -1   -0.40    0.60
   1  -7  -1    0.70    0.70
   1  -8  -1    4.50    1.20
   1  -8  -1    5.10    1.20
   0  -8   1   91.69    3.60
   0  -8   1   93.29    3.90
   0  -7   1    2.30    0.80
   0  -7   1    0.60    0.80
   0   7  -1    2.60    0.80
   0  -6   1   37.50    2.10
   0  -6   1   40.20    2.00
   0   6  -1   43.70    2.00
   0  -5   1  101.69    3.00
   0  -5   1  102.59    3.20
   0   5  -1  104.19    3.00
   0  -4   1  228.28    5.00
   0  -4   1  234.68    4.50
   0  -4   1  235.08    5.30
   0   4  -1  229.68    5.00
   0  -3   1  484.15    9.00
   0  -3   1  477.15    8.80
   0  -3   1  476.25    8.80
   0  -3   1  484.35    8.40
   0   3  -1  476.95    8.90
   0   3  -1  482.95    8.80
   0  -2   1    1.80    0.30
   0  -2   1    1.30    0.50
   0  -2   1    1.60    0.40
   0  -2   1    1.80    0.40
   0   2  -1    1.60    0.50
   0   2  -1    2.80    0.50
   0  -1   1 2236.38   38.60
   0  -1   1 2245.78   38.40
   0  -1   1 2276.97   38.50
   0  -1   1 2173.88   37.70
   0   1  -1 2292.47   37.70
   0   1  -1 2326.27   37.60
   0   1  -1 2248.48   38.50
   0   0   1   -1.60    0.10
   0   0   1   -1.60    0.10
   0   0  -1   -1.40    0.10
   0   0  -1   -1.80    0.10
   0   0  -1   -1.70    0.10
   0   0  -1   -1.70    0.10
   0   1   1 2299.47   39.60
   0  -1  -1 2263.57   38.50
   0  -1  -1 2311.37   38.10
   0  -1  -1 2288.77   38.10
   0  -1  -1 2250.27   37.90
   0  -1  -1 2380.16   39.50
   0   2   1    1.60    0.40
   0   2   1    2.40    0.30
   0  -2  -1    1.60    0.30
   0  -2  -1    2.00    0.40
   0  -2  -1    1.40    0.40
   0  -2  -1    1.60    0.40
   0   3   1  500.05    8.80
   0   3   1  484.65    8.50
   0  -3  -1  488.55    9.00
   0  -3  -1  496.25    8.30
   0  -3  -1  485.35    8.70
   0  -3  -1  475.85    8.70
   0   4   1  236.38    4.60
   0   4   1  235.78    4.90
   0  -4  -1  232.48    4.20
   0  -4  -1  231.78    5.10
   0  -4  -1  238.98    4.90
   0   5   1  112.09    3.00
   0   5   1  103.79    2.60
   0  -5  -1  108.09    3.20
   0  -5  -1  108.09    3.20
   0  -6  -1   41.40    2.10
   0  -6  -1   40.20    2.00
   0  -7  -1    3.20    0.90
   0  -7  -1    2.60    0.90
   0  -8  -1   93.89    3.90
   0  -8  -1   90.99    3.90
   1  -7   1   32.20    2.20
   1  -7   1   32.10    1.90
  -1   7  -1   29.50    1.90
   1  -6   1   50.19    2.50
   1  -6   1   54.59    2.30
  -1   6  -1   54.19    2.30
   1  -5   1 1060.69   18.40
   1  -5   1 1075.89   19.00
   1  -5   1 1054.99   19.00
   1  -5   1 1044.60   19.40
  -1   5  -1 1076.29   19.10
   1  -4   1   38.30    1.80
   1  -4   1   35.40    1.60
   1  -4   1   37.30    1.50
   1  -4   1   37.80    1.30
  -1   4  -1   36.50    1.60
  -1   4  -1   38.30    1.60
   1  -3   1    0.90    0.30
   1  -3   1    1.60    0.30
   1  -3   1    1.60    0.50
   1  -3   1    1.80    0.50
  -1   3  -1    1.20    0.40
  -1   3  -1    1.30    0.50
   1  -2   1  435.36    7.80
   1  -2   1  423.36    7.90
   1  -2   1  431.66    7.70
   1  -2   1  444.06    7.60
  -1   2  -1  435.46    7.80
  -1   2  -1  415.16    7.80
   1  -1   1  413.26    7.30
   1  -1   1  408.46    7.00
   1  -1   1  418.36    7.30
   1  -1   1  423.86    7.20
   1  -1   1  413.66    7.40
  -1   1  -1  418.46    7.40
   1   0   1   -0.60    0.10
   1   0   1   -0.60    0.20
   1   0   1   -0.70    0.20
   1   0   1   -0.80    0.20
   1   0   1   -0.50    0.20
  -1   0  -1   -0.80    0.10
  -1   0  -1   -0.60    0.20
  -1   0  -1   -0.60    0.20
   1   1   1  415.36    7.60
   1   1   1  431.46    7.20
  -1  -1  -1  436.06    7.30
  -1  -1  -1  422.36    7.30
  -1  -1  -1  420.66    7.30
   1   2   1  435.96    8.00
   1   2   1  445.36    7.50
  -1  -2  -1  443.66    7.70
  -1  -2  -1  429.36    7.70
  -1  -2  -1  441.56    7.90
   1   3   1    1.40    0.30
   1   3   1    1.10    0.40
  -1  -3  -1    1.40    0.40
  -1  -3  -1    1.60    0.40
  -1  -3  -1    1.30    0.40
   1   4   1   38.10    1.60
   1   4   1   38.50    1.20
  -1  -4  -1   36.50    1.60
  -1  -4  -1   38.80    1.50
  -1  -4  -1   38.10    1.50
   1   5   1 1072.49   18.80
   1   5   1 1024.70   18.00
  -1  -5  -1 1060.79   18.70
  -1  -5  -1 1034.40   18.90
   1   6   1   51.19    2.20
  -1  -6  -1   53.99    2.30
  -1  -6  -1   53.79    2.40
  -1  -7  -1   24.70    1.90
  -1  -7  -1   28.90    2.00
   2  -7   1    1.60    1.00
   2  -7   1    2.00    0.80
  -2   7  -1    1.90    0.80
   2  -6   1    1.50    0.70
   2  -6   1    2.90    0.80
   2  -6   1    1.80    0.80
  -2   6  -1    2.50    0.80
   2  -5   1   57.99    2.50
   2  -5   1   59.09    2.20
   2  -5   1   60.39    2.40
   2  -5   1   57.99    2.00
  -2   5  -1   58.89    2.30
   2  -4   1   49.40    1.90
   2  -4   1   50.69    2.10
   2  -4   1   50.99    1.70
   2  -4   1   47.90    1.70
  -2   4  -1   48.60    1.90
   2  -3   1  509.55    9.90
   2  -3   1  521.75    9.50
   2  -3   1  531.85    9.70
   2  -3   1  522.35    9.40
  -2   3  -1  516.25    9.80
  -2   3  -1  523.15    9.70
   2  -2   1  569.04    9.70
   2  -2   1  561.14   10.00
   2  -2   1  565.94   10.10
   2  -2   1  556.94   10.30
  -2   2  -1  557.74   10.20
   2  -1   1 1142.89   19.60
   2  -1   1 1173.48   19.80
   2  -1   1 1176.78   19.80
   2  -1   1 1183.68   19.90
   2  -1   1 1170.38   19.50
  -2   1  -1 1179.38   19.80
   2   0   1    0.10    0.30
   2   0   1   -0.10    0.20
   2   0   1    0.30    0.20
   2   0   1   -0.30    0.20
  -2   0  -1    0.00    0.10
  -2   0  -1    0.30    0.30
  -2   0  -1    0.20    0.20
   2   1   1 1199.98   20.20
   2   1   1 1177.08   19.80
   2   1   1 1171.88   20.10
   2   1   1 1190.48   19.70
  -2  -1  -1 1189.18   19.80
  -2  -1  -1 1171.08   19.80
  -2  -1  -1 1166.28   19.70
   2   2   1  560.44   10.40
   2   2   1  567.44    9.80
  -2  -2  -1  571.64    9.90
  -2  -2  -1  569.24   10.00
  -2  -2  -1  562.64    9.90
   2   3   1  532.55    9.30
   2   3   1  520.85   10.00
  -2  -3  -1  508.75    9.60
  -2  -3  -1  540.75    9.70
  -2  -3  -1  540.25    9.60
   2   4   1   49.00    2.00
   2   4   1   48.90    1.50
  -2  -4  -1   48.70    1.80
  -2  -4  -1   51.19    1.90
   2   5   1   62.79    2.40
  -2  -5  -1   58.39    2.20
  -2  -5  -1   56.39    2.30
   2   6   1    1.60    0.70
  -2  -6  -1    2.10    0.80
  -2  -6  -1    2.70    0.70
  -2  -7  -1    2.70    0.90
  -2  -7  -1    1.80    0.80
   3  -7   1   11.30    1.30
   3  -7   1    8.30    1.40
  -3   7  -1   14.80    1.60
   3  -6   1   -0.10    0.50
   3  -6   1   -0.70    0.70
   3  -6   1   -0.10    0.50
  -3   6  -1   -0.40    0.60
   3  -5   1    0.40    0.40
   3  -5   1    0.00    0.40
   3  -5   1    0.50    0.70
   3  -5   1    0.50    0.60
  -3   5  -1   -0.10    0.50
   3  -4   1  259.37    5.60
   3  -4   1  261.47    5.40
   3  -4   1  253.17    5.80
   3  -4   1  255.87    6.10
  -3   4  -1  255.57    5.80
   3  -3   1  223.28    4.50
   3  -3   1  217.78    4.80
   3  -3   1  216.08    5.10
   3  -3   1  227.38    5.00
  -3   3  -1  222.58    5.00
   3  -2   1    1.00    0.30
   3  -2   1    1.50    0.40
   3  -2   1    2.10    0.50
   3  -2   1    1.20    0.30
   3  -2   1    0.80    0.40
  -3   2  -1    1.60    0.40
   3  -1   1  747.73   13.40
   3  -1   1  745.73   13.30
   3  -1   1  775.92   13.30
   3  -1   1  750.62   13.10
  -3   1  -1  758.12   13.30
   3   0   1    0.00    0.30
   3   0   1    0.10    0.30
   3   0   1   -0.40    0.20
   3   0   1    0.80    0.30
  -3   0  -1   -0.40    0.20
  -3   0  -1    0.30    0.30
  -3   0  -1    0.00    0.10
   3   1   1  741.93   13.40
   3   1   1  761.72   13.00
   3   1   1  764.02   13.10
   3   1   1  742.03   12.90
  -3  -1  -1  751.92   13.10
  -3  -1  -1  744.13   13.10
  -3  -1  -1  748.73   12.80
   3   2   1    1.80    0.50
   3   2   1    1.50    0.30
   3   2   1    1.10    0.30
  -3  -2  -1    1.20    0.30
  -3  -2  -1    1.00    0.30
  -3  -2  -1    1.30    0.40
   3   3   1  227.18    4.50
   3   3   1  227.48    5.20
  -3  -3  -1  220.98    4.70
  -3  -3  -1  225.48    4.70
  -3  -3  -1  228.98    4.80
   3   4   1  256.27    5.10
   3   4   1  249.28    6.00
  -3  -4  -1  258.87    5.50
  -3  -4  -1  259.27    5.60
   3   5   1    0.10    0.50
  -3  -5  -1   -0.30    0.50
  -3  -5  -1    0.60    0.50
   3   6   1    0.50    0.60
  -3  -6  -1    0.00    0.60
  -3  -6  -1   -0.50    0.50
   3   7   1   11.70    1.50
  -3  -7  -1    9.10    1.30
   4  -7   1    0.50    0.90
  -4   7  -1    0.50    0.70
   4  -6   1  138.49    4.00
   4  -6   1  138.19    4.70
  -4   6  -1  139.79    4.30
   4  -5   1  148.69    4.10
   4  -5   1  151.18    4.10
   4  -5   1  150.18    4.60
  -4   5  -1  150.38    4.40
   4  -4   1  286.67    6.30
   4  -4   1  283.57    6.80
   4  -4   1  292.77    6.60
   4  -4   1  287.07    5.90
  -4   4  -1  292.07    6.60
   4  -3   1  516.35   10.10
   4  -3   1  535.95   10.30
   4  -3   1  529.55    9.50
   4  -3   1  520.45   10.50
  -4   3  -1  522.55   10.20
   4  -2   1    7.80    0.90
   4  -2   1    6.80    0.60
   4  -2   1    6.20    0.80
   4  -2   1    7.10    0.80
   4  -2   1    6.70    0.60
  -4   2  -1    6.70    0.80
   4  -1   1    4.50    0.70
   4  -1   1    4.30    0.60
   4  -1   1    3.60    0.50
   4  -1   1    5.20    0.70
  -4   1  -1    4.60    0.60
   4   0   1    0.30    0.30
   4   0   1   -0.40    0.30
   4   0   1   -0.40    0.30
   4   0   1    0.30    0.30
  -4   0  -1   -0.20    0.20
  -4   0  -1    0.10    0.30
   4   1   1    5.00    0.60
   4   1   1    3.40    0.60
   4   1   1    3.80    0.60
   4   1   1    5.00    0.60
  -4  -1  -1    4.00    0.60
  -4  -1  -1    4.30    0.60
  -4  -1  -1    4.90    0.50
   4   2   1    6.50    0.80
   4   2   1    7.80    0.70
   4   2   1    7.90    0.60
  -4  -2  -1    6.00    0.70
  -4  -2  -1    6.50    0.60
   4   3   1  541.95    9.90
   4   3   1  523.05   10.70
  -4  -3  -1  538.15   10.00
  -4  -3  -1  554.44   10.20
   4   4   1  295.07    6.90
  -4  -4  -1  292.27    6.30
  -4  -4  -1  284.87    6.30
   4   5   1  150.38    4.60
  -4  -5  -1  145.79    4.10
  -4  -5  -1  145.79    4.00
   4   6   1  138.09    4.50
  -4  -6  -1  134.49    4.10
  -4  -6  -1  132.99    4.20
   4   7   1    0.40    0.70
  -4  -7  -1   -1.00    0.70
   5  -6   1   61.69    3.10
   5  -6   1   61.99    2.70
  -5   6  -1   61.09    2.90
   5  -5   1   39.70    2.10
   5  -5   1   40.50    2.40
  -5   5  -1   40.90    2.20
   5  -4   1   12.40    1.30
   5  -4   1   12.20    1.40
  -5   4  -1   12.40    1.40
   5  -3   1  161.78    4.60
   5  -3   1  166.08    4.30
  -5   3  -1  168.58    4.40
   5  -2   1  485.45    8.80
   5  -2   1  466.15    9.60
   5  -2   1  473.05    9.40
  -5   2  -1  463.15    9.40
   5  -1   1  106.29    3.20
   5  -1   1  106.49    2.80
   5  -1   1  108.99    3.00
  -5   1  -1  109.59    3.10
   5   0   1    0.20    0.40
   5   0   1   -0.20    0.30
   5   0   1    0.10    0.40
  -5   0  -1    0.30    0.40
   5   1   1  106.69    2.80
   5   1   1  108.79    3.00
   5   1   1  106.59    3.20
  -5  -1  -1  110.59    2.50
  -5  -1  -1  111.69    3.00
   5   2   1  483.95    9.80
   5   2   1  482.65    9.20
   5   2   1  472.55    8.90
  -5  -2  -1  473.25    8.80
  -5  -2  -1  487.45    9.30
   5   3   1  172.08    4.80
   5   3   1  170.48    4.00
  -5  -3  -1  174.68    4.30
  -5  -3  -1  171.98    4.10
   5   4   1   13.40    1.50
  -5  -4  -1   14.70    1.30
  -5  -4  -1   11.00    1.10
   5   5   1   40.90    2.40
  -5  -5  -1   40.90    2.10
  -5  -5  -1   40.50    2.10
   5   6   1   63.39    3.10
  -5  -6  -1   64.29    2.80
  -5  -6  -1   58.09    2.70
   6  -6   1    4.80    1.20
   6  -6   1    7.60    1.30
  -6   6  -1    9.20    1.40
   6  -5   1    9.00    1.40
   6  -5   1    9.60    1.30
  -6   5  -1   11.70    1.50
   6  -4   1   13.20    1.40
   6  -4   1   14.70    1.60
  -6   4  -1   13.70    1.50
   6  -3   1   73.29    3.00
   6  -3   1   70.29    2.80
  -6   3  -1   69.39    2.80
   6  -2   1  474.65    9.90
   6  -2   1  472.45    9.70
  -6   2  -1  470.55    9.70
   6  -1   1    3.50    0.70
   6  -1   1    5.10    0.70
   6  -1   1    4.20    0.80
  -6   1  -1    3.80    0.80
   6   0   1    0.00    0.40
   6   0   1    0.20    0.50
   6   0   1   -0.10    0.40
  -6   0  -1    0.50    0.50
   6   1   1    3.70    0.70
   6   1   1    5.10    0.90
   6   1   1    3.20    0.60
  -6  -1  -1    5.40    0.80
   6   2   1  486.05   10.20
   6   2   1  484.85    9.60
   6   2   1  477.15    9.20
  -6  -2  -1  490.95    9.70
  -6  -2  -1  485.05    9.10
   6   3   1   67.29    2.60
   6   3   1   74.39    3.10
  -6  -3  -1   78.79    2.40
  -6  -3  -1   75.79    2.70
   6   4   1   16.20    1.60
  -6  -4  -1   14.20    1.30
  -6  -4  -1   16.00    1.40
   6   5   1   10.60    1.50
  -6  -5  -1   11.80    1.30
  -6  -5  -1   10.00    1.30
   6   6   1    6.80    1.40
  -6  -6  -1    8.20    1.20
   7  -5   1    1.70    0.80
   7  -5   1    0.90    0.90
  -7   5  -1    1.10    0.80
   7  -4   1   84.29    3.60
   7  -4   1   84.99    3.30
  -7   4  -1   79.89    3.30
   7  -3   1   95.99    3.70
   7  -3   1   94.99    3.40
  -7   3  -1   89.79    3.40
   7  -2   1    3.70    1.00
   7  -2   1    4.00    0.90
  -7   2  -1    3.00    0.80
   7  -1   1   60.59    2.50
   7  -1   1   61.79    2.60
  -7   1  -1   58.59    2.50
   7   0   1   -0.10    0.50
   7   0   1    0.00    0.50
   7   0   1   -0.50    0.40
  -7   0  -1   -0.40    0.40
   7   1   1   61.39    2.50
   7   1   1   60.39    2.60
   7   1   1   57.79    2.20
  -7  -1  -1   59.19    2.50
   7   2   1    3.80    0.80
   7   2   1    3.50    0.90
  -7  -2  -1    4.70    0.90
   7   3   1   98.69    3.80
  -7  -3  -1   92.29    3.30
   7   4   1   84.59    3.70
  -7  -4  -1   86.49    3.30
   7   5   1    0.90    0.80
  -7  -5  -1    0.50    0.80
   8  -4   1  122.59    4.40
   8  -4   1  125.19    4.70
  -8   4  -1  118.89    4.40
   8  -3   1    1.50    0.80
   8  -3   1    1.90    0.90
  -8   3  -1    1.90    0.80
   8  -2   1    1.50    0.80
   8  -2   1    1.30    0.80
  -8   2  -1    2.80    1.00
   8  -1   1   40.70    2.30
   8  -1   1   40.80    2.20
  -8   1  -1   43.30    2.30
   8   0   1    0.40    0.60
   8   0   1   -0.20    0.60
   8   0   1   -0.20    0.50
  -8   0  -1   -0.20    0.60
   8   1   1   40.50    2.10
   8   1   1   41.60    2.30
   8   1   1   45.50    2.30
  -8  -1  -1   44.00    2.30
   8   2   1    1.60    0.80
  -8  -2  -1    1.60    0.70
   8   3   1    1.00    0.80
  -8  -3  -1    1.20    0.70
   8   4   1  123.19    4.80
  -8  -4  -1  127.49    4.30
   9  -2   1  122.49    4.50
   9  -2   1  119.89    4.20
  -9   2  -1  118.99    4.50
   9  -1   1    0.80    0.80
   9  -1   1   -0.70    0.70
  -9   1  -1   -1.10    0.50
   9   0   1    0.10    0.70
   9   0   1    0.10    0.70
  -9   0  -1   -0.50    0.60
   9   1   1   -0.60    0.60
  -9  -1  -1    0.40    0.70
   9   2   1  128.89    4.60
  -9  -2  -1  115.09    4.30
 -10  -2   2    1.30    0.90
  10   2  -2    0.80    0.80
  10   2  -2    1.10    0.80
 -10  -1   2   -0.10    0.60
  10   1  -2    0.70    0.80
 -10   0   2    9.40    1.40
  10   0  -2    9.20    1.50
  10   0  -2   10.10    1.30
 -10   1   2    0.40    0.70
  10  -1  -2   -0.10    0.70
  10  -1  -2    0.60    0.70
 -10   2   2    0.30    0.70
  10  -2  -2    0.60    0.80
  10  -2  -2    0.80    0.80
  -9  -4   2   54.79    2.90
  -9  -4   2   59.29    2.70
   9   4  -2   52.79    3.10
  -9  -3   2   63.79    3.00
  -9  -3   2   74.09    2.90
   9   3  -2   66.09    3.10
   9   3  -2   66.79    3.30
  -9  -2   2   24.80    1.90
  -9  -2   2   24.20    1.60
   9   2  -2   26.50    2.00
   9   2  -2   24.30    1.90
  -9  -1   2    0.80    0.70
   9   1  -2    1.80    0.80
   9   1  -2    1.00    0.70
   9   1  -2    1.50    0.70
  -9   0   2  237.88    6.20
   9   0  -2  238.98    6.40
   9   0  -2  240.18    5.90
  -9   1   2    2.30    0.80
   9  -1  -2    1.30    0.70
   9  -1  -2    1.70    0.90
  -9   2   2   24.20    1.80
   9  -2  -2   22.20    1.90
   9  -2  -2   22.10    1.80
  -9   3   2   69.99    3.10
   9  -3  -2   68.89    3.40
   9  -3  -2   68.39    3.10
  -9   4   2   56.69    2.80
   9  -4  -2   51.79    3.00
   9  -4  -2   49.10    3.10
  -8  -5   2    8.70    1.20
  -8  -5   2   11.30    1.50
   8   5  -2   12.00    1.70
   8   5  -2    7.20    1.40
  -8  -4   2   75.89    2.90
  -8  -4   2   69.29    3.10
   8   4  -2   72.49    3.00
   8   4  -2   71.79    3.30
  -8  -3   2  296.17    7.20
  -8  -3   2  295.57    6.80
   8   3  -2  295.17    7.10
   8   3  -2  302.47    7.50
  -8  -2   2  179.78    5.10
  -8  -2   2  193.78    4.80
   8   2  -2  202.78    5.40
  -8  -1   2   44.80    2.00
  -8  -1   2   46.20    2.20
   8   1  -2   44.90    2.00
   8   1  -2   45.20    2.20
   8   1  -2   42.10    2.20
  -8   0   2  220.68    5.60
   8   0  -2  221.08    5.40
   8   0  -2  219.08    5.80
   8   0  -2  230.18    5.40
  -8   1   2   43.70    2.10
   8  -1  -2   45.90    2.20
   8  -1  -2   41.30    2.30
  -8   2   2  194.78    5.10
   8  -2  -2  186.38    5.10
   8  -2  -2  184.78    5.40
  -8   3   2  302.97    7.10
   8  -3  -2  293.67    7.50
   8  -3  -2  291.97    7.10
  -8   4   2   76.19    3.00
   8  -4  -2   72.59    3.10
   8  -4  -2   71.89    3.30
  -8   5   2    9.60    1.40
   8  -5  -2    8.10    1.30
   8  -5  -2    9.80    1.60
  -7  -6   2    1.90    0.90
  -7  -6   2    2.40    0.90
   7   6  -2    3.20    1.20
  -7  -5   2  168.28    5.10
  -7  -5   2  171.58    4.80
   7   5  -2  163.88    4.80
   7   5  -2  173.88    5.50
  -7  -4   2  137.69    4.20
  -7  -4   2  135.39    4.00
   7   4  -2  135.89    4.10
   7   4  -2  134.89    4.50
  -7  -3   2  477.85    9.90
  -7  -3   2  470.75    9.50
   7   3  -2  468.45   10.20
   7   3  -2  469.35    9.80
  -7  -2   2    2.90    0.60
  -7  -2   2    3.20    0.70
   7   2  -2    4.90    0.70
   7   2  -2    3.60    0.90
   7   2  -2    5.70    1.00
  -7  -1   2   35.40    1.80
  -7  -1   2   40.30    1.70
   7   1  -2   36.40    1.90
   7   1  -2   37.30    1.70
   7   1  -2   37.80    2.00
  -7   0   2    1.80    0.60
   7   0  -2    2.10    0.60
   7   0  -2    1.20    0.60
   7   0  -2    1.30    0.50
  -7   1   2   36.00    1.80
   7  -1  -2   33.60    1.70
   7  -1  -2   32.70    1.90
   7  -1  -2   37.90    1.90
   7  -1  -2   38.20    1.80
  -7   2   2    4.40    0.80
   7  -2  -2    3.70    0.80
   7  -2  -2    4.20    0.90
   7  -2  -2    3.70    0.80
  -7   3   2  470.05    9.60
   7  -3  -2  457.75    9.70
   7  -3  -2  470.05    9.70
   7  -3  -2  456.75   10.00
  -7   4   2  136.39    4.00
   7  -4  -2  132.09    3.90
   7  -4  -2  133.79    4.40
   7  -4  -2  132.89    4.10
   7  -4  -2  132.39    4.10
  -7   5   2  173.58    4.90
   7  -5  -2  175.08    5.00
   7  -5  -2  179.58    5.50
   7  -6  -2    1.90    0.80
   7  -6  -2    3.10    1.10
  -6  -6   2    5.50    1.00
  -6  -6   2    4.00    1.00
   6   6  -2    6.00    1.20
   6   6  -2    4.90    1.00
  -6  -5   2  126.29    4.10
  -6  -5   2  127.99    4.00
   6   5  -2  128.09    4.40
   6   5  -2  127.99    3.90
  -6  -4   2   26.20    1.60
  -6  -4   2   22.90    1.70
   6   4  -2   23.10    1.80
   6   4  -2   22.70    1.60
  -6  -3   2  404.16    8.40
  -6  -3   2  395.36    8.10
   6   3  -2  401.86    8.40
  -6  -2   2  913.81   16.70
  -6  -2   2  945.31   16.50
   6   2  -2  878.91   16.80
   6   2  -2  930.31   16.10
  -6  -1   2   77.49    2.30
  -6  -1   2   76.69    2.50
   6   1  -2   75.79    2.60
   6   1  -2   80.29    2.60
   6   1  -2   75.29    2.30
  -6   0   2  304.37    6.50
  -6   0   2  314.27    6.30
   6   0  -2  300.67    6.60
   6   0  -2  316.27    6.60
   6   0  -2  295.97    6.30
   6   0  -2  307.87    6.30
  -6   1   2   79.59    2.50
   6  -1  -2   74.89    2.60
   6  -1  -2   81.79    2.20
   6  -1  -2   79.59    2.50
   6  -1  -2   80.49    2.60
  -6   2   2  859.31   16.00
   6  -2  -2  890.41   16.50
   6  -2  -2  886.61   16.20
   6  -2  -2  907.21   16.20
  -6   3   2  410.76    8.20
   6  -3  -2  395.26    8.30
   6  -3  -2  397.76    8.30
   6  -3  -2  394.36    8.60
  -6   4   2   23.50    1.50
   6  -4  -2   21.20    1.50
   6  -4  -2   26.10    1.80
   6  -4  -2   22.20    1.50
   6  -4  -2   21.50    1.60
  -6   5   2  125.29    3.80
   6  -5  -2  136.09    4.00
   6  -5  -2  128.29    3.90
   6  -5  -2  131.79    4.10
   6  -5  -2  123.09    4.20
   6  -6  -2    4.00    1.00
   6  -6  -2    6.70    1.20
   6  -6  -2    6.40    1.00
   6  -6  -2    5.30    1.30
  -5  -7   2   -0.20    0.70
  -5  -7   2    0.60    0.70
   5   7  -2    0.40    0.70
  -5  -6   2    0.30    0.70
  -5  -6   2    0.70    0.60
   5   6  -2    0.30    0.60
   5   6  -2   -0.10    0.60
  -5  -5   2   -0.10    0.50
  -5  -5   2    0.00    0.60
   5   5  -2    0.40    0.60
  -5  -4   2   30.40    1.70
  -5  -4   2   34.10    1.80
   5   4  -2   33.90    1.80
  -5  -3   2  193.28    4.70
  -5  -3   2  194.88    4.50
   5   3  -2  175.38    4.00
   5   3  -2  190.98    4.60
  -5  -2   2   80.59    2.40
  -5  -2   2   83.39    2.60
   5   2  -2   86.99    2.20
   5   2  -2   81.89    2.60
   5   2  -2   90.99    2.60
  -5  -1   2  302.27    6.10
  -5  -1   2  300.17    5.90
   5   1  -2  288.97    6.20
   5   1  -2  294.17    5.80
   5   1  -2  299.07    6.10
  -5   0   2 1726.63   29.80
  -5   0   2 1735.63   29.60
   5   0  -2 1772.62   29.70
   5   0  -2 1774.82   29.80
   5   0  -2 1747.03   29.90
  -5   1   2  297.67    6.10
   5  -1  -2  305.27    6.40
   5  -1  -2  304.87    6.20
   5  -1  -2  303.87    6.20
  -5   2   2   84.09    2.50
   5  -2  -2   85.89    2.60
   5  -2  -2   87.89    2.70
   5  -2  -2   86.29    1.80
  -5   3   2  192.48    4.40
   5  -3  -2  186.48    4.50
   5  -3  -2  189.78    4.70
   5  -3  -2  194.08    4.60
  -5   4   2   32.50    1.60
   5  -4  -2   33.10    1.70
   5  -4  -2   32.40    1.80
   5  -4  -2   31.70    1.70
   5  -4  -2   34.40    1.90
  -5   5   2   -0.30    0.40
   5  -5  -2   -0.10    0.50
   5  -5  -2    0.30    0.60
   5  -5  -2    0.90    0.60
   5  -5  -2    0.10    0.60
   5  -6  -2   -0.40    0.50
   5  -6  -2    0.40    0.70
   5  -6  -2   -0.60    0.60
   5  -6  -2    0.90    0.70
   5  -7  -2    1.30    0.80
   5  -7  -2    1.00    1.00
   5  -7  -2    0.50    0.80
  -4  -7   2  202.78    5.80
  -4  -7   2  215.98    6.00
   4   7  -2  210.68    6.10
  -4  -6   2  248.18    6.20
  -4  -6   2  245.28    6.30
   4   6  -2  249.38    6.00
  -4  -5   2   24.50    1.60
  -4  -5   2   25.50    1.60
   4   5  -2   23.90    1.60
  -4  -4   2  211.78    4.90
  -4  -4   2  211.88    5.00
   4   4  -2  203.08    4.90
  -4  -3   2  192.48    4.50
  -4  -3   2  191.58    4.40
   4   3  -2  196.18    3.70
   4   3  -2  188.88    4.50
   4   3  -2  190.68    4.40
  -4  -2   2  118.89    2.90
  -4  -2   2  114.29    3.00
   4   2  -2  116.09    3.10
   4   2  -2  113.89    2.60
   4   2  -2  116.29    3.00
  -4  -1   2    3.30    0.50
  -4  -1   2    1.90    0.40
   4   1  -2    3.30    0.50
   4   1  -2    2.10    0.50
   4   1  -2    2.80    0.50
  -4   0   2  259.27    5.20
  -4   0   2  272.07    5.30
   4   0  -2  277.07    5.40
   4   0  -2  268.27    5.40
   4   0  -2  265.37    5.30
  -4   1   2    3.10    0.50
   4  -1  -2    3.60    0.60
   4  -1  -2    3.60    0.60
   4  -1  -2    2.80    0.50
  -4   2   2  114.69    2.80
   4  -2  -2  110.89    2.90
   4  -2  -2  116.29    2.90
  -4   3   2  194.68    4.20
   4  -3  -2  192.38    4.40
   4  -3  -2  194.58    4.50
   4  -3  -2  193.68    4.40
  -4   4   2  215.08    4.70
   4  -4  -2  213.38    4.90
   4  -4  -2  211.98    4.80
   4  -4  -2  217.58    5.20
   4  -4  -2  204.88    5.00
  -4   5   2   23.20    1.30
   4  -5  -2   24.00    1.70
   4  -5  -2   24.30    1.60
   4  -5  -2   24.00    1.40
   4  -5  -2   24.10    1.60
   4  -6  -2  244.88    6.20
   4  -6  -2  252.57    6.10
   4  -6  -2  245.58    6.10
   4  -6  -2  255.77    6.50
   4  -7  -2  208.58    5.80
   4  -7  -2  213.18    5.70
  -3  -7   2  233.38    6.30
  -3  -7   2  226.08    6.00
   3   7  -2  232.18    6.20
   3   7  -2  215.78    5.70
  -3  -6   2  744.73   14.40
  -3  -6   2  738.73   14.60
   3   6  -2  749.53   14.30
  -3  -5   2    7.10    0.90
  -3  -5   2    9.10    1.10
   3   5  -2    8.80    1.00
  -3  -4   2    2.10    0.60
  -3  -4   2    1.30    0.50
   3   4  -2    1.60    0.50
  -3  -3   2  281.27    5.70
  -3  -3   2  282.17    5.90
   3   3  -2  277.57    5.10
   3   3  -2  285.57    5.80
   3   3  -2  274.17    5.80
  -3  -2   2  867.61   15.30
  -3  -2   2  873.31   15.20
   3   2  -2  890.31   14.80
   3   2  -2  872.81   15.30
   3   2  -2  876.91   15.40
  -3  -1   2    2.90    0.40
  -3  -1   2    3.30    0.40
   3   1  -2    3.30    0.40
   3   1  -2    3.50    0.50
   3   1  -2    2.60    0.40
  -3   0   2   62.79    1.60
  -3   0   2   61.49    1.70
   3   0  -2   66.89    1.70
   3   0  -2   63.49    1.70
  -3   1   2    3.00    0.40
   3  -1  -2    3.30    0.40
   3  -1  -2    2.60    0.50
  -3   2   2  891.81   15.40
   3  -2  -2  907.11   15.60
   3  -2  -2  898.41   15.70
   3  -2  -2  917.31   15.70
  -3   3   2  278.97    5.40
   3  -3  -2  280.47    5.80
   3  -3  -2  277.97    5.60
   3  -3  -2  284.17    5.60
   3  -3  -2  283.57    5.80
  -3   4   2    2.30    0.50
   3  -4  -2    0.90    0.40
   3  -4  -2    1.80    0.60
   3  -4  -2    1.30    0.50
   3  -4  -2    0.90    0.50
  -3   5   2    8.80    0.90
   3  -5  -2    9.70    0.90
   3  -5  -2    9.50    1.10
   3  -5  -2    9.20    1.00
   3  -5  -2    8.90    1.10
   3  -6  -2  743.83   14.70
   3  -6  -2  775.22   14.40
   3  -6  -2  762.32   14.80
   3  -7  -2  231.98    6.20
   3  -7  -2  240.58    6.00
  -2  -7   2    9.80    1.40
  -2  -7   2   11.60    1.40
   2   7  -2   10.60    1.30
  -2  -6   2   16.00    1.40
  -2  -6   2   16.80    1.60
   2   6  -2   18.60    1.50
  -2  -5   2    5.00    0.80
  -2  -5   2    3.00    0.70
   2   5  -2    4.90    0.80
  -2  -4   2   15.70    1.10
  -2  -4   2   14.60    1.10
   2   4  -2   15.20    1.20
   2   4  -2   15.00    1.10
  -2  -3   2   20.20    1.00
  -2  -3   2   21.20    1.10
   2   3  -2   22.40    1.20
   2   3  -2   19.80    1.10
  -2  -2   2  300.57    5.90
   2   2  -2  297.97    5.50
   2   2  -2  304.67    5.90
   2   2  -2  311.07    5.90
  -2  -1   2 6114.49  102.79
  -2  -1   2 6142.59  102.69
   2   1  -2 6092.39  102.09
   2   1  -2 5894.11  101.69
   2   1  -2 6068.69  101.89
   2   0  -2 9860.31  162.78
   2   0  -2 9999.00  162.88
   2   0  -2 9491.25  162.38
  -2   1   2 6012.20  101.19
   2  -1  -2 6390.36  102.79
   2  -1  -2 6116.29  102.09
   2  -1  -2 5841.32  101.99
  -2   2   2  310.97    5.40
  -2   2   2  296.57    5.40
   2  -2  -2  306.27    5.80
   2  -2  -2  313.77    5.60
   2  -2  -2  315.37    5.70
  -2   3   2   20.60    0.80
  -2   3   2   19.70    0.70
   2  -3  -2   21.20    1.00
   2  -3  -2   20.20    1.00
   2  -3  -2   21.00    0.90
  -2   4   2   15.40    0.80
  -2   4   2   14.80    0.70
   2  -4  -2   15.00    1.10
   2  -4  -2   14.00    1.10
   2  -4  -2   15.80    0.90
   2  -4  -2   14.40    1.00
   2  -5  -2    4.90    0.80
   2  -5  -2    5.00    0.90
   2  -5  -2    5.30    0.90
   2  -5  -2    5.00    0.60
   2  -6  -2   17.30    1.50
   2  -6  -2   17.90    1.40
   2  -6  -2   18.00    1.50
   2  -7  -2   12.90    1.50
   2  -7  -2   13.40    1.50
  -1  -7   2   66.89    2.80
  -1  -7   2   63.39    3.00
   1   7  -2   62.49    2.70
  -1  -6   2    5.70    0.90
  -1  -6   2    6.10    1.00
   1   6  -2    7.10    1.00
  -1  -5   2   13.80    1.20
  -1  -5   2   14.80    1.30
   1   5  -2   15.70    1.30
  -1  -4   2  162.88    4.10
  -1  -4   2  165.68    3.90
   1   4  -2  166.38    4.00
   1   4  -2  162.88    4.00
  -1  -3   2  603.94   10.80
  -1  -3   2  609.74   11.10
   1   3  -2  591.84   10.90
   1   3  -2  593.24   11.00
  -1  -2   2  208.88    4.20
  -1  -2   2  203.38    4.00
   1   2  -2  201.58    4.20
   1   2  -2  202.18    4.20
  -1  -1   2 6951.10  115.49
  -1  -1   2 6637.74  115.09
   1   1  -2 6914.41  115.29
   1   1  -2 7014.40  115.09
  -1   0   2 9135.79  145.19
   1   0  -2 8740.53  145.69
   1   0  -2 8612.34  145.69
  -1   1   2 6620.34  113.89
   1  -1  -2 6962.40  113.69
  -1   2   2  206.98    4.10
   1  -2  -2  215.18    3.90
   1  -2  -2  208.18    4.30
   1  -2  -2  214.88    3.90
   1  -2  -2  215.68    4.10
  -1   3   2  614.94   10.80
  -1   3   2  623.74   10.20
   1  -3  -2  604.74   10.70
   1  -3  -2  609.34   10.70
   1  -3  -2  604.94   11.20
   1  -3  -2  618.24   10.60
  -1   4   2  168.68    3.60
   1  -4  -2  163.78    3.60
   1  -4  -2  166.68    3.40
   1  -4  -2  164.68    4.10
   1  -4  -2  167.68    3.80
  -1   5   2   15.60    1.00
   1  -5  -2   16.40    1.20
   1  -5  -2   16.50    1.10
   1  -5  -2   16.70    1.30
   1  -6  -2    5.90    1.00
   1  -6  -2    4.70    0.90
   1  -7  -2   60.89    2.80
   1  -7  -2   47.90    3.80
   0  -7   2  237.88    6.50
   0  -7   2  240.78    6.00
   0   7  -2  234.98    6.00
   0  -6   2  210.98    5.20
   0  -6   2  213.78    5.70
   0   6  -2  212.18    5.40
   0  -5   2  427.46    8.60
   0  -5   2  426.96    9.10
   0   5  -2  437.06    8.90
   0  -4   2 1235.08   21.70
   0  -4   2 1209.58   21.10
   0   4  -2 1223.28   21.30
   0   4  -2 1213.28   21.50
   0  -3   2  167.28    3.50
   0  -3   2  164.68    3.90
   0  -3   2  162.58    3.70
   0   3  -2  169.68    3.80
   0   3  -2  156.88    3.80
   0  -2   2   22.20    0.80
   0  -2   2   22.60    1.00
   0  -2   2   22.00    1.00
   0   2  -2   21.50    1.00
   0   2  -2   22.00    1.00
   0  -1   2    0.80    0.30
   0  -1   2    1.10    0.40
   0  -1   2    1.60    0.30
   0   1  -2    1.90    0.40
   0   1  -2    1.30    0.40
   0   1  -2    1.00    0.40
   0   0   2 1416.06   23.50
   0   0   2 1443.56   23.60
   0   0   2 1350.46   23.40
   0   0  -2 1415.56   23.90
   0   0  -2 1379.56   23.20
   0   1   2    0.70    0.30
   0  -1  -2    0.90    0.30
   0   2   2   22.10    0.90
   0  -2  -2   21.50    0.80
   0  -2  -2   20.70    0.60
   0  -2  -2   22.10    0.60
   0  -2  -2   21.80    1.00
   0   3   2  168.88    3.70
   0  -3  -2  163.48    3.30
   0  -3  -2  163.88    3.20
   0   4   2 1246.18   21.40
   0  -4  -2 1246.08   21.10
   0  -4  -2 1228.58   21.20
   0  -4  -2 1222.88   20.60
   0  -4  -2 1238.28   21.70
   0   5   2  428.26    8.40
   0  -5  -2  414.26    8.60
   0  -6  -2  195.68    5.10
   0  -6  -2  194.08    4.90
   0  -7  -2  231.58    6.20
   1  -7   2  106.19    4.10
   1  -7   2  105.29    3.50
  -1   7  -2  105.29    3.70
   1  -6   2   26.10    1.60
   1  -6   2   24.90    1.90
  -1   6  -2   26.20    1.80
   1  -5   2  309.77    7.10
   1  -5   2  310.07    6.50
   1  -5   2  303.77    6.30
   1  -5   2  309.37    6.80
  -1   5  -2  305.97    6.90
   1  -4   2  108.39    3.10
   1  -4   2  106.49    2.70
   1  -4   2  105.69    2.70
   1  -4   2  107.69    3.20
  -1   4  -2  103.89    3.10
  -1   4  -2  108.49    3.10
   1  -3   2   11.80    1.00
   1  -3   2   11.50    0.90
   1  -3   2   11.00    0.80
   1  -3   2   11.60    0.70
  -1   3  -2   11.80    1.00
  -1   3  -2   12.00    0.90
   1  -2   2 1649.44   27.50
   1  -2   2 1657.93   27.60
   1  -2   2 1641.54   27.80
   1  -2   2 1648.94   27.60
  -1   2  -2 1634.54   27.80
  -1   2  -2 1611.04   27.60
   1  -1   2  216.98    4.40
   1  -1   2  231.18    4.30
   1  -1   2  226.18    4.40
   1  -1   2  218.68    3.90
  -1   1  -2  235.28    4.40
   1   0   2   37.30    1.20
   1   0   2   41.10    1.20
  -1   0  -2   38.60    1.00
  -1   0  -2   38.60    0.80
  -1   0  -2   39.80    1.10
  -1  -1  -2  234.48    4.10
  -1  -1  -2  235.88    4.20
  -1  -1  -2  236.78    4.30
   1   2   2 1552.14   26.90
  -1  -2  -2 1614.64   26.20
  -1  -2  -2 1565.14   26.20
  -1  -2  -2 1608.04   26.60
   1   3   2   11.00    0.90
  -1  -3  -2   11.90    0.50
  -1  -3  -2   12.60    0.90
  -1  -3  -2   13.40    0.70
  -1  -3  -2   12.30    0.70
   1   4   2  106.09    3.00
  -1  -4  -2  106.49    2.60
  -1  -4  -2  106.99    2.70
  -1  -4  -2  101.09    2.90
   1   5   2  311.47    6.80
  -1  -5  -2  303.47    6.40
  -1  -5  -2  307.87    6.80
   1   6   2   27.10    1.70
  -1  -6  -2   29.90    1.90
  -1  -6  -2   29.00    1.80
  -1  -7  -2   99.89    3.70
   2  -7   2    8.80    1.20
   2  -7   2    8.70    1.50
  -2   7  -2    8.40    1.30
   2  -6   2   20.10    1.80
   2  -6   2   19.60    1.40
  -2   6  -2   23.20    1.70
   2  -5   2   53.69    2.60
   2  -5   2   50.89    2.40
   2  -5   2   47.80    1.90
   2  -5   2   51.29    2.00
  -2   5  -2   50.79    2.30
   2  -4   2  116.09    3.10
   2  -4   2  114.59    3.50
   2  -4   2  117.29    2.90
   2  -4   2  115.79    3.30
  -2   4  -2  119.29    3.40
  -2   4  -2  120.09    3.50
   2  -3   2  126.29    3.10
   2  -3   2  128.99    3.20
   2  -3   2  123.89    3.40
   2  -3   2  123.49    2.80
  -2   3  -2  124.59    3.20
  -2   3  -2  117.89    3.30
   2  -2   2  810.12   14.10
   2  -2   2  802.52   14.20
   2  -2   2  776.92   14.00
   2  -2   2  787.62   13.40
  -2   2  -2  795.42   14.10
   2  -1   2  712.33   12.40
   2  -1   2  700.13   12.30
   2  -1   2  696.63   12.30
   2  -1   2  659.23   12.20
  -2   1  -2  705.43   12.20
  -2   1  -2  718.43   12.30
   2   0   2  566.64   10.20
   2   0   2  583.74   10.40
   2   0   2  592.04   10.10
   2   0   2  578.04   10.30
  -2   0  -2  581.14   10.10
  -2   0  -2  572.64   10.10
   2   1   2  722.23   12.40
   2   1   2  742.93   12.70
   2   1   2  724.73   13.10
  -2  -1  -2  737.43   12.50
  -2  -1  -2  728.33   12.50
  -2  -1  -2  743.03   12.40
   2   2   2  801.42   13.20
   2   2   2  809.42   14.40
  -2  -2  -2  759.82   13.80
  -2  -2  -2  828.82   13.70
  -2  -2  -2  799.82   13.70
   2   3   2  125.69    3.40
  -2  -3  -2  132.89    3.10
  -2  -3  -2  124.99    2.80
  -2  -3  -2  121.49    2.80
   2   4   2  113.99    3.40
  -2  -4  -2  112.49    2.90
  -2  -4  -2  116.59    3.20
   2   5   2   52.09    2.30
  -2  -5  -2   47.00    1.90
  -2  -5  -2   49.80    2.10
   2   6   2   20.30    1.60
  -2  -6  -2   17.80    1.50
  -2  -7  -2    7.40    1.30
   3  -7   2  146.19    5.20
  -3   7  -2  150.28    4.80
   3  -6   2    0.30    0.70
   3  -6   2    0.80    0.60
  -3   6  -2   -0.40    0.60
   3  -5   2  100.99    3.10
   3  -5   2   93.79    3.60
   3  -5   2   99.19    3.60
  -3   5  -2  101.09    3.40
   3  -4   2 1079.39   19.10
   3  -4   2 1055.39   18.50
   3  -4   2 1050.29   19.60
  -3   4  -2 1085.89   19.50
   3  -3   2  115.99    2.60
   3  -3   2  118.59    3.40
   3  -3   2  116.99    3.20
   3  -3   2  118.29    3.30
  -3   3  -2  115.39    3.30
  -3   3  -2  123.09    3.30
   3  -2   2    9.60    0.90
   3  -2   2    8.80    0.70
   3  -2   2    9.10    0.80
   3  -2   2    8.80    0.50
   3  -2   2    9.20    0.90
  -3   2  -2    9.50    0.90
   3  -1   2  316.47    6.20
   3  -1   2  310.67    6.20
   3  -1   2  325.37    6.40
   3  -1   2  321.67    6.30
  -3   1  -2  315.27    6.30
   3   0   2   38.40    1.50
   3   0   2   38.80    1.40
   3   0   2   38.10    1.30
   3   0   2   35.70    1.40
  -3   0  -2   38.40    0.80
  -3   0  -2   38.70    1.40
   3   1   2  321.97    6.20
   3   1   2  323.87    6.60
   3   1   2  318.27    6.00
  -3  -1  -2  323.87    6.10
  -3  -1  -2  325.57    6.10
  -3  -1  -2  324.37    5.80
   3   2   2    7.00    0.80
   3   2   2    9.00    0.60
  -3  -2  -2    8.70    0.70
  -3  -2  -2    8.80    0.70
  -3  -2  -2    9.70    0.70
   3   3   2  115.59    3.50
  -3  -3  -2  120.79    2.90
  -3  -3  -2  124.19    3.00
   3   4   2  996.40   19.00
  -3  -4  -2 1073.49   18.50
  -3  -4  -2 1041.40   18.30
   3   5   2   99.59    3.50
  -3  -5  -2  104.09    3.10
  -3  -5  -2  106.69    3.30
   3   6   2    0.30    0.60
  -3  -6  -2    0.60    0.60
   3   7   2  150.28    4.90
  -3  -7  -2  148.19    4.70
   4  -6   2   34.10    2.00
   4  -6   2   31.70    2.40
  -4   6  -2   34.00    2.20
   4  -5   2   10.30    1.40
   4  -5   2   11.60    1.30
  -4   5  -2   12.40    1.50
   4  -4   2  311.37    6.80
   4  -4   2  297.27    7.20
  -4   4  -2  301.27    7.00
   4  -3   2    1.70    0.70
   4  -3   2    2.30    0.60
  -4   3  -2    2.80    0.70
   4  -2   2  391.96    7.40
   4  -2   2  374.26    7.80
   4  -2   2  385.86    8.00
  -4   2  -2  386.56    7.90
   4  -1   2  455.55    8.70
   4  -1   2  456.65    8.80
   4  -1   2  452.45    8.80
  -4   1  -2  451.55    8.80
   4   0   2    1.10    0.40
   4   0   2    1.00    0.40
   4   0   2    1.00    0.40
  -4   0  -2    0.10    0.30
   4   1   2  455.15    9.10
   4   1   2  458.45    8.60
   4   1   2  459.55    8.60
  -4  -1  -2  468.25    8.10
  -4  -1  -2  460.75    8.70
   4   2   2  401.76    7.40
   4   2   2  390.36    8.30
   4   2   2  392.46    7.30
  -4  -2  -2  388.06    7.30
  -4  -2  -2  393.96    7.70
   4   3   2    1.60    0.60
  -4  -3  -2    2.30    0.50
  -4  -3  -2    2.80    0.60
   4   4   2  307.57    7.20
  -4  -4  -2  300.77    6.50
  -4  -4  -2  300.87    6.50
   4   5   2   10.40    1.40
  -4  -5  -2   12.20    1.20
  -4  -5  -2   12.20    1.40
   4   6   2   36.80    2.40
  -4  -6  -2   37.60    2.20
   5  -6   2    9.00    1.30
   5  -6   2    8.90    1.50
  -5   6  -2   10.10    1.50
   5  -5   2   -0.70    0.60
   5  -5   2    0.30    0.60
  -5   5  -2    0.10    0.70
   5  -4   2    2.30    0.80
   5  -4   2    2.40    0.90
  -5   4  -2    4.50    1.00
   5  -3   2    3.00    0.80
   5  -3   2    3.40    0.80
  -5   3  -2    3.50    0.80
   5  -2   2  319.17    6.40
   5  -2   2  279.87    6.90
   5  -2   2  323.77    6.90
  -5   2  -2  320.97    6.90
   5  -1   2 1010.60   18.20
   5  -1   2 1003.90   18.00
   5  -1   2 1026.10   18.30
  -5   1  -2 1009.20   18.30
   5   0   2   29.00    1.50
   5   0   2   31.10    1.50
   5   0   2   30.30    1.60
  -5   0  -2   29.00    1.50
   5   1   2 1027.20   18.20
   5   1   2 1021.90   18.80
   5   1   2 1027.10   18.20
  -5  -1  -2 1043.20   18.40
   5   2   2  327.77    6.50
   5   2   2  321.07    7.30
   5   2   2  318.07    6.40
  -5  -2  -2  317.87    6.70
  -5  -2  -2  318.97    6.20
   5   3   2    4.30    1.00
  -5  -3  -2    3.40    0.60
  -5  -3  -2    2.50    0.60
   5   4   2    4.40    1.00
  -5  -4  -2    4.80    0.80
  -5  -4  -2    3.30    0.70
   5   5   2    0.50    0.70
  -5  -5  -2    0.10    0.60
   5   6   2    6.50    1.40
  -5  -6  -2    6.40    1.10
   6  -5   2  100.49    3.80
   6  -5   2  105.19    4.10
  -6   5  -2  106.59    4.00
   6  -4   2   20.30    1.70
   6  -4   2   20.10    1.90
  -6   4  -2   20.10    1.70
   6  -3   2    0.20    0.60
   6  -3   2   -0.30    0.50
  -6   3  -2    0.40    0.60
   6  -2   2   70.09    2.80
   6  -2   2   69.19    2.70
  -6   2  -2   65.09    2.70
   6  -1   2  121.99    3.40
   6  -1   2  121.49    3.70
   6  -1   2  114.79    3.60
  -6   1  -2  117.39    3.60
   6   0   2   61.49    2.40
   6   0   2   62.09    2.40
   6   0   2   57.79    2.40
  -6   0  -2   64.69    2.40
   6   1   2  124.49    3.50
   6   1   2  131.19    3.50
   6   1   2  124.39    3.90
  -6  -1  -2  123.49    3.60
   6   2   2   69.69    2.90
  -6  -2  -2   69.69    2.50
   6   3   2    1.10    0.70
  -6  -3  -2    0.00    0.40
   6   4   2   19.90    1.90
  -6  -4  -2   21.70    1.60
   6   5   2  105.59    4.30
   7  -4   2   10.10    1.60
   7  -4   2    6.90    1.30
  -7   4  -2   10.50    1.50
   7  -3   2    5.90    1.10
   7  -3   2    3.60    1.00
  -7   3  -2    2.00    0.90
   7  -2   2   -0.50    0.60
   7  -2   2    1.10    0.70
  -7   2  -2    0.50    0.60
   7  -1   2    3.10    0.80
   7  -1   2    2.80    0.80
  -7   1  -2    0.50    0.60
   7   0   2   22.40    1.60
   7   0   2   23.00    1.60
   7   0   2   22.20    1.60
  -7   0  -2   21.50    1.60
   7   1   2    1.20    0.80
   7   1   2    1.10    0.70
   7   1   2    1.60    0.60
  -7  -1  -2    1.80    0.70
   7   2   2    0.70    0.70
  -7  -2  -2   -0.10    0.50
   7   3   2    4.00    1.10
  -7  -3  -2    4.00    0.90
   7   4   2   10.00    1.70
  -7  -4  -2    9.30    1.20
   8  -3   2   12.40    1.60
   8  -3   2    9.00    1.50
  -8   3  -2   10.30    1.50
   8  -2   2    3.80    1.10
   8  -2   2    3.10    1.00
  -8   2  -2    5.30    1.20
   8  -1   2  106.69    3.80
   8  -1   2  104.99    3.80
  -8   1  -2  101.79    3.80
   8   0   2   81.79    3.20
   8   0   2   73.89    4.00
   8   0   2   81.79    3.20
  -8   0  -2   85.39    3.40
   8   1   2  104.99    3.90
  -8  -1  -2  110.59    3.90
   8   2   2    7.30    1.30
  -8  -2  -2    3.80    1.00
   8   3   2    6.90    1.40
  -8  -3  -2   10.20    1.40
 -10  -2   3   19.00    1.80
 -10  -2   3   14.80    1.80
  10   2  -3   21.30    2.00
  10   2  -3   20.00    2.10
 -10  -1   3   67.99    3.10
  10   1  -3   71.09    3.30
 -10   0   3    0.40    0.60
  10   0  -3   -0.10    0.70
  10   0  -3   -0.70    0.60
 -10   1   3   72.39    3.10
  10  -1  -3   70.89    3.40
  10  -1  -3   68.09    3.00
 -10   2   3   20.80    1.80
  10  -2  -3   19.90    2.10
  10  -2  -3   20.80    2.00
  -9  -4   3  121.79    4.40
  -9  -4   3  115.89    4.00
   9   4  -3  118.29    4.30
   9   4  -3  119.59    4.60
  -9  -3   3   89.49    3.60
  -9  -3   3   92.69    3.40
   9   3  -3   93.29    3.80
   9   3  -3   94.89    3.70
  -9  -2   3    0.10    0.50
  -9  -2   3    0.10    0.60
   9   2  -3   -0.10    0.60
   9   2  -3   -1.30    0.70
  -9  -1   3   64.19    2.60
  -9  -1   3   62.39    2.70
   9   1  -3   58.59    2.50
   9   1  -3   62.19    3.00
   9   1  -3   62.69    2.70
  -9   0   3   -0.50    0.50
   9   0  -3    0.50    0.70
   9   0  -3   -0.10    0.60
  -9   1   3   61.09    2.70
   9  -1  -3   63.09    2.70
   9  -1  -3   56.49    2.80
  -9   2   3   -0.10    0.50
   9  -2  -3   -0.70    0.60
   9  -2  -3    0.20    0.70
  -9   3   3   90.49    3.40
   9  -3  -3   91.49    3.80
   9  -3  -3   98.49    3.70
  -9   4   3  113.59    3.90
   9  -4  -3  123.19    4.60
   9  -4  -3  118.79    4.20
  -8  -5   3   70.79    3.10
  -8  -5   3   80.29    3.40
   8   5  -3   81.39    3.40
   8   5  -3   78.79    3.70
  -8  -4   3   83.49    3.40
  -8  -4   3   78.59    3.20
   8   4  -3   85.99    3.40
   8   4  -3   83.29    3.60
  -8  -3   3  195.68    5.40
  -8  -3   3  195.18    5.10
   8   3  -3  201.98    5.70
   8   3  -3  199.38    5.50
  -8  -2   3    6.40    0.90
  -8  -2   3    8.40    1.20
   8   2  -3    7.60    1.20
   8   2  -3    5.90    1.10
   8   2  -3    5.90    1.20
  -8  -1   3    0.10    0.50
  -8  -1   3    0.30    0.50
   8   1  -3   -0.10    0.50
   8   1  -3    0.30    0.50
   8   1  -3    0.50    0.60
  -8   0   3   -0.30    0.40
   8   0  -3    0.60    0.60
   8   0  -3    0.10    0.50
   8   0  -3   -0.10    0.60
  -8   1   3    0.20    0.50
   8  -1  -3    0.00    0.60
   8  -1  -3    0.50    0.60
  -8   2   3   10.20    1.20
   8  -2  -3    6.20    1.60
   8  -2  -3    7.50    1.20
   8  -2  -3    9.30    1.20
  -8   3   3  205.08    5.30
   8  -3  -3  208.28    5.50
   8  -3  -3  202.68    5.80
   8  -3  -3  206.98    5.60
  -8   4   3   81.69    3.00
   8  -4  -3   79.99    3.20
   8  -4  -3   69.99    4.00
   8  -4  -3   79.39    3.50
   8  -5  -3   78.19    3.60
   8  -5  -3   76.19    3.30
  -7  -6   3   35.40    2.30
  -7  -6   3   34.80    2.40
   7   6  -3   34.20    2.50
   7   6  -3   36.90    2.30
  -7  -5   3   21.30    1.80
  -7  -5   3   23.60    1.80
   7   5  -3   22.60    2.00
   7   5  -3   21.90    1.80
  -7  -4   3   10.20    1.20
  -7  -4   3    9.70    1.30
   7   4  -3   10.20    1.30
  -7  -3   3  221.98    5.40
  -7  -3   3  220.88    5.60
   7   3  -3  221.08    5.70
  -7  -2   3  379.56    8.30
  -7  -2   3  389.76    8.10
   7   2  -3  396.26    7.80
   7   2  -3  384.86    8.40
  -7  -1   3   61.39    2.40
  -7  -1   3   65.49    2.30
   7   1  -3   60.59    2.20
   7   1  -3   61.69    2.50
  -7   0   3    0.20    0.40
   7   0  -3   -0.60    0.50
   7   0  -3    0.20    0.50
   7   0  -3    0.40    0.50
  -7   1   3   62.99    2.40
   7  -1  -3   59.59    2.10
   7  -1  -3   64.39    2.40
   7  -1  -3   64.39    2.50
   7  -1  -3   65.29    2.60
  -7   2   3  374.76    8.00
   7  -2  -3  396.26    8.20
   7  -2  -3  389.76    8.20
   7  -2  -3  384.26    8.50
  -7   3   3  226.18    5.40
   7  -3  -3  225.48    5.60
   7  -3  -3  220.38    5.50
   7  -3  -3  217.28    5.80
  -7   4   3   11.10    1.20
   7  -4  -3   14.10    1.60
   7  -4  -3    9.50    1.20
   7  -4  -3   10.00    1.20
   7  -5  -3   25.20    1.90
   7  -5  -3   23.70    1.90
   7  -5  -3   20.80    1.70
   7  -6  -3   33.80    2.30
   7  -6  -3   36.70    2.40
   7  -6  -3   32.30    2.50
   7  -6  -3   39.90    2.30
  -6  -6   3    2.60    0.90
  -6  -6   3    3.10    0.90
   6   6  -3    3.40    0.90
   6   6  -3    1.80    0.90
  -6  -5   3    3.20    0.80
  -6  -5   3    2.40    0.80
   6   5  -3    4.70    1.00
  -6  -4   3    0.50    0.50
  -6  -4   3    0.30    0.60
   6   4  -3    1.70    0.70
  -6  -3   3   97.19    3.00
  -6  -3   3   95.49    3.10
   6   3  -3   94.29    3.10
  -6  -2   3  506.15    9.80
  -6  -2   3  508.35   10.00
   6   2  -3  498.15   10.10
   6   2  -3  496.35   10.00
   6   2  -3  511.45    9.40
  -6  -1   3   42.50    1.70
  -6  -1   3   44.20    1.80
   6   1  -3   44.40    1.90
   6   1  -3   43.00    1.70
   6   1  -3   42.20    1.90
  -6   0   3    0.40    0.40
  -6   0   3    0.10    0.30
   6   0  -3   -0.50    0.30
   6   0  -3    0.20    0.40
   6   0  -3    0.50    0.50
  -6   1   3   43.00    1.70
   6  -1  -3   42.30    1.90
   6  -1  -3   42.40    1.90
   6  -1  -3   42.70    1.80
  -6   2   3  490.15    9.70
   6  -2  -3  520.85   10.20
   6  -2  -3  510.95   10.00
   6  -2  -3  525.45   10.10
  -6   3   3  100.19    2.90
   6  -3  -3   95.99    3.10
   6  -3  -3   99.39    3.30
   6  -3  -3   99.79    3.10
  -6   4   3    0.60    0.50
   6  -4  -3    0.70    0.60
   6  -4  -3    0.20    0.60
   6  -4  -3    0.60    0.60
   6  -5  -3    3.50    0.80
   6  -5  -3    2.50    0.90
   6  -5  -3    5.10    1.10
   6  -5  -3    3.70    0.90
   6  -6  -3    4.50    1.00
   6  -6  -3    1.70    0.90
   6  -6  -3    1.60    0.90
   6  -6  -3    3.40    1.00
  -5  -7   3   61.49    3.10
  -5  -7   3   59.39    3.00
   5   7  -3   57.99    3.10
   5   7  -3   54.49    2.80
  -5  -6   3   38.50    2.30
  -5  -6   3   35.90    2.10
   5   6  -3   38.90    2.20
  -5  -5   3    1.40    0.70
  -5  -5   3    1.40    0.60
   5   5  -3    2.20    0.70
  -5  -4   3  232.78    5.60
  -5  -4   3  231.68    5.50
   5   4  -3  228.48    5.60
  -5  -3   3  203.68    4.80
  -5  -3   3  206.88    4.90
   5   3  -3  206.88    4.20
   5   3  -3  205.48    5.00
  -5  -2   3    3.90    0.60
  -5  -2   3    4.10    0.70
   5   2  -3    3.90    0.70
   5   2  -3    3.70    0.60
   5   2  -3    4.40    0.60
  -5  -1   3  235.38    5.00
  -5  -1   3  223.48    4.90
   5   1  -3  239.28    5.10
   5   1  -3  229.78    5.10
   5   1  -3  224.88    4.80
  -5   0   3    0.40    0.30
  -5   0   3   -0.10    0.30
   5   0  -3    0.30    0.40
   5   0  -3   -0.10    0.30
   5   0  -3   -0.30    0.30
  -5   1   3  236.78    4.90
   5  -1  -3  225.18    5.00
   5  -1  -3  236.98    5.00
   5  -1  -3  230.48    5.10
  -5   2   3    5.30    0.60
   5  -2  -3    4.30    0.70
   5  -2  -3    5.60    0.70
   5  -2  -3    4.00    0.70
  -5   3   3  213.88    4.60
   5  -3  -3  204.78    5.00
   5  -3  -3  206.38    4.80
   5  -3  -3  212.08    4.90
  -5   4   3  233.78    5.00
   5  -4  -3  233.28    5.40
   5  -4  -3  226.38    5.60
   5  -4  -3  228.88    5.60
   5  -4  -3  238.08    5.40
   5  -5  -3    0.30    0.70
   5  -5  -3    0.10    0.60
   5  -5  -3   -0.30    0.60
   5  -5  -3    1.10    0.60
   5  -6  -3   39.90    2.40
   5  -6  -3   39.40    2.20
   5  -6  -3   41.30    2.30
   5  -6  -3   38.60    2.00
   5  -7  -3   58.59    2.80
   5  -7  -3   59.69    3.00
   5  -7  -3   60.59    3.20
  -4  -7   3  112.29    4.20
  -4  -7   3  110.19    3.90
   4   7  -3  114.79    3.90
  -4  -6   3  122.59    3.90
  -4  -6   3  125.29    4.10
   4   6  -3  121.19    3.90
  -4  -5   3  113.79    3.60
  -4  -5   3  101.29    3.30
   4   5  -3  109.39    3.50
  -4  -4   3  269.07    6.00
  -4  -4   3  266.27    5.90
   4   4  -3  253.77    6.00
  -4  -3   3   14.60    1.00
  -4  -3   3   16.30    1.10
   4   3  -3   15.60    1.10
   4   3  -3   15.60    1.20
   4   3  -3   15.30    0.80
  -4  -2   3   -0.10    0.20
  -4  -2   3    0.00    0.30
   4   2  -3    0.70    0.40
   4   2  -3    0.10    0.40
   4   2  -3    0.00    0.40
  -4  -1   3  186.58    4.00
  -4  -1   3  180.68    4.00
   4   1  -3  183.98    3.90
   4   1  -3  188.58    4.10
   4   1  -3  189.98    4.20
  -4   0   3    0.00    0.30
  -4   0   3    0.10    0.30
   4   0  -3    0.70    0.40
   4   0  -3    0.60    0.40
   4   0  -3    0.40    0.30
  -4   1   3  186.28    3.90
   4  -1  -3  187.08    4.00
   4  -1  -3  191.78    4.10
  -4   2   3    0.40    0.30
   4  -2  -3    0.30    0.30
   4  -2  -3    0.00    0.30
   4  -2  -3   -0.10    0.40
  -4   3   3   15.10    0.90
   4  -3  -3   14.60    1.00
   4  -3  -3   15.00    1.00
   4  -3  -3   16.10    1.00
  -4   4   3  265.47    5.30
   4  -4  -3  265.67    5.70
   4  -4  -3  267.57    5.80
   4  -4  -3  271.87    6.00
   4  -4  -3  265.97    6.10
   4  -5  -3  113.09    3.20
   4  -5  -3  107.29    3.20
   4  -5  -3  111.19    3.50
   4  -5  -3  109.79    3.60
   4  -6  -3  127.59    3.80
   4  -6  -3  128.89    4.20
   4  -6  -3  126.69    4.10
   4  -7  -3  112.59    4.10
   4  -7  -3  111.49    3.70
  -3  -7   3   80.09    3.20
  -3  -7   3   75.79    3.40
   3   7  -3   75.29    3.10
  -3  -6   3    0.50    0.60
  -3  -6   3    0.70    0.60
   3   6  -3    0.80    0.60
  -3  -5   3    1.30    0.70
  -3  -5   3    0.60    0.50
   3   5  -3   -0.30    0.50
  -3  -4   3    1.50    0.50
  -3  -4   3    0.80    0.50
   3   4  -3    0.40    0.50
  -3  -3   3  151.58    3.80
  -3  -3   3  155.38    3.70
   3   3  -3  153.98    3.30
   3   3  -3  161.88    3.80
   3   3  -3  154.78    3.80
  -3  -2   3 1434.36   24.10
  -3  -2   3 1410.06   24.10
   3   2  -3 1376.86   24.20
   3   2  -3 1424.66   24.20
   3   2  -3 1419.66   23.80
  -3  -1   3  138.49    3.10
  -3  -1   3  132.29    3.10
   3   1  -3  146.39    3.20
   3   1  -3  138.99    3.10
   3   1  -3  138.69    3.10
  -3   0   3   -0.30    0.20
  -3   0   3   -0.20    0.20
   3   0  -3   -0.30    0.30
   3   0  -3   -0.70    0.30
   3   0  -3   -0.60    0.20
  -3   1   3  142.79    2.80
   3  -1  -3  142.59    3.20
   3  -1  -3  140.09    3.00
   3  -1  -3  144.89    3.00
  -3   2   3 1452.05   24.10
   3  -2  -3 1437.56   24.40
   3  -2  -3 1447.96   24.40
   3  -2  -3 1462.15   24.70
  -3   3   3  162.38    3.10
   3  -3  -3  156.68    3.50
   3  -3  -3  159.28    3.70
   3  -3  -3  162.88    3.60
   3  -4  -3    1.20    0.40
   3  -4  -3    0.90    0.60
   3  -4  -3    1.30    0.50
   3  -4  -3    0.70    0.40
   3  -5  -3    0.80    0.60
   3  -5  -3    0.50    0.50
   3  -5  -3    0.00    0.60
   3  -5  -3    0.10    0.40
   3  -6  -3    0.60    0.60
   3  -6  -3   -0.40    0.60
   3  -6  -3    0.20    0.70
   3  -7  -3   76.09    3.30
   3  -7  -3   74.69    2.90
  -2  -7   3   59.39    3.00
  -2  -7   3   61.59    2.70
   2   7  -3   61.89    2.80
  -2  -6   3    1.30    0.60
  -2  -6   3    0.20    0.70
   2   6  -3    0.60    0.60
  -2  -5   3    5.50    0.90
  -2  -5   3    4.20    0.80
   2   5  -3    5.50    0.90
  -2  -4   3  243.18    5.70
  -2  -4   3  246.78    5.40
   2   4  -3  263.07    5.70
   2   4  -3  250.07    5.70
  -2  -3   3    0.80    0.40
  -2  -3   3    0.60    0.30
   2   3  -3    0.50    0.50
   2   3  -3    1.10    0.50
  -2  -2   3 1714.83   30.30
  -2  -2   3 1686.63   28.80
   2   2  -3 1717.53   28.90
   2   2  -3 1700.73   28.80
  -2  -1   3 3373.76   57.09
  -2  -1   3 3301.57   58.59
   2   1  -3 3244.28   54.79
   2   1  -3 3352.46   54.79
  -2   0   3    0.10    0.20
  -2   0   3   -0.10    0.20
   2   0  -3   -0.10    0.20
   2   0  -3    0.00    0.20
   2   0  -3    0.00    0.30
   2  -1  -3 3485.65   57.59
   2  -1  -3 3392.76   58.09
   2  -1  -3 3415.06   57.59
  -2   2   3 1710.93   28.90
   2  -2  -3 1720.13   28.80
   2  -2  -3 1733.83   29.70
   2  -2  -3 1750.02   29.10
  -2   3   3    0.20    0.20
   2  -3  -3    0.60    0.30
   2  -3  -3    0.80    0.50
   2  -3  -3    0.80    0.30
   2  -3  -3    0.60    0.30
  -2   4   3  260.27    5.00
   2  -4  -3  258.07    5.20
   2  -4  -3  248.28    5.70
   2  -4  -3  244.58    5.10
   2  -4  -3  244.88    5.10
   2  -5  -3    4.30    0.70
   2  -5  -3    4.10    0.80
   2  -5  -3    5.50    0.70
   2  -6  -3    1.30    0.70
   2  -6  -3    0.50    0.60
   2  -7  -3   61.89    2.90
  -1  -7   3   11.70    1.40
  -1  -7   3   14.20    1.70
   1   7  -3   15.30    1.60
  -1  -6   3   16.10    1.60
  -1  -6   3   18.80    1.50
   1   6  -3   19.40    1.60
  -1  -5   3  784.52   14.30
  -1  -5   3  769.02   14.80
   1   5  -3  776.82   14.70
  -1  -4   3   36.70    1.50
  -1  -4   3   33.80    1.70
   1   4  -3   37.50    1.80
   1   4  -3   39.70    1.80
  -1  -3   3  278.67    5.90
  -1  -3   3  279.37    5.60
   1   3  -3  281.27    5.90
   1   3  -3  284.57    5.80
  -1  -2   3    3.40    0.40
  -1  -2   3    3.40    0.50
   1   2  -3    3.30    0.50
   1   2  -3    4.30    0.60
  -1  -1   3    1.10    0.30
  -1  -1   3    0.90    0.30
   1   1  -3    0.90    0.30
   1   1  -3    0.40    0.30
  -1   0   3   -1.60    0.10
  -1   0   3   -1.40    0.10
   1   0  -3   -1.60    0.20
   1   0  -3   -1.40    0.20
  -1   1   3    0.80    0.30
   1  -1  -3    1.10    0.20
   1  -1  -3    0.90    0.40
  -1   2   3    3.60    0.50
   1  -2  -3    3.90    0.50
  -1   3   3  289.37    5.70
   1  -3  -3  273.87    5.90
   1  -3  -3  288.57    5.20
   1  -3  -3  286.27    5.40
   1  -3  -3  284.77    5.20
  -1   4   3   38.70    1.50
   1  -4  -3   37.30    1.30
   1  -4  -3   39.30    1.30
   1  -4  -3   36.50    1.40
   1  -4  -3   36.60    1.70
  -1   5   3  773.02   14.10
   1  -5  -3  788.72   14.70
   1  -5  -3  776.42   14.20
   1  -6  -3   17.90    1.50
   1  -7  -3   12.70    1.50
   0  -7   3   13.40    1.70
   0  -7   3    9.50    1.20
   0   7  -3   10.20    1.30
   0  -6   3    9.60    1.30
   0  -6   3    9.50    1.10
   0   6  -3    9.80    1.30
   0  -5   3  221.98    5.80
   0  -5   3  233.68    5.20
   0   5  -3  241.28    5.80
   0  -4   3  653.33   11.70
   0  -4   3  645.74   12.30
   0   4  -3  621.94   12.20
   0   4  -3  642.44   12.10
   0  -3   3   17.50    1.10
   0  -3   3   16.10    0.90
   0   3  -3   14.40    1.10
   0   3  -3   14.90    1.10
   0  -2   3  445.86    8.30
   0  -2   3  440.36    7.80
   0   2  -3  445.46    8.30
   0   2  -3  428.26    8.20
   0  -1   3  440.56    7.80
   0  -1   3  442.76    7.50
   0   1  -3  426.56    7.80
   0   1  -3  429.96    7.80
   0   1  -3  428.06    7.70
   0   0   3    0.10    0.30
   0   0  -3    0.20    0.20
   0   0  -3   -0.30    0.20
   0   0  -3    0.20    0.20
   0   1   3  431.76    8.00
   0   2   3  461.55    8.50
   0  -2  -3  463.35    8.30
   0  -2  -3  423.46    7.50
   0   3   3   19.50    1.10
   0  -3  -3   15.10    0.70
   0  -3  -3   16.40    1.10
   0  -3  -3   18.10    0.80
   0   4   3  639.84   11.80
   0  -4  -3  624.54   11.00
   0  -4  -3  648.44   11.90
   0  -4  -3  613.14   11.10
   0   5   3  231.38    5.40
   0  -5  -3  237.98    5.60
   0  -6  -3    7.70    1.10
   0  -7  -3   11.80    1.50
   1  -7   3   20.00    1.60
   1  -7   3   20.90    2.00
  -1   7  -3   18.80    1.80
   1  -6   3    0.90    0.70
   1  -6   3    0.60    0.50
  -1   6  -3    0.60    0.70
   1  -5   3    2.30    0.80
   1  -5   3    1.40    0.50
  -1   5  -3    1.70    0.70
   1  -4   3   10.90    1.20
   1  -4   3   10.80    0.80
   1  -4   3   12.00    1.30
   1  -4   3   13.30    1.00
  -1   4  -3   13.30    1.30
  -1   4  -3   10.80    1.10
   1  -3   3   26.80    1.30
   1  -3   3   25.80    1.30
   1  -3   3   27.80    1.00
   1  -3   3   24.60    1.40
  -1   3  -3   23.80    1.30
  -1   3  -3   26.60    1.40
   1  -2   3   10.60    0.80
   1  -2   3   12.20    0.50
   1  -2   3    9.70    0.80
   1  -2   3    9.70    0.80
  -1   2  -3   10.70    0.90
  -1   2  -3   11.40    0.90
   1  -1   3 1724.03   29.20
   1  -1   3 1744.43   29.00
   1  -1   3 1715.13   28.90
   1  -1   3 1729.03   29.00
  -1   1  -3 1722.83   29.00
   1   0   3   -3.00    0.20
   1   0   3   -2.60    0.40
  -1   0  -3   -3.20    0.20
  -1   0  -3   -3.10    0.20
  -1   0  -3   -2.60    0.30
   1   1   3 1752.52   30.30
  -1  -1  -3 1804.62   29.70
  -1  -1  -3 1830.22   29.60
  -1  -1  -3 1754.32   30.10
   1   2   3    8.90    0.80
  -1  -2  -3   10.20    0.70
  -1  -2  -3    9.40    0.50
  -1  -2  -3   10.00    0.50
   1   3   3   25.90    1.40
  -1  -3  -3   26.50    1.30
  -1  -3  -3   24.10    0.90
  -1  -3  -3   26.30    1.00
  -1  -3  -3   24.70    0.90
   1   4   3   12.70    1.10
  -1  -4  -3   11.40    0.80
  -1  -4  -3   13.70    1.10
  -1  -4  -3   12.50    0.80
   1   5   3    1.40    0.60
  -1  -5  -3    0.70    0.60
   1   6   3    1.20    0.60
  -1  -6  -3    0.50    0.70
  -1  -7  -3   23.90    1.90
   2  -7   3   27.80    2.30
  -2   7  -3   22.80    2.00
   2  -6   3    7.70    1.30
   2  -6   3    9.40    1.10
  -2   6  -3   10.60    1.40
   2  -5   3  375.26    7.90
   2  -5   3  375.26    8.50
  -2   5  -3  372.46    8.30
   2  -4   3  453.45    9.60
   2  -4   3  457.95    8.60
   2  -4   3  468.35    9.20
  -2   4  -3  464.65    9.40
  -2   4  -3  470.85    9.60
   2  -3   3  121.69    3.20
   2  -3   3  118.09    2.60
   2  -3   3  114.69    3.40
  -2   3  -3  121.89    3.30
  -2   3  -3  118.49    3.40
   2  -2   3  319.87    6.40
   2  -2   3  316.77    6.50
   2  -2   3  316.97    6.50
   2  -2   3  318.07    5.50
  -2   2  -3  323.07    6.50
   2  -1   3   42.20    1.60
   2  -1   3   40.10    1.60
   2  -1   3   42.50    1.40
  -2   1  -3   40.90    1.50
  -2   1  -3   41.60    1.50
   2   0   3   -0.40    0.30
   2   0   3    0.20    0.20
   2   0   3    0.10    0.30
  -2   0  -3    0.20    0.30
  -2   0  -3    0.00    0.30
   2   1   3   40.30    1.70
  -2  -1  -3   41.50    1.30
  -2  -1  -3   49.40    1.30
  -2  -1  -3   39.70    1.10
   2   2   3  320.87    6.80
  -2  -2  -3  322.97    5.90
  -2  -2  -3  322.87    6.00
  -2  -2  -3  308.17    5.80
   2   3   3  119.49    3.40
  -2  -3  -3  118.89    2.70
  -2  -3  -3  120.29    3.00
  -2  -3  -3  111.49    2.60
   2   4   3  463.95    9.70
  -2  -4  -3  482.65    9.30
   2   5   3  375.56    8.40
  -2  -5  -3  381.96    8.10
   2   6   3    7.50    1.20
  -2  -6  -3    7.20    1.10
  -2  -7  -3   22.20    1.90
   3  -6   3    5.70    1.20
   3  -6   3    5.10    1.00
  -3   6  -3    7.10    1.20
   3  -5   3  288.27    7.10
   3  -5   3  282.97    6.60
  -3   5  -3  282.67    7.00
   3  -4   3    0.40    0.50
   3  -4   3    0.00    0.60
  -3   4  -3    0.70    0.60
   3  -3   3   40.70    2.00
   3  -3   3   41.50    1.80
  -3   3  -3   40.90    1.90
  -3   3  -3   42.00    1.90
   3  -2   3   46.20    1.70
   3  -2   3   45.30    1.90
   3  -2   3   45.50    1.80
  -3   2  -3   42.30    1.80
   3  -1   3   82.09    2.50
   3  -1   3   81.29    2.50
   3  -1   3   81.79    2.40
  -3   1  -3   80.49    2.40
   3   0   3    0.10    0.30
   3   0   3    0.10    0.40
   3   0   3    0.20    0.40
  -3   0  -3    0.50    0.40
   3   1   3   79.99    1.90
   3   1   3   84.29    2.70
  -3  -1  -3   81.89    1.80
  -3  -1  -3   84.79    2.20
  -3  -1  -3   82.29    2.20
   3   2   3   45.80    2.00
  -3  -2  -3   46.70    1.50
  -3  -2  -3   46.50    1.50
  -3  -2  -3   44.50    1.40
   3   3   3   39.50    2.00
  -3  -3  -3   41.60    1.60
  -3  -3  -3   41.20    1.50
   3   4   3    0.50    0.60
  -3  -4  -3    0.00    0.50
   3   5   3  286.87    7.10
  -3  -5  -3  277.97    6.40
   3   6   3    8.20    1.30
  -3  -6  -3    6.60    1.10
   3   7   3   24.40    2.10
  -3  -7  -3   25.30    2.00
   4  -6   3    3.10    1.00
   4  -6   3    3.00    0.90
  -4   6  -3    5.30    1.20
   4  -5   3    3.40    1.00
   4  -5   3    4.30    0.90
  -4   5  -3    3.50    1.00
   4  -4   3  126.09    3.90
   4  -4   3  126.69    4.10
  -4   4  -3  128.79    4.10
   4  -3   3   -0.10    0.50
   4  -3   3    1.00    0.60
  -4   3  -3    0.50    0.50
   4  -2   3  527.95   10.40
   4  -2   3  533.85   10.10
   4  -2   3  529.25   10.40
  -4   2  -3  515.75   10.40
   4  -1   3  580.74   11.20
   4  -1   3  580.44   11.00
   4  -1   3  585.74   11.10
  -4   1  -3  586.24   11.10
   4   0   3    0.10    0.40
   4   0   3    0.00    0.40
   4   0   3    0.20    0.40
  -4   0  -3   -0.10    0.40
   4   1   3  574.54   10.50
   4   1   3  589.54   10.90
   4   1   3  591.34   11.50
  -4  -1  -3  585.04   10.80
   4   2   3  537.85   10.80
  -4  -2  -3  527.75   10.00
  -4  -2  -3  528.75    9.60
   4   3   3    0.00    0.50
  -4  -3  -3    0.40    0.40
  -4  -3  -3    0.60    0.50
   4   4   3  136.09    4.30
  -4  -4  -3  128.19    3.50
   4   5   3    3.70    1.00
  -4  -5  -3    5.70    0.90
   4   6   3    3.80    1.10
  -4  -6  -3    2.50    0.90
   5  -5   3   14.00    1.70
   5  -5   3   15.30    1.60
  -5   5  -3   18.70    1.90
   5  -4   3   18.80    1.60
   5  -4   3   18.20    1.80
  -5   4  -3   19.10    1.70
   5  -3   3   60.59    2.60
   5  -3   3   60.69    2.70
  -5   3  -3   58.99    2.60
   5  -2   3  119.09    3.70
   5  -2   3  122.79    3.40
   5  -2   3  114.99    3.60
  -5   2  -3  120.99    3.70
   5  -1   3    0.90    0.60
   5  -1   3    1.30    0.60
   5  -1   3    1.00    0.60
  -5   1  -3    0.80    0.50
   5   0   3   -0.30    0.40
   5   0   3   -0.10    0.50
   5   0   3   -0.20    0.40
  -5   0  -3    0.00    0.40
   5   1   3    0.60    0.60
   5   1   3    0.70    0.50
  -5  -1  -3    1.40    0.50
   5   2   3  111.79    3.80
  -5  -2  -3  119.89    3.30
   5   3   3   61.59    2.90
  -5  -3  -3   62.29    2.30
   5   4   3   16.30    1.80
   5   5   3   17.50    2.00
   6  -5   3   36.40    2.60
   6  -5   3   36.70    2.40
  -6   5  -3   35.60    2.70
   6  -4   3  168.68    5.10
   6  -4   3  171.58    5.30
  -6   4  -3  153.18    5.00
   6  -3   3    7.20    1.20
   6  -3   3    6.60    1.20
  -6   3  -3    6.60    1.10
   6  -2   3   12.50    1.40
   6  -2   3   11.70    1.30
  -6   2  -3   10.60    1.30
   6  -1   3   11.10    1.20
   6  -1   3    9.20    1.10
   6  -1   3    9.50    1.20
  -6   1  -3   11.60    1.30
   6   0   3   -0.50    0.50
   6   0   3   -0.50    0.40
   6   0   3    0.60    0.50
  -6   0  -3   -0.30    0.50
   6   1   3    8.30    1.00
   6   1   3    9.70    1.30
  -6  -1  -3   11.50    1.20
   6   2   3   14.20    1.60
  -6  -2  -3   12.90    1.30
   6   3   3    7.30    1.30
  -6  -3  -3    7.20    1.00
   6   4   3  169.38    5.50
   6   5   3   33.80    2.80
   7  -3   3   36.50    2.40
   7  -3   3   36.80    2.30
  -7   3  -3   36.70    2.30
   7  -2   3   21.30    1.80
   7  -2   3   18.20    1.80
  -7   2  -3   19.50    1.80
   7  -1   3   79.99    3.20
   7  -1   3   78.89    3.10
  -7   1  -3   82.79    3.20
   7   0   3   -0.30    0.60
   7   0   3   -0.10    0.60
  -7   0  -3    0.10    0.60
   7   1   3   84.29    3.00
   7   1   3   81.69    3.40
  -7  -1  -3   82.49    3.20
   7   2   3   18.80    1.90
  -7  -2  -3   19.40    1.60
   7   3   3   37.90    2.60
   8  -1   3    0.10    0.70
  -8   1  -3    0.10    0.70
   8   0   3    0.30    0.70
  -8   0  -3    1.90    0.90
   8   1   3    0.90    0.90
  -8  -1  -3   -0.30    0.70
 -10  -2   4   43.50    2.40
 -10  -2   4   39.00    2.40
  10   2  -4   50.29    2.90
  10   2  -4   44.60    2.60
 -10  -1   4   61.09    2.90
  10   1  -4   61.89    2.70
  10   1  -4   68.79    3.30
 -10   0   4   74.29    3.10
  10   0  -4   72.39    3.10
  10   0  -4   78.59    3.50
 -10   1   4   60.99    2.80
  10  -1  -4   62.19    3.20
  10  -1  -4   56.39    2.80
 -10   2   4   41.50    2.40
  10  -2  -4   45.80    2.80
  10  -2  -4   47.20    2.60
  -9  -4   4  411.16    9.70
  -9  -4   4  426.76    9.50
   9   4  -4  423.96   10.20
   9   4  -4  417.26    9.80
  -9  -3   4   89.09    3.40
  -9  -3   4   89.89    3.50
   9   3  -4   82.89    3.60
   9   3  -4   89.59    3.60
  -9  -2   4    0.20    0.50
  -9  -2   4    0.50    0.60
   9   2  -4    0.40    0.70
   9   2  -4    0.50    0.70
  -9  -1   4   78.39    2.90
  -9  -1   4   74.59    3.00
   9   1  -4   76.49    3.10
   9   1  -4   74.79    2.80
   9   1  -4   75.79    3.30
  -9   0   4   13.70    1.40
   9   0  -4   18.20    1.70
   9   0  -4   15.60    1.70
  -9   1   4   78.69    3.00
   9  -1  -4   77.69    3.30
   9  -1  -4   73.99    3.00
  -9   2   4   -0.20    0.50
   9  -2  -4    0.10    0.70
   9  -2  -4    0.10    0.70
  -9   3   4   82.99    3.10
   9  -3  -4   85.69    3.70
   9  -3  -4   92.99    3.60
   9  -4  -4  424.26   10.20
   9  -4  -4  420.96    9.70
  -8  -5   4   25.20    2.10
  -8  -5   4   28.90    2.10
   8   5  -4   23.90    2.10
  -8  -4   4  153.78    4.60
  -8  -4   4  153.38    4.80
   8   4  -4  149.88    4.80
  -8  -3   4   15.60    1.60
  -8  -3   4   17.20    1.50
   8   3  -4   15.60    1.60
  -8  -2   4  324.67    7.20
  -8  -2   4  311.27    7.30
   8   2  -4  315.47    6.80
   8   2  -4  322.27    7.60
  -8  -1   4  167.68    4.60
  -8  -1   4  170.28    4.60
   8   1  -4  168.28    4.40
   8   1  -4  166.88    4.80
  -8   0   4    0.20    0.40
   8   0  -4    0.10    0.80
   8   0  -4   -0.50    0.60
   8   0  -4    0.20    0.60
  -8   1   4  172.18    4.50
   8  -1  -4  172.88    4.70
   8  -1  -4  173.58    4.80
   8  -1  -4  163.18    4.90
  -8   2   4  317.07    7.10
   8  -2  -4  314.77    7.40
   8  -2  -4  327.77    7.40
   8  -2  -4  325.17    7.70
  -8   3   4   15.80    1.30
   8  -3  -4   15.20    1.60
   8  -3  -4   14.40    1.50
   8  -3  -4   19.60    1.80
   8  -4  -4  151.38    4.70
   8  -4  -4  155.28    5.00
   8  -4  -4  157.58    4.70
   8  -5  -4   22.00    1.90
   8  -5  -4   21.60    2.00
   8  -5  -4   23.80    1.90
   8  -5  -4   22.60    2.10
  -7  -5   4    1.30    0.70
  -7  -5   4    0.60    0.70
   7   5  -4    1.80    0.80
  -7  -4   4    5.00    1.00
  -7  -4   4    5.60    1.00
   7   4  -4    3.60    0.90
  -7  -3   4    4.90    0.90
  -7  -3   4    9.90    1.10
   7   3  -4    4.70    0.90
  -7  -2   4  222.98    5.30
  -7  -2   4  217.48    5.40
   7   2  -4  218.88    4.90
   7   2  -4  211.88    5.50
  -7  -1   4  877.81   16.30
  -7  -1   4  911.11   16.30
   7   1  -4  870.61   16.40
   7   1  -4  880.51   16.00
   7   1  -4  876.31   16.60
  -7   0   4    2.70    0.60
   7   0  -4    2.90    0.80
   7   0  -4    2.40    0.60
   7   0  -4    2.80    0.70
  -7   1   4  913.91   16.50
   7  -1  -4  923.71   16.70
   7  -1  -4  883.61   16.60
   7  -1  -4  897.41   16.90
  -7   2   4  220.78    5.10
   7  -2  -4  215.78    5.30
   7  -2  -4  215.38    5.40
   7  -2  -4  212.98    5.50
  -7   3   4    8.00    0.90
   7  -3  -4    8.20    1.10
   7  -3  -4    8.00    1.20
   7  -3  -4    8.30    1.20
   7  -4  -4    3.60    0.90
   7  -4  -4    6.80    1.10
   7  -4  -4    4.40    1.00
   7  -5  -4    1.40    0.90
   7  -5  -4    1.60    0.90
   7  -5  -4    4.10    1.00
   7  -5  -4    2.10    0.80
   7  -6  -4    8.20    1.40
  -6  -6   4   22.80    1.90
  -6  -6   4   23.40    1.90
   6   6  -4   22.90    2.00
  -6  -5   4  102.49    3.60
  -6  -5   4   99.29    3.40
   6   5  -4   96.79    3.60
  -6  -4   4   74.39    2.80
  -6  -4   4   73.29    2.90
   6   4  -4   76.09    3.00
  -6  -3   4   15.00    1.20
  -6  -3   4   17.40    1.30
   6   3  -4   14.30    1.30
   6   3  -4   15.70    1.40
  -6  -2   4   75.99    2.50
  -6  -2   4   66.39    2.50
   6   2  -4   80.89    2.80
   6   2  -4   80.69    2.40
   6   2  -4   75.89    2.70
  -6  -1   4  166.88    4.10
  -6  -1   4  172.18    4.20
   6   1  -4  171.48    4.10
   6   1  -4  170.08    4.30
  -6   0   4  182.38    4.40
  -6   0   4  180.78    4.20
   6   0  -4  173.08    4.40
   6   0  -4  182.78    4.40
   6   0  -4  179.08    4.40
  -6   1   4  169.98    4.00
   6  -1  -4  170.98    4.30
   6  -1  -4  169.68    4.30
   6  -1  -4  171.18    4.20
  -6   2   4   80.29    2.40
   6  -2  -4   82.49    2.60
   6  -2  -4   82.79    2.80
   6  -2  -4   81.49    2.70
  -6   3   4   16.10    1.10
   6  -3  -4   15.60    1.30
   6  -3  -4   16.90    1.40
   6  -3  -4   18.90    1.40
   6  -4  -4   74.79    2.70
   6  -4  -4   76.19    2.80
   6  -4  -4   80.79    3.00
   6  -5  -4   96.19    3.60
   6  -5  -4   99.29    3.30
   6  -5  -4   92.89    3.20
   6  -5  -4  101.39    3.60
   6  -6  -4   21.80    2.00
   6  -6  -4   25.40    2.20
   6  -6  -4   24.40    1.80
   6  -6  -4   22.20    1.70
  -5  -6   4   19.20    1.70
  -5  -6   4   21.40    1.80
   5   6  -4   20.90    1.80
  -5  -5   4  215.58    5.60
  -5  -5   4  225.68    5.80
   5   5  -4  232.98    5.90
  -5  -4   4    0.80    0.50
  -5  -4   4    0.60    0.50
   5   4  -4    1.70    0.70
  -5  -3   4    3.70    0.70
  -5  -3   4    3.60    0.60
   5   3  -4    3.10    0.70
   5   3  -4    5.10    0.90
   5   3  -4    4.70    0.60
  -5  -2   4   64.49    2.20
  -5  -2   4   60.99    2.10
   5   2  -4   61.39    2.00
   5   2  -4   64.69    2.40
   5   2  -4   63.49    2.30
  -5  -1   4    1.80    0.50
  -5  -1   4    3.70    0.60
   5   1  -4    2.50    0.60
   5   1  -4    2.20    0.60
   5   1  -4    2.60    0.60
  -5   0   4    1.40    0.40
  -5   0   4    3.30    0.50
   5   0  -4    1.40    0.50
   5   0  -4    1.10    0.40
   5   0  -4    1.40    0.50
  -5   1   4    2.10    0.40
   5  -1  -4    2.10    0.50
   5  -1  -4    1.30    0.40
   5  -1  -4    2.10    0.50
  -5   2   4   64.99    1.90
   5  -2  -4   62.89    2.20
   5  -2  -4   65.69    2.20
   5  -2  -4   64.49    2.10
  -5   3   4    5.60    0.60
   5  -3  -4    3.70    0.70
   5  -3  -4    5.00    0.70
   5  -3  -4    5.00    0.80
   5  -4  -4    1.40    0.60
   5  -4  -4    2.40    0.60
   5  -4  -4    1.00    0.50
   5  -5  -4  223.88    5.50
   5  -5  -4  226.98    6.00
   5  -5  -4  234.88    5.60
   5  -5  -4  232.38    5.80
   5  -6  -4   21.40    1.60
   5  -6  -4   22.00    1.90
  -4  -7   4  116.89    4.30
  -4  -7   4  109.19    3.90
   4   7  -4  110.69    4.10
  -4  -6   4   40.00    2.30
  -4  -6   4   44.40    2.30
   4   6  -4   37.30    2.30
  -4  -5   4   86.89    3.20
  -4  -5   4   92.49    3.10
   4   5  -4   83.49    3.10
  -4  -4   4   21.40    1.40
  -4  -4   4   21.00    1.50
   4   4  -4   21.00    1.50
  -4  -3   4    0.40    0.40
  -4  -3   4    0.90    0.40
   4   3  -4    0.20    0.50
   4   3  -4    0.60    0.50
   4   3  -4    0.50    0.40
  -4  -2   4   91.19    2.60
  -4  -2   4   93.39    2.70
   4   2  -4   97.79    2.80
   4   2  -4   98.99    2.80
   4   2  -4   96.39    2.60
  -4  -1   4 1171.98   20.80
  -4  -1   4 1203.58   20.60
   4   1  -4 1202.58   20.80
   4   1  -4 1226.08   20.80
   4   1  -4 1199.28   20.90
  -4   0   4  157.78    3.70
  -4   0   4  164.58    3.40
   4   0  -4  159.48    3.60
   4   0  -4  154.98    3.70
   4   0  -4  165.48    3.70
  -4   1   4 1212.58   20.60
   4  -1  -4 1245.58   21.20
   4  -1  -4 1229.58   21.00
   4  -1  -4 1197.58   20.90
  -4   2   4   96.09    2.10
   4  -2  -4   97.59    2.50
   4  -2  -4   92.29    2.40
   4  -2  -4   94.89    2.70
   4  -3  -4    1.10    0.40
   4  -3  -4    1.10    0.40
   4  -3  -4    0.70    0.50
   4  -4  -4   20.00    1.20
   4  -4  -4   21.40    1.30
   4  -4  -4   21.00    1.60
   4  -4  -4   20.40    1.30
   4  -5  -4   84.29    3.20
   4  -5  -4   89.99    2.80
   4  -5  -4   88.79    2.80
   4  -5  -4   89.59    3.10
   4  -6  -4   36.10    2.30
   4  -6  -4   41.70    2.00
   4  -7  -4  111.29    3.60
   4  -7  -4  115.59    4.30
  -3  -7   4    5.50    1.20
  -3  -7   4    5.30    1.10
   3   7  -4    6.80    1.20
  -3  -6   4   47.60    2.50
  -3  -6   4   46.80    2.30
   3   6  -4   51.39    2.50
  -3  -5   4   10.20    1.10
  -3  -5   4   10.60    1.30
   3   5  -4   10.00    1.20
  -3  -4   4   22.30    1.30
  -3  -4   4   19.20    1.40
   3   4  -4   20.20    1.40
   3   4  -4   20.20    1.50
   3   4  -4   21.20    1.10
  -3  -3   4    0.30    0.40
  -3  -3   4    0.40    0.40
   3   3  -4    0.30    0.50
   3   3  -4   -0.30    0.50
   3   3  -4    0.70    0.40
  -3  -2   4 1685.23   28.80
  -3  -2   4 1755.42   29.60
   3   2  -4 1697.53   28.90
   3   2  -4 1661.13   28.70
   3   2  -4 1675.73   29.00
  -3  -1   4 3541.45   61.09
  -3  -1   4 3540.55   62.79
   3   1  -4 3513.55   58.29
   3   1  -4 3460.25   58.19
   3   1  -4 3519.65   58.19
  -3   0   4   47.80    1.30
  -3   0   4   43.80    1.50
   3   0  -4   46.00    1.40
   3   0  -4   46.30    1.50
   3   0  -4   43.90    1.60
  -3   1   4 3671.13   61.39
  -3   1   4 3987.90   61.19
   3  -1  -4 3701.33   61.79
   3  -1  -4 3599.74   61.59
   3  -1  -4 3600.84   63.39
   3  -2  -4 1732.43   28.50
   3  -2  -4 1691.03   28.70
   3  -2  -4 1687.23   29.00
   3  -3  -4   -0.20    0.30
   3  -3  -4    0.00    0.30
   3  -3  -4   -0.10    0.30
   3  -4  -4   20.60    1.20
   3  -4  -4   20.70    1.50
   3  -4  -4   19.50    1.10
   3  -4  -4   20.90    1.20
   3  -5  -4   10.60    1.00
   3  -5  -4   10.60    1.00
   3  -5  -4   10.60    1.30
   3  -6  -4   48.70    2.00
   3  -6  -4   49.80    2.50
   3  -7  -4    3.80    1.10
   3  -7  -4    5.40    1.00
  -2  -7   4  124.29    4.50
  -2  -7   4  128.19    4.10
   2   7  -4  126.69    4.30
  -2  -6   4   18.00    1.40
  -2  -6   4   18.60    1.70
   2   6  -4   20.90    1.70
  -2  -5   4    5.20    1.00
  -2  -5   4    4.80    0.80
   2   5  -4    4.70    1.00
  -2  -4   4  999.40   17.80
  -2  -4   4 1007.10   18.20
   2   4  -4 1002.90   18.10
   2   4  -4  997.20   18.30
  -2  -3   4   25.00    1.30
  -2  -3   4   24.50    1.20
   2   3  -4   25.40    1.40
   2   3  -4   24.90    1.40
  -2  -2   4  438.46    8.40
  -2  -2   4  456.05    8.30
   2   2  -4  449.95    8.50
   2   2  -4  449.46    8.60
  -2  -1   4  146.89    3.20
  -2  -1   4  148.79    3.10
   2   1  -4  146.89    3.30
   2   1  -4  150.98    3.30
  -2   0   4  227.78    4.00
   2   0  -4  225.98    4.70
   2   0  -4  225.48    4.40
   2   0  -4  226.98    4.30
   2  -1  -4  153.98    2.90
   2  -1  -4  149.88    2.90
   2  -1  -4  150.78    3.50
  -2   2   4  462.85    8.70
   2  -2  -4  475.65    8.10
   2  -2  -4  465.75    8.80
   2  -2  -4  478.45    8.10
  -2   3   4   24.90    1.20
   2  -3  -4   24.00    1.20
   2  -3  -4   25.00    0.90
   2  -3  -4   24.60    0.90
  -2   4   4 1017.20   17.70
   2  -4  -4  996.60   17.60
   2  -4  -4 1005.50   18.30
   2  -4  -4 1013.20   17.30
   2  -5  -4    5.50    0.70
   2  -5  -4    4.80    0.90
   2  -6  -4   15.30    1.60
   2  -6  -4   20.90    1.30
   2  -7  -4  137.39    4.60
  -1  -7   4  106.89    4.10
  -1  -7   4  110.99    3.70
   1   7  -4  103.59    3.90
  -1  -6   4    5.60    1.10
  -1  -6   4    8.30    1.10
   1   6  -4    8.90    1.30
  -1  -5   4  112.69    3.20
  -1  -5   4  115.79    3.70
   1   5  -4  116.59    3.70
  -1  -4   4  947.21   16.80
  -1  -4   4  934.61   17.40
   1   4  -4  956.70   17.40
   1   4  -4  980.50   17.60
  -1  -3   4  272.47    5.80
  -1  -3   4  264.47    5.40
   1   3  -4  269.47    5.90
   1   3  -4  267.37    5.70
  -1  -2   4    9.20    0.60
  -1  -2   4    8.40    0.70
   1   2  -4    9.50    0.90
   1   2  -4    7.20    1.00
   1   2  -4    7.10    0.70
  -1  -1   4  807.42   13.80
  -1  -1   4  812.12   13.90
   1   1  -4  802.72   14.00
   1   1  -4  806.02   14.10
   1   1  -4  816.82   14.00
   1   0  -4   15.60    0.70
   1   0  -4   16.30    0.70
  -1   1   4  836.82   14.90
   1  -1  -4  845.72   14.00
  -1   2   4    8.00    0.80
   1  -2  -4    9.60    0.70
  -1   3   4  272.17    5.80
   1  -3  -4  285.37    4.90
   1  -3  -4  267.57    5.90
   1  -3  -4  277.47    5.50
   1  -3  -4  281.97    4.90
  -1   4   4  945.41   17.20
   1  -4  -4  980.80   17.60
   1  -4  -4  973.70   16.80
  -1   5   4  122.19    3.40
   1  -5  -4  120.39    3.70
   1  -6  -4    8.10    1.20
   1  -7  -4  112.09    4.10
   0  -7   4    3.00    1.00
   0   7  -4    3.30    1.10
   0  -6   4   13.10    1.50
   0  -6   4   14.50    1.30
   0   6  -4   13.00    1.50
   0  -5   4    1.30    0.70
   0  -5   4    2.10    0.60
   0   5  -4    1.30    0.70
   0  -4   4   11.80    1.20
   0  -4   4   10.90    0.80
   0   4  -4   11.20    1.20
   0   4  -4    9.40    1.20
   0  -3   4  121.29    2.80
   0  -3   4  119.19    3.30
   0   3  -4  120.19    3.30
   0   3  -4  119.59    3.30
   0  -2   4  946.71   16.50
   0  -2   4  919.61   15.90
   0   2  -4  935.51   16.50
   0   2  -4  948.41   16.60
   0   2  -4  945.21   16.50
   0  -1   4  183.28    3.70
   0  -1   4  187.98    3.50
   0   1  -4  182.08    3.90
   0   1  -4  178.28    3.80
   0   1  -4  186.78    3.80
   0   0   4  622.24   11.40
   0   0  -4  626.44   10.70
   0   0  -4  617.94   10.70
   0   0  -4  611.74   10.70
   0   1   4  178.48    4.20
   0  -1  -4  182.38    3.20
   0   2   4  943.11   16.70
   0  -2  -4  925.01   16.30
   0   3   4  121.59    3.30
   0  -3  -4  123.39    2.40
   0  -3  -4  116.19    2.90
   0  -3  -4  122.09    3.20
   0   4   4   10.50    1.00
   0  -4  -4   13.00    1.20
   0  -4  -4   11.70    0.80
   0  -4  -4   12.60    0.70
   0   5   4    1.30    0.60
   0  -5  -4    1.80    0.70
   0  -6  -4   11.50    1.30
   0  -7  -4    3.20    0.90
   1  -7   4  130.69    4.70
  -1   7  -4  122.79    4.50
   1  -6   4  144.59    4.70
  -1   6  -4  141.69    4.60
   1  -5   4  344.67    8.10
  -1   5  -4  357.56    8.10
   1  -4   4  175.48    4.70
   1  -4   4  169.38    3.80
  -1   4  -4  176.38    4.60
  -1   4  -4  171.98    4.60
   1  -3   4   39.00    1.30
   1  -3   4   40.60    1.80
  -1   3  -4   41.20    1.80
  -1   3  -4   39.00    1.80
   1  -2   4  316.87    6.40
   1  -2   4  311.97    5.60
  -1   2  -4  310.77    6.50
  -1   2  -4  319.97    6.40
   1  -1   4   68.79    2.20
   1  -1   4   67.09    1.80
  -1   1  -4   70.19    2.00
  -1   1  -4   69.79    2.00
   1   0   4  124.79    3.30
  -1   0  -4  123.69    2.70
  -1   0  -4  123.69    2.70
   1   1   4   65.09    2.20
  -1  -1  -4   68.49    1.60
  -1  -1  -4   68.09    1.70
  -1  -1  -4   68.59    1.60
   1   2   4  311.77    6.70
  -1  -2  -4  314.87    5.50
  -1  -2  -4  308.97    5.50
  -1  -2  -4  303.97    6.00
   1   3   4   39.30    1.80
  -1  -3  -4   39.80    1.60
  -1  -3  -4   37.90    1.10
   1   4   4  168.38    4.50
  -1  -4  -4  168.58    3.50
  -1  -4  -4  168.78    4.20
   1   5   4  347.07    7.80
  -1  -5  -4  341.17    7.50
   1   6   4  145.69    4.40
  -1  -6  -4  139.49    4.30
  -1  -7  -4  128.39    4.40
   2  -6   4   95.29    3.80
  -2   6  -4  101.79    3.90
   2  -5   4  158.98    4.80
  -2   5  -4  157.48    4.70
   2  -4   4  405.86    8.80
  -2   4  -4  408.26    8.80
  -2   4  -4  410.76    8.70
   2  -3   4   96.49    3.10
   2  -3   4   96.19    3.00
  -2   3  -4   95.59    3.10
  -2   3  -4   94.49    3.00
   2  -2   4    1.80    0.60
   2  -2   4    1.40    0.50
  -2   2  -4    2.50    0.60
  -2   2  -4    2.10    0.60
   2  -1   4   86.99    2.70
   2  -1   4   85.59    2.30
  -2   1  -4   88.89    2.50
   2   0   4    1.50    0.30
   2   0   4    1.40    0.50
  -2   0  -4    1.30    0.40
  -2   0  -4    1.50    0.50
   2   1   4   86.99    2.80
  -2  -1  -4   90.29    2.20
  -2  -1  -4   90.89    2.10
  -2  -1  -4   85.49    1.90
   2   2   4    1.80    0.60
  -2  -2  -4    3.20    0.40
  -2  -2  -4    2.50    0.40
  -2  -2  -4    2.60    0.40
   2   3   4   92.29    3.10
  -2  -3  -4   91.29    2.20
  -2  -3  -4   93.79    2.60
   2   4   4  401.66    8.80
  -2  -4  -4  402.16    8.10
   2   5   4  155.38    4.70
  -2  -5  -4  166.18    4.40
   2   6   4   94.09    3.60
  -2  -6  -4   99.19    3.50
   3  -6   4   14.20    1.70
  -3   6  -4   18.40    1.90
   3  -5   4    2.20    0.80
   3  -5   4    3.00    1.00
  -3   5  -4    1.30    0.80
   3  -4   4    3.10    0.80
   3  -4   4    2.30    0.80
  -3   4  -4    2.50    0.80
   3  -3   4   85.19    2.90
   3  -3   4   86.99    3.00
  -3   3  -4   85.39    3.00
  -3   3  -4   85.59    2.90
   3  -2   4   11.00    1.10
   3  -2   4   13.60    1.10
   3  -2   4   10.80    1.20
  -3   2  -4   12.30    1.20
   3  -1   4  843.92   15.60
   3  -1   4  837.82   15.50
   3  -1   4  856.61   15.10
  -3   1  -4  847.02   15.30
   3   0   4 1704.33   29.50
   3   0   4 1714.63   28.40
  -3   0  -4 1660.23   28.80
   3   1   4  813.12   15.40
  -3  -1  -4  832.82   14.50
   3   2   4   13.00    1.30
  -3  -2  -4   10.70    0.80
  -3  -2  -4    8.10    0.80
   3   3   4   90.89    3.20
  -3  -3  -4   87.19    2.50
   3   4   4    3.10    0.90
  -3  -4  -4    2.60    0.70
   3   5   4    1.80    0.80
  -3  -5  -4    3.50    0.80
   3   6   4   15.10    1.70
  -3  -6  -4   13.50    1.40
   4  -5   4    3.00    0.90
   4  -5   4    3.50    1.00
  -4   5  -4    4.50    1.10
   4  -4   4    2.00    0.80
   4  -4   4    2.10    0.80
  -4   4  -4    2.00    0.90
   4  -3   4    3.30    0.80
   4  -3   4    4.90    0.90
  -4   3  -4    4.10    0.90
  -4   3  -4    5.60    1.00
   4  -2   4  105.19    3.40
   4  -2   4  108.99    3.30
   4  -2   4  107.89    3.30
  -4   2  -4  104.49    3.40
   4  -1   4  317.97    7.00
   4  -1   4  310.17    6.60
   4  -1   4  316.97    7.00
  -4   1  -4  315.17    6.80
   4   0   4  421.26    9.00
   4   0   4  456.95    9.30
  -4   0  -4  454.15    8.80
   4   1   4  318.07    7.30
  -4  -1  -4  316.27    6.60
   4   2   4  111.49    3.70
  -4  -2  -4  100.19    2.90
   4   3   4    5.30    1.10
   4   4   4    3.00    0.90
   4   5   4    4.50    1.10
   5  -5   4    7.10    1.30
   5  -5   4    5.70    1.20
  -5   5  -4    9.40    1.50
   5  -4   4    6.80    1.20
   5  -4   4    6.50    1.20
  -5   4  -4    6.10    1.20
   5  -3   4   48.80    2.40
   5  -3   4   44.30    2.30
  -5   3  -4   46.80    2.40
   5  -2   4   54.59    2.30
   5  -2   4   54.09    2.50
   5  -2   4   54.49    2.40
  -5   2  -4   53.29    2.50
   5  -1   4    4.00    0.80
   5  -1   4    4.20    0.90
   5  -1   4    3.90    0.90
  -5   1  -4    4.50    0.90
   5   0   4   14.10    1.40
   5   0   4   12.70    1.30
  -5   0  -4   13.10    1.20
   5   1   4    4.40    1.00
  -5  -1  -4    3.60    0.70
   5   2   4   55.49    2.70
   5   3   4   52.19    2.70
   5   4   4    8.50    1.40
   5   5   4    8.30    1.50
   6  -4   4   63.29    3.20
   6  -4   4   64.89    3.10
  -6   4  -4   54.89    3.00
   6  -3   4   38.60    2.30
   6  -3   4   38.50    2.30
  -6   3  -4   35.80    2.30
   6  -2   4   31.60    2.10
   6  -2   4   32.00    2.00
  -6   2  -4   31.40    2.10
   6  -1   4    2.10    0.80
   6  -1   4    0.60    0.70
  -6   1  -4    0.90    0.70
   6   0   4  139.59    4.40
   6   0   4  140.59    4.20
  -6   0  -4  137.09    4.10
   6   1   4    4.80    1.10
  -6  -1  -4    1.60    0.60
   6   2   4   37.60    2.40
   6   3   4   39.00    2.60
   6   4   4   56.79    3.20
   7  -2   4   78.89    3.40
  -7   2  -4   76.29    3.40
   7  -1   4   34.80    2.20
  -7   1  -4   34.80    2.30
   7   0   4  226.48    6.00
   7   0   4  217.88    6.10
  -7   0  -4  226.88    6.00
   7   1   4   37.60    2.40
  -7  -1  -4   34.50    2.20
   7   2   4   76.99    3.60
 -10  -2   5   27.30    2.00
 -10  -2   5   30.20    2.10
  10   2  -5   29.80    2.30
  10   2  -5   33.80    2.40
 -10  -1   5   -0.40    0.50
  10   1  -5    0.00    0.70
  10   1  -5    0.90    0.90
 -10   0   5    0.50    0.60
  10   0  -5   -0.20    0.70
  10   0  -5    0.00    0.70
 -10   1   5   -0.80    0.50
  10  -1  -5    0.20    0.80
  10  -1  -5    0.10    0.70
  10  -2  -5   30.40    2.40
  10  -2  -5   27.80    2.10
  -9  -4   5    1.60    0.80
  -9  -4   5    2.00    0.90
   9   4  -5    1.80    1.00
  -9  -3   5   12.00    1.50
  -9  -3   5   12.90    1.50
   9   3  -5   13.40    1.60
  -9  -2   5   35.00    2.10
  -9  -2   5   37.80    2.20
   9   2  -5   36.00    2.30
  -9  -1   5   45.80    2.30
  -9  -1   5   47.80    2.40
   9   1  -5   44.40    2.30
   9   1  -5   46.40    2.60
  -9   0   5    0.40    0.50
   9   0  -5   -0.50    0.70
   9   0  -5    0.10    0.70
  -9   1   5   50.69    2.30
   9  -1  -5   42.40    2.50
   9  -1  -5   49.80    2.50
   9  -1  -5   29.50    3.60
  -9   2   5   39.10    2.00
   9  -2  -5   35.90    2.20
   9  -2  -5   36.60    2.20
   9  -2  -5   32.30    2.30
   9  -3  -5   14.50    1.60
   9  -3  -5   14.20    1.80
   9  -3  -5   12.80    1.60
   9  -4  -5    3.60    1.10
   9  -4  -5    2.30    0.90
   9  -4  -5    3.20    1.10
  -8  -5   5    2.50    1.00
  -8  -5   5    4.40    1.20
   8   5  -5    2.70    1.00
  -8  -4   5   57.09    2.70
  -8  -4   5   58.49    2.80
   8   4  -5   58.19    2.90
  -8  -3   5    4.30    0.90
  -8  -3   5    3.80    0.90
   8   3  -5    3.90    1.00
  -8  -2   5  430.76    9.30
  -8  -2   5  423.46    9.30
   8   2  -5  444.56    8.90
   8   2  -5  443.06    9.70
  -8  -1   5  198.28    5.20
  -8  -1   5  202.68    5.20
   8   1  -5  202.48    5.50
   8   1  -5  210.68    5.10
  -8   0   5    0.80    0.50
   8   0  -5    0.00    0.60
   8   0  -5   -0.70    0.50
   8   0  -5    1.10    0.70
  -8   1   5  201.28    5.00
   8  -1  -5  205.88    5.30
   8  -1  -5  207.38    5.30
   8  -1  -5  198.28    5.40
  -8   2   5  456.85    9.20
   8  -2  -5  445.36    9.70
   8  -2  -5  447.26    9.80
   8  -2  -5  455.65    9.60
   8  -3  -5    5.40    1.10
   8  -3  -5    5.10    1.10
   8  -3  -5    4.20    1.00
   8  -4  -5   59.89    3.00
   8  -4  -5   56.09    2.60
   8  -4  -5   57.89    2.80
   8  -5  -5    0.90    0.80
   8  -5  -5    5.60    1.30
   8  -5  -5    4.00    1.20
   8  -5  -5    2.20    0.90
  -7  -5   5   21.80    1.80
  -7  -5   5   20.70    1.70
   7   5  -5   21.90    2.00
  -7  -4   5   34.70    2.10
  -7  -4   5   33.80    2.00
   7   4  -5   37.00    2.30
  -7  -3   5   38.40    2.00
  -7  -3   5   39.20    2.00
   7   3  -5   39.40    2.20
  -7  -2   5  161.88    4.40
  -7  -2   5  153.78    4.30
   7   2  -5  152.58    4.50
   7   2  -5  163.78    4.10
   7   2  -5  162.98    4.60
  -7  -1   5   33.40    1.80
  -7  -1   5   34.60    1.70
   7   1  -5   31.80    1.90
   7   1  -5   35.20    1.90
   7   1  -5   31.20    1.80
  -7   0   5   -0.40    0.30
   7   0  -5   -0.30    0.50
   7   0  -5    0.00    0.50
   7   0  -5    0.30    0.60
  -7   1   5   34.10    1.60
   7  -1  -5   36.30    1.90
   7  -1  -5   37.20    1.90
   7  -1  -5   36.80    1.90
  -7   2   5  164.58    3.90
   7  -2  -5  161.18    4.30
   7  -2  -5  157.88    4.40
   7  -3  -5   39.90    2.10
   7  -3  -5   43.80    2.20
   7  -3  -5   42.00    2.10
   7  -4  -5   37.30    2.00
   7  -4  -5   35.10    2.10
   7  -4  -5   35.60    2.10
   7  -5  -5   21.80    1.70
   7  -5  -5   23.60    2.40
   7  -5  -5   19.80    1.70
   7  -5  -5   21.10    2.00
  -6  -6   5   93.89    3.60
  -6  -6   5   93.49    3.70
   6   6  -5   99.49    3.90
  -6  -5   5   38.70    2.10
  -6  -5   5   39.40    2.30
   6   5  -5   34.20    2.20
  -6  -4   5  248.08    6.20
  -6  -4   5  248.18    6.10
   6   4  -5  253.17    6.40
  -6  -3   5   11.40    1.20
  -6  -3   5   12.80    1.20
   6   3  -5   13.30    1.10
   6   3  -5   11.20    1.30
  -6  -2   5   11.20    1.10
  -6  -2   5   12.50    1.10
   6   2  -5   12.50    1.10
   6   2  -5    9.00    1.10
   6   2  -5    9.20    1.00
  -6  -1   5   14.20    1.00
  -6  -1   5   12.60    1.10
   6   1  -5    8.70    1.00
   6   1  -5   13.80    1.20
   6   1  -5   14.00    1.20
  -6   0   5   -0.10    0.30
   6   0  -5    0.10    0.40
   6   0  -5    0.30    0.50
   6   0  -5   -0.40    0.40
  -6   1   5   14.50    0.90
   6  -1  -5   12.90    1.10
   6  -1  -5   15.40    1.30
   6  -1  -5   13.60    1.20
  -6   2   5   10.00    0.90
   6  -2  -5   12.10    1.20
   6  -2  -5    9.60    1.10
   6  -2  -5   11.10    1.10
   6  -3  -5   12.80    1.20
   6  -3  -5   10.20    1.10
   6  -3  -5   11.40    1.20
   6  -4  -5  269.47    6.30
   6  -4  -5  257.17    5.90
   6  -4  -5  260.87    6.30
   6  -5  -5   39.90    2.10
   6  -5  -5   36.40    2.30
   6  -5  -5   39.80    2.00
   6  -6  -5   90.59    3.50
   6  -6  -5   99.99    3.90
   6  -6  -5   94.79    3.40
  -5  -6   5    1.20    0.70
  -5  -6   5    0.80    0.80
   5   6  -5    0.10    0.80
  -5  -5   5    6.10    1.00
  -5  -5   5    6.50    1.10
   5   5  -5    5.50    1.10
  -5  -4   5   46.30    2.10
  -5  -4   5   46.00    2.20
   5   4  -5   48.10    2.30
  -5  -3   5   74.49    2.60
  -5  -3   5   73.19    2.60
   5   3  -5   74.49    2.80
   5   3  -5   76.39    2.40
   5   3  -5   75.79    2.70
  -5  -2   5  128.29    3.50
  -5  -2   5  128.49    3.40
   5   2  -5  129.39    3.60
   5   2  -5  130.79    3.40
   5   2  -5  134.09    3.70
  -5  -1   5  218.68    5.00
  -5  -1   5  221.38    4.80
   5   1  -5  219.68    5.00
   5   1  -5  226.98    5.00
   5   1  -5  222.48    5.10
  -5   0   5    0.00    0.30
   5   0  -5   -0.30    0.30
   5   0  -5   -0.40    0.30
   5   0  -5    0.80    0.60
  -5   1   5  223.38    4.50
   5  -1  -5  220.38    4.80
   5  -1  -5  229.58    5.00
   5  -1  -5  219.38    5.10
   5  -2  -5  135.19    3.70
   5  -2  -5  130.79    3.30
   5  -2  -5  137.19    3.40
   5  -3  -5   76.59    2.40
   5  -3  -5   76.49    2.50
   5  -3  -5   74.69    2.60
   5  -4  -5   48.70    1.90
   5  -4  -5   47.10    2.10
   5  -4  -5   47.40    2.40
   5  -5  -5    7.50    1.00
   5  -5  -5    6.80    1.00
   5  -5  -5    8.00    1.30
   5  -6  -5    1.20    0.90
   5  -6  -5    2.00    0.70
  -4  -6   5    0.00    0.60
  -4  -6   5   -0.10    0.70
   4   6  -5    1.60    0.80
  -4  -5   5    8.40    1.00
  -4  -5   5    7.30    1.10
   4   5  -5    8.80    1.30
  -4  -4   5   35.40    1.70
  -4  -4   5   35.30    1.80
   4   4  -5   33.90    1.90
  -4  -3   5  344.57    7.40
  -4  -3   5  348.57    7.30
   4   3  -5  357.36    7.10
   4   3  -5  376.86    7.60
   4   3  -5  350.06    7.60
  -4  -2   5 1338.07   23.10
  -4  -2   5 1335.77   23.20
   4   2  -5 1354.06   23.30
   4   2  -5 1301.67   23.00
   4   2  -5 1338.77   23.40
  -4  -1   5   63.09    2.10
  -4  -1   5   64.59    1.90
   4   1  -5   66.09    2.20
   4   1  -5   65.59    2.10
   4   1  -5   66.59    2.20
  -4   0   5    0.30    0.20
   4   0  -5   -0.20    0.40
   4   0  -5   -0.10    0.30
   4   0  -5   -0.40    0.30
  -4   1   5   62.99    1.40
   4  -1  -5   67.69    2.00
   4  -1  -5   64.49    1.90
   4  -1  -5   63.49    2.20
   4  -2  -5 1311.47   23.40
   4  -2  -5 1384.16   22.90
   4  -2  -5 1330.47   22.80
   4  -3  -5  378.16    7.30
   4  -3  -5  371.26    7.70
   4  -3  -5  367.76    7.10
   4  -4  -5   37.20    1.50
   4  -4  -5   38.30    2.10
   4  -4  -5   37.20    1.80
   4  -5  -5    8.50    1.00
   4  -5  -5    8.60    0.90
   4  -5  -5    7.90    1.20
   4  -6  -5   -0.10    0.70
   4  -6  -5    0.30    0.60
  -3  -7   5   46.80    2.80
  -3  -7   5   47.90    2.50
   3   7  -5   50.09    2.80
  -3  -6   5  146.39    4.30
  -3  -6   5  149.79    4.70
   3   6  -5  149.49    4.70
  -3  -5   5  122.99    3.90
  -3  -5   5  118.69    3.50
   3   5  -5  115.39    3.90
  -3  -4   5    0.00    0.40
  -3  -4   5    0.10    0.50
   3   4  -5    0.60    0.60
   3   4  -5   -0.10    0.60
  -3  -3   5   28.60    1.50
  -3  -3   5   36.10    1.50
   3   3  -5   28.00    1.60
   3   3  -5   31.10    1.60
  -3  -2   5  458.05    8.50
  -3  -2   5  427.96    8.50
   3   2  -5  445.26    8.80
   3   2  -5  457.35    8.70
   3   2  -5  454.85    8.70
  -3  -1   5  107.79    2.50
  -3  -1   5  106.19    2.80
   3   1  -5  104.39    2.90
   3   1  -5  110.39    2.80
   3   1  -5  104.79    2.70
  -3   0   5    0.10    0.20
   3   0  -5    0.20    0.40
   3   0  -5   -0.20    0.30
   3   0  -5    0.10    0.30
   3  -1  -5  105.09    2.90
   3  -1  -5  107.49    2.40
   3  -1  -5  111.39    2.50
   3  -2  -5  470.55    8.40
   3  -2  -5  475.55    9.10
   3  -2  -5  471.85    8.40
   3  -3  -5   29.70    1.50
   3  -3  -5   28.30    1.10
   3  -4  -5    0.20    0.40
   3  -4  -5    0.10    0.40
   3  -4  -5   -0.10    0.60
   3  -5  -5  125.09    3.40
   3  -5  -5  120.79    3.90
   3  -5  -5  116.89    3.00
   3  -6  -5  143.49    4.60
   3  -6  -5  148.59    3.70
   3  -7  -5   50.39    2.90
  -2  -7   5    3.70    1.10
  -2  -7   5    3.10    0.90
   2   7  -5    2.70    1.00
  -2  -6   5  107.09    3.50
  -2  -6   5  111.09    4.00
   2   6  -5  113.29    4.00
  -2  -5   5  109.39    3.20
  -2  -5   5  110.79    3.60
   2   5  -5  101.89    3.60
  -2  -4   5  426.16    8.50
  -2  -4   5  440.16    9.00
   2   4  -5  436.26    9.00
   2   4  -5  419.16    9.00
  -2  -3   5  767.22   13.90
  -2  -3   5  747.93   13.60
   2   3  -5  747.93   14.10
   2   3  -5  757.72   14.00
  -2  -2   5    2.60    0.50
  -2  -2   5    1.80    0.40
   2   2  -5    2.20    0.60
   2   2  -5    2.10    0.60
  -2  -1   5    7.20    0.60
  -2  -1   5    7.60    0.60
   2   1  -5    7.20    0.70
   2   1  -5    6.70    0.70
   2   0  -5    0.20    0.30
   2   0  -5    0.00    0.30
   2  -1  -5    6.90    0.50
   2  -1  -5    6.50    0.50
   2  -1  -5    6.00    0.70
  -2   2   5    2.40    0.50
   2  -2  -5    2.90    0.30
   2  -2  -5    1.20    0.50
   2  -2  -5    2.30    0.30
  -2   3   5  772.52   14.20
   2  -3  -5  790.42   14.10
   2  -3  -5  758.12   13.10
   2  -3  -5  795.32   14.40
  -2   4   5  441.96    8.70
   2  -4  -5  435.56    9.10
   2  -4  -5  442.26    7.90
   2  -4  -5  440.86    8.60
   2  -5  -5  108.99    3.60
   2  -5  -5  108.19    2.60
   2  -6  -5  112.09    4.00
   2  -7  -5    2.90    1.10
  -1  -7   5    4.70    1.20
   1   7  -5    6.60    1.30
  -1  -6   5    0.40    0.50
  -1  -6   5   -0.10    0.70
   1   6  -5    0.40    0.80
  -1  -5   5   15.20    1.50
  -1  -5   5   13.90    1.10
   1   5  -5   11.80    1.40
  -1  -4   5  123.19    3.20
  -1  -4   5  125.49    3.70
   1   4  -5  121.49    3.70
   1   4  -5  124.69    3.80
  -1  -3   5    8.40    0.80
  -1  -3   5    9.70    1.00
   1   3  -5    6.70    0.90
   1   3  -5    9.80    1.10
  -1  -2   5   10.50    0.80
  -1  -2   5   13.30    0.80
   1   2  -5   10.50    0.90
   1   2  -5   10.20    0.90
  -1  -1   5  800.12   13.80
  -1  -1   5  823.12   14.00
   1   1  -5  806.12   14.20
   1   1  -5  799.42   14.20
   1   1  -5  816.72   14.10
   1   0  -5   -0.30    0.30
   1   0  -5    0.10    0.30
   1   0  -5    0.10    0.30
  -1   1   5  823.02   14.70
   1  -1  -5  815.22   13.60
   1  -1  -5  786.42   13.50
  -1   2   5   10.80    1.00
   1  -2  -5    9.80    0.90
  -1   3   5   10.90    1.00
   1  -3  -5    8.70    0.80
   1  -3  -5    9.30    1.00
  -1   4   5  122.99    3.50
   1  -4  -5  128.79    3.70
   1  -4  -5  123.79    3.20
  -1   5   5   16.60    1.30
   1  -5  -5   13.60    1.40
   1  -6  -5    0.90    0.80
   1  -7  -5    5.40    1.20
   0  -7   5   21.40    2.20
   0   7  -5   21.10    2.20
   0  -6   5    0.20    0.70
   0   6  -5   -1.10    0.70
   0  -5   5  159.38    4.70
   0   5  -5  156.18    4.70
   0  -4   5   75.99    2.20
   0  -4   5   76.09    2.80
   0   4  -5   77.59    2.90
   0   4  -5   76.59    2.80
   0  -3   5  168.48    3.70
   0  -3   5  176.18    4.30
   0   3  -5  173.58    4.40
   0   3  -5  175.28    4.40
   0  -2   5  274.37    5.60
   0  -2   5  272.97    5.20
   0   2  -5  276.47    5.90
   0   2  -5  269.47    5.80
   0  -1   5   62.19    1.60
   0   1  -5   64.89    2.00
   0   1  -5   60.89    1.90
   0   1  -5   58.49    1.80
   0   0   5    0.00    0.40
   0   0  -5    0.00    0.30
   0   0  -5    0.00    0.30
   0   0  -5    0.20    0.30
   0   1   5   59.29    2.20
   0  -1  -5   62.69    1.50
   0  -1  -5   63.29    1.40
   0   2   5  260.47    6.00
   0  -2  -5  272.87    5.50
   0   3   5  173.28    4.50
   0  -3  -5  173.68    4.00
   0  -3  -5  177.08    4.20
   0   4   5   80.09    2.80
   0  -4  -5   75.09    2.70
   0  -4  -5   72.39    1.70
   0  -4  -5   75.19    1.70
   0  -4  -5   59.99    2.90
   0   5   5  162.38    4.50
   0  -5  -5  154.88    4.40
   0  -6  -5   -0.90    0.70
   0  -7  -5   21.20    2.00
   1  -6   5   20.00    1.90
  -1   6  -5   23.50    2.10
   1  -5   5  551.04   11.60
  -1   5  -5  557.44   11.70
   1  -4   5    4.60    0.90
  -1   4  -5    4.60    0.90
  -1   4  -5    6.20    1.00
   1  -3   5    7.70    0.90
  -1   3  -5    9.10    1.10
  -1   3  -5    7.80    1.00
   1  -2   5   76.89    2.30
  -1   2  -5   76.89    2.50
  -1   2  -5   75.19    2.50
   1  -1   5   21.50    1.40
   1  -1   5   23.10    0.90
  -1   1  -5   21.30    1.20
  -1   1  -5   21.90    1.20
   1   0   5   -0.10    0.40
  -1   0  -5   -0.30    0.20
  -1   0  -5    0.20    0.30
  -1   0  -5   -0.10    0.30
   1   1   5   24.60    1.50
  -1  -1  -5   23.30    1.00
  -1  -1  -5   23.90    0.90
  -1  -1  -5   23.40    0.90
   1   2   5   73.79    2.70
  -1  -2  -5   77.19    2.20
  -1  -2  -5   74.39    1.70
   1   3   5   10.70    1.20
  -1  -3  -5    6.70    0.50
  -1  -3  -5    7.00    0.80
   1   4   5    4.50    0.90
  -1  -4  -5    4.50    0.80
  -1  -4  -5    4.50    0.50
   1   5   5  555.14   11.60
  -1  -5  -5  550.64   11.10
   1   6   5   21.00    1.80
  -1  -6  -5   20.30    1.70
   2  -6   5   12.30    1.60
  -2   6  -5    9.80    1.50
   2  -5   5    0.70    0.80
  -2   5  -5    0.20    0.70
   2  -4   5   58.49    2.50
  -2   4  -5   51.39    2.50
  -2   4  -5   53.39    2.60
   2  -3   5   97.69    3.10
  -2   3  -5  105.19    3.40
  -2   3  -5  102.69    3.30
   2  -2   5   18.80    1.20
  -2   2  -5   18.30    1.30
  -2   2  -5   17.40    1.30
   2  -1   5  579.74   11.40
   2  -1   5  580.84   10.40
  -2   1  -5  581.44   10.90
   2   0   5   -0.20    0.50
  -2   0  -5    0.60    0.40
   2   1   5  571.74   11.10
  -2  -1  -5  573.74   10.00
  -2  -1  -5  506.55   10.30
   2   2   5   17.80    1.40
  -2  -2  -5   16.20    0.90
   2   3   5   97.89    3.50
  -2  -3  -5  101.69    2.80
   2   4   5   58.49    2.70
  -2  -4  -5   54.99    2.20
   2   5   5    0.90    0.70
  -2  -5  -5    0.30    0.60
   2   6   5   14.00    1.70
  -2  -6  -5   13.30    1.50
   3  -5   5    5.20    1.10
  -3   5  -5    8.20    1.40
   3  -4   5    0.30    0.60
  -3   4  -5    1.60    0.80
   3  -3   5  121.49    3.70
  -3   3  -5  119.69    3.80
  -3   3  -5  119.09    3.70
   3  -2   5   57.09    2.10
  -3   2  -5   51.79    2.30
  -3   2  -5   53.29    2.30
   3  -1   5  356.26    7.80
  -3   1  -5  354.76    7.50
   3   0   5    0.50    0.60
  -3   0  -5   -0.30    0.40
   3   1   5  346.77    7.70
  -3  -1  -5  328.57    7.20
   3   2   5   52.39    2.50
   3   3   5  111.19    3.90
   3   4   5    1.60    0.80
   3   5   5    6.50    1.30
   4  -5   5  224.18    6.40
  -4   5  -5  220.28    6.50
   4  -4   5   41.10    2.40
  -4   4  -5   36.40    2.30
   4  -3   5    0.70    0.70
  -4   3  -5    0.50    0.70
  -4   3  -5    0.70    0.80
   4  -2   5   12.30    1.40
   4  -2   5   12.60    1.30
  -4   2  -5   13.50    1.40
   4  -1   5   49.10    2.40
  -4   1  -5   48.90    2.20
   4   0   5   -0.30    0.50
  -4   0  -5    0.00    0.40
   4   1   5   44.90    2.40
   4   2   5   11.70    1.40
   4   3   5    0.20    0.70
   4   4   5   39.20    2.50
   4   5   5  214.68    6.50
   5  -4   5   13.00    1.60
   5  -4   5    8.70    1.40
  -5   4  -5   11.20    1.70
   5  -3   5  148.39    4.80
   5  -3   5  167.08    6.10
  -5   3  -5  146.09    4.70
  -5   3  -5  148.79    4.90
   5  -2   5    5.00    1.00
   5  -2   5    4.70    1.10
  -5   2  -5    5.00    1.00
   5  -1   5   18.90    1.70
  -5   1  -5   16.90    1.50
   5   0   5    0.30    0.60
  -5   0  -5    0.40    0.60
   5   1   5   19.70    1.80
   5   2   5    4.50    1.10
   5   3   5  145.89    5.10
   5   4   5   10.60    1.70
  -6   3  -5   15.40    1.80
   6  -2   5   26.50    2.10
  -6   2  -5   24.80    2.00
   6  -1   5   81.19    3.40
  -6   1  -5   81.39    3.30
   6   0   5    0.10    0.70
  -6   0  -5    0.90    0.70
   6   1   5   83.79    3.60
   6   2   5   27.10    2.20
   6   3   5   14.40    2.60
 -10  -2   6    7.80    1.20
 -10  -1   6   35.60    2.10
  10   1  -6   31.30    2.20
  10   1  -6   32.50    2.50
 -10   0   6    1.60    0.70
  10   0  -6    0.00    0.90
  10   0  -6    0.30    0.80
  10  -1  -6   35.10    2.50
  10  -1  -6   37.80    2.40
  10  -2  -6    8.00    2.10
  -9  -3   6   26.60    1.90
  -9  -3   6   27.60    1.90
   9   3  -6   16.40    1.80
  -9  -2   6   19.60    1.60
  -9  -2   6   20.90    1.80
   9   2  -6   19.50    2.00
  -9  -1   6  420.46    8.90
   9   1  -6  404.46    8.90
   9   1  -6  402.96    9.50
  -9   0   6  522.95   10.70
   9   0  -6  525.45   11.40
   9   0  -6  515.05   11.40
   9   0  -6  541.85   11.00
   9  -1  -6  423.26    9.40
   9  -1  -6  413.96    9.60
   9  -1  -6  426.46    9.50
   9  -2  -6   19.60    1.80
   9  -2  -6   22.50    1.90
   9  -2  -6   22.20    1.90
   9  -3  -6   27.90    2.10
   9  -3  -6   25.30    2.00
   9  -3  -6   26.40    2.10
  -8  -4   6    2.50    0.80
  -8  -4   6    1.80    0.80
   8   4  -6    0.80    0.80
  -8  -3   6    9.30    1.20
  -8  -3   6    9.00    1.20
   8   3  -6   10.80    1.50
  -8  -2   6   66.99    2.80
  -8  -2   6   62.59    2.60
   8   2  -6   59.29    2.80
   8   2  -6   65.79    2.60
  -8  -1   6  235.08    6.00
  -8  -1   6  240.08    5.70
   8   1  -6  229.68    6.10
   8   1  -6  242.68    6.00
   8   1  -6  237.88    5.80
  -8   0   6  135.29    3.80
   8   0  -6  134.59    4.10
   8   0  -6  131.59    4.20
   8   0  -6  130.59    4.10
   8  -1  -6  241.58    6.20
   8  -1  -6  241.88    6.10
   8  -1  -6  245.28    6.00
   8  -2  -6   64.39    2.70
   8  -2  -6   64.09    2.80
   8  -3  -6    9.70    1.20
   8  -3  -6    8.30    1.20
   8  -3  -6    9.20    1.30
   8  -4  -6    1.60    0.70
   8  -4  -6    1.40    0.90
   8  -4  -6    0.50    0.80
  -7  -5   6   33.70    2.20
  -7  -5   6   33.30    2.20
   7   5  -6   38.20    2.50
  -7  -4   6    0.80    0.70
  -7  -4   6    1.50    0.70
   7   4  -6    0.60    0.70
  -7  -3   6   20.30    1.60
  -7  -3   6   18.10    1.50
   7   3  -6   19.70    1.80
  -7  -2   6   26.70    1.70
  -7  -2   6   27.80    1.60
   7   2  -6   28.10    1.80
   7   2  -6   25.00    1.80
   7   2  -6   27.70    1.70
  -7  -1   6    0.90    0.50
  -7  -1   6    0.50    0.50
   7   1  -6    0.30    0.60
   7   1  -6    1.30    0.70
   7   1  -6    1.10    0.60
  -7   0   6   37.80    1.70
   7   0  -6   37.40    2.00
   7   0  -6   34.40    1.80
   7   0  -6   34.10    1.90
   7  -1  -6    0.30    0.60
   7  -1  -6    1.30    0.70
   7  -1  -6    0.50    0.50
   7  -2  -6   28.70    1.90
   7  -2  -6   26.60    1.70
   7  -2  -6   28.00    1.70
   7  -3  -6   20.50    1.50
   7  -3  -6   24.00    1.70
   7  -3  -6   22.90    1.80
   7  -4  -6    1.90    0.70
   7  -4  -6    0.90    0.70
   7  -5  -6   34.00    2.20
   7  -5  -6   38.80    2.50
   7  -5  -6   39.40    2.10
  -6  -5   6   48.50    2.50
  -6  -5   6   48.60    2.50
   6   5  -6   51.29    2.70
  -6  -4   6  126.99    4.00
  -6  -4   6  128.79    4.00
   6   4  -6  125.59    4.20
  -6  -3   6    6.90    1.00
  -6  -3   6    7.20    1.00
   6   3  -6    6.00    1.00
   6   3  -6    6.30    1.00
   6   3  -6    9.40    1.10
  -6  -2   6   40.50    1.90
  -6  -2   6   39.40    1.80
   6   2  -6   42.70    2.10
   6   2  -6   40.10    2.10
   6   2  -6   38.70    1.90
  -6  -1   6   30.80    1.70
  -6  -1   6   34.20    1.50
   6   1  -6   30.30    1.70
   6   1  -6   31.10    1.70
   6   1  -6   29.00    1.70
  -6   0   6  273.67    5.60
   6   0  -6  262.97    6.10
   6   0  -6  264.87    6.00
   6   0  -6  269.17    6.10
   6  -1  -6   31.20    1.60
   6  -1  -6   29.60    1.50
   6  -1  -6   27.00    1.70
   6  -2  -6   43.30    1.90
   6  -2  -6   42.00    1.80
   6  -2  -6   40.20    2.10
   6  -3  -6    9.00    1.20
   6  -3  -6   10.20    1.10
   6  -3  -6    7.40    1.10
   6  -4  -6  128.99    3.60
   6  -4  -6  132.09    4.00
   6  -5  -6   44.20    2.30
   6  -5  -6   46.80    2.70
   6  -5  -6   46.70    2.10
  -5  -6   6    1.40    0.70
  -5  -6   6    2.30    0.90
   5   6  -6    1.80    0.90
  -5  -5   6    1.80    0.70
  -5  -5   6    1.20    0.70
   5   5  -6    1.10    0.80
  -5  -4   6    3.70    0.80
  -5  -4   6    3.40    0.80
   5   4  -6    4.90    1.00
  -5  -3   6  135.29    3.80
  -5  -3   6  133.69    3.70
   5   3  -6  131.39    4.00
   5   3  -6  139.59    4.00
   5   3  -6  136.19    3.70
  -5  -2   6  498.65    9.80
  -5  -2   6  486.15    9.50
   5   2  -6  496.55    9.90
   5   2  -6  489.25   10.00
   5   2  -6  492.45    9.70
  -5  -1   6  266.57    5.50
  -5  -1   6  274.67    6.00
   5   1  -6  260.57    6.00
   5   1  -6  268.57    5.90
  -5   0   6  733.63   12.70
   5   0  -6  706.43   13.60
   5   0  -6  728.13   13.20
   5   0  -6  727.03   13.40
   5  -1  -6  260.37    6.00
   5  -1  -6  277.67    5.70
   5  -1  -6  262.97    5.60
   5  -2  -6  488.25    9.30
   5  -2  -6  487.05   10.00
   5  -2  -6  511.85    9.50
   5  -3  -6  130.79    3.30
   5  -3  -6  132.59    3.80
   5  -4  -6    4.40    0.70
   5  -4  -6    2.80    0.70
   5  -5  -6    2.30    0.70
   5  -5  -6    0.10    0.80
   5  -5  -6    1.00    0.60
   5  -6  -6    3.10    1.10
   5  -6  -6    2.60    0.80
  -4  -6   6   17.70    1.80
  -4  -6   6   17.00    1.60
   4   6  -6   18.80    2.00
  -4  -5   6  194.08    5.10
  -4  -5   6  193.78    5.30
   4   5  -6  196.88    5.50
  -4  -4   6    9.90    1.10
  -4  -4   6   10.00    1.10
   4   4  -6   11.00    1.40
   4   4  -6   11.80    1.10
   4   4  -6   13.00    1.40
  -4  -3   6  410.26    8.60
  -4  -3   6  425.86    8.70
   4   3  -6  429.26    9.00
   4   3  -6  432.36    8.60
   4   3  -6  434.86    8.80
  -4  -2   6  818.92   14.50
  -4  -2   6  799.02   14.80
   4   2  -6  808.02   14.80
   4   2  -6  811.32   15.00
   4   2  -6  807.72   14.80
  -4  -1   6   15.70    1.10
  -4  -1   6   16.90    0.90
   4   1  -6   15.40    1.10
   4   1  -6   16.20    1.30
   4   1  -6   15.40    1.10
  -4   0   6  125.99    2.80
   4   0  -6  138.19    3.30
   4   0  -6  136.79    3.70
   4   0  -6  139.19    3.40
   4  -1  -6   16.80    1.30
   4  -1  -6   15.10    0.90
   4  -1  -6   15.80    0.90
   4  -2  -6  798.02   14.20
   4  -2  -6  826.82   15.10
   4  -3  -6  460.85    9.20
   4  -3  -6  444.66    8.40
   4  -4  -6   13.70    1.20
   4  -4  -6   10.50    1.30
   4  -4  -6   13.20    1.00
   4  -5  -6  205.78    5.70
   4  -5  -6  199.88    5.10
   4  -5  -6  193.48    4.50
   4  -6  -6   17.10    1.30
   4  -6  -6   16.60    1.80
  -3  -6   6   11.70    1.50
  -3  -6   6   10.50    1.20
   3   6  -6   10.60    1.50
  -3  -5   6  105.59    3.30
  -3  -5   6  101.79    3.60
   3   5  -6  106.69    3.80
  -3  -4   6  464.35    9.30
  -3  -4   6  459.45    9.50
   3   4  -6  472.05    9.90
   3   4  -6  466.85    9.70
  -3  -3   6  610.74   11.50
  -3  -3   6  600.94   11.50
   3   3  -6  618.24   12.00
   3   3  -6  608.64   11.80
  -3  -2   6  164.48    3.90
  -3  -2   6  160.18    3.70
   3   2  -6  163.08    4.10
   3   2  -6  156.88    4.00
  -3  -1   6  115.09    3.10
  -3  -1   6  121.39    2.70
   3   1  -6  116.59    3.30
   3   1  -6  116.29    3.00
   3   1  -6  115.89    3.10
   3   0  -6   29.60    1.60
   3   0  -6   27.50    1.20
   3   0  -6   28.40    1.20
   3  -1  -6  116.99    2.70
   3  -1  -6  113.99    2.60
   3  -1  -6  115.99    3.30
   3  -2  -6  165.38    4.20
   3  -2  -6  167.08    3.40
   3  -3  -6  647.94   12.20
   3  -3  -6  637.84   11.10
   3  -4  -6  489.35    8.70
   3  -4  -6  483.15    9.60
   3  -4  -6  484.85   10.20
   3  -5  -6  110.89    2.70
   3  -5  -6  110.59    3.90
   3  -6  -6   11.40    1.00
   3  -6  -6   11.70    1.60
  -2  -6   6   14.00    1.60
  -2  -6   6   13.20    1.40
   2   6  -6   13.30    1.70
  -2  -5   6    2.30    0.60
  -2  -5   6    1.70    0.80
   2   5  -6    1.10    0.80
  -2  -4   6   40.80    1.70
  -2  -4   6   35.70    1.90
   2   4  -6   34.10    2.00
   2   4  -6   33.50    2.00
  -2  -3   6  404.96    7.90
  -2  -3   6  406.56    8.10
   2   3  -6  409.36    8.50
   2   3  -6  393.66    8.30
  -2  -2   6   26.90    1.20
  -2  -2   6   31.50    1.30
   2   2  -6   27.40    1.50
   2   2  -6   26.20    1.50
  -2  -1   6   93.39    2.50
  -2  -1   6   93.09    2.10
   2   1  -6   93.19    2.60
   2   1  -6   91.49    2.60
   2   0  -6 1239.48   20.90
   2   0  -6 1209.58   20.90
   2  -1  -6   90.99    2.70
   2  -1  -6   89.89    2.00
   2  -1  -6   73.89    2.30
  -2   2   6   27.00    1.50
   2  -2  -6   26.40    1.50
  -2   3   6  420.36    8.60
   2  -3  -6  417.26    8.60
   2  -3  -6  416.66    8.40
  -2   4   6   36.60    1.90
   2  -4  -6   39.00    2.10
   2  -4  -6   39.80    1.80
   2  -5  -6    2.60    0.90
   2  -6  -6   14.60    1.70
  -1  -6   6  131.99    4.50
   1   6  -6  133.69    4.70
  -1  -5   6   36.90    2.10
   1   5  -6   33.50    2.30
  -1  -4   6   57.29    2.40
  -1  -4   6   52.39    1.90
   1   4  -6   54.99    2.50
   1   4  -6   55.79    2.50
  -1  -3   6  142.89    3.40
  -1  -3   6  144.99    3.70
   1   3  -6  147.79    4.00
   1   3  -6  140.89    4.10
  -1  -2   6  162.18    3.60
  -1  -2   6  158.98    3.60
   1   2  -6  162.48    4.10
   1   2  -6  159.38    4.00
  -1  -1   6   12.20    0.90
   1   1  -6   18.50    1.10
   1   1  -6   17.20    1.10
   1   0  -6  209.18    4.20
   1   0  -6  209.58    4.30
   1   0  -6  202.98    4.20
  -1   1   6   18.60    1.30
   1  -1  -6   17.30    0.70
   1  -1  -6   18.70    0.70
  -1   2   6  169.98    4.50
   1  -2  -6  167.38    4.20
  -1   3   6  144.29    4.10
   1  -3  -6  149.69    3.80
   1  -3  -6  149.29    3.90
  -1   4   6   56.79    2.40
   1  -4  -6   53.49    2.30
   1  -4  -6   55.19    2.10
  -1   5   6   35.30    2.10
   1  -5  -6   36.90    2.20
   1  -6  -6  128.59    4.40
   0  -6   6  625.04   13.10
   0   6  -6  611.04   13.30
   0  -5   6   88.09    3.30
   0   5  -6   83.59    3.50
   0  -4   6   19.40    1.50
   0   4  -6   23.40    1.70
   0   4  -6   20.80    1.70
   0  -3   6  155.48    3.90
   0   3  -6  149.49    4.20
   0   3  -6  140.59    4.10
   0  -2   6    9.50    0.80
   0   2  -6    9.50    1.00
   0   2  -6    9.70    1.10
   0   1  -6    3.90    0.70
   0   1  -6    6.90    0.80
   0   0   6   49.70    2.20
   0   0  -6   54.89    1.70
   0   0  -6   51.29    1.70
   0   1   6    5.80    0.90
   0  -1  -6    5.20    0.50
   0  -1  -6    4.80    0.50
   0   2   6    8.30    1.10
   0  -2  -6    8.20    0.80
   0   3   6  150.88    4.40
   0  -3  -6  156.58    3.90
   0  -3  -6  157.28    4.00
   0   4   6   22.90    1.70
   0  -4  -6   22.70    1.50
   0   5   6   89.99    3.30
   0  -5  -6   79.99    3.10
   0  -6  -6  633.74   13.00
   1  -6   6   49.10    2.70
  -1   6  -6   48.50    2.90
   1  -5   6   18.80    1.70
  -1   5  -6   21.50    1.90
   1  -4   6    2.70    0.80
  -1   4  -6    0.70    0.80
  -1   4  -6    1.50    0.80
   1  -3   6   98.79    3.00
  -1   3  -6   96.09    3.30
  -1   3  -6   98.39    3.30
   1  -2   6   95.29    2.60
  -1   2  -6   92.49    2.90
  -1   2  -6   94.89    3.00
  -1   1  -6    1.30    0.60
  -1   1  -6    2.20    0.60
   1   0   6 1151.78   21.30
  -1   0  -6 1191.28   20.30
  -1   0  -6 1172.98   20.20
   1   1   6    1.30    0.70
  -1  -1  -6    1.90    0.40
   1   2   6   91.29    3.30
  -1  -2  -6   96.89    2.10
   1   3   6   94.99    3.40
  -1  -3  -6   97.99    2.80
   1   4   6    1.40    0.70
  -1  -4  -6    1.90    0.70
   1   5   6   18.50    1.70
  -1  -5  -6   23.10    1.70
   1   6   6   52.89    2.80
  -1  -6  -6   60.29    2.80
   2  -5   6    2.60    0.90
  -2   5  -6    3.20    1.10
   2  -4   6    7.40    1.10
  -2   4  -6    6.40    1.20
  -2   4  -6    6.40    1.20
   2  -3   6   13.80    1.30
  -2   3  -6   12.20    1.40
  -2   3  -6   15.50    1.50
  -2   2  -6   77.19    2.80
  -2   2  -6   81.69    2.90
   2  -1   6    6.90    1.10
  -2   1  -6    7.90    0.90
  -2   1  -6    7.10    0.90
   2   0   6 2352.66   40.70
  -2   0  -6 2339.17   39.80
   2   1   6    6.20    1.10
   2   2   6   74.19    3.00
   2   3   6   15.30    1.70
   2   4   6    7.70    1.20
   2   5   6    2.50    1.00
   3  -5   6   61.29    3.00
  -3   5  -6   64.59    3.30
   3  -4   6   26.80    1.90
  -3   4  -6   27.20    2.10
  -3   3  -6  143.59    4.40
  -3   3  -6  149.88    4.60
  -3   2  -6   64.49    2.60
  -3   2  -6   60.29    2.60
   3  -1   6   11.70    1.40
  -3   1  -6   14.40    1.30
   3   0   6   16.60    1.50
   3   1   6   14.10    1.60
   3   2   6   63.19    2.90
   3   3   6  141.69    4.70
   3   4   6   26.00    2.10
   3   5   6   63.89    3.30
  -4   4  -6    0.60    0.90
  -4   3  -6   60.09    2.80
  -4   3  -6   59.69    2.90
  -4   2  -6   60.59    2.70
  -4   2  -6   63.89    2.70
   4  -1   6    5.60    1.10
  -4   1  -6    5.10    0.90
   4   0   6    7.40    1.20
   4   1   6    6.30    1.20
   4   2   6   60.39    3.00
   4   3   6   63.19    3.20
   4   4   6    0.30    0.80
  -5   3  -6   53.09    2.90
  -5   3  -6   51.09    2.90
  -5   2  -6   29.90    2.10
  -5   2  -6   32.50    2.20
   5  -1   6   11.20    1.50
  -5   1  -6   12.10    1.40
   5   0   6  191.68    5.80
   5   1   6   13.70    1.70
   5   2   6   33.30    2.50
   5   3   6   57.59    4.40
  10   0  -7    0.20    0.90
  10   0  -7    0.90    0.90
  -9  -3   7   58.89    2.70
  -9  -3   7   57.79    3.00
   9   3  -7   59.29    3.10
  -9  -2   7   83.19    3.20
  -9  -2   7   86.19    3.50
   9   2  -7   79.19    3.20
   9   2  -7   83.89    3.60
  -9  -1   7  118.09    3.70
   9   1  -7  118.79    4.00
   9   1  -7  113.29    4.20
   9   0  -7    0.20    0.80
   9   0  -7   -0.80    0.80
   9   0  -7    0.30    0.60
   9  -1  -7  115.29    3.90
   9  -1  -7  118.89    4.20
   9  -1  -7  118.89    4.10
   9  -2  -7   84.89    3.50
   9  -2  -7   84.89    3.30
   9  -2  -7   85.99    3.50
   9  -3  -7   63.19    3.20
   9  -3  -7   63.99    2.90
   9  -3  -7   62.79    3.30
  -8  -4   7   34.00    2.20
  -8  -4   7   36.30    2.30
   8   4  -7   35.80    2.50
  -8  -3   7    0.20    0.60
  -8  -3   7    0.50    0.60
   8   3  -7   -0.60    0.70
  -8  -2   7   16.10    1.40
  -8  -2   7   18.60    1.60
   8   2  -7   20.10    1.70
   8   2  -7   19.60    1.90
  -8  -1   7   35.10    1.80
   8   1  -7   37.50    2.10
   8   1  -7   37.90    2.10
   8   1  -7   38.20    2.30
   8   0  -7   -0.60    0.60
   8   0  -7    0.90    0.80
   8   0  -7   -0.10    0.50
   8  -1  -7   39.00    2.10
   8  -1  -7   39.80    2.30
   8  -1  -7   38.90    2.20
   8  -2  -7   18.30    1.50
   8  -2  -7   18.60    1.80
   8  -2  -7   20.50    1.70
   8  -3  -7    0.10    0.80
   8  -3  -7   -0.10    0.60
   8  -4  -7   32.90    2.00
   8  -4  -7   35.40    2.40
  -7  -4   7   21.20    1.70
  -7  -4   7   18.20    1.70
   7   4  -7   20.10    1.90
  -7  -3   7  156.68    4.50
  -7  -3   7  152.68    4.30
   7   3  -7  147.19    4.70
   7   3  -7  135.89    5.40
  -7  -2   7    7.90    1.00
  -7  -2   7    9.60    1.30
   7   2  -7    6.30    1.10
   7   2  -7    5.70    1.00
   7   2  -7    5.70    1.10
  -7  -1   7   35.20    1.70
  -7  -1   7   34.10    2.00
   7   1  -7   34.30    2.10
   7   1  -7   37.60    2.10
   7   1  -7   34.90    2.00
   7   0  -7   -0.30    0.50
   7   0  -7   -0.20    0.50
   7   0  -7   -0.80    0.60
   7  -1  -7   33.60    1.80
   7  -1  -7   29.90    2.00
   7  -1  -7   33.90    1.80
   7  -2  -7    7.10    1.10
   7  -2  -7    7.60    1.20
   7  -2  -7    8.50    1.10
   7  -3  -7  152.48    4.20
   7  -3  -7  154.08    4.70
   7  -4  -7   20.10    1.50
   7  -4  -7   18.80    1.70
   7  -5  -7   32.70    2.80
  -6  -5   7   12.90    1.50
  -6  -5   7   10.20    1.40
   6   5  -7    9.10    1.40
  -6  -4   7   25.30    1.70
  -6  -4   7   22.40    1.70
   6   4  -7   22.60    2.00
  -6  -3   7   80.89    2.80
  -6  -3   7   73.89    2.90
   6   3  -7   81.99    3.10
   6   3  -7   76.79    2.90
   6   3  -7   77.09    3.10
  -6  -2   7  111.39    3.20
  -6  -2   7  106.39    3.50
   6   2  -7  106.69    3.50
   6   2  -7  109.89    3.60
   6   2  -7  112.39    3.50
  -6  -1   7  150.98    3.70
  -6  -1   7  147.89    4.30
   6   1  -7  150.78    4.10
   6   1  -7  150.48    4.30
   6   1  -7  153.88    4.30
   6   0  -7    0.10    0.60
   6   0  -7   -0.20    0.50
   6   0  -7    0.20    0.40
   6  -1  -7  151.68    4.00
   6  -1  -7  147.29    4.30
   6  -1  -7  149.88    3.90
   6  -2  -7  107.89    3.10
   6  -2  -7  107.89    3.60
   6  -3  -7   78.49    2.50
   6  -3  -7   77.09    3.00
   6  -4  -7   24.40    1.90
   6  -4  -7   25.70    1.50
   6  -5  -7   13.60    1.80
   6  -5  -7   11.20    1.10
   6  -5  -7   14.10    1.50
  -5  -5   7    0.70    0.60
  -5  -5   7    1.00    0.70
   5   5  -7    0.80    0.70
  -5  -4   7   33.90    1.90
  -5  -4   7   36.00    2.00
   5   4  -7   34.60    2.20
  -5  -3   7  563.94   11.30
  -5  -3   7  557.64   11.00
   5   3  -7  571.44   11.40
   5   3  -7  567.54   11.10
   5   3  -7  560.54   11.60
  -5  -2   7  174.98    4.60
  -5  -2   7  171.58    4.20
   5   2  -7  177.78    4.70
   5   2  -7  174.28    4.60
   5   2  -7  178.78    4.60
  -5  -1   7   -0.30    0.40
   5   1  -7    0.20    0.50
   5   1  -7    3.20    0.90
   5   1  -7    0.30    0.50
   5   0  -7   -0.20    0.40
   5   0  -7   -0.10    0.60
   5   0  -7   -0.80    0.40
   5  -1  -7    0.50    0.40
   5  -1  -7    0.50    0.40
   5  -1  -7    1.00    0.70
   5  -2  -7  179.18    4.10
   5  -2  -7  178.48    4.80
   5  -3  -7  552.44   10.30
   5  -3  -7  567.14   11.30
   5  -4  -7   33.20    1.50
   5  -4  -7   34.50    2.00
   5  -5  -7    0.00    0.60
   5  -5  -7   -1.20    0.80
   5  -5  -7    0.50    0.50
  -4  -6   7  180.38    5.20
  -4  -6   7  180.48    5.40
   4   6  -7  176.68    6.20
  -4  -5   7    0.20    0.50
  -4  -5   7   -0.10    0.60
   4   5  -7    1.60    0.80
  -4  -4   7   41.30    2.00
  -4  -4   7   42.30    2.00
   4   4  -7   40.60    2.10
   4   4  -7   43.90    2.30
   4   4  -7   40.70    2.30
  -4  -3   7  204.78    5.00
  -4  -3   7  199.98    4.80
   4   3  -7  202.38    5.30
   4   3  -7  203.98    5.20
   4   3  -7  197.38    5.10
  -4  -2   7  134.49    3.70
  -4  -2   7  132.79    3.30
   4   2  -7  131.89    3.90
   4   2  -7  135.59    3.90
   4   2  -7  137.89    3.80
  -4  -1   7    4.70    0.70
   4   1  -7    6.10    1.00
   4   1  -7    5.90    0.80
   4   1  -7    4.80    0.70
   4   0  -7   -0.90    0.50
   4   0  -7   -0.30    0.40
   4   0  -7    0.10    0.40
   4  -1  -7    4.60    0.60
   4  -1  -7    4.30    0.90
   4  -2  -7  128.29    3.90
   4  -2  -7  138.29    3.10
   4  -3  -7  202.38    5.20
   4  -3  -7  205.68    4.20
   4  -4  -7   40.70    2.40
   4  -4  -7   42.40    2.10
   4  -4  -7   39.30    1.40
   4  -5  -7   -0.40    0.40
   4  -5  -7   -0.10    0.60
   4  -5  -7    0.60    0.90
   4  -6  -7  190.68    6.10
   4  -6  -7  193.88    4.40
  -3  -6   7    0.80    1.00
  -3  -6   7    0.50    0.70
   3   6  -7    0.90    0.90
  -3  -5   7   19.60    1.50
  -3  -5   7   22.00    1.70
   3   5  -7   22.00    1.90
  -3  -4   7   37.90    1.80
  -3  -4   7   39.60    2.00
   3   4  -7   37.50    2.20
   3   4  -7   35.00    2.10
  -3  -3   7  437.46    8.90
  -3  -3   7  448.46    8.90
   3   3  -7  450.95    9.50
   3   3  -7  456.75    9.30
  -3  -2   7  159.88    3.70
  -3  -2   7  157.58    4.00
   3   2  -7  158.98    4.20
   3   2  -7  156.78    4.10
   3   1  -7   87.89    3.00
   3   1  -7   87.29    2.60
   3   1  -7   88.19    2.70
   3   0  -7   -0.20    0.50
   3   0  -7    0.00    0.30
   3   0  -7    0.20    0.40
   3  -1  -7   86.89    3.00
   3  -1  -7   88.59    2.20
   3  -2  -7  158.38    4.30
   3  -2  -7  160.78    3.20
   3  -3  -7  467.75    9.50
   3  -3  -7  450.75    8.00
   3  -4  -7   40.90    2.30
   3  -4  -7   39.70    1.20
   3  -4  -7   36.60    1.90
   3  -5  -7   20.60    1.90
   3  -6  -7    1.10    0.90
  -2  -6   7    2.60    1.00
   2   6  -7    3.40    1.10
  -2  -5   7    1.60    0.70
   2   5  -7    1.60    0.90
  -2  -4   7   14.60    1.30
   2   4  -7   14.10    1.50
   2   4  -7   13.40    1.50
  -2  -3   7  129.69    3.50
  -2  -3   7  133.09    3.50
   2   3  -7  135.59    4.10
   2   3  -7  139.09    4.00
  -2  -2   7   48.30    1.80
   2   2  -7   50.59    2.10
   2   2  -7   49.99    2.20
   2   1  -7  174.78    4.20
   2   1  -7  175.18    4.10
   2   0  -7    0.50    0.40
   2  -1  -7  167.58    3.50
   2  -1  -7  174.08    4.50
   2  -1  -7  170.28    3.40
  -2   2   7   46.30    2.20
   2  -2  -7   52.99    2.20
  -2   3   7  132.69    4.00
   2  -3  -7  140.79    3.90
   2  -3  -7  144.89    4.10
  -2   4   7   14.50    1.40
   2  -4  -7   14.90    1.50
   2  -4  -7   14.80    1.30
   2  -5  -7    2.40    0.90
   2  -6  -7    1.60    0.90
  -1  -6   7   42.10    2.50
   1   6  -7   43.00    3.10
  -1  -5   7  304.57    7.20
   1   5  -7  289.67    7.60
  -1  -4   7   42.40    2.00
   1   4  -7   42.70    2.30
   1   4  -7   44.70    2.50
  -1  -3   7   65.59    2.30
   1   3  -7   65.49    2.70
   1   3  -7   67.89    2.70
   1   2  -7    7.00    1.00
   1   2  -7    9.50    1.10
   1   1  -7   58.89    2.10
   1   1  -7   58.49    2.10
   1   0  -7   -0.10    0.40
  -1   1   7   63.09    2.60
   1  -1  -7   58.69    1.60
  -1   2   7    9.00    1.20
   1  -2  -7    8.20    1.10
   1  -2  -7    8.50    1.00
  -1   3   7   66.19    2.80
   1  -3  -7   74.29    2.60
   1  -3  -7   71.79    2.60
  -1   4   7   43.70    2.30
   1  -4  -7   41.90    2.20
   1  -5  -7  288.77    7.10
   1  -6  -7   43.90    2.70
   0  -5   7   34.00    2.10
   0   5  -7   35.70    2.40
   0  -4   7   18.60    1.50
   0   4  -7   23.10    1.80
   0   4  -7   21.40    1.90
   0   3  -7   74.49    2.90
   0   3  -7   67.79    2.80
   0   2  -7   66.79    2.60
   0   2  -7   65.49    2.50
   0   1  -7   28.10    1.50
   0   1  -7   27.60    1.50
   0   0   7   -0.20    0.50
   0   0  -7    0.60    0.50
   0   1   7   26.80    1.80
   0  -1  -7   26.60    1.10
   0   2   7   64.79    2.80
   0   3   7   67.49    2.90
   0  -3  -7   68.19    2.50
   0  -3  -7   69.99    2.60
   0   4   7   19.50    1.70
   0  -4  -7   18.70    1.50
   0   5   7   37.50    2.40
   0  -5  -7   38.00    2.20
   1  -5   7   30.60    2.10
  -1   5  -7   30.70    2.40
  -1   4  -7   25.10    2.00
  -1   4  -7   21.60    1.90
  -1   3  -7   77.39    3.00
  -1   3  -7   74.69    3.00
  -1   2  -7   89.29    3.00
  -1   2  -7   87.19    3.10
  -1   1  -7  572.64   11.00
  -1   1  -7  556.04   10.80
   1   0   7    0.00    0.60
  -1   0  -7    0.00    0.50
   1   1   7  565.04   11.90
  -1  -1  -7  567.44   10.20
   1   2   7   84.79    3.40
   1   3   7   72.49    3.20
   1   4   7   25.90    2.00
   1   5   7   29.90    2.20
  -2   4  -7   10.30    1.50
  -2   4  -7   11.70    1.50
  -2   3  -7   39.20    2.30
  -2   3  -7   35.70    2.30
  -2   2  -7    2.50    0.80
  -2   2  -7    3.40    0.90
   2  -1   7   16.10    1.60
  -2   1  -7   13.30    1.30
   2   0   7   -0.30    0.50
  -2   0  -7   -1.00    0.50
   2   1   7   14.10    1.60
   2   2   7    1.90    0.90
   2   3   7   39.80    2.50
   2   4   7    8.30    1.40
  -3   4  -7   40.20    2.70
  -3   3  -7   20.90    1.90
  -3   3  -7   23.40    2.00
  -3   2  -7   52.19    2.50
  -3   2  -7   58.59    2.70
   3  -1   7    4.20    1.00
  -3   1  -7    2.60    0.80
   3   0   7   -0.20    0.60
  -3   0  -7   -0.20    0.60
   3   1   7    1.30    0.80
   3   2   7   51.99    2.90
   3   3   7   22.40    2.00
   3   4   7   30.60    2.70
  -4   2  -7    5.50    1.20
  -4   2  -7    5.60    1.20
   4  -1   7  112.99    4.20
  -4   1  -7  108.49    3.70
   4   0   7    0.50    0.80
   4   1   7  113.79    4.40
   4   2   7    6.30    1.40
  -9  -2   8   41.90    3.00
   9   2  -8   42.40    2.70
   9   2  -8   40.60    2.40
   9   1  -8   -0.50    0.70
   9   1  -8   -0.20    0.70
   9   1  -8   -0.30    0.60
   9   0  -8    4.60    1.10
   9   0  -8    3.30    1.00
   9   0  -8    3.40    0.90
   9  -1  -8    0.60    0.80
   9  -1  -8   -0.60    0.60
   9  -1  -8   -0.50    0.70
   9  -2  -8   42.70    3.00
   9  -2  -8   40.60    2.30
  -8  -3   8   37.30    2.30
  -8  -3   8   39.70    2.20
   8   3  -8   43.20    2.60
  -8  -2   8   21.40    1.80
   8   2  -8   22.00    1.90
   8   2  -8   23.70    1.90
   8   2  -8   24.20    1.90
   8   1  -8    0.20    0.60
   8   1  -8   -0.10    0.60
   8   1  -8   -0.40    0.80
   8   0  -8    1.60    0.90
   8   0  -8    1.90    0.70
   8   0  -8    2.00    0.80
   8  -1  -8    0.40    0.70
   8  -1  -8    0.10    0.70
   8  -1  -8   -0.20    0.60
   8  -2  -8   22.90    1.70
   8  -2  -8   24.20    2.00
   8  -3  -8   38.90    2.50
   8  -3  -8   41.30    2.20
  -7  -4   8   11.10    1.40
  -7  -4   8    9.90    1.30
   7   4  -8   11.90    1.70
  -7  -3   8  115.49    3.70
  -7  -3   8  117.29    4.00
   7   3  -8  113.49    4.10
   7   3  -8  121.49    3.90
  -7  -2   8    1.10    0.70
   7   2  -8    0.60    0.70
   7   2  -8    0.30    0.70
   7   2  -8   -0.60    0.70
   7   1  -8    8.80    1.20
   7   1  -8   12.10    1.30
   7   1  -8    9.00    1.30
   7   0  -8  399.36    8.90
   7   0  -8  417.56    8.70
   7   0  -8  416.66    9.20
   7  -1  -8   10.90    1.20
   7  -1  -8    8.10    1.30
   7  -2  -8    0.90    0.60
   7  -2  -8    0.10    0.70
   7  -3  -8  114.29    4.00
   7  -3  -8  117.49    3.50
   7  -4  -8   11.10    1.20
   7  -4  -8    9.90    1.50
  -6  -4   8  157.68    4.60
  -6  -4   8  164.98    4.90
   6   4  -8  166.58    5.20
  -6  -3   8  350.16    8.00
  -6  -3   8  374.76    8.30
   6   3  -8  368.96    8.30
   6   3  -8  356.66    8.10
   6   3  -8  368.16    8.60
  -6  -2   8  192.88    5.30
   6   2  -8  196.18    5.30
   6   2  -8  197.68    5.40
   6   2  -8  194.08    5.20
   6   1  -8   66.79    2.70
   6   1  -8   69.79    2.90
   6   1  -8   66.49    2.60
   6   0  -8  128.59    3.80
   6   0  -8  128.99    4.10
   6   0  -8  127.09    3.60
   6  -1  -8   65.89    2.30
   6  -1  -8   66.09    2.90
   6  -2  -8  205.98    5.60
   6  -2  -8  199.88    4.70
   6  -3  -8  354.16    7.30
   6  -3  -8  367.96    8.40
   6  -4  -8  158.88    4.80
   6  -4  -8  160.98    4.00
  -5  -5   8  175.48    5.10
  -5  -5   8  172.08    5.00
   5   5  -8  164.28    5.50
  -5  -4   8   42.80    2.10
  -5  -4   8   40.00    2.20
   5   4  -8   40.80    2.50
  -5  -3   8  364.26    8.10
   5   3  -8  360.46    8.10
   5   3  -8  368.76    8.30
   5   3  -8  370.36    8.50
  -5  -2   8   82.39    3.00
   5   2  -8   77.19    3.00
   5   2  -8   79.39    2.90
   5   2  -8   82.09    3.10
   5   1  -8    8.00    1.20
   5   1  -8    7.40    1.00
   5   1  -8    7.40    1.00
   5   0  -8   11.50    1.10
   5   0  -8   11.70    1.30
   5  -1  -8    8.00    0.90
   5  -1  -8    5.90    1.10
   5  -2  -8   80.39    3.10
   5  -2  -8   80.09    2.40
   5  -3  -8  374.66    8.40
   5  -3  -8  371.16    7.20
   5  -4  -8   40.10    2.30
   5  -5  -8  167.98    4.90
   5  -5  -8  168.28    3.90
   5  -5  -8  176.38    5.50
  -4  -5   8   48.80    2.50
  -4  -5   8   53.29    2.50
   4   5  -8   50.79    2.90
  -4  -4   8    4.10    0.80
  -4  -4   8    3.00    0.70
   4   4  -8    2.30    0.90
   4   4  -8    1.30    0.90
   4   4  -8    3.00    0.90
  -4  -3   8  206.78    5.20
   4   3  -8  206.08    5.40
   4   3  -8  207.88    5.60
   4   3  -8  212.08    5.50
  -4  -2   8  551.34   10.90
   4   2  -8  552.14   11.20
   4   2  -8  544.95   11.10
   4   2  -8  555.64   10.90
   4   1  -8  106.49    3.20
   4   1  -8   97.39    3.00
   4   1  -8   98.49    3.40
   4   0  -8  288.67    6.80
   4   0  -8  299.87    6.10
   4  -1  -8  105.59    3.50
   4  -1  -8   99.39    2.60
   4  -2  -8  545.55   11.20
   4  -2  -8  542.45    9.80
   4  -3  -8  218.38    5.60
   4  -3  -8  210.68    4.30
   4  -4  -8    3.90    1.00
   4  -4  -8    2.90    0.50
   4  -4  -8    4.10    1.10
   4  -5  -8   47.70    2.80
   4  -5  -8   54.09    1.50
  -3  -5   8    8.60    1.20
   3   5  -8    7.90    1.40
  -3  -4   8   67.99    3.60
   3   4  -8   85.39    3.40
   3   4  -8   85.19    3.30
  -3  -3   8   59.69    2.30
   3   3  -8   56.19    2.50
   3   3  -8   52.79    2.60
  -3  -2   8    0.00    0.40
   3   2  -8   -0.20    0.60
   3   2  -8   -0.90    0.60
   3   1  -8   52.59    2.10
   3   1  -8   53.09    2.20
   3   1  -8   52.09    2.50
   3   0  -8  517.65   10.70
   3   0  -8  520.85    9.70
   3  -1  -8   53.09    2.40
   3  -1  -8   53.39    1.70
   3  -2  -8   -0.50    0.60
   3  -2  -8   -0.10    0.30
   3  -3  -8   57.39    2.60
   3  -4  -8   91.99    3.50
   3  -4  -8   84.89    3.20
   3  -5  -8    8.80    1.40
  -2  -5   8   28.30    2.30
   2   5  -8   33.50    2.50
   2   4  -8   32.90    2.30
   2   4  -8   28.20    2.10
   2   3  -8   31.00    2.00
   2   3  -8   33.80    2.10
   2   2  -8    0.00    0.60
   2   2  -8   -0.20    0.60
   2   1  -8    2.40    0.60
   2   0  -8    0.20    0.40
   2  -1  -8    3.70    1.00
   2  -2  -8   -0.30    0.60
  -2   3   8   32.30    2.00
   2  -3  -8   31.90    1.90
   2  -3  -8   32.80    2.00
  -2   4   8   29.50    2.00
   2  -4  -8   29.90    2.00
   2  -4  -8   30.50    1.90
   2  -5  -8   33.00    2.30
   1   5  -8   11.20    1.70
   1   4  -8   -0.40    0.70
   1   4  -8    0.30    0.90
   1   3  -8   27.60    1.90
   1   3  -8   32.60    2.10
   1   2  -8  111.89    3.50
   1   2  -8  112.49    3.60
   1   1  -8   60.39    2.20
   1   0  -8   15.80    1.10
   1  -1  -8   62.59    1.80
  -1   2   8  117.89    4.00
   1  -2  -8  116.59    3.70
  -1   3   8   27.40    1.90
   1  -3  -8   30.10    1.80
   1  -3  -8   25.30    2.10
  -1   4   8   -0.50    0.60
   1  -4  -8   -0.20    0.60
   1  -5  -8   10.30    1.40
   0   4  -8    3.10    1.00
   0   4  -8    3.30    1.10
   0   3  -8    5.20    1.10
   0   3  -8    3.30    0.90
   0   2  -8   -0.50    0.60
   0   2  -8    0.20    0.60
   0   1  -8  525.15   10.30
   0   0  -8  834.52   15.00
   0   1   8  496.15   11.00
   0  -1  -8  516.15    9.20
   0   2   8    1.50    0.80
   0   3   8    5.00    1.10
   0  -3  -8    4.30    0.90
   0   4   8    2.00    0.90
  -1   4  -8   99.99    3.90
  -1   4  -8  100.79    3.90
  -1   3  -8   75.39    3.20
  -1   3  -8   74.39    3.10
  -1   2  -8    7.90    1.30
  -1   2  -8    8.10    1.20
  -1   1  -8  214.68    5.20
   1   0   8  125.19    4.40
  -1   0  -8  124.89    3.40
   1   1   8  221.38    6.20
  -1  -1  -8  217.78    4.70
   1   2   8    6.90    1.30
  -1  -2  -8    5.60    0.60
   1   3   8   73.89    3.40
   1   4   8  100.29    4.10
  -2   3  -8   13.80    1.70
  -2   3  -8   13.70    1.70
  -2   2  -8   24.90    1.90
  -2   1  -8    3.60    0.90
   2   0   8   63.89    3.10
  -2   0  -8   61.29    2.30
   2   1   8    4.90    1.20
  -2  -1  -8    4.80    0.80
   2   2   8   23.80    2.10
  -2  -2  -8   26.00    1.20
   2   3   8   14.20    1.80
  -3   2  -8  164.58    4.90
  -3   1  -8    3.40    1.00
   3   0   8   22.40    2.10
  -3   0  -8   20.70    1.60
   3   1   8    3.20    1.10
  -3  -1  -8    3.00    0.80
   3   2   8  170.58    6.30
  -3  -2  -8  164.28    4.00
   8   2  -9    7.20    1.30
   8   2  -9    8.50    1.30
   8   2  -9    4.90    1.20
   8   1  -9  114.39    4.10
   8   1  -9  116.99    4.00
   8   1  -9  115.79    4.10
   8   0  -9    0.30    0.90
   8   0  -9   -0.20    0.60
   8  -1  -9  114.49    3.70
   8  -1  -9  111.19    4.10
   8  -2  -9    9.60    1.60
   8  -2  -9   10.20    1.30
  -7  -3   9  173.98    5.30
   7   3  -9  173.28    5.50
   7   3  -9  176.98    5.30
   7   3  -9  181.28    5.20
   7   2  -9    0.40    0.80
   7   2  -9    1.40    0.70
   7   2  -9    0.70    0.80
   7   1  -9   24.30    2.00
   7   1  -9   26.30    1.80
   7   1  -9   22.70    1.80
   7   0  -9   -0.60    0.70
   7   0  -9    0.20    0.60
   7  -1  -9   27.60    1.70
   7  -1  -9   23.20    2.00
   7  -2  -9    0.30    0.80
   7  -2  -9    0.30    0.50
   7  -3  -9  174.28    4.50
   7  -3  -9  178.38    5.40
  -6  -3   9   31.30    2.00
   6   3  -9   33.20    2.20
   6   3  -9   31.30    2.10
   6   3  -9   29.70    2.20
  -6  -2   9   30.70    2.00
   6   2  -9   31.20    2.00
   6   2  -9   31.10    2.10
   6   2  -9   30.20    2.20
   6   1  -9    6.10    1.20
   6   1  -9    6.30    1.00
   6   1  -9    5.40    1.00
   6   0  -9    0.50    0.50
   6   0  -9    0.10    0.80
   6  -1  -9    4.00    1.10
   6  -1  -9    5.30    0.80
   6  -2  -9   30.80    1.60
   6  -2  -9   29.10    2.20
   6  -3  -9   33.30    2.20
   6  -3  -9   30.30    1.50
  -5  -4   9   19.10    1.60
   5   4  -9   15.90    1.90
  -5  -3   9  198.28    5.30
   5   3  -9  184.58    5.30
   5   3  -9  193.88    5.40
   5   3  -9  195.38    5.60
   5   2  -9  336.77    7.80
   5   2  -9  332.97    7.80
   5   2  -9  320.97    7.50
   5   1  -9   35.30    2.20
   5   1  -9   34.10    1.80
   5   0  -9    0.40    0.50
   5   0  -9    0.30    0.80
   5  -1  -9   33.00    1.60
   5  -1  -9   38.20    2.30
   5  -2  -9  343.37    6.90
   5  -2  -9  343.87    8.20
   5  -3  -9  184.08    4.00
   5  -3  -9  188.08    5.40
   5  -4  -9   17.40    2.00
   5  -4  -9   18.00    1.80
   4   4  -9    3.20    1.00
   4   4  -9    2.10    1.00
   4   4  -9    2.20    1.00
   4   3  -9    0.30    0.70
   4   3  -9    0.70    0.90
   4   3  -9   -0.40    0.70
   4   2  -9  183.18    5.20
   4   2  -9  176.88    4.80
   4   2  -9  174.38    5.00
   4   1  -9   41.80    2.40
   4   1  -9   47.80    2.10
   4   0  -9    0.40    0.70
   4   0  -9    0.80    0.50
   4  -1  -9   45.50    1.70
   4  -1  -9   42.60    2.40
   4  -2  -9  177.48    3.80
   4  -2  -9  175.88    5.10
   4  -3  -9   -0.20    0.70
   4  -4  -9    0.90    1.00
   4  -4  -9    1.90    0.90
   3   4  -9  137.79    4.50
   3   4  -9  132.89    4.70
   3   3  -9   53.19    2.60
   3   3  -9   50.19    2.70
   3   2  -9    4.60    0.90
   3   2  -9    4.20    1.00
   3   1  -9    7.50    1.00
   3   1  -9    6.30    1.20
   3   0  -9   -0.10    0.70
   3   0  -9   -0.30    0.40
   3  -1  -9    8.90    1.30
   3  -1  -9    7.80    0.70
   3  -2  -9    2.70    0.90
   3  -3  -9   47.40    2.50
   3  -3  -9   51.69    2.60
   3  -4  -9  134.29    4.30
   3  -4  -9  142.09    4.60
   2   4  -9   93.49    3.70
   2   4  -9   90.29    3.80
   2   3  -9   21.30    1.80
   2   3  -9   21.60    1.90
   2   2  -9    9.20    1.20
   2   1  -9   37.60    1.80
   2   0  -9    0.30    0.40
   2  -1  -9   37.20    1.30
   2  -1  -9   34.80    2.20
   2  -2  -9   11.20    1.40
   2  -3  -9   19.90    1.70
  -2   4   9   79.79    3.40
   1   4  -9   15.70    1.90
   1   4  -9   14.90    1.70
   1   3  -9   -0.50    0.80
   1   3  -9    2.40    0.90
   1   2  -9  283.47    6.60
   1   1  -9   75.89    2.70
   1   0  -9   -0.10    0.50
   1  -1  -9   76.19    2.10
   1  -2  -9  286.77    7.10
  -1   3   9    0.10    0.70
   1  -3  -9    0.60    0.70
  -1   4   9   16.70    1.90
   0   3  -9   -0.40    0.80
   0   3  -9    0.50    0.70
   0   2  -9  119.29    3.80
   0   1  -9  109.79    3.40
   0   0  -9    0.10    0.50
   0  -1  -9  104.49    2.70
   0   2   9  113.19    4.30
   0   3   9    0.00    0.70
   0  -3  -9    0.60    1.00
  -1   2  -9   14.20    1.60
  -1   1  -9   -0.40    0.60
  -1   0  -9   -0.10    0.50
   1   1   9    0.40    0.80
  -1  -1  -9    0.00    0.50
   1   2   9   13.50    1.80
  -2   0  -9   -0.70    0.90
   7   1 -10   10.50    1.30
   7   1 -10   11.70    1.60
   7   0 -10   13.60    1.40
   7   0 -10   14.40    1.80
   7  -1 -10   11.70    1.30
   7  -1 -10    8.20    1.70
   6   2 -10  258.67    6.90
   6   2 -10  249.97    6.40
   6   1 -10  238.58    5.90
   6   1 -10  240.38    6.60
   6   0 -10    2.20    1.10
   6   0 -10    1.90    0.70
   6  -1 -10  234.38    5.40
   6  -2 -10  250.87    5.60
   6  -2 -10  256.47    6.90
   5   2 -10   23.60    1.80
   5   2 -10   25.80    2.10
   5   1 -10  353.16    7.80
   5   1 -10  366.26    8.70
   5   0 -10    9.70    1.40
   5   0 -10   10.70    1.10
   5  -1 -10  370.86    8.80
   5  -1 -10  361.26    7.40
   5  -2 -10   22.30    2.10
   5  -2 -10   23.50    1.30
   4   3 -10    2.90    1.10
   4   3 -10    2.70    0.90
   4   3 -10    4.10    1.10
   4   2 -10   18.50    1.60
   4   2 -10   18.10    1.80
   4   1 -10   18.60    1.90
   4   1 -10   15.70    1.40
   4   0 -10   33.20    1.60
   4   0 -10   36.10    2.40
   4  -1 -10   17.30    1.10
   4  -1 -10   18.50    1.90
   4  -2 -10   19.60    1.90
   4  -2 -10   22.20    1.10
   4  -3 -10    3.00    1.10
   3   2 -10   26.10    2.20
   3   2 -10   27.70    1.90
   3   1 -10    5.30    0.90
   3   1 -10    6.30    1.30
   3   0 -10   26.50    1.50
   3   0 -10   28.00    2.20
   3  -1 -10    6.90    0.70
   3  -1 -10    5.40    1.20
   3  -2 -10   27.40    2.10
   2   2 -10    7.40    1.20
   2   1 -10  317.77    7.00
   2   0 -10    6.80    0.90
   2   0 -10    3.90    1.20
   2  -1 -10  295.07    5.80
   2  -1 -10  294.57    7.50
   2  -2 -10    9.30    1.50
   1   2 -10  213.98    6.00
   1   1 -10  299.07    6.80
   1   0 -10    0.10    0.50
   1  -1 -10  299.47    5.80
   1  -1 -10  292.17    7.60

_computing_structure_solution     'SHELXT 2014/4 (Sheldrick, 2014)'
;
_shelx_hkl_checksum              82179
loop_
_space_group_symop_operation_xyz
'x, y, z'
'-x, y+1/2, -z+1/2'
'-x, -y, -z'
'x, -y-1/2, z-1/2'
loop_
_atom_site_label
_atom_site_type_symbol
_atom_site_fract_x
_atom_site_fract_y
_atom_site_fract_z
_atom_site_U_iso_or_equiv
_atom_site_adp_type
_atom_site_occupancy
_atom_site_site_symmetry_order
_atom_site_calc_flag
_atom_site_refinement_flags_occupancy
N1 N 0.46283(10) 0.60131(12) 0.51225(9) 0.0152(2) Uani 0.5 1 d P
C5 C 0.46283(10) 0.60131(12) 0.51225(9) 0.0152(2) Uani 0.5 1 d P
C1 C 0.57185(12) 0.74569(14) 0.64895(11) 0.0183(2) Uani 1 1 d .
C2 C 0.75035(12) 0.69244(15) 0.76112(11) 0.0216(2) Uani 1 1 d .
C3 C 0.82893(12) 0.48912(16) 0.73977(12) 0.0229(2) Uani 1 1 d .
C4 C 0.72259(12) 0.33985(15) 0.60194(12) 0.0193(2) Uani 0.5 1 d P
B1 B 0.72259(12) 0.33985(15) 0.60194(12) 0.0193(2) Uani 0.5 1 d P
H1 H 0.5127(17) 0.887(2) 0.6603(16) 0.027(3) Uiso 1 1 d .
H2 H 0.8224(18) 0.803(2) 0.8564(19) 0.034(3) Uiso 1 1 d .
H3 H 0.9561(19) 0.452(2) 0.8222(18) 0.033(3) Uiso 1 1 d .
H4 H 0.7683(18) 0.186(2) 0.5778(17) 0.029(3) Uiso 1 1 d .
loop_
_atom_site_aniso_label
_atom_site_aniso_U_11
_atom_site_aniso_U_22
_atom_site_aniso_U_33
_atom_site_aniso_U_23
_atom_site_aniso_U_13
_atom_site_aniso_U_12
N1 0.0186(4) 0.0136(4) 0.0154(4) 0.0002(2) 0.0088(3) -0.0001(3)
C5 0.0186(4) 0.0136(4) 0.0154(4) 0.0002(2) 0.0088(3) -0.0001(3)
C1 0.0235(4) 0.0156(4) 0.0179(4) -0.0016(3) 0.0102(3) -0.0015(3)
C2 0.0248(5) 0.0225(5) 0.0188(4) -0.0034(3) 0.0097(3) -0.0064(3)
C3 0.0200(4) 0.0277(5) 0.0227(4) 0.0029(3) 0.0098(3) 0.0010(3)
C4 0.0207(4) 0.0196(4) 0.0190(4) 0.0010(3) 0.0092(3) 0.0013(3)
B1 0.0207(4) 0.0196(4) 0.0190(4) 0.0010(3) 0.0092(3) 0.0013(3)
loop_
_atom_type_symbol
_atom_type_description
_atom_type_scat_dispersion_real
_atom_type_scat_dispersion_imag
_atom_type_scat_source
C C 0.0033 0.0016 'International Tables Vol C Tables 4.2.6.8 and 6.1.1.4'
H H 0.0000 0.0000 'International Tables Vol C Tables 4.2.6.8 and 6.1.1.4'
B B 0.0013 0.0007 'International Tables Vol C Tables 4.2.6.8 and 6.1.1.4'
N N 0.0061 0.0033 'International Tables Vol C Tables 4.2.6.8 and 6.1.1.4'
loop_
_geom_angle_atom_site_label_1
_geom_angle_atom_site_label_2
_geom_angle_atom_site_label_3
_geom_angle
_geom_angle_site_symmetry_1
_geom_angle_site_symmetry_3
C5 N1 C1 119.04(9) 3_666 .
C5 N1 B1 120.12(9) 3_666 3_666
C1 N1 B1 120.84(7) . 3_666
C1 N1 C4 120.84(7) . 3_666
C2 C1 N1 121.93(8) . .
C2 C1 H1 122.3(7) . .
N1 C1 H1 115.8(7) . .
C1 C2 C3 120.30(8) . .
C1 C2 H2 118.5(8) . .
C3 C2 H2 121.2(8) . .
C2 C3 C4 119.16(8) . .
C2 C3 H3 119.4(8) . .
C4 C3 H3 121.5(8) . .
C3 C4 C5 119.44(8) . 3_666
C3 C4 H4 124.4(7) . .
C5 C4 H4 116.1(7) 3_666 .
loop_
_geom_bond_atom_site_label_1
_geom_bond_atom_site_label_2
_geom_bond_distance
_geom_bond_site_symmetry_2
N1 C5 1.3964(14) 3_666
N1 C1 1.4029(11) .
N1 B1 1.4372(11) 3_666
C1 C2 1.3833(12) .
C1 H1 0.988(13) .
C2 C3 1.4085(13) .
C2 H2 1.006(14) .
C3 C4 1.4199(13) .
C3 H3 0.989(14) .
C4 C5 1.4372(11) 3_666
C4 H4 1.037(14) .
loop_
_geom_torsion_atom_site_label_1
_geom_torsion_atom_site_label_2
_geom_torsion_atom_site_label_3
_geom_torsion_atom_site_label_4
_geom_torsion
_geom_torsion_site_symmetry_1
_geom_torsion_site_symmetry_4
C5 N1 C1 C2 -0.52(14) 3_666 .
B1 N1 C1 C2 179.70(7) 3_666 .
N1 C1 C2 C3 0.44(13) . .
C1 C2 C3 C4 -0.06(13) . .
C2 C3 C4 C5 -0.23(13) . 3_666
