#------------------------------------------------------------------------------
#$Date: 2017-12-26 01:38:15 +0200 (Tue, 26 Dec 2017) $
#$Revision: 204517 $
#$URL: file:///home/coder/svn-repositories/cod/cif/4/12/69/4126907.cif $
#------------------------------------------------------------------------------
#
# This file is available in the Crystallography Open Database (COD),
# http://www.crystallography.net/
#
# All data on this site have been placed in the public domain by the
# contributors.
#
data_4126907
loop_
_publ_author_name
'Lama, Prem'
'Barbour, Leonard J.'
_publ_section_title
;
 Distinctive Three-Step Hysteretic Sorption of Ethane with In-situ
 Crystallographic Visualization of the Pore Forms in a Soft Porous
 Crystal.
;
_journal_name_full               'Journal of the American Chemical Society'
_journal_paper_doi               10.1021/jacs.7b10352
_journal_year                    2017
_chemical_formula_moiety         'C20 H12 N6 O8 Zn3'
_chemical_formula_sum            'C20 H12 N6 O8 Zn3'
_chemical_formula_weight         660.47
_space_group_crystal_system      triclinic
_space_group_IT_number           2
_space_group_name_Hall           '-P 1'
_space_group_name_H-M_alt        'P -1'
_symmetry_space_group_name_Hall  '-P 1'
_symmetry_space_group_name_H-M   'P -1'
_atom_sites_solution_hydrogens   geom
_audit_creation_date             2017-11-15
_audit_creation_method
;
Olex2 1.2
(compiled 2017.08.10 svn.r3458 for OlexSys, GUI svn.r5381)
;
_cell_angle_alpha                115.321(10)
_cell_angle_beta                 97.689(9)
_cell_angle_gamma                97.641(9)
_cell_formula_units_Z            1
_cell_length_a                   9.102(3)
_cell_length_b                   10.739(4)
_cell_length_c                   11.209(4)
_cell_measurement_reflns_used    5042
_cell_measurement_temperature    298(2)
_cell_measurement_theta_max      26.14
_cell_measurement_theta_min      2.20
_cell_volume                     959.1(6)
_computing_cell_refinement       'SAINT (Bruker, 2009)'
_computing_data_collection       'APEX2 (Bruker, 2009)'
_computing_data_reduction        SAINT
_computing_molecular_graphics    'Olex2 (Dolomanov et al., 2009)'
_computing_publication_material  'Olex2 (Dolomanov et al., 2009)'
_computing_structure_refinement  'ShelXL (Sheldrick, 2015)'
_diffrn_ambient_temperature      298.15
_diffrn_measured_fraction_theta_full 0.999
_diffrn_measured_fraction_theta_max 0.999
_diffrn_measurement_device_type  'Bruker D8 venture PHOTON II CPAD'
_diffrn_measurement_method       '\f \ch and \w scans'
_diffrn_radiation_type           MoK\a
_diffrn_radiation_wavelength     0.71073
_diffrn_reflns_av_R_equivalents  0.1075
_diffrn_reflns_av_unetI/netI     0.1754
_diffrn_reflns_Laue_measured_fraction_full 0.999
_diffrn_reflns_Laue_measured_fraction_max 0.999
_diffrn_reflns_limit_h_max       10
_diffrn_reflns_limit_h_min       -10
_diffrn_reflns_limit_k_max       12
_diffrn_reflns_limit_k_min       -12
_diffrn_reflns_limit_l_max       13
_diffrn_reflns_limit_l_min       -13
_diffrn_reflns_number            6746
_diffrn_reflns_point_group_measured_fraction_full 0.999
_diffrn_reflns_point_group_measured_fraction_max 0.999
_diffrn_reflns_theta_full        24.997
_diffrn_reflns_theta_max         24.997
_diffrn_reflns_theta_min         2.057
_exptl_absorpt_coefficient_mu    1.897
_exptl_absorpt_correction_T_max  24.997
_exptl_absorpt_correction_T_min  2.057
_exptl_absorpt_correction_type   multi-scan
_exptl_absorpt_process_details   SADABS
_exptl_crystal_colour            colorless
_exptl_crystal_density_diffrn    1.144
_exptl_crystal_description       block
_exptl_crystal_F_000             328
_exptl_crystal_size_max          0.22
_exptl_crystal_size_mid          0.14
_exptl_crystal_size_min          0.08
_refine_diff_density_max         0.846
_refine_diff_density_min         -0.971
_refine_diff_density_rms         0.116
_refine_ls_extinction_method     none
_refine_ls_goodness_of_fit_ref   0.973
_refine_ls_hydrogen_treatment    constr
_refine_ls_matrix_type           full
_refine_ls_number_parameters     184
_refine_ls_number_reflns         3375
_refine_ls_number_restraints     0
_refine_ls_restrained_S_all      0.974
_refine_ls_R_factor_all          0.1432
_refine_ls_R_factor_gt           0.0890
_refine_ls_shift/su_max          0.000
_refine_ls_shift/su_mean         0.000
_refine_ls_structure_factor_coef Fsqd
_refine_ls_weighting_details
'w=1/[\s^2^(Fo^2^)+(0.0852P)^2^] where P=(Fo^2^+2Fc^2^)/3'
_refine_ls_weighting_scheme      calc
_refine_ls_wR_factor_gt          0.1717
_refine_ls_wR_factor_ref         0.1945
_reflns_Friedel_coverage         0.000
_reflns_number_gt                1726
_reflns_number_total             3375
_reflns_threshold_expression     'I > 2\s(I)'
_iucr_refine_instructions_details
;
TITL C:\Users\plama\Desktop\4\4N2_a.res in P-1
    1eii_sq.res
    created by SHELXL-2017/1 at 13:09:32 on 15-Nov-2017
CELL 0.71073 9.1017 10.7392 11.209 115.321 97.689 97.641
ZERR 1 0.0033 0.0036 0.0038 0.01 0.009 0.009
LATT 1
SFAC C H N O Zn
UNIT 20 12 6 8 3
ISOR 0.01 0.02 N1
ISOR 0.003 0.01 C9A C9B
ISOR 0.003 0.01 C10B C10A

L.S. 10 0 57
PLAN  10 0 0
SIZE 0.08 0.14 0.22
TEMP 25
BOND $H
CONF
ABIN
GRID
fmap 2 1 53
acta 50
MERG 2
OMIT -4 50
REM <olex2.extras>
REM <HklSrc "%.\\1eII_sq.hkl">
REM </olex2.extras>

WGHT    0.085200
FVAR       0.25957
ZN1   5    0.500000    0.000000    0.000000    10.50000    0.02789    0.07197 =
         0.05570    0.04099    0.01291    0.01753
ZN2   5    0.819913   -0.115772   -0.118129    11.00000    0.02297    0.06639 =
         0.06010    0.04036    0.01626    0.01856
O1    4    0.557564    0.019653   -0.166085    11.00000    0.06209    0.09868 =
         0.04509    0.05163    0.01101    0.01553
O2    4    0.722535   -0.099924   -0.270554    11.00000    0.04706    0.11238 =
         0.04408    0.05444    0.01731    0.03983
O3    4    0.751980   -0.284025   -0.098823    11.00000    0.07119    0.05196 =
         0.08534    0.04684    0.02368    0.02374
O4    4    0.544806   -0.200269   -0.075705    11.00000    0.06564    0.06011 =
         0.09434    0.04814    0.02669    0.03177
N1    3    0.721287    0.090778    0.112762    11.00000    0.02901    0.07507 =
         0.05244    0.02412    0.01831    0.01514
N2    3    0.841410    0.052704    0.062068    11.00000    0.03437    0.05606 =
         0.04151    0.02789    0.01001    0.01532
N3    3    0.971976    0.127743    0.150027    11.00000    0.05977    0.06712 =
         0.03467    0.00759    0.01125    0.02052
C1    1    0.614711   -0.032405   -0.264707    11.00000    0.05122    0.07110 =
         0.02992    0.04089    0.00614   -0.00078
C2    1    0.558126   -0.019039   -0.386307    11.00000    0.04146    0.05093 =
         0.03766    0.01977    0.00116    0.00159
C3    1    0.610587   -0.076478   -0.502050    11.00000    0.09014    0.09825 =
         0.01933    0.02860    0.01707    0.07350
AFIX  43
H3    2    0.684365   -0.129643   -0.506959    11.00000   -1.20000
AFIX   0
C4    1    0.443623    0.057111   -0.388965    11.00000    0.08451    0.13194 =
         0.04796    0.05470    0.02874    0.05025
AFIX  43
H4    2    0.403078    0.096064   -0.312493    11.00000   -1.20000
AFIX   0
C5    1    0.617157   -0.289476   -0.072109    11.00000    0.05255    0.05397 =
         0.05583    0.02690    0.01095    0.00979
C6    1    0.559407   -0.395121   -0.034608    11.00000    0.05377    0.05273 =
         0.08863    0.05459    0.02677    0.02547
C7    1    0.426946   -0.397569    0.007451    11.00000    0.06921    0.08979 =
         0.12066    0.08123    0.04375    0.03931
AFIX  43
H7    2    0.374346   -0.327290    0.013393    11.00000   -1.20000
AFIX   0
C8    1    0.633524   -0.501710   -0.041688    11.00000    0.08312    0.07504 =
         0.13214    0.08056    0.06197    0.03460
AFIX  43
H8    2    0.725099   -0.504958   -0.069916    11.00000   -1.20000
AFIX   0
PART 1
C9A   1    0.776638    0.224093    0.224064    10.50000    0.01667    0.02624 =
         0.02673    0.00843    0.00796    0.00710
AFIX  43
H9A   2    0.725393    0.292277    0.272173    10.50000   -1.20000
AFIX   0
PART 0
PART 2
C9B   1    0.773184    0.169612    0.242597    10.50000    0.03259    0.03337 =
         0.03256    0.01505    0.00929    0.00800
AFIX  43
H9B   2    0.714026    0.210490    0.304386    10.50000   -1.20000
AFIX   0
PART 0
PART 1
C10A  1    0.933209    0.223943    0.241297    10.60000    0.01537    0.02622 =
         0.02576    0.00493    0.00568    0.01199
AFIX  43
H10A  2    1.003233    0.292417    0.317100    10.60000   -1.20000
AFIX   0
PART 0
PART 2
C10B  1   10.936319   10.184150   10.276419    10.40000    0.06030    0.06051 =
         0.06020    0.02839    0.01273    0.01281
AFIX  43
H10B  2    1.000341    0.221647    0.361073    10.40000   -1.20000
AFIX   0
HKLF 4




REM  C:\Users\plama\Desktop\4\4N2_a.res in P-1
REM R1 =  0.0890 for    1726 Fo > 4sig(Fo)  and  0.1432 for all    3375 data
REM    184 parameters refined using     30 restraints

END  
     
WGHT      0.0862      0.0000 

REM Highest difference peak  0.846,  deepest hole -0.971,  1-sigma level  0.116
Q1    1   0.8216 -0.0429 -0.1777  11.00000  0.05    0.85
Q2    1   0.8213 -0.1808 -0.0571  11.00000  0.05    0.76
Q3    1   0.4952  0.0649 -0.0761  11.00000  0.05    0.75
Q4    1   0.7933 -0.2180 -0.1429  11.00000  0.05    0.70
Q5    1   0.7652 -0.1997 -0.2260  11.00000  0.05    0.60
Q6    1   0.7570  0.3033  0.1796  11.00000  0.05    0.46
Q7    1   0.4406 -0.0531 -0.1039  11.00000  0.05    0.45
Q8    1   0.8431 -0.0401 -0.0015  11.00000  0.05    0.44
Q9    1   0.9615  0.2458  0.1415  11.00000  0.05    0.41
Q10   1   0.9407  0.3652  0.2171  11.00000  0.05    0.40

  REM The information below was added by Olex2.
  REM
  REM R1 = 0.0890 for 1726 Fo > 4sig(Fo) and 0.1432 for all 6802 data
  REM n/a parameters refined using n/a restraints
  REM Highest difference peak 0.85, deepest hole -0.97
  REM Mean Shift 0, Max Shift 0.000.

  REM +++ Tabular Listing of Refinement Information +++
  REM R1_all = 0.1432
  REM R1_gt = 0.0890
  REM wR_ref = 0.1945
  REM GOOF = 0.973
  REM Shift_max = 0.000
  REM Shift_mean = 0
  REM Reflections_all = 6802
  REM Reflections_gt = 1726
  REM Parameters = n/a
  REM Hole = -0.97
  REM Peak = 0.85
  REM Flack = n/a

  
;
_cod_data_source_file            1eII_squeeze.cif
_cod_data_source_block           1eII_squeeze
_cod_database_code               4126907
_shelx_shelxl_version_number     2017/1
_shelx_space_group_comment
;
The symmetry employed for this shelxl refinement is uniquely defined
by the following loop, which should always be used as a source of
symmetry information in preference to the above space-group names.
They are only intended as comments.
;
_shelx_estimated_absorpt_t_max   0.863
_shelx_estimated_absorpt_t_min   0.680
_olex2_refinement_description
;
1. Fixed Uiso
 At 1.2 times of:
  All C(H) groups
2. Uiso/Uaniso restraints and constraints
Uanis(N1) \\sim Ueq: with sigma of 0.01 and sigma for terminal atoms of 0.02
Uanis(C9A) \\sim Ueq, Uanis(C9B) \\sim Ueq: with sigma of 0.003 and sigma for
terminal atoms of 0.01
Uanis(C10B) \\sim Ueq, Uanis(C10A) \\sim Ueq: with sigma of 0.003 and sigma for
terminal atoms of 0.01
3. Others
 Fixed Sof: C9A(0.5) H9A(0.5) C9B(0.5) H9B(0.5) C10A(0.6) H10A(0.6) C10B(0.4)
 H10B(0.4)
 Fixed X: C10B(0.936319)
 Fixed Y: C10B(0.18415)
 Fixed Z: C10B(0.276419)
4.a Aromatic/amide H refined with riding coordinates:
 C3(H3), C4(H4), C7(H7), C8(H8), C9A(H9A), C9B(H9B), C10A(H10A), C10B(H10B)
;
_platon_squeeze_void_probe_radius 1.20
_shelx_fab_file
;
-10 -3 3 -0.2563 -0.3026
-10 -3 4 -0.7308 0.1778
-10 -3 5 0.8495 0.1694
-10 -2 1 -1.3659 -0.5101
-10 -2 2 0.1579 0.0066
-10 -2 3 4.7272 -0.1254
-10 -2 4 -1.2842 0.0105
-10 -2 5 1.9200 -0.0297
-10 -2 6 -4.3354 0.1825
-10 -1 1 3.6324 -0.0007
-10 -1 2 -7.4064 -0.3403
-10 -1 3 0.4505 -0.0117
-10 -1 4 0.5565 -0.1234
-10 -1 5 -4.9304 0.0177
-10 -1 6 2.2757 -0.0354
-10 0 1 -3.2835 0.6895
-10 0 2 2.8925 -0.3733
-10 0 3 -2.1721 0.1307
-10 0 4 2.8561 -0.2331
-10 0 5 0.9704 0.1044
-10 0 6 -2.2422 -0.2373
-10 1 1 5.3704 0.7207
-10 1 2 -1.7911 -0.1906
-10 1 3 0.2402 0.2449
-10 1 4 -0.3048 -0.1636
-10 1 5 0.0166 0.0830
-10 1 6 -3.3045 -0.2972
-10 2 1 -2.4386 0.3643
-10 2 2 1.1305 0.1197
-10 2 3 0.4950 0.1359
-10 2 4 3.0831 -0.0452
-10 2 5 -0.1926 0.1343
-10 3 1 2.3690 -0.1794
-10 3 2 1.7162 0.2187
-10 3 3 -2.3396 -0.0361
-10 3 4 -0.2685 0.1444
-10 3 5 0.6562 -0.1353
-10 4 1 -0.5816 -0.6739
-10 4 2 -1.3191 0.1962
-10 4 3 2.5732 -0.1056
-10 4 4 -1.3123 0.0128
-10 5 1 -2.6761 -0.5574
-10 5 2 -0.1618 -0.0109
-10 5 3 1.2105 -0.4503
-10 6 1 0.1510 -0.7189
-9 -5 2 0.0841 -0.0095
-9 -5 3 2.8383 -0.2005
-9 -5 4 -0.3166 0.2377
-9 -5 5 0.4716 0.2549
-9 -5 6 -3.9831 0.2700
-9 -5 7 6.2139 0.3349
-9 -4 1 3.9087 -0.3170
-9 -4 2 -4.6117 0.0494
-9 -4 3 -1.1314 0.0307
-9 -4 4 -0.5074 0.2527
-9 -4 5 2.0438 0.1191
-9 -4 6 -0.3992 0.0001
-9 -4 7 -4.6587 0.2053
-9 -4 8 3.9434 0.0100
-9 -3 1 -1.7402 0.0434
-9 -3 2 2.8327 -0.2441
-9 -3 3 0.0423 -0.1327
-9 -3 4 1.5768 -0.1213
-9 -3 5 -1.0473 0.0385
-9 -3 6 -2.2444 -0.0110
-9 -3 7 4.4962 0.1180
-9 -3 8 -2.6837 -0.2228
-9 -2 1 1.0845 0.2952
-9 -2 2 -3.4372 -0.4955
-9 -2 3 1.8425 -0.0789
-9 -2 4 1.2797 -0.1425
-9 -2 5 1.7028 0.0737
-9 -2 6 1.8291 -0.0124
-9 -2 7 -2.1422 0.1420
-9 -2 8 -0.2192 -0.1335
-9 -1 1 2.0529 0.8474
-9 -1 2 -0.8426 -0.3547
-9 -1 3 -2.3363 0.0597
-9 -1 4 -1.0646 -0.2324
-9 -1 5 0.5954 -0.0782
-9 -1 6 -2.9498 -0.0217
-9 -1 7 5.0978 0.2160
-9 -1 8 -1.1017 0.0146
-9 0 1 1.7939 0.7770
-9 0 2 -0.9898 -0.0811
-9 0 3 -1.6521 0.1384
-9 0 4 0.3202 -0.1372
-9 0 5 -2.9793 -0.0596
-9 0 6 1.0157 -0.0420
-9 0 7 -0.7816 0.1315
-9 0 8 2.7564 0.2080
-9 1 1 1.5196 0.3573
-9 1 2 -1.0328 0.2381
-9 1 3 2.3652 0.1572
-9 1 4 1.2793 0.0341
-9 1 5 -4.3499 -0.0496
-9 1 6 -2.9431 -0.0996
-9 1 7 -2.2881 -0.1059
-9 1 8 2.2089 0.4606
-9 2 1 1.9120 -0.2762
-9 2 2 3.0597 0.4337
-9 2 3 -4.9634 0.0530
-9 2 4 5.1478 0.0685
-9 2 5 4.7920 0.0823
-9 2 6 -2.2585 -0.1067
-9 2 7 -0.7989 0.0455
-9 3 1 -0.4609 -0.6899
-9 3 2 1.1778 0.3181
-9 3 3 2.7022 -0.1886
-9 3 4 -0.2051 0.2415
-9 3 5 -0.9451 0.0938
-9 3 6 4.3807 -0.2799
-9 3 7 -3.0839 0.3357
-9 4 1 1.3163 -0.9309
-9 4 2 -2.4118 0.0074
-9 4 3 -1.6274 -0.1198
-9 4 4 -0.6806 0.1233
-9 4 5 2.2218 -0.1746
-9 4 6 -1.4366 0.2372
-9 5 1 0.1262 -0.6502
-9 5 2 8.2059 -0.0858
-9 5 3 -6.1279 -0.2039
-9 5 4 2.9266 -0.2902
-9 5 5 -0.3515 0.2740
-9 6 1 -8.8201 0.3025
-9 6 2 -1.5075 -0.0110
-9 6 3 4.6637 -0.1203
-9 6 4 -3.8687 0.2323
-9 7 1 -0.5046 0.5642
-9 7 2 0.8380 0.1044
-8 -7 4 2.1428 0.0420
-8 -7 5 -4.7161 0.1210
-8 -7 6 -0.8267 0.0898
-8 -7 7 0.3143 0.0230
-8 -6 1 -0.4021 -0.5212
-8 -6 2 1.7226 -0.1075
-8 -6 3 0.1130 0.0535
-8 -6 4 3.4034 0.0681
-8 -6 5 -0.1448 -0.0661
-8 -6 6 2.8170 -0.1844
-8 -6 7 -4.4307 -0.1376
-8 -6 8 -0.0936 -0.2663
-8 -5 1 0.6705 -0.3727
-8 -5 2 -0.2896 -0.2185
-8 -5 3 -1.6504 -0.1170
-8 -5 4 1.2791 -0.0185
-8 -5 5 0.3159 0.1997
-8 -5 6 -1.5428 0.1566
-8 -5 7 3.1607 0.1389
-8 -5 8 2.2896 -0.0430
-8 -5 9 -0.8329 -0.2148
-8 -4 1 -1.5802 0.1515
-8 -4 2 0.9306 -0.2637
-8 -4 3 -0.9178 -0.0384
-8 -4 4 -1.6033 -0.0682
-8 -4 5 2.4679 0.1751
-8 -4 6 -3.1244 0.1157
-8 -4 7 -0.1377 0.1818
-8 -4 8 0.3730 0.0059
-8 -4 9 0.5952 -0.0849
-8 -4 10 4.2853 -0.1749
-8 -3 1 1.5822 0.6336
-8 -3 2 -2.3010 -0.2931
-8 -3 3 3.1543 0.0084
-8 -3 4 -1.1596 -0.1941
-8 -3 5 0.6197 -0.0322
-8 -3 6 -0.9652 -0.0218
-8 -3 7 -0.5739 0.1237
-8 -3 8 -2.1516 -0.0223
-8 -3 9 1.9090 -0.0780
-8 -3 10 -3.3469 0.0967
-8 -2 1 4.0201 0.8244
-8 -2 2 -1.7438 -0.1978
-8 -2 3 -2.2711 0.0126
-8 -2 4 2.6254 -0.1751
-8 -2 5 -1.7175 -0.1171
-8 -2 6 3.4230 -0.0465
-8 -2 7 -1.3967 0.0519
-8 -2 8 0.6138 0.0004
-8 -2 9 -1.7359 -0.1115
-8 -2 10 5.1599 0.1231
-8 -1 1 -3.3559 0.6622
-8 -1 2 4.2906 0.1052
-8 -1 3 -0.6645 0.1176
-8 -1 4 1.1397 -0.0416
-8 -1 5 1.8829 -0.1162
-8 -1 6 -2.1898 -0.0346
-8 -1 7 3.5840 -0.0365
-8 -1 8 -2.0163 -0.0099
-8 -1 9 -0.1003 -0.1499
-8 -1 10 -3.3985 0.0071
-8 0 1 5.1017 0.1290
-8 0 2 -5.4375 0.3912
-8 0 3 -0.1779 0.0542
-8 0 4 -0.6942 0.1113
-8 0 5 -2.0268 -0.0165
-8 0 6 0.9963 0.0389
-8 0 7 1.9922 -0.0313
-8 0 8 1.1750 0.0289
-8 0 9 -2.3950 -0.1129
-8 1 1 -0.8177 -0.5136
-8 1 2 3.0644 0.3860
-8 1 3 -2.3072 -0.0292
-8 1 4 -0.1261 0.2352
-8 1 5 -0.6380 -0.0233
-8 1 6 -5.0366 0.1008
-8 1 7 -1.3732 0.0677
-8 1 8 4.6723 0.1850
-8 1 9 2.4860 -0.1867
-8 2 1 0.5542 -0.9292
-8 2 2 -0.8250 0.2018
-8 2 3 0.6360 -0.0239
-8 2 4 1.1273 0.1210
-8 2 5 -1.7554 0.0536
-8 2 6 3.2098 0.0269
-8 2 7 -6.5603 0.0041
-8 2 8 -0.8238 -0.0863
-8 3 1 0.9956 -0.9434
-8 3 2 1.6897 0.0080
-8 3 3 1.4232 -0.1037
-8 3 4 3.7918 -0.0326
-8 3 5 3.8772 0.0702
-8 3 6 -4.1633 -0.1025
-8 3 7 2.4834 0.3034
-8 3 8 -3.5297 -0.3069
-8 4 1 0.9657 -0.3515
-8 4 2 2.1043 -0.2567
-8 4 3 -8.6793 -0.1567
-8 4 4 1.9902 -0.1187
-8 4 5 -0.1373 -0.0273
-8 4 6 4.5460 0.0024
-8 4 7 0.9000 -0.0550
-8 5 1 -3.2000 0.2715
-8 5 2 2.5309 -0.3586
-8 5 3 5.3162 -0.0298
-8 5 4 -4.7942 -0.1692
-8 5 5 4.7621 0.0354
-8 5 6 -1.8378 -0.2413
-8 6 1 -6.9566 0.7141
-8 6 2 4.9979 -0.1485
-8 6 3 -7.5346 0.1641
-8 6 4 3.3475 0.0505
-8 6 5 -2.6110 -0.1951
-8 7 1 1.8420 0.6855
-8 7 2 -2.3521 0.0989
-8 7 3 -2.1191 0.3348
-8 7 4 -1.3525 -0.1360
-8 8 1 -3.4253 0.0511
-8 8 2 6.9194 -0.1492
-7 -8 3 -5.3726 -0.1212
-7 -8 4 -1.5574 0.2500
-7 -8 5 0.0627 0.3554
-7 -8 6 -0.8685 0.2164
-7 -8 7 4.1890 0.1091
-7 -8 8 -1.0025 -0.1647
-7 -7 1 4.5124 -0.2286
-7 -7 2 -0.5120 -0.0174
-7 -7 3 1.1406 -0.0333
-7 -7 4 -0.6361 0.0409
-7 -7 5 -4.2873 0.1274
-7 -7 6 0.6600 0.0918
-7 -7 7 -6.2372 0.2104
-7 -7 8 3.7122 0.0083
-7 -7 9 2.8756 0.0037
-7 -6 1 -7.3922 -0.2377
-7 -6 2 5.0065 -0.2001
-7 -6 3 -1.8620 -0.1364
-7 -6 4 1.4206 -0.1851
-7 -6 5 4.3803 0.0087
-7 -6 6 -2.4122 0.0214
-7 -6 7 2.3001 0.0437
-7 -6 8 -3.1627 -0.1359
-7 -6 9 -5.1043 -0.0684
-7 -6 10 2.8628 0.2810
-7 -5 1 0.3290 0.2661
-7 -5 2 0.0583 -0.2694
-7 -5 3 -1.1959 -0.0563
-7 -5 4 0.0735 -0.1962
-7 -5 5 -0.3065 -0.0721
-7 -5 6 -0.6259 -0.0201
-7 -5 7 0.9126 0.0313
-7 -5 8 5.5333 0.0360
-7 -5 9 0.2619 -0.1102
-7 -5 10 -1.7962 0.2277
-7 -5 11 0.8938 0.4796
-7 -4 1 1.4551 0.6843
-7 -4 2 0.9568 -0.2761
-7 -4 3 -0.8848 0.0798
-7 -4 4 0.3772 -0.1172
-7 -4 5 -2.9354 -0.0644
-7 -4 6 4.3701 0.0024
-7 -4 7 -5.2147 -0.0066
-7 -4 8 0.9155 0.0585
-7 -4 9 1.3146 -0.2132
-7 -4 10 2.2738 -0.0035
-7 -4 11 -3.0861 0.1556
-7 -3 1 0.5159 0.7360
-7 -3 2 1.6132 0.0307
-7 -3 3 0.9576 0.1507
-7 -3 4 -0.0309 -0.0351
-7 -3 5 0.1201 -0.0508
-7 -3 6 -0.6203 0.0002
-7 -3 7 -2.5381 -0.0716
-7 -3 8 -0.0262 0.0353
-7 -3 9 -0.0287 -0.1271
-7 -3 10 0.4225 -0.0046
-7 -3 11 0.6332 0.0965
-7 -2 1 -1.2796 0.4142
-7 -2 2 -0.3010 0.3541
-7 -2 3 2.6237 0.0808
-7 -2 4 -3.8549 0.0789
-7 -2 5 2.0344 -0.0684
-7 -2 6 -2.0719 0.0125
-7 -2 7 3.1142 -0.0865
-7 -2 8 -3.0111 -0.0023
-7 -2 9 -0.6522 -0.1020
-7 -2 10 5.7238 0.0098
-7 -2 11 -0.0184 0.0370
-7 -1 1 -0.2267 -0.2740
-7 -1 2 2.2659 0.4156
-7 -1 3 -4.3528 0.0135
-7 -1 4 9.2211 0.1834
-7 -1 5 -3.8080 0.0159
-7 -1 6 3.3818 0.0526
-7 -1 7 -0.3673 -0.0438
-7 -1 8 -1.9523 -0.0405
-7 -1 9 0.4598 -0.1044
-7 -1 10 -7.2252 0.0482
-7 0 1 2.1192 -0.9426
-7 0 2 -4.4683 0.3366
-7 0 3 7.0599 -0.0329
-7 0 4 -5.1171 0.2028
-7 0 5 1.0170 0.0938
-7 0 6 2.3075 0.0260
-7 0 7 -0.9350 0.0761
-7 0 8 3.2563 -0.0924
-7 0 9 -2.7264 -0.0436
-7 0 10 2.1348 -0.0124
-7 1 1 -2.8093 -1.0941
-7 1 2 2.3212 0.0337
-7 1 3 -7.4688 -0.1213
-7 1 4 3.1663 0.0928
-7 1 5 1.6360 0.1012
-7 1 6 -4.4876 0.1276
-7 1 7 3.0238 0.1927
-7 1 8 0.7437 -0.0727
-7 1 9 3.1498 0.0440
-7 1 10 1.0210 -0.1103
-7 2 1 2.6997 -0.6786
-7 2 2 -4.0101 -0.3034
-7 2 3 1.2388 -0.0538
-7 2 4 -3.5862 -0.0935
-7 2 5 -2.1057 0.0690
-7 2 6 2.1989 0.0751
-7 2 7 -4.3490 0.0962
-7 2 8 -0.1731 0.0601
-7 2 9 -3.8536 0.0271
-7 3 1 -3.0754 0.0566
-7 3 2 4.6083 -0.4564
-7 3 3 1.4049 -0.0891
-7 3 4 0.4637 -0.2227
-7 3 5 3.7666 -0.0001
-7 3 6 -3.4545 -0.0337
-7 3 7 0.8317 0.0510
-7 3 8 -2.0505 -0.0000
-7 3 9 0.7608 -0.0100
-7 4 1 0.5274 0.7128
-7 4 2 0.4434 -0.3880
-7 4 3 -2.6648 -0.0391
-7 4 4 -0.1135 -0.1697
-7 4 5 -2.7236 -0.2064
-7 4 6 6.1894 -0.0177
-7 4 7 -1.9992 -0.0315
-7 4 8 3.2794 -0.0015
-7 5 1 -2.1879 0.9368
-7 5 2 2.5695 -0.1132
-7 5 3 -1.9597 0.0906
-7 5 4 4.2181 -0.0697
-7 5 5 3.5757 -0.1217
-7 5 6 -5.5463 0.0717
-7 5 7 3.9935 -0.0645
-7 6 1 0.2726 0.6719
-7 6 2 -0.1720 0.1395
-7 6 3 0.2204 0.0729
-7 6 4 -4.7362 0.0975
-7 6 5 2.4655 -0.0058
-7 6 6 3.2941 0.0030
-7 7 1 -0.6638 0.2220
-7 7 2 1.5683 0.2632
-7 7 3 -5.9596 0.0422
-7 7 4 -2.5023 0.1365
-7 7 5 -1.6661 0.0208
-7 8 1 -1.1123 -0.3162
-7 8 2 6.9277 0.1906
-7 8 3 -0.5397 -0.1364
-7 8 4 0.9778 -0.0500
-7 9 1 4.9421 -0.4600
-7 9 2 1.6422 0.0256
-6 -9 3 6.5022 -0.1937
-6 -9 4 -4.0742 -0.0034
-6 -9 5 4.5936 0.0916
-6 -9 6 -2.4617 -0.0265
-6 -9 7 1.1849 -0.1135
-6 -9 8 -0.9282 -0.3069
-6 -8 1 2.9184 -0.4539
-6 -8 2 -0.1717 -0.1076
-6 -8 3 -5.3710 0.0899
-6 -8 4 2.8399 -0.0018
-6 -8 5 -3.6280 0.0998
-6 -8 6 2.3578 0.0979
-6 -8 7 0.4363 0.1636
-6 -8 8 1.4855 0.0302
-6 -8 9 -0.0598 -0.0491
-6 -8 10 -1.7068 -0.1368
-6 -7 1 -9.3851 0.0417
-6 -7 2 6.7788 -0.2101
-6 -7 3 0.3896 0.0065
-6 -7 4 -3.5797 -0.0518
-6 -7 5 0.9537 0.0286
-6 -7 6 -2.8221 0.0811
-6 -7 7 -0.7339 0.0880
-6 -7 8 0.0602 0.0006
-6 -7 9 -1.2068 -0.0426
-6 -7 10 4.0657 0.0464
-6 -7 11 -1.6232 0.1546
-6 -6 1 -1.0145 0.4809
-6 -6 2 -2.2926 -0.3003
-6 -6 3 -1.1186 -0.0475
-6 -6 4 3.5539 -0.0993
-6 -6 5 -1.7863 -0.0875
-6 -6 6 1.0048 0.0259
-6 -6 7 0.5767 -0.0122
-6 -6 8 -2.1555 0.1011
-6 -6 9 1.6248 -0.0346
-6 -6 10 -6.3686 0.0074
-6 -6 11 2.4779 0.0748
-6 -5 1 -0.3948 0.6724
-6 -5 2 1.8503 -0.0740
-6 -5 3 -0.6367 -0.0113
-6 -5 4 -1.2653 -0.0759
-6 -5 5 -0.5651 -0.1427
-6 -5 6 1.3152 -0.0431
-6 -5 7 1.0522 -0.1001
-6 -5 8 2.2606 0.0411
-6 -5 9 -3.9080 -0.0246
-6 -5 10 11.4112 0.1210
-6 -5 11 -4.8359 0.0514
-6 -4 1 -0.9127 0.5402
-6 -4 2 3.2283 0.2373
-6 -4 3 0.0880 0.0599
-6 -4 4 -1.9952 0.0211
-6 -4 5 -0.0246 -0.1361
-6 -4 6 -0.1590 -0.0434
-6 -4 7 -5.1958 -0.1136
-6 -4 8 6.6348 -0.0961
-6 -4 9 -1.4882 -0.0330
-6 -4 10 -7.2631 0.0240
-6 -4 11 1.5358 0.0900
-6 -3 1 0.6094 -0.0321
-6 -3 2 -0.0285 0.4512
-6 -3 3 2.0754 0.1205
-6 -3 4 2.6762 0.1741
-6 -3 5 -2.3571 0.0005
-6 -3 6 1.2274 0.0258
-6 -3 7 -1.0606 -0.0789
-6 -3 8 -4.6230 -0.1111
-6 -3 9 1.2630 -0.0816
-6 -3 10 5.5449 -0.0562
-6 -3 11 -2.7794 0.2491
-6 -2 1 -0.0580 -0.6262
-6 -2 2 -1.9347 0.4360
-6 -2 3 0.8164 0.0744
-6 -2 4 0.0099 0.2472
-6 -2 5 -0.1224 0.1252
-6 -2 6 0.7559 0.0623
-6 -2 7 0.9879 -0.0290
-6 -2 8 -0.5659 -0.0681
-6 -2 9 0.1070 -0.1285
-6 -2 10 -1.6469 -0.0349
-6 -2 11 2.4086 -0.0197
-6 -1 1 -1.0567 -1.1216
-6 -1 2 1.6737 0.0889
-6 -1 3 -0.7837 0.0164
-6 -1 4 2.0315 0.1473
-6 -1 5 -2.2249 0.1867
-6 -1 6 3.3610 0.0894
-6 -1 7 -1.0502 0.1058
-6 -1 8 -0.3342 -0.0069
-6 -1 9 -1.3046 -0.0887
-6 -1 10 -0.7252 0.0328
-6 -1 11 -0.3110 -0.1743
-6 0 1 0.2950 -1.0348
-6 0 2 -0.1974 -0.2301
-6 0 3 1.7505 -0.0881
-6 0 4 -2.6436 -0.0709
-6 0 5 6.4697 0.1426
-6 0 6 -3.3489 0.0515
-6 0 7 2.3462 0.2030
-6 0 8 -0.6493 -0.0193
-6 0 9 -0.4324 0.0237
-6 0 10 -0.2034 0.0360
-6 0 11 2.3306 -0.1213
-6 1 1 -2.6996 -0.3487
-6 1 2 2.4577 -0.4965
-6 1 3 -4.8464 -0.1455
-6 1 4 4.7602 -0.1247
-6 1 5 -9.0886 0.0403
-6 1 6 7.6754 0.0390
-6 1 7 -1.6746 0.0944
-6 1 8 3.8547 -0.0421
-6 1 9 1.2510 0.1124
-6 1 10 -0.2925 -0.0123
-6 2 1 0.1282 0.5060
-6 2 2 -6.8912 -0.5258
-6 2 3 5.4378 -0.1033
-6 2 4 -6.8238 -0.1878
-6 2 5 4.2647 -0.0652
-6 2 6 -4.6181 0.0734
-6 2 7 1.8022 -0.0028
-6 2 8 -2.0510 0.0711
-6 2 9 -3.4253 0.0099
-6 2 10 2.4786 0.0574
-6 3 1 0.9582 1.0758
-6 3 2 3.9237 -0.2505
-6 3 3 -2.7189 -0.0577
-6 3 4 1.5240 -0.1456
-6 3 5 -0.7528 -0.1580
-6 3 6 -0.7608 -0.0262
-6 3 7 -1.1866 -0.0502
-6 3 8 2.1513 0.0269
-6 3 9 -0.2935 -0.0356
-6 4 1 -3.0749 1.0482
-6 4 2 0.8922 0.0619
-6 4 3 -0.7226 -0.0168
-6 4 4 0.1591 -0.0479
-6 4 5 -0.1537 -0.2009
-6 4 6 -0.9276 0.0276
-6 4 7 -0.2770 -0.0871
-6 4 8 4.2024 -0.1101
-6 5 1 -1.8346 0.5510
-6 5 2 2.4836 0.3393
-6 5 3 0.0548 0.0775
-6 5 4 -2.4141 0.0407
-6 5 5 3.3709 0.0018
-6 5 6 2.9957 0.0803
-6 5 7 -6.0921 -0.1182
-6 5 8 -2.4447 0.0611
-6 6 1 6.3373 -0.1138
-6 6 2 -1.9207 0.3908
-6 6 3 0.8240 0.0561
-6 6 4 2.2901 0.0874
-6 6 5 -4.0091 0.0785
-6 6 6 3.0394 -0.0334
-6 6 7 6.9967 0.0866
-6 7 1 -1.8475 -0.5484
-6 7 2 0.6784 0.2561
-6 7 3 -1.4415 0.0535
-6 7 4 -6.1597 0.0142
-6 7 5 3.3121 -0.0525
-6 7 6 -5.5903 0.0819
-6 8 1 3.4039 -0.5706
-6 8 2 2.0696 0.0371
-6 8 3 -1.2731 -0.0250
-6 8 4 4.2340 -0.0285
-6 9 1 -2.8491 -0.3350
-6 9 2 5.9609 -0.1524
-6 9 3 3.2737 0.0405
-6 10 1 6.0806 0.0506
-5 -10 4 -4.0427 0.1079
-5 -10 5 -2.9207 0.1852
-5 -10 6 1.3983 0.0942
-5 -10 7 -2.1344 0.0604
-5 -10 8 5.0110 -0.1205
-5 -9 1 7.9727 -0.0354
-5 -9 2 -0.7916 -0.0419
-5 -9 3 0.9900 0.0055
-5 -9 4 2.4277 0.0016
-5 -9 5 0.6586 -0.0070
-5 -9 6 -3.0553 0.0095
-5 -9 7 2.4330 0.0017
-5 -9 8 -4.6606 -0.0497
-5 -9 9 3.9120 -0.0047
-5 -9 10 -1.7016 0.2224
-5 -8 1 -3.6062 0.0609
-5 -8 2 4.5834 -0.1634
-5 -8 3 2.9213 -0.0781
-5 -8 4 -1.3145 -0.0675
-5 -8 5 -1.6195 -0.0723
-5 -8 6 2.3289 0.0199
-5 -8 7 -0.1326 -0.0027
-5 -8 8 0.2003 0.0433
-5 -8 9 -1.6093 -0.0692
-5 -8 10 0.5486 0.1001
-5 -8 11 1.6639 0.4955
-5 -7 1 -4.2412 0.4369
-5 -7 2 -0.3578 -0.0226
-5 -7 3 1.1026 -0.0442
-5 -7 4 -4.2892 -0.0500
-5 -7 5 4.7715 -0.0985
-5 -7 6 -3.9943 -0.0276
-5 -7 7 2.9501 -0.1137
-5 -7 8 -1.6621 -0.0313
-5 -7 9 0.8415 -0.0574
-5 -7 10 -2.3082 0.0020
-5 -7 11 2.3337 0.1882
-5 -7 12 -3.2449 0.1801
-5 -6 1 -3.0809 0.4914
-5 -6 2 -0.7308 0.1234
-5 -6 3 -0.7999 0.0808
-5 -6 4 6.2282 0.0500
-5 -6 5 -7.6382 -0.0928
-5 -6 6 3.2678 -0.0107
-5 -6 7 -1.5579 -0.1114
-5 -6 8 0.0833 -0.0299
-5 -6 9 -0.3663 -0.0206
-5 -6 10 0.1601 -0.0608
-5 -6 11 -4.0286 0.0961
-5 -6 12 6.2680 -0.0559
-5 -5 1 -0.4441 0.1595
-5 -5 2 0.8583 0.3071
-5 -5 3 -1.0914 0.1272
-5 -5 4 -0.2473 0.1142
-5 -5 5 1.0137 -0.0126
-5 -5 6 1.9498 0.0300
-5 -5 7 -0.3311 -0.0636
-5 -5 8 2.1779 -0.0653
-5 -5 9 -2.1843 -0.0850
-5 -5 10 3.2795 -0.0582
-5 -5 11 3.4696 0.0464
-5 -5 12 -1.4696 -0.1096
-5 -4 1 -0.3427 -0.3084
-5 -4 2 0.5431 0.3766
-5 -4 3 -1.8379 0.0698
-5 -4 4 1.3492 0.1676
-5 -4 5 -1.6779 0.0860
-5 -4 6 -1.6357 0.0183
-5 -4 7 0.9725 -0.0363
-5 -4 8 0.3831 -0.0992
-5 -4 9 -2.6149 -0.0272
-5 -4 10 -2.8318 0.0022
-5 -4 11 -1.0633 -0.0368
-5 -4 12 4.2376 -0.1347
-5 -3 1 2.3481 -0.8657
-5 -3 2 -1.8299 0.2206
-5 -3 3 2.9729 0.0186
-5 -3 4 -0.7608 0.1420
-5 -3 5 -1.0308 0.1371
-5 -3 6 1.4389 0.0539
-5 -3 7 -0.6411 0.0601
-5 -3 8 -0.2820 -0.0592
-5 -3 9 1.4592 -0.0120
-5 -3 10 -3.4853 -0.0377
-5 -3 11 0.3463 -0.0505
-5 -3 12 6.2410 -0.1521
-5 -2 1 -1.3751 -1.0906
-5 -2 2 2.2202 -0.0649
-5 -2 3 -1.1399 -0.0046
-5 -2 4 0.0611 0.0558
-5 -2 5 -0.2740 0.1413
-5 -2 6 2.0639 0.0689
-5 -2 7 -1.9173 0.1323
-5 -2 8 3.6277 -0.0389
-5 -2 9 -0.6888 -0.0641
-5 -2 10 3.2658 0.0544
-5 -2 11 -13.3136 0.0356
-5 -2 12 3.1167 0.0425
-5 -1 1 2.4562 -0.6605
-5 -1 2 -1.1237 -0.3901
-5 -1 3 0.0273 -0.0540
-5 -1 4 0.2152 -0.0838
-5 -1 5 1.0669 0.0967
-5 -1 6 -3.5725 0.0416
-5 -1 7 3.3324 0.1461
-5 -1 8 -2.5785 0.0012
-5 -1 9 1.3631 0.0187
-5 -1 10 1.5627 0.1076
-5 -1 11 3.1075 -0.1788
-5 0 1 -3.0793 0.1058
-5 0 2 3.0754 -0.5623
-5 0 3 -0.2669 -0.1382
-5 0 4 -0.4860 -0.1822
-5 0 5 -0.5898 0.0097
-5 0 6 3.7984 0.0100
-5 0 7 -0.5382 0.0862
-5 0 8 -0.1351 0.0253
-5 0 9 -1.3698 0.1131
-5 0 10 -0.8477 0.0510
-5 0 11 4.0835 -0.0204
-5 1 1 0.4065 0.9078
-5 1 2 0.0666 -0.4032
-5 1 3 0.6365 -0.1448
-5 1 4 -0.5658 -0.1451
-5 1 5 -2.9081 -0.1451
-5 1 6 -1.8745 0.0103
-5 1 7 1.2735 -0.0200
-5 1 8 2.2406 0.0244
-5 1 9 1.0875 0.0373
-5 1 10 -0.3815 -0.0878
-5 1 11 -1.0254 0.2725
-5 2 1 -3.3785 1.1859
-5 2 2 0.4386 -0.0515
-5 2 3 0.2322 -0.0304
-5 2 4 0.0530 -0.0580
-5 2 5 -0.7254 -0.2149
-5 2 6 2.6322 0.0026
-5 2 7 -2.3213 -0.1311
-5 2 8 1.9537 0.0132
-5 2 9 -2.4208 0.0134
-5 2 10 -0.6210 0.0945
-5 3 1 -0.8339 0.8434
-5 3 2 2.7496 0.3799
-5 3 3 -0.5741 0.0563
-5 3 4 1.6377 0.0166
-5 3 5 0.1741 -0.1025
-5 3 6 -4.1910 -0.0031
-5 3 7 0.2966 -0.1122
-5 3 8 1.8437 -0.0968
-5 3 9 3.4159 -0.0670
-5 3 10 -0.9196 0.0497
-5 4 1 -0.4140 0.0775
-5 4 2 -4.2680 0.4742
-5 4 3 1.5657 0.0515
-5 4 4 0.9448 0.0909
-5 4 5 -0.3603 0.0374
-5 4 6 1.1881 0.0066
-5 4 7 -1.2502 -0.0418
-5 4 8 0.6420 -0.0766
-5 4 9 -1.3365 0.1131
-5 5 1 3.3626 -0.6091
-5 5 2 1.0783 0.3365
-5 5 3 -2.0463 0.1082
-5 5 4 -3.3172 0.0726
-5 5 5 2.7882 0.1099
-5 5 6 -0.1690 0.0154
-5 5 7 -3.2662 0.0209
-5 5 8 -1.0229 0.0771
-5 6 1 -2.8999 -0.8324
-5 6 2 1.6167 0.1154
-5 6 3 1.9022 0.1148
-5 6 4 -0.6683 0.0211
-5 6 5 -1.1611 0.1062
-5 6 6 1.2631 -0.0034
-5 6 7 0.6262 0.1100
-5 7 1 0.2111 -0.6273
-5 7 2 0.6429 -0.1387
-5 7 3 0.0251 -0.0008
-5 7 4 1.7617 -0.0898
-5 7 5 -1.7489 0.0216
-5 7 6 -0.4523 0.0666
-5 8 1 4.4278 -0.1764
-5 8 2 -4.3572 -0.2232
-5 8 3 -0.8046 -0.0596
-5 8 4 1.2475 -0.0840
-5 8 5 -1.4336 0.1253
-5 9 1 3.2061 0.1717
-5 9 2 4.5731 -0.1922
-5 9 3 0.2619 0.0267
-5 9 4 1.1810 0.0482
-5 10 1 -0.6661 0.3572
-5 10 2 -3.4304 0.2176
-4 -11 5 -1.2054 0.0162
-4 -11 6 -0.7202 -0.1767
-4 -11 7 3.4827 -0.1476
-4 -10 2 0.2161 -0.0246
-4 -10 3 1.1150 0.0759
-4 -10 4 -1.1991 0.0572
-4 -10 5 -4.4494 -0.0352
-4 -10 6 1.4986 0.0042
-4 -10 7 -2.1024 0.0255
-4 -10 8 -1.6319 -0.0400
-4 -10 9 3.1506 -0.0998
-4 -10 10 6.0275 0.1812
-4 -9 1 -1.3655 0.1889
-4 -9 2 0.1447 -0.0694
-4 -9 3 -3.4372 -0.0234
-4 -9 4 2.8026 0.0273
-4 -9 5 -3.4176 -0.0300
-4 -9 6 0.9704 0.0244
-4 -9 7 -1.0133 -0.0749
-4 -9 8 0.6589 0.0245
-4 -9 9 -4.2506 0.0523
-4 -9 10 -2.2646 0.1122
-4 -9 11 7.2996 0.0847
-4 -8 1 5.4413 0.4869
-4 -8 2 -0.5398 0.0171
-4 -8 3 2.8911 -0.0037
-4 -8 4 1.2343 -0.0112
-4 -8 5 1.4454 -0.0971
-4 -8 6 -2.4409 -0.0107
-4 -8 7 2.2980 -0.1238
-4 -8 8 -3.4649 -0.0452
-4 -8 9 1.5712 0.0091
-4 -8 10 -6.2564 0.0669
-4 -8 11 1.4236 0.1054
-4 -8 12 4.1863 -0.0630
-4 -7 1 -0.7598 0.3231
-4 -7 2 0.2367 0.1778
-4 -7 3 -0.8728 0.0692
-4 -7 4 0.7299 0.0406
-4 -7 5 -0.3525 -0.0535
-4 -7 6 -0.5552 -0.0334
-4 -7 7 3.1318 -0.1344
-4 -7 8 -0.4056 -0.1305
-4 -7 9 1.4714 -0.0605
-4 -7 10 -0.7148 -0.0089
-4 -7 11 -4.0845 0.1495
-4 -7 12 0.7150 -0.1039
-4 -6 1 -4.1382 -0.0794
-4 -6 2 0.6478 0.3780
-4 -6 3 0.3431 0.0930
-4 -6 4 0.7237 0.1021
-4 -6 5 -2.5900 0.0317
-4 -6 6 1.2752 -0.0210
-4 -6 7 -2.0286 -0.0651
-4 -6 8 0.9664 -0.0958
-4 -6 9 -2.3768 -0.0792
-4 -6 10 0.6936 -0.0234
-4 -6 11 2.6898 0.0861
-4 -6 12 1.6634 -0.2529
-4 -5 1 0.6733 -0.6088
-4 -5 2 -0.8470 0.3353
-4 -5 3 0.0909 0.1153
-4 -5 4 0.7490 0.1407
-4 -5 5 2.2432 0.1650
-4 -5 6 -0.3658 0.0550
-4 -5 7 1.5764 0.0241
-4 -5 8 0.6895 -0.0723
-4 -5 9 1.0421 -0.1238
-4 -5 10 -3.1263 -0.0459
-4 -5 11 -1.6859 -0.0054
-4 -5 12 1.2270 -0.1528
-4 -4 1 1.0957 -0.9918
-4 -4 2 -0.5939 0.0334
-4 -4 3 -2.1241 0.1141
-4 -4 4 1.7687 0.0954
-4 -4 5 -2.5946 0.2224
-4 -4 6 2.9931 0.0528
-4 -4 7 -1.5817 0.1220
-4 -4 8 0.6679 0.0127
-4 -4 9 -1.2557 -0.0630
-4 -4 10 -0.4496 -0.0003
-4 -4 11 -4.1303 -0.0288
-4 -4 12 5.3012 -0.1004
-4 -3 1 1.5764 -0.8408
-4 -3 2 0.3081 -0.3356
-4 -3 3 -0.1683 -0.0112
-4 -3 4 -1.4549 -0.0381
-4 -3 5 -0.2002 0.1539
-4 -3 6 -1.8824 0.0304
-4 -3 7 3.5342 0.1766
-4 -3 8 1.0978 0.0517
-4 -3 9 1.5266 -0.0035
-4 -3 10 -2.0819 0.0273
-4 -3 11 2.1537 -0.1056
-4 -3 12 3.0766 -0.0549
-4 -2 1 -1.2546 -0.1961
-4 -2 2 2.4162 -0.5714
-4 -2 3 -2.2829 -0.2010
-4 -2 4 -0.6195 -0.1570
-4 -2 5 0.4894 0.0352
-4 -2 6 -0.7676 0.0336
-4 -2 7 -0.0139 0.0928
-4 -2 8 -0.4174 0.0679
-4 -2 9 2.8362 0.0931
-4 -2 10 0.5734 0.1111
-4 -2 11 -9.9568 -0.0919
-4 -2 12 2.2898 0.0493
-4 -1 1 -0.3434 0.6709
-4 -1 2 0.6956 -0.4518
-4 -1 3 3.9527 -0.1944
-4 -1 4 -3.1796 -0.1712
-4 -1 5 -1.3629 -0.1454
-4 -1 6 -0.1677 -0.0291
-4 -1 7 -0.9767 -0.0288
-4 -1 8 4.4507 0.0484
-4 -1 9 -4.0568 0.0718
-4 -1 10 5.2166 0.1214
-4 -1 11 -0.8504 0.0417
-4 -1 12 -0.2052 0.1252
-4 0 1 -1.7846 1.1795
-4 0 2 3.0901 -0.1056
-4 0 3 -0.6764 -0.1041
-4 0 4 2.8613 -0.1083
-4 0 5 -0.4464 -0.2258
-4 0 6 -0.3495 -0.0290
-4 0 7 -1.6431 -0.0614
-4 0 8 0.1585 -0.0201
-4 0 9 3.1142 0.0434
-4 0 10 0.4545 0.0407
-4 0 11 -4.0408 0.0327
-4 1 1 -0.4674 1.0258
-4 1 2 -0.6015 0.3227
-4 1 3 0.5584 -0.0021
-4 1 4 -0.3207 0.0414
-4 1 5 -2.2269 -0.1627
-4 1 6 -0.2993 -0.0263
-4 1 7 -1.1917 -0.1004
-4 1 8 -2.5887 -0.0893
-4 1 9 -1.0259 0.0448
-4 1 10 0.0902 0.0279
-4 1 11 3.2825 -0.0109
-4 2 1 -3.5693 0.3915
-4 2 2 3.8682 0.5603
-4 2 3 -2.5343 0.1125
-4 2 4 2.8720 0.1357
-4 2 5 1.0148 -0.0693
-4 2 6 -2.9462 -0.0316
-4 2 7 2.9383 -0.0879
-4 2 8 1.7438 -0.1149
-4 2 9 0.4394 -0.0159
-4 2 10 -4.6975 -0.0641
-4 3 1 -0.0201 -0.4411
-4 3 2 -1.4990 0.4398
-4 3 3 1.7142 0.2152
-4 3 4 2.9968 0.1218
-4 3 5 -0.3454 0.0756
-4 3 6 1.4899 -0.0088
-4 3 7 -3.6726 -0.0797
-4 3 8 2.3268 -0.0587
-4 3 9 2.9699 0.0211
-4 3 10 3.7983 -0.1690
-4 4 1 -0.2060 -0.9707
-4 4 2 0.4680 0.1261
-4 4 3 0.2267 0.1995
-4 4 4 -2.9731 0.0614
-4 4 5 4.1561 0.1933
-4 4 6 -1.2957 0.0145
-4 4 7 2.5235 0.0277
-4 4 8 -4.2684 0.0959
-4 4 9 3.0011 -0.1494
-4 5 1 -0.8301 -0.9753
-4 5 2 -2.3534 -0.2083
-4 5 3 -2.0178 0.0666
-4 5 4 1.3687 0.0052
-4 5 5 -0.2112 0.1425
-4 5 6 -0.8072 0.0275
-4 5 7 -5.1079 0.1058
-4 5 8 6.5161 -0.0967
-4 6 1 0.5490 -0.4832
-4 6 2 -0.0190 -0.3021
-4 6 3 -2.7150 -0.0489
-4 6 4 -0.4044 -0.0462
-4 6 5 -1.0991 0.0830
-4 6 6 1.1613 0.0786
-4 6 7 -1.3516 -0.1250
-4 7 1 2.2365 0.0688
-4 7 2 0.2540 -0.2614
-4 7 3 3.0194 -0.1796
-4 7 4 -0.9237 -0.0687
-4 7 5 2.4629 0.0452
-4 7 6 -0.5380 -0.1403
-4 8 1 3.1451 0.3313
-4 8 2 -2.9276 -0.1334
-4 8 3 -1.2044 -0.1310
-4 8 4 -0.5253 0.0172
-4 8 5 0.7475 -0.1490
-4 9 1 -8.8091 0.4241
-4 9 2 8.6084 0.1230
-4 9 3 -4.7750 -0.0295
-4 9 4 4.4676 -0.1002
-4 10 1 16.8989 0.3083
-4 10 2 -9.2734 0.1057
-3 -11 3 0.7418 0.0120
-3 -11 4 0.3672 0.0194
-3 -11 5 -3.3420 -0.0652
-3 -11 6 4.6967 -0.1304
-3 -11 7 -2.1648 -0.0633
-3 -11 8 7.2597 0.0077
-3 -11 9 -4.4720 0.3770
-3 -10 1 -1.2636 0.3238
-3 -10 2 -0.6038 -0.0414
-3 -10 3 -3.5935 -0.0239
-3 -10 4 5.1592 0.0109
-3 -10 5 1.5865 -0.0968
-3 -10 6 -2.5261 -0.0660
-3 -10 7 2.7852 -0.1273
-3 -10 8 -2.7133 -0.2123
-3 -10 9 0.4851 0.0970
-3 -10 10 3.2621 0.2331
-3 -10 11 2.9248 0.2249
-3 -9 1 -0.8358 0.3298
-3 -9 2 0.4387 0.1307
-3 -9 3 -2.2001 0.0397
-3 -9 4 -4.6177 0.0056
-3 -9 5 -5.2740 -0.0858
-3 -9 6 2.8966 0.0052
-3 -9 7 -1.7723 -0.0882
-3 -9 8 4.0432 -0.0871
-3 -9 9 -0.0860 0.0281
-3 -9 10 -3.1756 -0.0452
-3 -9 11 3.1642 0.0418
-3 -9 12 4.6079 0.0618
-3 -8 1 -0.0329 0.1274
-3 -8 2 -2.2302 0.2542
-3 -8 3 3.8130 0.1455
-3 -8 4 5.1077 0.1179
-3 -8 5 -1.7099 0.0346
-3 -8 6 -3.6112 -0.0094
-3 -8 7 1.5582 -0.0888
-3 -8 8 -3.6764 -0.0674
-3 -8 9 -1.5747 -0.0836
-3 -8 10 -2.0401 -0.0277
-3 -8 11 -2.0530 0.0150
-3 -8 12 3.1423 -0.1547
-3 -7 1 1.0424 -0.2731
-3 -7 2 2.9079 0.2149
-3 -7 3 -3.8541 0.1803
-3 -7 4 0.9285 0.0963
-3 -7 5 3.2268 0.1111
-3 -7 6 0.7914 0.0026
-3 -7 7 -1.4593 -0.0335
-3 -7 8 1.9491 -0.0446
-3 -7 9 0.9270 -0.0624
-3 -7 10 -0.8639 0.0013
-3 -7 11 -3.5178 -0.0513
-3 -7 12 2.4880 -0.2072
-3 -6 1 2.5394 -0.6248
-3 -6 2 -1.3646 -0.0108
-3 -6 3 -2.5143 0.1056
-3 -6 4 -0.5717 0.0267
-3 -6 5 -1.1088 0.1628
-3 -6 6 -0.6395 0.0166
-3 -6 7 1.3910 0.0258
-3 -6 8 -1.5721 0.0026
-3 -6 9 1.2862 -0.0642
-3 -6 10 -2.4145 0.0049
-3 -6 11 2.8128 0.0029
-3 -6 12 3.0915 -0.1553
-3 -6 13 8.9450 0.1837
-3 -5 1 -0.9365 -0.6355
-3 -5 2 4.3820 -0.2506
-3 -5 3 0.2150 0.0332
-3 -5 4 -0.1143 -0.0022
-3 -5 5 -0.0824 0.1693
-3 -5 6 1.7838 0.0164
-3 -5 7 -1.0756 0.0680
-3 -5 8 4.0098 0.0349
-3 -5 9 -1.7552 -0.0360
-3 -5 10 -1.0751 0.0604
-3 -5 11 -6.8042 -0.0414
-3 -5 12 -3.2382 -0.1830
-3 -5 13 -5.2933 0.0686
-3 -4 1 0.3453 -0.3249
-3 -4 2 -1.2131 -0.3985
-3 -4 3 1.3652 -0.1014
-3 -4 4 -0.1675 -0.0873
-3 -4 5 0.1717 0.1269
-3 -4 6 0.9923 0.0377
-3 -4 7 -1.9354 0.0968
-3 -4 8 0.1831 0.0783
-3 -4 9 1.6390 0.0196
-3 -4 10 1.5843 0.0718
-3 -4 11 -3.1037 -0.0328
-3 -4 12 -1.7719 -0.0587
-3 -4 13 -2.5764 0.0549
-3 -3 1 0.1236 0.2735
-3 -3 2 1.6584 -0.3500
-3 -3 3 1.1972 -0.1944
-3 -3 4 -1.9667 -0.1204
-3 -3 5 -0.8015 -0.0009
-3 -3 6 0.2784 -0.0032
-3 -3 7 3.2153 0.0546
-3 -3 8 -1.8762 0.0634
-3 -3 9 3.4854 0.0345
-3 -3 10 3.2091 0.0948
-3 -3 11 0.4903 0.0135
-3 -3 12 5.5357 -0.0649
-3 -2 1 -3.4514 0.8009
-3 -2 2 2.3499 -0.1621
-3 -2 3 -1.9853 -0.1920
-3 -2 4 -1.3790 -0.0955
-3 -2 5 3.2426 -0.1788
-3 -2 6 -4.0403 -0.0282
-3 -2 7 -0.1755 0.0009
-3 -2 8 1.4674 0.0353
-3 -2 9 -3.0084 0.0592
-3 -2 10 -0.5631 0.0758
-3 -2 11 2.9634 0.0223
-3 -2 12 -4.1787 0.0683
-3 -1 1 -5.8448 1.0486
-3 -1 2 1.5566 0.1182
-3 -1 3 -0.4455 -0.1415
-3 -1 4 -0.3431 -0.0411
-3 -1 5 -2.8969 -0.2090
-3 -1 6 0.9401 -0.0455
-3 -1 7 -0.5827 -0.1129
-3 -1 8 1.7724 -0.0403
-3 -1 9 1.9545 0.0664
-3 -1 10 -0.4596 0.0430
-3 -1 11 -1.5157 0.0176
-3 -1 12 8.2186 0.0775
-3 0 1 2.0050 0.7869
-3 0 2 0.0391 0.4184
-3 0 3 3.5327 0.0381
-3 0 4 -0.7831 0.0468
-3 0 5 0.7904 -0.1361
-3 0 6 0.3732 -0.0816
-3 0 7 -3.8433 -0.1235
-3 0 8 2.1230 -0.0668
-3 0 9 -0.6836 0.0273
-3 0 10 2.1351 -0.0050
-3 0 11 -3.0724 -0.0145
-3 0 12 2.3235 -0.0398
-3 1 1 -1.1809 -0.0051
-3 1 2 3.3136 0.5204
-3 1 3 -0.3964 0.2345
-3 1 4 1.4970 0.1235
-3 1 5 -2.7424 0.0204
-3 1 6 0.7754 -0.0439
-3 1 7 -2.6604 -0.0787
-3 1 8 -2.8394 -0.0799
-3 1 9 -0.4121 -0.0434
-3 1 10 -0.8310 -0.0004
-3 1 11 -5.2402 -0.0237
-3 2 1 -4.8885 -0.7420
-3 2 2 -1.6169 0.3063
-3 2 3 -1.6906 0.2782
-3 2 4 6.0347 0.1480
-3 2 5 -1.2753 0.1731
-3 2 6 -0.8229 0.0140
-3 2 7 1.4111 -0.0296
-3 2 8 -1.4354 -0.0692
-3 2 9 -0.2933 -0.0740
-3 2 10 0.2067 -0.0058
-3 3 1 5.1434 -0.9593
-3 3 2 -0.6625 -0.1234
-3 3 3 -2.0675 0.1433
-3 3 4 0.9026 0.0477
-3 3 5 4.0986 0.1512
-3 3 6 -0.5585 0.0437
-3 3 7 1.1017 0.0304
-3 3 8 3.5711 0.0036
-3 3 9 1.7440 0.0333
-3 3 10 -0.9444 -0.0809
-3 4 1 0.3694 -0.7073
-3 4 2 1.8503 -0.3751
-3 4 3 -1.5606 0.0141
-3 4 4 -1.0735 -0.0232
-3 4 5 5.3215 0.1217
-3 4 6 -1.0908 0.0657
-3 4 7 -3.0182 0.0215
-3 4 8 -0.2423 0.0641
-3 4 9 2.1626 0.0383
-3 5 1 -5.6006 -0.2111
-3 5 2 0.0033 -0.3772
-3 5 3 -0.4223 -0.1364
-3 5 4 -3.4041 -0.0411
-3 5 5 2.2204 0.0609
-3 5 6 -1.3112 0.0117
-3 5 7 3.2525 0.0147
-3 5 8 -0.6000 0.0421
-3 6 1 5.4910 0.2854
-3 6 2 -3.9639 -0.1792
-3 6 3 -3.1524 -0.1633
-3 6 4 0.1320 -0.0554
-3 6 5 -5.6407 -0.0635
-3 6 6 9.4152 -0.0135
-3 6 7 -11.1040 -0.0047
-3 7 1 2.1959 0.5051
-3 7 2 2.0742 0.0186
-3 7 3 2.7259 -0.1298
-3 7 4 -3.2455 -0.0384
-3 7 5 4.2037 -0.0349
-3 7 6 -8.3830 -0.0299
-3 8 1 -0.9348 0.3857
-3 8 2 4.0533 0.0986
-3 8 3 -3.6703 -0.0705
-3 8 4 1.2551 0.0500
-3 8 5 1.5728 -0.0409
-3 9 1 1.0315 0.1720
-3 9 2 -2.6839 0.1618
-3 9 3 -0.5003 0.0446
-3 9 4 1.4837 0.0116
-3 10 1 -4.3911 0.0137
-3 10 2 4.4068 0.0617
-3 10 3 0.1241 -0.0225
-3 11 1 12.3706 -0.1509
-2 -12 5 6.8810 -0.2582
-2 -12 6 -1.5221 -0.1653
-2 -12 7 1.4345 -0.0205
-2 -11 1 -1.9008 0.1909
-2 -11 2 -5.0223 0.0709
-2 -11 3 1.3775 0.0132
-2 -11 4 -0.4290 0.0085
-2 -11 5 -1.0500 -0.0403
-2 -11 6 -3.2445 -0.0026
-2 -11 7 3.8109 -0.0478
-2 -11 8 3.7144 -0.0296
-2 -11 9 -4.2650 0.0753
-2 -11 10 1.3289 0.0165
-2 -10 1 -2.5269 0.1889
-2 -10 2 4.4268 0.1165
-2 -10 3 -4.0541 0.0216
-2 -10 4 0.8457 0.0125
-2 -10 5 0.0097 -0.1081
-2 -10 6 8.9575 -0.0903
-2 -10 7 -2.3800 -0.1202
-2 -10 8 -1.3107 -0.0604
-2 -10 9 -0.9594 0.0730
-2 -10 10 -4.3423 0.0200
-2 -10 11 4.7822 -0.1864
-2 -9 1 1.6307 0.0334
-2 -9 2 0.2999 0.1462
-2 -9 3 -0.4469 0.1053
-2 -9 4 -2.9033 0.0717
-2 -9 5 -2.5353 0.0026
-2 -9 6 -5.0802 -0.0179
-2 -9 7 0.0161 -0.0958
-2 -9 8 10.8128 -0.0664
-2 -9 9 1.2296 0.0268
-2 -9 10 -0.8115 -0.0254
-2 -9 11 -4.0742 -0.0536
-2 -9 12 2.9229 -0.3451
-2 -8 1 -0.7499 -0.2656
-2 -8 2 0.7104 0.0525
-2 -8 3 -0.2445 0.1825
-2 -8 4 1.5862 0.0964
-2 -8 5 -0.8951 0.1430
-2 -8 6 -0.3434 0.0477
-2 -8 7 -0.4747 -0.0127
-2 -8 8 -5.6930 -0.0243
-2 -8 9 0.3213 -0.0444
-2 -8 10 4.0802 -0.0459
-2 -8 11 -3.9808 0.0263
-2 -8 12 -0.9936 -0.1809
-2 -7 1 0.8554 -0.4376
-2 -7 2 2.0163 -0.0964
-2 -7 3 -1.7568 0.1133
-2 -7 4 2.6015 0.0173
-2 -7 5 2.5215 0.1562
-2 -7 6 0.3458 0.0368
-2 -7 7 -4.4971 0.0502
-2 -7 8 3.1375 0.0302
-2 -7 9 -1.6689 0.0115
-2 -7 10 2.1771 0.0123
-2 -7 11 -0.5673 -0.0499
-2 -7 12 0.1665 -0.1635
-2 -7 13 -4.0527 -0.0197
-2 -6 1 -1.2309 -0.4445
-2 -6 2 -0.2195 -0.3010
-2 -6 3 1.5038 -0.0785
-2 -6 4 -6.3697 -0.0518
-2 -6 5 0.7646 0.1392
-2 -6 6 0.4643 0.0418
-2 -6 7 1.6016 0.0464
-2 -6 8 -0.1611 0.0649
-2 -6 9 -3.2244 0.0306
-2 -6 10 -1.1188 0.0144
-2 -6 11 1.8543 -0.0533
-2 -6 12 7.2823 -0.0503
-2 -6 13 2.6658 0.1221
-2 -5 1 -0.2412 -0.1072
-2 -5 2 2.1132 -0.3593
-2 -5 3 -0.9224 -0.1960
-2 -5 4 1.2895 -0.1119
-2 -5 5 -1.3097 0.0151
-2 -5 6 1.8016 -0.0083
-2 -5 7 -1.1074 0.0283
-2 -5 8 0.0453 0.0922
-2 -5 9 3.7473 0.0398
-2 -5 10 2.5831 0.0991
-2 -5 11 -11.0620 -0.0055
-2 -5 12 -7.3593 -0.0555
-2 -5 13 4.5182 0.0983
-2 -4 1 -0.0017 0.5606
-2 -4 2 1.4846 -0.2457
-2 -4 3 0.2866 -0.2533
-2 -4 4 -0.6687 -0.1489
-2 -4 5 0.6612 -0.1234
-2 -4 6 -0.1162 -0.0304
-2 -4 7 -1.5013 0.0165
-2 -4 8 1.7868 0.0387
-2 -4 9 -3.4248 0.0675
-2 -4 10 -0.8000 0.1233
-2 -4 11 9.9984 -0.0532
-2 -4 12 -6.5275 -0.0518
-2 -4 13 -10.1440 0.0547
-2 -3 1 2.1969 1.0667
-2 -3 2 3.3261 0.0471
-2 -3 3 0.6791 -0.1800
-2 -3 4 -0.3172 -0.0454
-2 -3 5 -0.6578 -0.1784
-2 -3 6 1.5511 -0.0493
-2 -3 7 -1.2289 -0.0599
-2 -3 8 2.3825 -0.0479
-2 -3 9 0.3190 0.0900
-2 -3 10 4.1813 0.0695
-2 -3 11 -4.2988 0.0184
-2 -3 12 5.8988 0.1241
-2 -3 13 3.6600 -0.1190
-2 -2 1 -1.8383 1.0247
-2 -2 2 1.3737 0.4398
-2 -2 3 -0.1539 -0.0104
-2 -2 4 1.0883 0.0894
-2 -2 5 0.7010 -0.1538
-2 -2 6 0.2931 -0.0418
-2 -2 7 -1.4756 -0.1170
-2 -2 8 -1.9745 -0.0960
-2 -2 9 0.4816 0.0372
-2 -2 10 -0.9820 0.0030
-2 -2 11 3.3453 0.0401
-2 -2 12 -3.0632 -0.0077
-2 -1 1 -14.4257 0.3357
-2 -1 2 4.2211 0.5477
-2 -1 3 0.5442 0.1691
-2 -1 4 -4.3686 0.1289
-2 -1 5 0.1808 -0.0711
-2 -1 6 -0.7565 -0.0402
-2 -1 7 2.9797 -0.0863
-2 -1 8 -0.9076 -0.0513
-2 -1 9 0.1827 -0.0324
-2 -1 10 1.6998 -0.0381
-2 -1 11 4.7217 0.0236
-2 -1 12 0.3739 -0.0895
-2 0 1 -6.5715 -0.5218
-2 0 2 -2.9694 0.2825
-2 0 3 -0.3264 0.2575
-2 0 4 1.4707 0.1194
-2 0 5 0.7825 0.1298
-2 0 6 0.2477 -0.0135
-2 0 7 -3.6769 -0.0422
-2 0 8 1.9376 -0.0502
-2 0 9 -0.1820 -0.0628
-2 0 10 -4.6008 -0.0094
-2 0 11 3.7275 0.0294
-2 0 12 7.6226 -0.1709
-2 1 1 15.3225 -0.8731
-2 1 2 0.9341 -0.0704
-2 1 3 -0.4671 0.1920
-2 1 4 1.3027 0.0395
-2 1 5 -2.1622 0.1972
-2 1 6 0.1372 0.0216
-2 1 7 0.4561 0.0208
-2 1 8 -2.2812 -0.0022
-2 1 9 0.0193 -0.0181
-2 1 10 -4.6022 -0.0447
-2 1 11 -6.5823 -0.1065
-2 2 1 -4.1639 -0.6902
-2 2 2 -2.7213 -0.3364
-2 2 3 1.7553 0.0697
-2 2 4 1.2920 -0.0151
-2 2 5 1.2896 0.1691
-2 2 6 -0.3498 0.0581
-2 2 7 -3.5420 0.0101
-2 2 8 0.6013 0.0336
-2 2 9 -0.4862 0.0209
-2 2 10 1.5723 -0.0174
-2 3 1 0.4771 -0.2870
-2 3 2 3.1201 -0.4121
-2 3 3 -3.9378 -0.1011
-2 3 4 0.0269 -0.0753
-2 3 5 1.2853 0.0589
-2 3 6 3.7231 0.0190
-2 3 7 0.0376 0.0203
-2 3 8 3.0555 0.0824
-2 3 9 0.7531 0.0534
-2 3 10 -0.0090 0.0398
-2 4 1 0.3931 0.1868
-2 4 2 1.3762 -0.2397
-2 4 3 -1.9518 -0.2267
-2 4 4 2.6858 -0.0950
-2 4 5 0.6485 -0.0573
-2 4 6 2.5839 0.0148
-2 4 7 -3.3259 0.0376
-2 4 8 0.3527 0.0240
-2 4 9 -0.9636 -0.0029
-2 5 1 0.0327 0.5202
-2 5 2 -2.6096 0.0451
-2 5 3 -0.1702 -0.1632
-2 5 4 -2.8868 -0.0238
-2 5 5 -0.7002 -0.0839
-2 5 6 2.9651 0.0011
-2 5 7 -0.8691 -0.0467
-2 5 8 3.4852 -0.0327
-2 6 1 3.3975 0.5854
-2 6 2 0.3759 0.1837
-2 6 3 -0.9757 -0.0609
-2 6 4 -4.6420 0.0259
-2 6 5 2.0635 -0.0793
-2 6 6 0.4192 -0.0712
-2 6 7 -0.6134 -0.0818
-2 7 1 -0.8082 0.3214
-2 7 2 2.7021 0.1659
-2 7 3 -1.1780 0.0366
-2 7 4 0.6249 0.0530
-2 7 5 -2.4299 -0.0309
-2 7 6 -3.5904 -0.0579
-2 8 1 1.6734 0.0299
-2 8 2 0.4779 0.1248
-2 8 3 1.9892 0.1005
-2 8 4 -0.6697 0.0708
-2 8 5 0.0132 0.0106
-2 9 1 -3.0049 -0.1311
-2 9 2 3.5115 0.0124
-2 9 3 -1.3214 0.0660
-2 9 4 -2.0327 0.0392
-2 10 1 -1.4293 -0.1286
-2 10 2 -2.2261 -0.1358
-2 10 3 0.9544 -0.0802
-2 11 1 7.2674 -0.2028
-1 -12 3 -4.9600 -0.0646
-1 -12 4 8.2686 -0.0707
-1 -12 5 2.4833 -0.1949
-1 -12 6 3.8623 -0.0527
-1 -12 7 3.2328 0.0214
-1 -12 8 -3.7707 0.0959
-1 -11 1 -2.4682 0.1759
-1 -11 2 5.3438 0.0814
-1 -11 3 1.7070 -0.0186
-1 -11 4 -12.9848 0.0408
-1 -11 5 2.7455 -0.0464
-1 -11 6 -2.6777 0.0172
-1 -11 7 1.7107 -0.1015
-1 -11 8 4.7765 -0.1167
-1 -11 9 1.9640 -0.0569
-1 -11 10 -2.9694 0.0012
-1 -10 1 -3.8783 -0.1489
-1 -10 2 0.5426 0.0235
-1 -10 3 -0.8501 0.1533
-1 -10 4 5.0864 0.0177
-1 -10 5 -0.5521 0.0119
-1 -10 6 -0.4406 -0.0106
-1 -10 7 -2.2051 -0.0476
-1 -10 8 0.7937 0.0468
-1 -10 9 -3.2303 -0.0276
-1 -10 10 0.2753 -0.0510
-1 -10 11 1.3513 -0.1638
-1 -9 1 2.2703 -0.3673
-1 -9 2 -3.1399 -0.0497
-1 -9 3 2.3298 0.1209
-1 -9 4 -3.0336 -0.0068
-1 -9 5 -0.5796 0.1304
-1 -9 6 1.5035 0.0542
-1 -9 7 1.4298 0.0312
-1 -9 8 1.4353 0.0665
-1 -9 9 0.8091 -0.0085
-1 -9 10 1.2137 0.0107
-1 -9 11 -3.2139 -0.1477
-1 -9 12 -1.3210 0.0202
-1 -8 1 0.3348 -0.3962
-1 -8 2 2.6702 -0.1916
-1 -8 3 -2.5662 -0.0196
-1 -8 4 -0.9311 -0.0381
-1 -8 5 0.0477 0.1246
-1 -8 6 -0.3224 0.0445
-1 -8 7 -1.9238 0.0211
-1 -8 8 1.4375 0.0657
-1 -8 9 3.1236 0.0733
-1 -8 10 0.0485 0.0681
-1 -8 11 -1.4768 -0.0836
-1 -8 12 -3.5863 -0.0427
-1 -7 1 -2.8950 -0.2299
-1 -7 2 4.4292 -0.2280
-1 -7 3 1.0263 -0.1656
-1 -7 4 -1.0269 -0.1145
-1 -7 5 1.2554 0.0182
-1 -7 6 1.5195 0.0120
-1 -7 7 -3.7293 0.0346
-1 -7 8 1.2545 0.0625
-1 -7 9 -6.0966 0.0629
-1 -7 10 9.7451 0.0494
-1 -7 11 0.6044 -0.0012
-1 -7 12 -1.7422 -0.0359
-1 -7 13 -1.1595 0.0605
-1 -6 1 -1.1904 0.1568
-1 -6 2 -1.1303 -0.1390
-1 -6 3 1.7835 -0.2139
-1 -6 4 -2.0486 -0.0849
-1 -6 5 -1.1829 -0.0664
-1 -6 6 1.7543 0.0060
-1 -6 7 -0.5946 0.0360
-1 -6 8 0.7186 0.0171
-1 -6 9 -3.6904 0.0485
-1 -6 10 -1.3741 0.0387
-1 -6 11 1.1490 -0.0267
-1 -6 12 4.3938 -0.0386
-1 -6 13 -0.3036 0.0589
-1 -5 1 -2.3005 0.5699
-1 -5 2 -0.4351 0.0545
-1 -5 3 0.5433 -0.2175
-1 -5 4 -0.7446 -0.0801
-1 -5 5 0.6960 -0.1730
-1 -5 6 -2.4607 -0.0389
-1 -5 7 1.9154 -0.0115
-1 -5 8 1.3448 -0.0165
-1 -5 9 -0.0572 0.0792
-1 -5 10 0.3082 0.0613
-1 -5 11 -1.0186 -0.0101
-1 -5 12 -2.5087 0.0455
-1 -5 13 0.9321 0.0499
-1 -4 1 4.8501 0.7278
-1 -4 2 -1.6068 0.3207
-1 -4 3 -2.1416 -0.1341
-1 -4 4 -0.1017 -0.0048
-1 -4 5 -0.0140 -0.1898
-1 -4 6 2.5670 -0.1031
-1 -4 7 -3.5394 -0.0613
-1 -4 8 0.2346 -0.0592
-1 -4 9 -0.7649 0.0721
-1 -4 10 0.5900 0.0316
-1 -4 11 2.1280 -0.0358
-1 -4 12 -3.2378 0.0375
-1 -4 13 -1.6910 -0.0370
-1 -3 1 -3.5192 0.3855
-1 -3 2 6.5242 0.4284
-1 -3 3 0.0897 0.0231
-1 -3 4 -1.0111 0.1060
-1 -3 5 -0.7271 -0.1167
-1 -3 6 1.2260 -0.0721
-1 -3 7 0.2564 -0.0424
-1 -3 8 1.8357 -0.0934
-1 -3 9 -0.9490 0.0392
-1 -3 10 -1.3760 -0.0126
-1 -3 11 -0.5150 -0.0097
-1 -3 12 1.9482 0.0605
-1 -3 13 4.3978 -0.0250
-1 -2 1 15.6002 0.0162
-1 -2 2 2.9714 0.4064
-1 -2 3 -0.2012 0.2368
-1 -2 4 0.2103 0.1903
-1 -2 5 -0.0147 0.0030
-1 -2 6 0.5264 -0.0223
-1 -2 7 -0.8532 -0.0722
-1 -2 8 -1.1125 -0.0865
-1 -2 9 1.6742 0.0055
-1 -2 10 0.8600 -0.0607
-1 -2 11 0.4094 -0.0046
-1 -2 12 -4.8443 -0.0425
-1 -1 1 -40.7270 -0.0387
-1 -1 2 17.6106 0.0727
-1 -1 3 -1.7311 0.2913
-1 -1 4 1.4101 0.1299
-1 -1 5 -2.0081 0.1358
-1 -1 6 1.3410 0.0700
-1 -1 7 -2.3858 -0.0721
-1 -1 8 2.0133 -0.0382
-1 -1 9 -1.5057 -0.0217
-1 -1 10 2.6440 -0.0218
-1 -1 11 6.0310 0.0115
-1 -1 12 -4.0155 -0.1336
-1 0 1 10.2779 -0.4024
-1 0 2 -27.0920 -0.3578
-1 0 3 6.4130 0.2765
-1 0 4 -0.3082 -0.0032
-1 0 5 -0.0713 0.1945
-1 0 6 0.7560 0.1058
-1 0 7 0.3874 0.0098
-1 0 8 -1.7467 0.0639
-1 0 9 1.4157 -0.0033
-1 0 10 -6.0563 -0.0449
-1 0 11 7.4273 -0.0681
-1 1 1 10.0475 -0.7270
-1 1 2 11.4787 -0.4256
-1 1 3 -7.5250 0.0161
-1 1 4 0.7538 -0.1057
-1 1 5 0.7663 0.1565
-1 1 6 -0.5938 0.0701
-1 1 7 2.5808 0.0617
-1 1 8 -3.9009 0.0730
-1 1 9 0.5539 0.0193
-1 1 10 -3.2992 -0.0268
-1 1 11 -6.7628 0.1040
-1 2 1 0.0694 -0.3841
-1 2 2 1.7110 -0.2553
-1 2 3 2.3471 -0.2979
-1 2 4 -1.4859 -0.1094
-1 2 5 2.8367 -0.0131
-1 2 6 -2.8789 -0.0140
-1 2 7 -1.7805 0.0356
-1 2 8 2.8537 0.0673
-1 2 9 -0.4757 0.0428
-1 2 10 -2.9608 0.0593
-1 3 1 -1.8036 0.0878
-1 3 2 -0.8486 -0.0481
-1 3 3 -0.3465 -0.3045
-1 3 4 -2.6222 -0.0694
-1 3 5 0.1644 -0.1122
-1 3 6 6.5232 -0.0587
-1 3 7 -5.0260 0.0090
-1 3 8 0.7896 0.0191
-1 3 9 5.2679 -0.0019
-1 3 10 -3.3423 0.2176
-1 4 1 1.3253 0.4461
-1 4 2 -0.9592 0.1686
-1 4 3 0.1714 -0.1976
-1 4 4 4.0693 -0.0433
-1 4 5 -6.6506 -0.1161
-1 4 6 6.7227 -0.0717
-1 4 7 -0.1991 -0.0253
-1 4 8 0.5395 -0.0688
-1 4 9 -6.4781 0.1509
-1 5 1 -0.4807 0.6650
-1 5 2 1.8615 0.2725
-1 5 3 -0.2545 -0.0263
-1 5 4 -0.4952 0.0618
-1 5 5 -0.9143 -0.0428
-1 5 6 -0.8540 -0.0569
-1 5 7 -1.6865 -0.0957
-1 5 8 5.7917 0.0565
-1 6 1 2.2119 0.5416
-1 6 2 -1.3869 0.2064
-1 6 3 -3.2969 0.1252
-1 6 4 2.6947 0.0915
-1 6 5 -2.1473 -0.0164
-1 6 6 5.4140 -0.0787
-1 6 7 -2.2145 0.0456
-1 7 1 -3.0156 0.1634
-1 7 2 0.9172 0.0698
-1 7 3 2.1764 0.1515
-1 7 4 -2.8224 0.0295
-1 7 5 1.6472 -0.0110
-1 7 6 -5.5777 0.1044
-1 8 1 2.4439 -0.0968
-1 8 2 3.2726 -0.0288
-1 8 3 -3.7532 0.1014
-1 8 4 -1.0209 0.0171
-1 8 5 0.8520 0.1799
-1 9 1 0.1486 -0.2272
-1 9 2 0.5168 -0.1275
-1 9 3 2.0769 0.0638
-1 9 4 -0.9873 0.1576
-1 10 1 -5.9069 -0.2594
-1 10 2 -0.9545 -0.0376
-1 11 1 4.9380 0.0276
0 -12 2 2.2210 -0.1025
0 -12 3 -2.5349 -0.0277
0 -12 4 -0.8360 -0.0469
0 -12 5 2.5304 -0.0023
0 -12 6 6.1901 0.1760
0 -12 7 1.5143 0.1596
0 -12 8 -0.8125 0.1301
0 -12 9 -4.7879 -0.0923
0 -11 1 3.8014 -0.0578
0 -11 2 5.1553 -0.0944
0 -11 3 -0.7162 0.1314
0 -11 4 2.5333 0.0036
0 -11 5 -6.5426 -0.0075
0 -11 6 -1.3012 0.0167
0 -11 7 0.7317 -0.1094
0 -11 8 5.0605 -0.0069
0 -11 9 1.9927 -0.0168
0 -11 10 -1.2593 -0.1920
0 -10 1 -7.2093 -0.2451
0 -10 2 2.6931 -0.1269
0 -10 3 3.4265 0.1082
0 -10 4 -4.0466 -0.0478
0 -10 5 3.2896 0.0944
0 -10 6 -0.1505 0.1228
0 -10 7 -5.1707 0.0126
0 -10 8 -2.4028 0.0851
0 -10 9 1.0214 0.0032
0 -10 10 3.3370 -0.0095
0 -10 11 0.0968 -0.0655
0 -9 1 1.0300 -0.4476
0 -9 2 -4.2483 -0.1631
0 -9 3 0.6204 -0.0486
0 -9 4 0.0602 -0.0979
0 -9 5 -0.7604 0.1202
0 -9 6 3.3249 0.1036
0 -9 7 0.9278 0.1095
0 -9 8 -1.7354 0.1231
0 -9 9 -1.8583 0.0060
0 -9 10 -2.5945 0.0906
0 -9 11 0.7324 0.0588
0 -9 12 -1.0511 0.0611
0 -8 1 -3.0379 -0.3946
0 -8 2 3.3992 -0.1203
0 -8 3 -2.0685 -0.1641
0 -8 4 -0.9669 -0.1559
0 -8 5 1.2020 -0.0327
0 -8 6 -1.6399 -0.0483
0 -8 7 2.5823 0.0877
0 -8 8 1.4804 0.0758
0 -8 9 -2.1428 0.0551
0 -8 10 8.7026 0.0737
0 -8 11 -7.3303 -0.0347
0 -8 12 -1.7329 0.1966
0 -7 1 1.8729 -0.1923
0 -7 2 0.0980 -0.0235
0 -7 3 2.6449 -0.2657
0 -7 4 -2.5099 -0.1730
0 -7 5 -0.6132 -0.1368
0 -7 6 0.9357 -0.1010
0 -7 7 0.4517 0.0384
0 -7 8 0.6405 0.0143
0 -7 9 -1.2827 0.0641
0 -7 10 -5.0346 0.0351
0 -7 11 13.1302 -0.0394
0 -7 12 -4.7967 0.1102
0 -7 13 0.2431 0.1620
0 -6 1 -2.0633 0.2808
0 -6 2 1.6057 0.2339
0 -6 3 -0.1848 -0.2273
0 -6 4 1.2994 -0.0397
0 -6 5 -1.3901 -0.1571
0 -6 6 1.8923 -0.0986
0 -6 7 -3.1086 -0.0183
0 -6 8 3.5670 -0.0305
0 -6 9 -2.5467 0.0330
0 -6 10 2.5328 0.0424
0 -6 11 -5.6757 -0.0481
0 -6 12 1.9991 -0.0571
0 -6 13 0.3634 0.0366
0 -5 1 -0.7665 0.5582
0 -5 2 -2.0198 0.3863
0 -5 3 0.8300 -0.0340
0 -5 4 -1.7184 0.0985
0 -5 5 -1.4855 -0.1647
0 -5 6 0.3850 -0.1017
0 -5 7 -0.4546 -0.0747
0 -5 8 0.3337 -0.0735
0 -5 9 0.9076 0.0088
0 -5 10 -3.1401 0.0289
0 -5 11 2.9625 -0.0692
0 -5 12 3.4588 0.0291
0 -5 13 3.6481 -0.0553
0 -4 1 2.2779 0.4971
0 -4 2 1.3052 0.3823
0 -4 3 -2.6424 0.1943
0 -4 4 -0.5345 0.1255
0 -4 5 1.2333 -0.0738
0 -4 6 -2.5206 -0.0485
0 -4 7 0.1569 -0.0670
0 -4 8 0.3929 -0.0974
0 -4 9 -0.0192 -0.0257
0 -4 10 3.3017 -0.0284
0 -4 11 -4.5287 -0.0205
0 -4 12 -3.3651 0.1326
0 -4 13 0.4724 -0.2481
0 -3 1 6.6058 0.0978
0 -3 2 0.4433 0.1308
0 -3 3 -0.5761 0.2645
0 -3 4 -0.8164 0.0943
0 -3 5 0.3884 0.0895
0 -3 6 2.0770 0.0159
0 -3 7 0.2469 -0.0268
0 -3 8 -0.3666 -0.0460
0 -3 9 0.5508 0.0202
0 -3 10 -1.7250 -0.0550
0 -3 11 1.2647 -0.0483
0 -3 12 -3.7057 -0.0876
0 -2 1 -7.3104 -0.4682
0 -2 2 17.0706 -0.0953
0 -2 3 -1.8564 0.2457
0 -2 4 0.6758 0.0845
0 -2 5 -1.8331 0.1703
0 -2 6 -2.0973 0.0781
0 -2 7 -0.0593 0.0080
0 -2 8 -0.2475 -0.0208
0 -2 9 1.4383 0.0038
0 -2 10 0.5790 -0.0741
0 -2 11 4.4525 0.0217
0 -2 12 -2.3743 -0.0566
0 -1 1 -4.9320 -0.5927
0 -1 2 -4.2372 -0.2570
0 -1 3 7.0019 0.1307
0 -1 4 1.3244 0.0594
0 -1 5 -0.5656 0.0985
0 -1 6 2.6602 0.1152
0 -1 7 -3.7938 0.0395
0 -1 8 -0.2349 0.0608
0 -1 9 -0.0084 0.0497
0 -1 10 -2.1841 -0.0542
0 -1 11 1.1283 -0.0202
0 -1 12 1.3258 -0.0849
0 0 1 -30.4296 0.0785
0 0 2 0.2613 -0.3428
0 0 3 -4.7427 -0.0572
0 0 4 -0.0977 -0.0884
0 0 5 0.7865 0.0169
0 0 6 0.4557 0.1179
0 0 7 1.1685 0.0209
0 0 8 -2.4803 0.0898
0 0 9 4.2011 0.0738
0 0 10 0.9108 0.0356
0 0 11 -1.7805 0.0403
0 1 0 -26.0093 -0.7408
0 1 1 44.9116 0.0520
0 1 2 -15.6744 -0.2914
0 1 3 5.0188 -0.1426
0 1 4 -1.7109 -0.1327
0 1 5 -0.0348 0.0106
0 1 6 1.1600 0.0146
0 1 7 0.8579 -0.0043
0 1 8 -1.4616 0.0746
0 1 9 -6.4399 0.0401
0 1 10 1.2640 0.0656
0 1 11 2.0552 0.0947
0 2 0 1.3352 0.8842
0 2 1 -20.0324 -0.4573
0 2 2 17.4133 -0.0169
0 2 3 -6.0344 -0.2115
0 2 4 4.9038 -0.1320
0 2 5 -2.1804 -0.0834
0 2 6 1.3903 -0.1022
0 2 7 -0.5343 -0.0154
0 2 8 2.2054 0.0171
0 2 9 3.4860 -0.0085
0 2 10 -5.2489 0.0715
0 3 0 -3.6750 1.1565
0 3 1 2.4520 -0.1421
0 3 2 -6.4075 0.2884
0 3 3 2.1340 -0.2321
0 3 4 -1.9480 -0.0760
0 3 5 -0.2920 -0.0930
0 3 6 -0.4540 -0.1105
0 3 7 1.5136 -0.0281
0 3 8 -2.8606 -0.0340
0 3 9 1.8865 -0.0289
0 3 10 -0.9387 0.0888
0 4 0 -0.1509 0.6390
0 4 1 1.7295 0.2961
0 4 2 -0.9443 0.3203
0 4 3 -2.5244 -0.1224
0 4 4 0.4644 0.0732
0 4 5 -2.6960 -0.0419
0 4 6 4.1221 -0.0968
0 4 7 -1.9498 -0.0203
0 4 8 1.0448 -0.0582
0 4 9 -2.1064 -0.0058
0 5 0 0.0364 -0.1979
0 5 1 -0.6961 0.5425
0 5 2 3.7006 0.2145
0 5 3 2.7524 0.0548
0 5 4 1.1595 0.1193
0 5 5 -0.8336 -0.0222
0 5 6 -1.0152 -0.0131
0 5 7 -2.8627 -0.0118
0 5 8 4.4519 -0.0426
0 6 0 0.8754 -0.7974
0 6 1 -0.5897 0.4566
0 6 2 -2.0625 0.0298
0 6 3 -4.0345 0.1666
0 6 4 4.0349 0.0655
0 6 5 -3.0320 0.0455
0 6 6 2.8333 0.0129
0 6 7 3.5851 -0.0214
0 7 0 -0.5859 -0.9702
0 7 1 0.0461 0.1928
0 7 2 0.8765 -0.0572
0 7 3 0.9440 0.1474
0 7 4 -0.1293 0.0096
0 7 5 2.4109 0.0482
0 7 6 -1.6266 0.0137
0 8 0 2.3336 -0.7363
0 8 1 0.1337 -0.0255
0 8 2 1.2774 -0.1110
0 8 3 -2.1305 0.0302
0 8 4 -0.7194 0.0066
0 8 5 -1.5330 0.0537
0 9 0 0.9164 -0.2292
0 9 1 -1.0230 -0.1428
0 9 2 1.3097 -0.0917
0 9 3 -1.2826 0.0108
0 9 4 -1.2141 0.0577
0 10 0 -4.6544 0.0427
0 10 1 -1.9993 -0.1483
0 10 2 1.0694 0.0484
0 11 0 6.0946 0.2249
1 -12 2 -1.2413 -0.1413
1 -12 3 4.7470 0.0744
1 -12 4 -7.3296 0.1051
1 -12 5 -1.8375 0.2017
1 -12 6 1.7627 0.2581
1 -12 7 2.4384 0.0179
1 -12 8 -0.4709 -0.0673
1 -12 9 4.0524 -0.2034
1 -11 0 5.6297 -0.2303
1 -11 1 6.5613 -0.1334
1 -11 2 5.6515 -0.1442
1 -11 3 -0.8609 0.0675
1 -11 4 3.7010 -0.0311
1 -11 5 1.1876 0.0604
1 -11 6 0.5739 0.1071
1 -11 7 -4.7218 0.0754
1 -11 8 2.4475 0.1112
1 -11 9 -0.0112 -0.1542
1 -11 10 0.8847 -0.2062
1 -10 0 -6.6580 -0.0641
1 -10 1 -1.3480 -0.2276
1 -10 2 1.0330 -0.1707
1 -10 3 1.9956 0.0019
1 -10 4 -0.8485 -0.0981
1 -10 5 -0.6409 0.0590
1 -10 6 -1.4951 0.0985
1 -10 7 0.7376 0.1384
1 -10 8 -1.6128 0.1653
1 -10 9 1.2828 0.0203
1 -10 10 4.3900 0.0281
1 -10 11 -3.4641 0.1282
1 -9 0 2.4309 0.2144
1 -9 1 -5.8612 -0.3424
1 -9 2 -1.7691 -0.1530
1 -9 3 -1.1070 -0.0856
1 -9 4 -2.2941 -0.1412
1 -9 5 -2.2652 0.0024
1 -9 6 6.3983 -0.0117
1 -9 7 -2.9933 0.0544
1 -9 8 -2.6267 0.1143
1 -9 9 -4.2409 0.0882
1 -9 10 -1.2938 0.0896
1 -9 11 2.3053 0.0520
1 -9 12 -1.2475 0.3222
1 -8 0 -1.6960 0.7076
1 -8 1 1.5129 -0.3177
1 -8 2 2.1790 -0.0063
1 -8 3 0.8852 -0.1767
1 -8 4 0.5990 -0.1614
1 -8 5 -0.6157 -0.0925
1 -8 6 -2.4965 -0.1296
1 -8 7 3.9405 -0.0049
1 -8 8 1.5165 0.0039
1 -8 9 1.4681 -0.0090
1 -8 10 0.2266 0.0595
1 -8 11 -3.2490 0.0746
1 -8 12 0.7741 0.0584
1 -7 0 4.0021 0.9838
1 -7 1 -0.9692 -0.2171
1 -7 2 1.2749 0.1804
1 -7 3 0.1201 -0.2223
1 -7 4 -0.9000 -0.0832
1 -7 5 0.5577 -0.1278
1 -7 6 -0.1352 -0.1512
1 -7 7 1.0752 0.0002
1 -7 8 -1.1028 -0.0502
1 -7 9 -0.0176 -0.0209
1 -7 10 -2.0120 0.0095
1 -7 11 3.8740 0.0402
1 -7 12 -2.6046 -0.0345
1 -6 0 -2.7110 0.8163
1 -6 1 0.4106 0.0831
1 -6 2 0.5843 0.3198
1 -6 3 0.7348 -0.0915
1 -6 4 0.8984 0.0602
1 -6 5 -1.4758 -0.1189
1 -6 6 2.1929 -0.1172
1 -6 7 -0.8110 -0.0264
1 -6 8 2.7946 -0.0801
1 -6 9 1.4312 -0.0160
1 -6 10 -0.3077 -0.0271
1 -6 11 -3.7809 -0.0014
1 -6 12 0.0966 -0.0044
1 -5 0 -0.9064 0.2086
1 -5 1 -0.8108 0.4080
1 -5 2 0.3441 0.2770
1 -5 3 -1.2321 0.1613
1 -5 4 0.0160 0.1531
1 -5 5 -1.3767 -0.0116
1 -5 6 -2.3350 -0.0221
1 -5 7 0.3270 -0.0589
1 -5 8 0.6673 -0.0827
1 -5 9 -0.7783 -0.0501
1 -5 10 -0.6465 -0.0739
1 -5 11 1.7763 -0.0687
1 -5 12 1.9590 -0.0494
1 -4 0 -2.2908 -0.6409
1 -4 1 3.7737 0.4768
1 -4 2 -0.2824 0.0573
1 -4 3 -1.1158 0.3075
1 -4 4 -0.9864 0.1055
1 -4 5 -0.5164 0.0913
1 -4 6 -1.1875 0.0501
1 -4 7 -1.8112 -0.0556
1 -4 8 -1.6689 -0.0240
1 -4 9 5.9603 -0.0330
1 -4 10 -0.3188 -0.0414
1 -4 11 -0.1530 -0.0025
1 -4 12 -6.4528 -0.0498
1 -3 0 3.6282 -1.1008
1 -3 1 -3.3382 0.1638
1 -3 2 4.9401 -0.2247
1 -3 3 0.1153 0.2936
1 -3 4 0.6475 0.0263
1 -3 5 1.7022 0.1278
1 -3 6 0.1539 0.1191
1 -3 7 0.0047 0.0137
1 -3 8 1.3884 0.0251
1 -3 9 -1.4225 -0.0386
1 -3 10 2.5034 -0.0281
1 -3 11 -2.5426 -0.0044
1 -3 12 -1.3744 0.0227
1 -2 0 -18.3493 -0.8330
1 -2 1 9.4740 -0.3632
1 -2 2 0.6653 -0.3864
1 -2 3 2.7291 0.1189
1 -2 4 -2.5293 -0.0235
1 -2 5 0.7468 0.1042
1 -2 6 1.1252 0.1328
1 -2 7 -2.7317 0.0625
1 -2 8 -2.5175 0.0703
1 -2 9 -0.1500 0.0259
1 -2 10 2.0758 0.0003
1 -2 11 7.1467 -0.1105
1 -2 12 0.9526 0.1769
1 -1 0 7.3576 -0.0181
1 -1 1 -26.3671 -0.3643
1 -1 2 11.0262 -0.1440
1 -1 3 0.8432 -0.0760
1 -1 4 1.2954 -0.0706
1 -1 5 0.1617 0.0300
1 -1 6 -1.8971 0.0997
1 -1 7 1.8635 0.0772
1 -1 8 -2.2672 0.0781
1 -1 9 1.4667 0.0604
1 -1 10 -6.8188 0.0500
1 -1 11 -1.5201 0.0544
1 0 0 17.1000 0.5851
1 0 1 2.4676 -0.3474
1 0 2 -16.2468 -0.0466
1 0 3 0.9970 -0.2131
1 0 4 0.1143 -0.0855
1 0 5 -0.1180 -0.0464
1 0 6 1.5792 -0.0091
1 0 7 1.1912 0.0162
1 0 8 -2.5632 0.0716
1 0 9 4.1393 0.0642
1 0 10 2.5183 0.0371
1 0 11 -4.4321 0.1683
1 1 0 10.3257 0.8385
1 1 1 8.0165 -0.4636
1 1 2 4.4040 0.0045
1 1 3 -0.1454 -0.2063
1 1 4 0.1410 -0.0958
1 1 5 -2.6283 -0.0992
1 1 6 0.9637 -0.0824
1 1 7 -0.0836 -0.0183
1 1 8 -0.5157 0.0419
1 1 9 -6.1128 -0.0046
1 1 10 3.8753 0.0034
1 2 0 -23.4233 0.9302
1 2 1 5.7174 -0.1445
1 2 2 -1.0762 0.1923
1 2 3 1.4849 -0.1546
1 2 4 1.8073 -0.1075
1 2 5 2.7387 -0.0835
1 2 6 0.6484 -0.0751
1 2 7 0.3051 -0.0605
1 2 8 2.4682 -0.0408
1 2 9 0.9556 -0.0818
1 2 10 2.7547 0.0758
1 3 0 5.9059 0.6466
1 3 1 -4.5684 0.2492
1 3 2 -2.9491 0.1829
1 3 3 -0.5404 -0.0649
1 3 4 2.4695 -0.0505
1 3 5 -5.5392 -0.0086
1 3 6 2.3392 -0.0866
1 3 7 -0.1963 -0.0652
1 3 8 1.9401 -0.0187
1 3 9 -5.2791 -0.0118
1 4 0 0.4562 0.2029
1 4 1 -1.8224 0.4068
1 4 2 4.4464 0.1318
1 4 3 -8.7255 0.1213
1 4 4 1.2537 0.0389
1 4 5 0.2057 0.0202
1 4 6 -3.2795 -0.0533
1 4 7 -0.4931 0.0133
1 4 8 -0.2956 -0.0177
1 5 0 0.9855 -0.3372
1 5 1 3.3592 0.3289
1 5 2 -2.0395 0.0949
1 5 3 4.1709 0.1836
1 5 4 3.7107 0.0419
1 5 5 -1.2092 0.0171
1 5 6 0.1038 0.0287
1 5 7 2.1013 0.0120
1 5 8 -3.2144 -0.0200
1 6 0 0.3197 -0.7239
1 6 1 -1.6488 0.1567
1 6 2 3.0194 0.0136
1 6 3 -3.0837 0.0713
1 6 4 -3.8655 0.0415
1 6 5 3.1414 0.0406
1 6 6 -1.6622 0.0215
1 6 7 1.0972 0.0089
1 7 0 0.6085 -0.6808
1 7 1 2.4437 0.0474
1 7 2 -1.8751 -0.0223
1 7 3 1.8247 -0.0249
1 7 4 1.6677 0.0920
1 7 5 3.2431 0.0037
1 7 6 -2.5120 -0.0014
1 8 0 -4.3426 -0.3552
1 8 1 -0.9630 -0.0470
1 8 2 3.7259 -0.0965
1 8 3 -1.2950 -0.0823
1 8 4 0.0932 0.0701
1 9 0 4.0434 -0.0576
1 9 1 -4.9221 -0.1004
1 9 2 -0.8294 -0.0471
1 9 3 -2.4289 0.0629
1 10 0 2.6698 0.0498
1 10 1 -2.1699 -0.0026
1 11 0 0.8654 0.2280
2 -12 2 8.4724 -0.1636
2 -12 3 -10.7428 0.1236
2 -12 4 -1.1375 0.1908
2 -12 5 -3.7030 0.1469
2 -12 6 2.0760 0.0799
2 -12 7 3.5358 -0.1078
2 -12 8 0.6741 -0.1000
2 -12 9 2.5594 -0.3135
2 -11 0 5.6144 -0.2262
2 -11 1 5.8122 -0.1593
2 -11 2 -8.5207 -0.0478
2 -11 3 14.2410 0.0112
2 -11 4 -4.0381 -0.0251
2 -11 5 3.4676 0.0667
2 -11 6 -3.9390 0.0986
2 -11 7 2.0328 0.1174
2 -11 8 0.4447 0.1517
2 -11 9 -2.2715 -0.0258
2 -11 10 2.3833 0.0381
2 -10 0 -3.5254 0.0626
2 -10 1 -0.4980 -0.2189
2 -10 2 6.1833 -0.1242
2 -10 3 -4.7191 -0.1002
2 -10 4 0.7877 -0.0605
2 -10 5 1.1717 0.0714
2 -10 6 -0.9719 0.0373
2 -10 7 -0.8379 0.1228
2 -10 8 1.5595 0.0929
2 -10 9 4.2124 0.0528
2 -10 10 1.1509 0.1663
2 -10 11 -2.5522 0.2268
2 -9 0 0.5444 0.4052
2 -9 1 -3.7393 -0.2335
2 -9 2 -0.2085 -0.0373
2 -9 3 -0.8711 -0.1162
2 -9 4 -6.7596 -0.0650
2 -9 5 -0.4931 -0.0382
2 -9 6 2.7097 -0.1227
2 -9 7 -3.6741 0.0004
2 -9 8 -1.2424 0.0008
2 -9 9 -4.7471 -0.0048
2 -9 10 0.7384 -0.0034
2 -9 11 -2.4989 0.2338
2 -9 12 0.7305 0.0418
2 -8 0 -2.2805 0.6301
2 -8 1 2.9761 -0.1545
2 -8 2 -1.0423 0.0388
2 -8 3 4.2535 -0.1654
2 -8 4 2.9710 -0.1098
2 -8 5 -3.6870 -0.1133
2 -8 6 -0.1909 -0.1511
2 -8 7 1.2897 -0.0557
2 -8 8 0.6273 -0.0747
2 -8 9 4.7472 -0.0749
2 -8 10 -1.3060 -0.0520
2 -8 11 -0.2448 0.0899
2 -8 12 -0.4419 -0.0501
2 -7 0 3.5986 0.6057
2 -7 1 -3.9722 0.0979
2 -7 2 2.7331 0.1377
2 -7 3 0.3728 -0.0501
2 -7 4 0.2048 -0.0020
2 -7 5 -0.8095 -0.0547
2 -7 6 0.8806 -0.0847
2 -7 7 0.6675 -0.0660
2 -7 8 -2.5316 -0.0921
2 -7 9 -0.2112 -0.0537
2 -7 10 -0.5734 -0.0177
2 -7 11 1.5497 -0.0089
2 -7 12 0.0390 -0.0568
2 -6 0 -3.9157 0.2212
2 -6 1 3.7061 0.3403
2 -6 2 -0.2710 0.1060
2 -6 3 -1.1494 0.1040
2 -6 4 0.9779 0.0817
2 -6 5 1.2406 0.0005
2 -6 6 -1.9496 0.0044
2 -6 7 3.0511 -0.0480
2 -6 8 -1.0820 -0.0648
2 -6 9 2.5717 -0.0719
2 -6 10 0.8070 -0.0587
2 -6 11 -3.6309 0.0313
2 -6 12 -3.9226 -0.0765
2 -5 0 -1.6921 -0.3437
2 -5 1 -1.3442 0.4237
2 -5 2 -0.3303 0.0455
2 -5 3 1.3719 0.2653
2 -5 4 2.2408 0.1195
2 -5 5 -2.3015 0.0840
2 -5 6 0.6276 0.1216
2 -5 7 -2.6428 0.0130
2 -5 8 2.8662 -0.0277
2 -5 9 -0.9497 -0.0758
2 -5 10 -2.8366 -0.0920
2 -5 11 0.6763 0.0278
2 -5 12 3.8385 -0.1075
2 -4 0 0.7485 -0.8168
2 -4 1 -0.8894 0.2329
2 -4 2 1.8133 -0.0951
2 -4 3 -5.8243 0.2285
2 -4 4 0.2564 0.0838
2 -4 5 -0.2436 0.0784
2 -4 6 -1.9549 0.1182
2 -4 7 -0.6761 0.0592
2 -4 8 -2.1353 0.0231
2 -4 9 3.6179 -0.0008
2 -4 10 3.6048 -0.0596
2 -4 11 2.7774 -0.0015
2 -4 12 -6.0300 -0.0627
2 -3 0 -0.8771 -0.8764
2 -3 1 1.7769 -0.0927
2 -3 2 1.3135 -0.2387
2 -3 3 5.5158 0.0466
2 -3 4 -3.2440 0.0395
2 -3 5 3.8918 0.0464
2 -3 6 0.9354 0.1070
2 -3 7 -2.3123 0.0814
2 -3 8 2.7954 0.0442
2 -3 9 0.2021 0.0150
2 -3 10 -3.5795 -0.0292
2 -3 11 2.5546 -0.0102
2 -3 12 -0.2453 -0.0234
2 -2 0 -4.6677 -0.4946
2 -2 1 2.1305 -0.4007
2 -2 2 -0.5730 -0.2281
2 -2 3 0.5940 -0.1129
2 -2 4 0.2194 -0.0691
2 -2 5 0.4834 -0.0138
2 -2 6 0.7098 0.0828
2 -2 7 -0.4082 0.0625
2 -2 8 -2.9314 0.0988
2 -2 9 -0.5223 0.0462
2 -2 10 2.3948 0.0550
2 -2 11 -1.5538 0.0851
2 -1 0 -7.9845 0.3148
2 -1 1 -10.1085 -0.5092
2 -1 2 1.0098 -0.0934
2 -1 3 2.8991 -0.1315
2 -1 4 -0.8377 -0.1071
2 -1 5 -1.2971 -0.0083
2 -1 6 1.5970 0.0086
2 -1 7 -0.8955 0.0027
2 -1 8 -2.5418 0.1071
2 -1 9 2.5479 0.0221
2 -1 10 -2.8427 0.0505
2 -1 11 0.7273 0.0733
2 0 0 25.8445 1.1133
2 0 1 -3.1853 -0.4440
2 0 2 -6.0111 0.0024
2 0 3 -1.4980 -0.1544
2 0 4 -0.8377 -0.1452
2 0 5 0.0925 -0.0232
2 0 6 -1.1194 -0.0655
2 0 7 3.4792 0.0168
2 0 8 1.0996 0.0442
2 0 9 -2.3035 -0.0331
2 0 10 1.3412 0.0522
2 0 11 -2.3484 0.0430
2 1 0 -2.0346 1.3403
2 1 1 8.3272 -0.1338
2 1 2 1.2985 0.1236
2 1 3 0.3758 -0.1677
2 1 4 0.5618 -0.1507
2 1 5 0.1144 -0.0892
2 1 6 -1.8567 -0.1013
2 1 7 -1.5459 -0.0059
2 1 8 -1.6926 -0.0616
2 1 9 1.1304 -0.0217
2 1 10 -1.6047 -0.0004
2 2 0 -5.4606 0.8708
2 2 1 1.9953 0.2868
2 2 2 0.8989 0.2025
2 2 3 -0.2017 -0.0208
2 2 4 3.4214 -0.0499
2 2 5 0.3143 -0.0733
2 2 6 1.8589 -0.0630
2 2 7 1.2429 -0.0802
2 2 8 2.3152 -0.0210
2 2 9 -1.8986 0.0404
2 3 0 -2.7848 0.0548
2 3 1 -0.5246 0.4431
2 3 2 -2.8328 0.1389
2 3 3 0.7158 0.1449
2 3 4 -1.5644 0.0123
2 3 5 1.0826 -0.0143
2 3 6 -0.6496 -0.0504
2 3 7 -0.3602 -0.0446
2 3 8 3.9631 0.0556
2 3 9 -6.2516 -0.1569
2 4 0 -0.8084 -0.6399
2 4 1 0.0027 0.3162
2 4 2 0.9691 0.0790
2 4 3 -2.9337 0.2011
2 4 4 0.0524 0.0682
2 4 5 -3.9300 0.0205
2 4 6 1.9074 0.0113
2 4 7 -5.5258 0.0695
2 4 8 1.6737 -0.0850
2 5 0 0.4661 -0.8294
2 5 1 2.8502 0.1094
2 5 2 -2.6944 0.0129
2 5 3 1.7723 0.1087
2 5 4 1.5926 0.0506
2 5 5 1.4232 0.0405
2 5 6 -1.7716 0.0853
2 5 7 4.6909 -0.0917
2 6 0 -0.0584 -0.5291
2 6 1 -2.0880 -0.1073
2 6 2 3.7670 -0.0665
2 6 3 -3.3267 -0.0148
2 6 4 3.2621 0.0256
2 6 5 -0.2747 0.0775
2 6 6 -5.2960 -0.0882
2 7 0 -0.3901 -0.0511
2 7 1 2.8415 -0.2473
2 7 2 0.4740 -0.0848
2 7 3 -3.6182 -0.0283
2 7 4 -0.1031 0.0378
2 7 5 6.1691 -0.0726
2 8 0 -0.3078 0.2699
2 8 1 -2.2843 -0.1762
2 8 2 -0.5908 0.0258
2 8 3 7.0783 0.0034
2 8 4 -5.9816 -0.1168
2 9 0 -4.5126 0.2701
2 9 1 2.0749 -0.0247
2 9 2 1.3875 0.0351
2 10 0 9.3086 0.1961
2 10 1 -10.3695 0.0609
3 -12 2 -3.2377 0.0937
3 -12 3 -1.0698 0.0737
3 -12 4 0.0959 0.0013
3 -12 5 -6.4084 -0.0644
3 -12 6 8.1605 -0.1406
3 -12 7 4.9865 -0.1437
3 -12 8 -2.7141 -0.0134
3 -11 0 -7.4228 0.0884
3 -11 1 0.9490 0.0007
3 -11 2 0.7291 -0.0527
3 -11 3 0.0630 -0.0177
3 -11 4 0.6777 0.0011
3 -11 5 4.5535 0.0604
3 -11 6 -7.3746 -0.0237
3 -11 7 6.5852 0.0154
3 -11 8 0.1303 0.1350
3 -11 9 -1.3029 0.1388
3 -11 10 0.4072 0.3897
3 -10 0 5.6982 0.2454
3 -10 1 -1.4385 -0.1466
3 -10 2 1.5749 -0.0711
3 -10 3 0.2083 -0.0899
3 -10 4 -5.6304 -0.0070
3 -10 5 2.0676 0.0664
3 -10 6 0.4785 -0.0119
3 -10 7 -0.6658 0.0267
3 -10 8 3.5506 -0.0031
3 -10 9 3.2416 0.0069
3 -10 10 0.4797 0.2185
3 -10 11 -1.1212 0.4193
3 -9 0 -1.0616 0.4510
3 -9 1 -0.3702 0.0321
3 -9 2 -2.5840 0.1158
3 -9 3 1.8748 -0.0817
3 -9 4 -4.1975 -0.0207
3 -9 5 -2.1478 -0.0489
3 -9 6 -3.2993 -0.0760
3 -9 7 -1.0597 -0.0397
3 -9 8 -0.3764 -0.1241
3 -9 9 -3.6745 -0.1056
3 -9 10 1.9350 -0.0239
3 -9 11 -5.8694 -0.0631
3 -8 0 1.3233 0.2892
3 -8 1 -2.7588 0.1837
3 -8 2 2.8887 0.0942
3 -8 3 1.3034 -0.0840
3 -8 4 3.4708 -0.0195
3 -8 5 -2.2740 -0.1243
3 -8 6 1.2869 -0.1089
3 -8 7 -0.0458 -0.0652
3 -8 8 -1.2137 -0.1248
3 -8 9 2.1664 -0.1273
3 -8 10 0.8182 -0.0706
3 -8 11 4.7561 -0.0367
3 -7 0 -2.9478 -0.1719
3 -7 1 4.6155 0.3687
3 -7 2 -2.2289 0.0836
3 -7 3 0.6125 0.0896
3 -7 4 -1.3016 0.0817
3 -7 5 2.3505 -0.0355
3 -7 6 -0.5231 -0.0005
3 -7 7 -1.1048 -0.0388
3 -7 8 2.6808 -0.0935
3 -7 9 -2.1263 -0.0621
3 -7 10 1.8729 -0.1115
3 -7 11 -2.5587 -0.0349
3 -7 12 9.5486 -0.1729
3 -6 0 1.3937 -0.7035
3 -6 1 0.9360 0.3632
3 -6 2 -0.7608 0.0162
3 -6 3 0.6213 0.2377
3 -6 4 1.0740 0.1369
3 -6 5 -2.3108 0.0524
3 -6 6 -1.2649 0.0951
3 -6 7 1.2353 0.0129
3 -6 8 -2.0551 -0.0112
3 -6 9 3.2367 -0.0148
3 -6 10 -4.8736 -0.1016
3 -6 11 4.3881 -0.0278
3 -6 12 -6.0566 -0.1655
3 -5 0 -2.1483 -0.9676
3 -5 1 0.0646 0.1281
3 -5 2 2.4030 -0.0904
3 -5 3 -0.4343 0.2163
3 -5 4 3.3232 0.1514
3 -5 5 0.8897 0.1210
3 -5 6 1.1555 0.1281
3 -5 7 -2.2548 0.0832
3 -5 8 0.0833 0.0429
3 -5 9 -1.3335 -0.0193
3 -5 10 -2.5007 0.0605
3 -5 11 -4.2609 -0.0152
3 -5 12 2.2462 -0.0161
3 -4 0 0.1715 -0.7656
3 -4 1 -1.5983 -0.2385
3 -4 2 -1.0322 -0.1986
3 -4 3 -2.7555 0.0104
3 -4 4 -2.1330 0.0685
3 -4 5 0.2142 0.0912
3 -4 6 -0.4675 0.1048
3 -4 7 0.4183 0.1230
3 -4 8 0.5874 0.0629
3 -4 9 1.2971 0.0121
3 -4 10 3.6153 0.0579
3 -4 11 2.3959 -0.1447
3 -4 12 -3.4578 0.2036
3 -3 0 -2.8400 -0.0859
3 -3 1 3.5016 -0.5585
3 -3 2 0.1943 -0.1942
3 -3 3 0.9875 -0.1655
3 -3 4 2.1429 -0.0587
3 -3 5 -0.0500 -0.0131
3 -3 6 -0.6645 0.0497
3 -3 7 0.7414 0.0774
3 -3 8 2.0413 0.0571
3 -3 9 0.7252 0.0698
3 -3 10 -3.7606 0.0071
3 -3 11 4.6763 0.0662
3 -2 0 1.3174 0.7366
3 -2 1 0.8378 -0.5565
3 -2 2 1.3170 -0.0968
3 -2 3 1.7379 -0.2479
3 -2 4 -3.2998 -0.1118
3 -2 5 3.3041 -0.0671
3 -2 6 2.4658 -0.0076
3 -2 7 -6.2295 0.0133
3 -2 8 2.7936 0.0537
3 -2 9 1.1177 0.0856
3 -2 10 -4.3933 0.0161
3 -2 11 -1.8243 0.2544
3 -1 0 -3.3789 1.2324
3 -1 1 -6.1910 -0.2056
3 -1 2 -1.6394 -0.0379
3 -1 3 1.2583 -0.2184
3 -1 4 -0.1762 -0.1183
3 -1 5 -2.0646 -0.1073
3 -1 6 1.0129 -0.0694
3 -1 7 0.7252 -0.0139
3 -1 8 -2.5431 0.0274
3 -1 9 2.0671 0.0216
3 -1 10 2.8874 0.0002
3 -1 11 -2.5454 0.1569
3 0 0 7.5827 1.1210
3 0 1 1.5212 0.2286
3 0 2 -3.5903 0.0807
3 0 3 -0.5672 -0.0482
3 0 4 -0.4869 -0.1220
3 0 5 0.3455 -0.0828
3 0 6 -1.8113 -0.0702
3 0 7 1.0142 -0.0301
3 0 8 -1.2259 -0.0283
3 0 9 0.1334 -0.0079
3 0 10 2.0016 -0.0435
3 1 0 2.7249 0.4299
3 1 1 3.2629 0.4812
3 1 2 1.1064 0.2030
3 1 3 -1.3681 0.1052
3 1 4 -0.5419 -0.0538
3 1 5 0.0703 -0.0321
3 1 6 0.6017 -0.0845
3 1 7 -1.0821 -0.0875
3 1 8 1.1250 -0.0705
3 1 9 -3.9833 0.0190
3 1 10 -3.4777 -0.0849
3 2 0 -3.5252 -0.4331
3 2 1 1.7203 0.4683
3 2 2 1.5702 0.1335
3 2 3 2.1258 0.1751
3 2 4 1.5581 0.0479
3 2 5 0.6289 -0.0211
3 2 6 0.6618 -0.0411
3 2 7 -1.5482 -0.0169
3 2 8 3.4476 -0.0029
3 2 9 1.8684 -0.0121
3 3 0 -1.4311 -0.8823
3 3 1 -0.8135 0.2102
3 3 2 0.0880 0.0221
3 3 3 -2.0040 0.1853
3 3 4 -0.5326 0.1031
3 3 5 0.3263 0.0469
3 3 6 1.4869 0.0228
3 3 7 -0.4367 0.0064
3 3 8 1.4685 -0.1057
3 4 0 -0.7476 -0.7887
3 4 1 1.0577 -0.1126
3 4 2 -2.4105 -0.0094
3 4 3 2.9105 0.0464
3 4 4 -2.9113 0.0864
3 4 5 -0.0942 0.0702
3 4 6 -0.6394 0.0498
3 4 7 -2.0637 0.0299
3 5 0 -0.9856 -0.3608
3 5 1 0.6246 -0.2858
3 5 2 -0.7715 -0.0621
3 5 3 1.6607 -0.0735
3 5 4 -0.5696 0.0509
3 5 5 -0.3216 0.0208
3 5 6 -2.8466 0.0543
3 5 7 3.2188 -0.0169
3 6 0 -2.8010 0.1651
3 6 1 1.6960 -0.2570
3 6 2 -1.6889 -0.0819
3 6 3 -1.5013 -0.0395
3 6 4 6.4071 -0.0215
3 6 5 -1.9351 -0.0273
3 6 6 2.2297 -0.0197
3 7 0 0.6782 0.4060
3 7 1 -0.8709 -0.1543
3 7 2 1.5237 -0.0516
3 7 3 -1.2676 -0.0330
3 7 4 -2.4070 -0.1612
3 8 0 1.2837 0.4260
3 8 1 2.7756 0.0063
3 8 2 -2.6404 0.0391
3 8 3 -2.1438 0.0056
3 9 0 0.4569 0.3047
3 9 1 -2.8813 0.0349
3 9 2 6.8543 -0.0348
3 10 0 -0.2511 0.1621
4 -12 2 -4.1024 0.1001
4 -12 3 4.6512 0.0168
4 -12 4 -1.9613 -0.0855
4 -12 5 0.5978 -0.1607
4 -12 6 4.3478 -0.2544
4 -12 7 1.1828 -0.2293
4 -11 0 -3.5080 0.3596
4 -11 1 -3.6958 0.0431
4 -11 2 3.8442 -0.0080
4 -11 3 -0.7125 -0.0721
4 -11 4 2.5465 -0.0658
4 -11 5 0.4860 -0.0074
4 -11 6 2.1095 0.0392
4 -11 7 2.4119 0.0666
4 -11 8 -1.5570 0.0215
4 -11 9 -0.4990 0.2160
4 -10 0 -7.8792 0.2666
4 -10 1 3.1348 0.0534
4 -10 2 -4.8846 0.0997
4 -10 3 -0.7014 0.0091
4 -10 4 -0.8884 0.0103
4 -10 5 -1.2207 -0.0389
4 -10 6 -1.4801 -0.0783
4 -10 7 6.1896 0.0017
4 -10 8 -0.0711 0.0092
4 -10 9 -0.4281 0.0454
4 -10 10 3.0057 -0.0457
4 -9 0 6.3912 0.0865
4 -9 1 -2.8229 0.2616
4 -9 2 -1.3582 0.1659
4 -9 3 1.0339 0.0771
4 -9 4 -4.7553 0.0597
4 -9 5 -2.4943 -0.0661
4 -9 6 -3.0056 -0.1085
4 -9 7 1.2585 -0.1020
4 -9 8 0.8289 -0.1202
4 -9 9 -3.5904 -0.0654
4 -9 10 -0.8520 -0.1343
4 -8 0 -1.0623 -0.3908
4 -8 1 1.3796 0.3073
4 -8 2 1.6255 0.1106
4 -8 3 -2.3521 0.1283
4 -8 4 5.3043 0.0806
4 -8 5 1.0033 -0.0180
4 -8 6 -2.6064 -0.0151
4 -8 7 -2.7431 -0.1081
4 -8 8 3.4199 -0.1274
4 -8 9 -1.7228 -0.0489
4 -8 10 -1.9271 -0.0389
4 -8 11 -0.8214 -0.3314
4 -7 0 0.2617 -0.8789
4 -7 1 1.1536 0.1344
4 -7 2 0.0565 -0.0096
4 -7 3 0.9115 0.1535
4 -7 4 -2.6026 0.1558
4 -7 5 1.9959 0.0473
4 -7 6 -0.1733 0.0380
4 -7 7 2.5280 0.0019
4 -7 8 1.1130 -0.0411
4 -7 9 1.5183 -0.0725
4 -7 10 0.0869 0.0427
4 -7 11 3.3739 -0.3271
4 -6 0 0.0037 -0.8904
4 -6 1 2.7973 -0.1353
4 -6 2 0.9110 -0.1019
4 -6 3 -2.1043 0.1112
4 -6 4 -0.0833 0.2004
4 -6 5 -2.0716 0.1288
4 -6 6 -0.0067 0.1236
4 -6 7 -2.5854 0.1274
4 -6 8 1.5903 0.0501
4 -6 9 0.1744 -0.0297
4 -6 10 -0.2072 0.0949
4 -6 11 -0.1963 -0.2368
4 -5 0 -2.0141 -0.4539
4 -5 1 -0.7359 -0.4141
4 -5 2 1.8041 -0.1511
4 -5 3 1.0153 -0.0497
4 -5 4 3.6765 0.0689
4 -5 5 -1.0401 0.1083
4 -5 6 -0.2745 0.0996
4 -5 7 -1.8726 0.0953
4 -5 8 -0.7985 0.1015
4 -5 9 -2.7722 0.1165
4 -5 10 -4.9316 0.1447
4 -5 11 -1.3534 -0.0768
4 -4 0 -1.6512 0.2753
4 -4 1 1.2095 -0.5377
4 -4 2 -0.6410 -0.2002
4 -4 3 -0.9879 -0.2031
4 -4 4 -1.7466 -0.0725
4 -4 5 2.1383 0.0450
4 -4 6 -0.1735 0.0456
4 -4 7 0.5250 0.0687
4 -4 8 2.8306 0.0772
4 -4 9 1.1334 0.1128
4 -4 10 -0.0667 0.1269
4 -4 11 -2.6214 0.0575
4 -3 0 1.2979 1.0155
4 -3 1 -0.6138 -0.3761
4 -3 2 -0.1297 -0.1683
4 -3 3 -0.3865 -0.2551
4 -3 4 -0.1448 -0.1685
4 -3 5 1.2980 -0.0650
4 -3 6 0.3093 -0.0630
4 -3 7 -1.3358 0.0160
4 -3 8 2.1604 0.0170
4 -3 9 3.4513 0.0800
4 -3 10 -1.4086 0.1604
4 -3 11 5.6713 -0.0652
4 -2 0 0.1949 1.2790
4 -2 1 1.9838 0.0489
4 -2 2 2.4205 0.0262
4 -2 3 0.7210 -0.1711
4 -2 4 0.3688 -0.1403
4 -2 5 -1.5923 -0.1021
4 -2 6 0.7853 -0.1069
4 -2 7 -0.4301 -0.0296
4 -2 8 0.0071 -0.0577
4 -2 9 0.4481 0.0152
4 -2 10 -2.4727 0.0918
4 -1 0 -3.2456 0.8010
4 -1 1 -2.4047 0.4310
4 -1 2 -1.4171 0.1539
4 -1 3 0.3171 -0.0337
4 -1 4 -0.2071 -0.0880
4 -1 5 0.6379 -0.1344
4 -1 6 -0.2715 -0.0851
4 -1 7 -1.6230 -0.0621
4 -1 8 0.2771 -0.1146
4 -1 9 2.2577 0.0367
4 -1 10 0.4143 0.0081
4 0 0 3.8313 -0.0783
4 0 1 -1.2411 0.5586
4 0 2 -0.3777 0.1933
4 0 3 -0.8356 0.1599
4 0 4 0.0227 0.0350
4 0 5 -0.3366 -0.0710
4 0 6 1.5403 -0.0472
4 0 7 -4.8502 -0.0966
4 0 8 1.1280 -0.1010
4 0 9 -0.4024 0.0535
4 1 0 -1.3202 -0.8168
4 1 1 2.3273 0.3970
4 1 2 1.3714 0.1587
4 1 3 -1.9648 0.2227
4 1 4 -0.3418 0.1763
4 1 5 0.3952 0.0430
4 1 6 -1.2136 -0.0101
4 1 7 3.5565 -0.0573
4 1 8 -2.4745 -0.0133
4 1 9 -1.4281 -0.1731
4 2 0 -0.2342 -1.1088
4 2 1 -0.0165 0.0511
4 2 2 -1.3433 -0.0024
4 2 3 3.8083 0.0871
4 2 4 -0.3895 0.1745
4 2 5 -0.4234 0.0925
4 2 6 3.5951 0.0444
4 2 7 -2.2721 0.0035
4 2 8 1.1112 -0.0737
4 3 0 -0.3645 -0.8229
4 3 1 -2.0193 -0.2587
4 3 2 1.4867 -0.1231
4 3 3 -2.3668 -0.0057
4 3 4 0.9889 0.0824
4 3 5 -0.7938 0.0719
4 3 6 -0.5369 0.0936
4 3 7 0.0845 0.0966
4 3 8 3.3222 -0.1260
4 4 0 -1.6443 -0.1456
4 4 1 4.1814 -0.3536
4 4 2 -1.7163 -0.1292
4 4 3 1.2083 -0.0745
4 4 4 -2.9196 -0.0353
4 4 5 1.6614 0.0415
4 4 6 -0.8603 0.1032
4 4 7 0.5697 -0.0632
4 5 0 2.7321 0.4086
4 5 1 -4.2759 -0.2429
4 5 2 -0.7133 -0.1302
4 5 3 3.7761 -0.1358
4 5 4 0.2396 -0.0625
4 5 5 -3.6418 0.0367
4 5 6 -0.7603 -0.0714
4 6 0 -0.5475 0.6334
4 6 1 4.2795 -0.0529
4 6 2 -1.9747 -0.0476
4 6 3 -0.9097 -0.0478
4 6 4 0.3522 -0.0275
4 6 5 3.8225 -0.1351
4 7 0 0.7704 0.4504
4 7 1 -1.9324 0.0975
4 7 2 1.1612 0.0885
4 7 3 -0.5982 -0.0621
4 7 4 3.2629 -0.1645
4 8 0 -3.7616 0.1796
4 8 1 1.1569 0.1736
4 8 2 -0.9297 -0.0943
4 9 0 4.0932 -0.0341
4 9 1 1.5602 -0.0609
5 -11 0 -10.4078 0.2464
5 -11 1 1.7100 0.0465
5 -11 2 3.7523 -0.0866
5 -11 3 1.5984 -0.1446
5 -11 4 6.5955 -0.0043
5 -11 5 -3.2110 -0.0853
5 -11 6 4.9764 0.0395
5 -11 7 2.0327 0.1179
5 -11 8 -4.2064 0.3438
5 -10 0 2.8354 0.0327
5 -10 1 -4.9213 0.1874
5 -10 2 -4.5645 0.1690
5 -10 3 3.8844 0.1745
5 -10 4 -3.6521 0.1090
5 -10 5 2.1790 -0.0159
5 -10 6 -1.5254 -0.0075
5 -10 7 2.0108 -0.1485
5 -10 8 2.6689 -0.0345
5 -10 9 -3.6998 0.1874
5 -9 0 -4.1896 -0.4433
5 -9 1 1.6300 0.1684
5 -9 2 -1.5236 0.1245
5 -9 3 -5.6770 0.1431
5 -9 4 -0.3079 0.0698
5 -9 5 -1.3683 -0.0229
5 -9 6 -2.5795 -0.0550
5 -9 7 3.4995 -0.1445
5 -9 8 0.3115 -0.1839
5 -9 9 -2.0688 -0.1322
5 -9 10 2.1391 -0.3151
5 -8 0 -1.1569 -0.6435
5 -8 1 0.1658 -0.0281
5 -8 2 2.4973 -0.0489
5 -8 3 -0.6914 0.1472
5 -8 4 3.3357 0.1778
5 -8 5 -1.9945 0.1053
5 -8 6 0.8583 0.0374
5 -8 7 -3.3207 0.0039
5 -8 8 2.4635 -0.0177
5 -8 9 -2.7438 -0.0716
5 -8 10 -7.9999 -0.1476
5 -7 0 -0.8710 -0.5374
5 -7 1 4.0395 -0.3365
5 -7 2 -0.0093 -0.1884
5 -7 3 -0.3415 0.0316
5 -7 4 0.4152 0.0800
5 -7 5 -0.4870 0.1655
5 -7 6 1.5029 0.1010
5 -7 7 2.1590 0.0399
5 -7 8 -1.1229 0.0822
5 -7 9 4.9797 0.0513
5 -7 10 -0.0141 0.0524
5 -6 0 2.5698 -0.0177
5 -6 1 -4.1989 -0.4413
5 -6 2 2.0430 -0.1893
5 -6 3 -1.6096 -0.0975
5 -6 4 -1.2972 -0.0310
5 -6 5 1.1652 0.1820
5 -6 6 -4.6034 0.1593
5 -6 7 4.2818 0.0938
5 -6 8 4.5274 0.1177
5 -6 9 -3.9989 0.1481
5 -6 10 2.0996 0.2585
5 -5 0 -4.0163 0.6850
5 -5 1 -0.9771 -0.3549
5 -5 2 2.2140 -0.1713
5 -5 3 -1.3162 -0.2270
5 -5 4 0.9338 -0.1619
5 -5 5 -0.8506 -0.0015
5 -5 6 -0.9109 0.0395
5 -5 7 -6.9337 0.0795
5 -5 8 0.0254 0.1068
5 -5 9 1.3587 0.0898
5 -5 10 -3.2914 0.2852
5 -4 0 4.7748 1.1272
5 -4 1 0.1701 -0.0854
5 -4 2 2.4578 -0.0591
5 -4 3 -2.1700 -0.2179
5 -4 4 2.1255 -0.1786
5 -4 5 0.0093 -0.1259
5 -4 6 1.6995 -0.0974
5 -4 7 1.4004 -0.0080
5 -4 8 1.0764 0.0469
5 -4 9 -3.0410 0.0596
5 -4 10 -1.2413 0.3540
5 -3 0 -1.4091 0.9759
5 -3 1 -0.4934 0.2554
5 -3 2 -1.4047 0.1264
5 -3 3 2.1950 -0.1071
5 -3 4 -1.3378 -0.1544
5 -3 5 -0.4599 -0.1446
5 -3 6 -0.3405 -0.1295
5 -3 7 0.6635 -0.0662
5 -3 8 1.2464 -0.0791
5 -3 9 4.3489 0.0207
5 -3 10 -1.3027 0.2093
5 -2 0 1.7045 0.2719
5 -2 1 -0.0584 0.4991
5 -2 2 2.1926 0.2662
5 -2 3 -0.0684 0.0885
5 -2 4 -0.5551 -0.0034
5 -2 5 0.9287 -0.0846
5 -2 6 -0.7546 -0.1204
5 -2 7 -1.3537 -0.1053
5 -2 8 1.2056 -0.1753
5 -2 9 -0.2641 -0.0022
5 -2 10 3.4394 -0.0539
5 -1 0 -1.6324 -0.5748
5 -1 1 0.7275 0.4927
5 -1 2 -1.3670 0.2136
5 -1 3 0.7971 0.2072
5 -1 4 1.1090 0.1343
5 -1 5 -0.2143 -0.0043
5 -1 6 0.8142 -0.0648
5 -1 7 -2.1973 -0.0745
5 -1 8 3.0932 -0.1040
5 -1 9 -2.5482 -0.0254
5 0 0 -0.3712 -1.1279
5 0 1 -0.2725 0.1649
5 0 2 1.1343 0.0569
5 0 3 -1.4374 0.1818
5 0 4 1.6452 0.1883
5 0 5 -1.6085 0.1130
5 0 6 -1.0550 0.0117
5 0 7 1.7259 -0.0452
5 0 8 -5.0824 -0.0912
5 0 9 4.8950 -0.1873
5 1 0 -0.1316 -1.0555
5 1 1 -2.8288 -0.1917
5 1 2 0.3366 -0.0681
5 1 3 0.3158 0.0432
5 1 4 1.4829 0.1399
5 1 5 -1.6819 0.1024
5 1 6 2.3689 0.1076
5 1 7 -2.5290 0.0471
5 1 8 1.7407 -0.0379
5 2 0 -0.1571 -0.4489
5 2 1 0.4466 -0.3929
5 2 2 -0.0356 -0.1620
5 2 3 -1.6069 -0.0381
5 2 4 -1.2643 0.0447
5 2 5 3.2724 0.0423
5 2 6 -1.7470 0.1401
5 2 7 2.4405 0.0002
5 3 0 -0.7342 0.2246
5 3 1 -0.3226 -0.3390
5 3 2 -1.0401 -0.1694
5 3 3 -0.7044 -0.1259
5 3 4 2.7659 -0.0550
5 3 5 -1.2166 0.0582
5 3 6 -1.0488 0.0547
5 3 7 1.8073 0.0123
5 4 0 3.0585 0.6688
5 4 1 0.4358 -0.1319
5 4 2 -1.0851 -0.1230
5 4 3 2.7522 -0.1392
5 4 4 -5.1381 -0.0346
5 4 5 -0.1778 -0.0276
5 4 6 2.3329 -0.0333
5 5 0 1.0884 0.6281
5 5 1 -0.9151 0.0577
5 5 2 2.0354 -0.0148
5 5 3 -1.4437 -0.0389
5 5 4 1.4552 -0.0566
5 5 5 -0.1499 -0.0884
5 6 0 1.6337 0.2614
5 6 1 2.0409 0.1860
5 6 2 -2.3529 0.0215
5 6 3 1.7676 -0.0370
5 6 4 0.4993 -0.0718
5 7 0 3.7680 0.0429
5 7 1 -5.1492 0.2212
5 7 2 3.4195 0.0219
5 7 3 1.0720 0.0080
5 8 0 -4.3788 -0.1648
5 8 1 5.4660 -0.0556
6 -11 1 1.9855 -0.1078
6 -11 2 3.7249 -0.1832
6 -11 3 1.7483 -0.1699
6 -11 4 1.3828 -0.0607
6 -11 5 4.0876 -0.0700
6 -11 6 -0.7493 0.1552
6 -10 0 -13.0391 -0.4700
6 -10 1 1.2887 0.1342
6 -10 2 -0.0520 0.1153
6 -10 3 2.6876 0.2771
6 -10 4 -0.6006 0.2411
6 -10 5 0.3395 0.1463
6 -10 6 -2.7001 0.1407
6 -10 7 1.5322 -0.0193
6 -10 8 -1.3695 -0.2553
6 -9 0 2.5962 -0.3423
6 -9 1 -4.2165 -0.0581
6 -9 2 1.2049 -0.1320
6 -9 3 -5.4113 0.0440
6 -9 4 1.7316 0.0325
6 -9 5 -3.4673 0.0618
6 -9 6 3.3669 -0.0156
6 -9 7 -2.0005 -0.1239
6 -9 8 2.0160 -0.0604
6 -9 9 1.9699 -0.6343
6 -8 0 -1.5375 -0.1441
6 -8 1 -1.1483 -0.3336
6 -8 2 -1.2024 -0.2427
6 -8 3 4.1908 -0.0944
6 -8 4 -1.0534 -0.0616
6 -8 5 3.6017 0.1073
6 -8 6 -1.2663 0.1863
6 -8 7 -0.4541 -0.0032
6 -8 8 -2.1987 0.0586
6 -8 9 -1.9649 -0.2508
6 -7 0 2.1836 0.3484
6 -7 1 -0.8056 -0.3108
6 -7 2 3.2209 -0.1759
6 -7 3 -0.6680 -0.1371
6 -7 4 1.9642 -0.1420
6 -7 5 -2.9293 0.0530
6 -7 6 1.0857 0.2015
6 -7 7 3.5657 0.1156
6 -7 8 -0.5623 0.2633
6 -7 9 -3.7729 0.0513
6 -6 0 -6.5828 0.8551
6 -6 1 0.6142 -0.1028
6 -6 2 -2.8769 -0.0428
6 -6 3 -2.7032 -0.1084
6 -6 4 0.7000 -0.1604
6 -6 5 1.6794 -0.0481
6 -6 6 1.1015 0.0111
6 -6 7 -0.6635 0.1235
6 -6 8 6.7899 0.2789
6 -6 9 1.7096 0.2188
6 -6 10 -6.7441 0.2744
6 -5 0 4.1502 0.9761
6 -5 1 -6.1273 0.1268
6 -5 2 1.0631 0.0500
6 -5 3 -2.4440 -0.1124
6 -5 4 0.0188 -0.1792
6 -5 5 -3.7208 -0.0998
6 -5 6 -2.0560 -0.1067
6 -5 7 0.4622 -0.0158
6 -5 8 -5.1573 0.0327
6 -5 9 3.8745 0.2263
6 -4 0 8.0554 0.5678
6 -4 1 1.6621 0.3887
6 -4 2 1.4119 0.2067
6 -4 3 0.3958 0.0171
6 -4 4 -0.2512 -0.1326
6 -4 5 0.4078 -0.1618
6 -4 6 -0.2126 -0.1677
6 -4 7 2.7002 -0.1133
6 -4 8 1.2885 -0.1092
6 -4 9 -5.9737 0.0694
6 -3 0 -0.8482 -0.2403
6 -3 1 -0.3717 0.4315
6 -3 2 2.5646 0.2424
6 -3 3 -0.3535 0.1745
6 -3 4 -0.5140 0.0357
6 -3 5 0.2299 -0.0718
6 -3 6 -1.0503 -0.1253
6 -3 7 -4.0789 -0.1317
6 -3 8 4.4424 -0.0771
6 -3 9 0.2392 -0.1399
6 -2 0 -2.2275 -0.9359
6 -2 1 1.7072 0.2816
6 -2 2 0.2573 0.1782
6 -2 3 -1.6660 0.1772
6 -2 4 3.6381 0.1636
6 -2 5 -2.5653 0.0570
6 -2 6 -1.9842 -0.0695
6 -2 7 4.7197 -0.0998
6 -2 8 -2.4474 0.0494
6 -2 9 1.1146 -0.4184
6 -1 0 2.2804 -1.1427
6 -1 1 -0.0251 -0.0625
6 -1 2 -0.5726 0.0278
6 -1 3 3.1224 0.1513
6 -1 4 -0.9446 0.2365
6 -1 5 1.5711 0.1278
6 -1 6 1.6658 0.0318
6 -1 7 -3.5604 -0.0133
6 -1 8 3.3986 -0.0583
6 0 0 -2.9525 -0.7611
6 0 1 -1.4421 -0.3614
6 0 2 1.8748 -0.1023
6 0 3 0.1310 0.0389
6 0 4 0.9543 0.0920
6 0 5 -2.2747 0.1101
6 0 6 1.3072 0.1354
6 0 7 -1.6727 0.0911
6 0 8 1.5686 -0.2503
6 1 0 -0.6324 -0.1058
6 1 1 1.7944 -0.4517
6 1 2 -3.0002 -0.2202
6 1 3 -0.8789 -0.1440
6 1 4 3.9300 -0.0250
6 1 5 0.2417 0.0438
6 1 6 -2.7115 0.0506
6 1 7 2.4155 -0.0094
6 2 0 1.5096 0.5333
6 2 1 -4.2580 -0.2446
6 2 2 1.7595 -0.2027
6 2 3 -2.0562 -0.1296
6 2 4 -0.6518 -0.0668
6 2 5 0.5067 -0.0228
6 2 6 -2.5557 0.0382
6 2 7 3.4612 -0.0563
6 3 0 -1.2642 0.8275
6 3 1 1.2012 -0.0169
6 3 2 -2.7424 -0.0928
6 3 3 1.1833 -0.0206
6 3 4 0.5101 -0.0935
6 3 5 2.5878 -0.0088
6 3 6 1.0996 -0.0691
6 4 0 1.2992 0.5978
6 4 1 -0.1052 0.1411
6 4 2 0.8376 0.0198
6 4 3 -2.0253 0.0109
6 4 4 -3.1564 -0.0388
6 4 5 1.2418 -0.0624
6 5 0 3.3321 0.1833
6 5 1 -0.1303 0.2400
6 5 2 0.3654 0.0818
6 5 3 -0.1046 0.0364
6 5 4 1.5815 -0.0319
6 6 0 3.7056 -0.1916
6 6 1 -1.8194 0.1590
6 6 2 1.0017 -0.0367
6 6 3 3.0856 -0.0751
6 7 0 -0.0693 -0.2142
6 7 1 2.4987 -0.2026
7 -10 0 -0.7078 -0.3569
7 -10 1 -0.9107 -0.1913
7 -10 2 -0.8736 -0.0653
7 -10 3 1.1641 0.2118
7 -10 4 -0.3352 0.2801
7 -10 5 2.5879 0.3577
7 -10 6 -4.9471 0.2111
7 -9 0 -7.2261 0.1600
7 -9 1 1.6912 -0.0663
7 -9 2 -0.0663 -0.1433
7 -9 3 0.8164 -0.1058
7 -9 4 -2.1458 -0.1807
7 -9 5 -1.9374 -0.0236
7 -9 6 2.3344 0.1132
7 -9 7 -2.3203 0.0553
7 -8 0 4.0207 0.4731
7 -8 1 -3.9830 -0.2028
7 -8 2 1.9730 -0.1964
7 -8 3 -1.7874 -0.2004
7 -8 4 3.7028 -0.2665
7 -8 5 3.3724 -0.2343
7 -8 6 -1.8498 -0.0520
7 -8 7 3.8388 0.0222
7 -8 8 -4.8512 -0.0330
7 -7 0 -0.4848 0.6269
7 -7 1 -2.1578 0.0114
7 -7 2 2.6191 0.0131
7 -7 3 4.1632 -0.0674
7 -7 4 -0.6253 -0.1193
7 -7 5 -2.1019 -0.0624
7 -7 6 1.9469 0.0070
7 -7 7 -2.8623 0.0911
7 -7 8 2.8977 0.3930
7 -6 0 0.8551 0.6887
7 -6 1 -0.0816 0.3328
7 -6 2 -6.7760 0.2012
7 -6 3 -3.1292 0.0398
7 -6 4 1.8149 -0.0580
7 -6 5 3.6328 -0.0799
7 -6 6 0.2461 -0.1115
7 -6 7 2.5395 0.0492
7 -6 8 -0.4082 0.2295
7 -5 0 3.4999 0.1485
7 -5 1 -5.5542 0.3352
7 -5 2 -0.7592 0.2813
7 -5 3 1.0353 0.1630
7 -5 4 -5.2254 0.0647
7 -5 5 -3.1903 -0.0959
7 -5 6 1.9336 -0.1217
7 -5 7 -1.0894 -0.0342
7 -5 8 1.2515 0.0998
7 -4 0 0.4087 -0.5541
7 -4 1 8.3367 0.2354
7 -4 2 -0.1419 0.2117
7 -4 3 -3.9467 0.1385
7 -4 4 2.4544 0.1504
7 -4 5 0.1329 -0.0071
7 -4 6 -0.5804 -0.1311
7 -4 7 1.9287 -0.2098
7 -4 8 0.2475 0.1132
7 -3 0 3.8605 -1.0250
7 -3 1 -1.5009 0.0363
7 -3 2 3.3535 0.0381
7 -3 3 1.6431 0.1128
7 -3 4 0.4089 0.1756
7 -3 5 -3.8705 0.0896
7 -3 6 -2.3025 -0.0466
7 -3 7 2.2585 -0.1467
7 -3 8 -2.8566 0.0268
7 -2 0 -3.9679 -0.9188
7 -2 1 1.3442 -0.2689
7 -2 2 0.0522 -0.1511
7 -2 3 -0.4474 0.0735
7 -2 4 0.8629 0.0911
7 -2 5 -2.1427 0.1051
7 -2 6 2.8093 0.0740
7 -2 7 -4.4707 -0.0369
7 -2 8 5.1318 -0.1390
7 -1 0 -0.1858 -0.3643
7 -1 1 0.6719 -0.4217
7 -1 2 1.3345 -0.2092
7 -1 3 1.3515 -0.0417
7 -1 4 1.5362 -0.0101
7 -1 5 2.1556 0.1125
7 -1 6 -4.0010 0.1257
7 -1 7 3.5748 0.0645
7 0 0 -2.7863 0.3196
7 0 1 -1.3494 -0.2693
7 0 2 0.2199 -0.1566
7 0 3 -0.9262 -0.1095
7 0 4 2.5059 -0.0356
7 0 5 -0.2608 0.0205
7 0 6 0.2043 -0.0811
7 0 7 -1.0011 0.0080
7 1 0 0.9041 0.7833
7 1 1 0.4702 -0.0489
7 1 2 -1.9485 -0.1331
7 1 3 2.8871 -0.1236
7 1 4 -0.6850 -0.0419
7 1 5 -0.3230 -0.0678
7 1 6 2.0831 -0.0541
7 2 0 -1.2023 0.7366
7 2 1 -1.7873 0.0617
7 2 2 0.0369 -0.0648
7 2 3 -2.7887 0.0087
7 2 4 1.5589 -0.0333
7 2 5 -0.6919 -0.0964
7 3 0 -1.3208 0.3432
7 3 1 1.1668 0.2311
7 3 2 -2.1028 0.1218
7 3 3 -0.5501 0.0373
7 3 4 0.3713 -0.1016
7 3 5 4.6775 0.1116
7 4 0 0.8474 -0.0762
7 4 1 -2.4638 0.1800
7 4 2 -0.6108 0.0959
7 4 3 1.5605 -0.0123
7 4 4 -4.5620 0.1457
7 5 0 5.6868 -0.2296
7 5 1 -0.0422 -0.0538
7 5 2 0.3835 -0.0013
7 6 0 1.4551 -0.1819
7 6 1 3.8043 -0.1278
8 -9 0 0.2406 0.2404
8 -9 1 2.0253 0.0863
8 -9 2 -6.8515 0.1038
8 -9 3 3.2848 0.0062
8 -9 4 -1.9766 -0.2224
8 -9 5 0.0957 -0.4796
8 -8 0 -0.4149 0.6283
8 -8 1 4.3452 0.0680
8 -8 2 4.1199 0.0544
8 -8 3 -2.7718 -0.1443
8 -8 4 0.9393 -0.1587
8 -8 5 -0.5486 -0.3188
8 -8 6 2.8887 -0.6697
8 -7 0 1.6428 0.2683
8 -7 1 -4.6696 0.1350
8 -7 2 2.6243 0.2066
8 -7 3 2.8242 0.1098
8 -7 4 4.1118 0.1238
8 -7 5 -0.1721 -0.0075
8 -7 6 -4.2726 -0.2820
8 -7 7 0.5346 0.0258
8 -6 0 2.0687 -0.1368
8 -6 1 -0.1993 0.1935
8 -6 2 -2.7241 0.2211
8 -6 3 -0.8964 0.1575
8 -6 4 -4.3451 0.2000
8 -6 5 4.6663 0.1699
8 -6 6 2.7098 -0.2099
8 -6 7 -2.3879 0.0152
8 -5 0 0.3369 -0.6058
8 -5 1 -0.3004 0.1612
8 -5 2 -3.3933 0.2023
8 -5 3 -1.8900 0.1378
8 -5 4 2.2152 0.2491
8 -5 5 -1.7032 0.2299
8 -5 6 -3.2200 -0.0387
8 -5 7 2.1508 -0.0002
8 -4 0 -2.0420 -0.9134
8 -4 1 3.8564 -0.1165
8 -4 2 0.7634 -0.0416
8 -4 3 1.3748 0.0449
8 -4 4 -6.2820 0.1823
8 -4 5 2.7166 0.1455
8 -4 6 6.2053 0.1163
8 -4 7 -1.6016 -0.1081
8 -3 0 -0.9967 -0.6770
8 -3 1 1.7632 -0.3411
8 -3 2 -0.0482 -0.2237
8 -3 3 2.1484 -0.0440
8 -3 4 1.9616 0.0668
8 -3 5 -4.7498 0.0112
8 -3 6 -1.2089 0.1041
8 -3 7 1.3148 -0.1584
8 -2 0 0.5363 -0.0677
8 -2 1 -1.1049 -0.3612
8 -2 2 2.7084 -0.2954
8 -2 3 -3.5211 -0.1708
8 -2 4 0.7234 -0.0388
8 -2 5 -0.4575 -0.0211
8 -2 6 -1.4414 0.1289
8 -1 0 -4.2622 0.6638
8 -1 1 2.2349 -0.2174
8 -1 2 -0.8488 -0.2525
8 -1 3 4.1023 -0.1512
8 -1 4 0.6350 -0.0774
8 -1 5 -2.8695 0.0001
8 -1 6 2.8111 -0.0607
8 0 0 -0.5577 0.8744
8 0 1 -3.2580 0.0554
8 0 2 -1.0647 -0.0616
8 0 3 0.1300 -0.0855
8 0 4 2.6340 -0.1538
8 0 5 0.8353 -0.0120
8 1 0 0.1850 0.6785
8 1 1 3.7124 0.3138
8 1 2 0.5906 0.0959
8 1 3 -1.5764 0.0370
8 1 4 -0.2819 -0.0132
8 1 5 3.2717 -0.0636
8 2 0 -3.0441 0.1817
8 2 1 -2.5466 0.2703
8 2 2 -1.1176 0.1730
8 2 3 1.5430 0.0949
8 2 4 -0.6373 -0.0495
8 3 0 1.3347 -0.2971
8 3 1 -1.4001 0.0585
8 3 2 -0.7610 0.1149
8 3 3 -0.7058 -0.0209
8 4 0 1.2440 -0.3646
8 4 1 -0.1111 -0.0527
8 4 2 -0.8289 -0.0507
8 5 0 1.0714 -0.4535
8 5 1 2.7307 -0.2841
9 -8 0 -5.4621 0.5073
9 -8 1 7.7934 0.1794
9 -8 2 -1.6869 0.1637
9 -8 3 2.1497 -0.1010
9 -7 0 4.6236 -0.2266
9 -7 1 -2.7926 0.2842
9 -7 2 6.5602 0.2644
9 -7 3 -2.9412 0.0915
9 -7 4 3.1878 0.2137
9 -7 5 0.8299 0.2303
9 -6 0 2.2521 -0.8824
9 -6 1 0.0289 -0.0450
9 -6 2 -2.1267 0.0014
9 -6 3 1.5770 0.1511
9 -6 4 -0.1567 0.1389
9 -6 5 -0.3991 0.3906
9 -5 0 -6.0228 -0.6640
9 -5 1 0.9494 -0.2193
9 -5 2 -0.0718 -0.0016
9 -5 3 0.9037 0.0895
9 -5 4 -4.1284 0.1509
9 -5 5 4.0340 0.3694
9 -4 0 -1.7602 -0.3627
9 -4 1 -0.4285 -0.3204
9 -4 2 0.5822 -0.1585
9 -4 3 -1.3640 -0.1628
9 -4 4 1.5576 0.1410
9 -4 5 -0.6630 0.1631
9 -3 0 1.6538 0.2165
9 -3 1 -1.3541 -0.2331
9 -3 2 -0.8031 -0.2692
9 -3 3 1.3491 -0.2492
9 -3 4 -0.3679 -0.0021
9 -3 5 0.8358 -0.0854
9 -2 0 -1.6223 0.6204
9 -2 1 1.3402 -0.0653
9 -2 2 0.6084 -0.2265
9 -2 3 2.1029 -0.1994
9 -2 4 -6.6410 -0.1185
9 -2 5 1.1748 -0.2455
9 -1 0 -0.9935 0.6038
9 -1 1 0.6545 0.2353
9 -1 2 -2.2133 0.0256
9 -1 3 1.5253 0.0203
9 -1 4 3.4017 -0.1485
9 0 0 -0.7413 0.3576
9 0 1 -1.4982 0.1836
9 0 2 1.3200 -0.0067
9 0 3 -2.4325 -0.0033
9 0 4 2.9344 -0.0818
9 1 0 -2.4107 0.1083
9 1 1 4.7812 0.0885
9 1 2 -2.4365 0.1458
9 1 3 2.2540 0.0897
9 2 0 2.2475 0.0704
9 2 1 -5.8254 0.0414
9 2 2 3.8844 0.1718
9 3 0 -1.2813 -0.4140
9 3 1 3.5284 -0.1326
9 4 0 -0.3251 -0.3189
10 -6 0 -3.4499 -1.3023
10 -6 1 2.2440 -0.1658
10 -6 2 -2.0072 0.0537
10 -5 0 1.1425 -0.3967
10 -5 1 -2.8408 -0.1203
10 -5 2 4.5841 -0.2358
10 -5 3 -1.9760 0.2171
10 -4 0 -1.8495 0.2134
10 -4 1 -0.5435 -0.1701
10 -4 2 -3.2821 -0.2634
10 -4 3 3.1039 -0.0264
10 -3 0 0.3513 0.5226
10 -3 1 -3.7946 -0.0834
10 -3 2 1.7521 -0.0896
10 -3 3 -1.0441 -0.2263
10 -2 0 1.2656 0.5445
10 -2 1 4.4984 0.0777
10 -2 2 -2.3422 0.3261
10 -2 3 0.4782 -0.5752
10 -1 0 -2.7688 0.1970
10 -1 1 -0.7752 0.2021
10 -1 2 0.1252 0.0762
10 0 0 3.6130 -0.1246
10 0 1 -2.0360 0.2340
10 1 0 -3.4221 -0.5840
0 0 0 0.0 0.0
;
_olex2_submission_special_instructions 'No special instructions were received'
loop_
_space_group_symop_operation_xyz
'x, y, z'
'-x, -y, -z'
loop_
_atom_site_label
_atom_site_type_symbol
_atom_site_fract_x
_atom_site_fract_y
_atom_site_fract_z
_atom_site_U_iso_or_equiv
_atom_site_adp_type
_atom_site_occupancy
_atom_site_site_symmetry_order
_atom_site_calc_flag
_atom_site_refinement_flags_posn
_atom_site_refinement_flags_adp
_atom_site_refinement_flags_occupancy
_atom_site_disorder_assembly
_atom_site_disorder_group
Zn1 Zn 0.500000 0.000000 0.000000 0.0463(5) Uani 1 2 d S T P A .
Zn2 Zn 0.81991(11) -0.11577(13) -0.11813(12) 0.0438(4) Uani 1 1 d . . . . .
O1 O 0.5576(8) 0.0197(8) -0.1661(7) 0.062(2) Uani 1 1 d . . . . .
O2 O 0.7225(7) -0.0999(8) -0.2706(6) 0.058(2) Uani 1 1 d . . . . .
O3 O 0.7520(8) -0.2840(7) -0.0988(7) 0.062(2) Uani 1 1 d . . . . .
O4 O 0.5448(8) -0.2003(7) -0.0757(8) 0.066(2) Uani 1 1 d . . . . .
N1 N 0.7213(8) 0.0908(9) 0.1128(8) 0.052(2) Uani 1 1 d . U . . .
N2 N 0.8414(9) 0.0527(8) 0.0621(8) 0.0411(19) Uani 1 1 d . . . . .
N3 N 0.9720(10) 0.1277(9) 0.1500(8) 0.059(2) Uani 1 1 d . . . . .
C1 C 0.6147(11) -0.0324(11) -0.2647(10) 0.046(3) Uani 1 1 d . . . . .
C2 C 0.5581(10) -0.0190(10) -0.3863(10) 0.045(3) Uani 1 1 d . . . . .
C3 C 0.6106(12) -0.0765(12) -0.5020(9) 0.062(3) Uani 1 1 d . . . . .
H3 H 0.684365 -0.129643 -0.506959 0.075 Uiso 1 1 calc R . . . .
C4 C 0.4436(13) 0.0571(13) -0.3890(11) 0.079(4) Uani 1 1 d . . . . .
H4 H 0.403078 0.096064 -0.312493 0.094 Uiso 1 1 calc R . . . .
C5 C 0.6172(12) -0.2895(11) -0.0721(11) 0.054(3) Uani 1 1 d . . . . .
C6 C 0.5594(11) -0.3951(10) -0.0346(11) 0.054(3) Uani 1 1 d . . . . .
C7 C 0.4269(13) -0.3976(13) 0.0075(12) 0.076(4) Uani 1 1 d . . . . .
H7 H 0.374346 -0.327290 0.013393 0.091 Uiso 1 1 calc R . . . .
C8 C 0.6335(13) -0.5017(12) -0.0417(12) 0.079(4) Uani 1 1 d . . . . .
H8 H 0.725099 -0.504958 -0.069916 0.094 Uiso 1 1 calc R . . . .
C9A C 0.7766(17) 0.2241(19) 0.2241(17) 0.024(4) Uani 0.5 1 d . U . A 1
H9A H 0.725393 0.292277 0.272173 0.029 Uiso 0.5 1 calc R . . A 1
C9B C 0.773(2) 0.170(2) 0.2426(19) 0.032(5) Uani 0.5 1 d . U . A 2
H9B H 0.714026 0.210490 0.304386 0.039 Uiso 0.5 1 calc R . . A 2
C10A C 0.9332(14) 0.2239(15) 0.2413(14) 0.024(3) Uani 0.6 1 d . U . A 1
H10A H 1.003233 0.292417 0.317100 0.029 Uiso 0.6 1 calc R . . A 1
C10B C 0.936319 0.184150 0.276419 0.060(9) Uani 0.4 1 d . U . A 2
H10B H 1.000341 0.221647 0.361073 0.072 Uiso 0.4 1 calc R . . A 2
loop_
_atom_site_aniso_label
_atom_site_aniso_U_11
_atom_site_aniso_U_22
_atom_site_aniso_U_33
_atom_site_aniso_U_23
_atom_site_aniso_U_13
_atom_site_aniso_U_12
Zn1 0.0279(9) 0.0720(13) 0.0557(12) 0.0410(11) 0.0129(8) 0.0175(8)
Zn2 0.0230(6) 0.0664(9) 0.0601(9) 0.0404(8) 0.0163(5) 0.0186(6)
O1 0.062(5) 0.099(6) 0.045(5) 0.052(5) 0.011(4) 0.016(4)
O2 0.047(4) 0.112(6) 0.044(4) 0.054(5) 0.017(3) 0.040(4)
O3 0.071(5) 0.052(5) 0.085(6) 0.047(5) 0.024(4) 0.024(4)
O4 0.066(5) 0.060(5) 0.094(6) 0.048(5) 0.027(4) 0.032(4)
N1 0.029(4) 0.075(6) 0.052(5) 0.024(5) 0.018(4) 0.015(4)
N2 0.034(4) 0.056(5) 0.042(5) 0.028(4) 0.010(4) 0.015(4)
N3 0.060(6) 0.067(7) 0.035(5) 0.008(5) 0.011(5) 0.021(5)
C1 0.051(6) 0.071(8) 0.030(6) 0.041(6) 0.006(5) -0.001(6)
C2 0.041(6) 0.051(7) 0.038(6) 0.020(6) 0.001(5) 0.002(5)
C3 0.090(8) 0.098(9) 0.019(6) 0.029(6) 0.017(6) 0.073(7)
C4 0.085(9) 0.132(12) 0.048(8) 0.055(8) 0.029(7) 0.050(8)
C5 0.053(7) 0.054(8) 0.056(7) 0.027(6) 0.011(6) 0.010(6)
C6 0.054(7) 0.053(7) 0.089(9) 0.055(7) 0.027(6) 0.025(5)
C7 0.069(8) 0.090(10) 0.121(11) 0.081(9) 0.044(8) 0.039(7)
C8 0.083(9) 0.075(9) 0.132(12) 0.081(9) 0.062(8) 0.035(7)
C9A 0.017(5) 0.026(5) 0.027(5) 0.008(3) 0.008(3) 0.007(3)
C9B 0.033(5) 0.033(5) 0.033(5) 0.015(3) 0.009(3) 0.008(3)
C10A 0.015(4) 0.026(4) 0.026(4) 0.005(3) 0.006(3) 0.012(3)
C10B 0.060(9) 0.061(9) 0.060(9) 0.028(5) 0.013(4) 0.013(3)
loop_
_atom_type_symbol
_atom_type_description
_atom_type_scat_dispersion_real
_atom_type_scat_dispersion_imag
_atom_type_scat_source
C C 0.0033 0.0016 'International Tables Vol C Tables 4.2.6.8 and 6.1.1.4'
H H 0.0000 0.0000 'International Tables Vol C Tables 4.2.6.8 and 6.1.1.4'
N N 0.0061 0.0033 'International Tables Vol C Tables 4.2.6.8 and 6.1.1.4'
O O 0.0106 0.0060 'International Tables Vol C Tables 4.2.6.8 and 6.1.1.4'
Zn Zn 0.2839 1.4301 'International Tables Vol C Tables 4.2.6.8 and 6.1.1.4'
loop_
_geom_angle_atom_site_label_1
_geom_angle_atom_site_label_2
_geom_angle_atom_site_label_3
_geom_angle
_geom_angle_site_symmetry_1
_geom_angle_site_symmetry_3
O1 Zn1 O1 180.00(10) . 2_655
O4 Zn1 O1 90.0(3) 2_655 2_655
O4 Zn1 O1 90.0(3) . .
O4 Zn1 O1 90.0(3) . 2_655
O4 Zn1 O1 90.0(3) 2_655 .
O4 Zn1 O4 180.0 . 2_655
O4 Zn1 N1 92.0(3) 2_655 2_655
O4 Zn1 N1 88.0(3) . 2_655
O4 Zn1 N1 92.0(3) . .
O4 Zn1 N1 88.0(3) 2_655 .
N1 Zn1 O1 88.1(3) . 2_655
N1 Zn1 O1 88.1(3) 2_655 .
N1 Zn1 O1 91.9(3) 2_655 2_655
N1 Zn1 O1 91.9(3) . .
N1 Zn1 N1 180.0 . 2_655
O2 Zn2 O3 118.8(3) . .
O2 Zn2 N2 115.5(3) . .
O2 Zn2 N3 102.6(3) . 2_755
O3 Zn2 N2 107.9(3) . .
O3 Zn2 N3 103.8(3) . 2_755
N3 Zn2 N2 106.7(3) 2_755 .
C1 O1 Zn1 145.0(7) . .
C1 O2 Zn2 122.0(6) . .
C5 O3 Zn2 111.5(6) . .
C5 O4 Zn1 153.3(8) . .
N2 N1 Zn1 122.2(6) . .
N2 N1 C9A 105.6(9) . .
C9A N1 Zn1 128.5(8) . .
C9B N1 Zn1 131.0(10) . .
C9B N1 N2 105.7(10) . .
N1 N2 Zn2 121.8(6) . .
N1 N2 N3 112.2(8) . .
N3 N2 Zn2 125.6(6) . .
N2 N3 Zn2 127.0(6) . 2_755
N2 N3 C10B 106.1(7) . .
C10A N3 Zn2 127.5(9) . 2_755
C10A N3 N2 103.7(10) . .
O1 C1 O2 124.8(8) . .
O1 C1 C2 119.0(10) . .
O2 C1 C2 116.2(9) . .
C3 C2 C1 123.5(10) . .
C3 C2 C4 115.7(9) . .
C4 C2 C1 120.7(10) . .
C2 C3 H3 119.6 . .
C2 C3 C4 120.9(9) . 2_654
C4 C3 H3 119.6 2_654 .
C2 C4 H4 118.3 . .
C3 C4 C2 123.4(10) 2_654 .
C3 C4 H4 118.3 2_654 .
O3 C5 C6 118.7(9) . .
O4 C5 O3 119.1(9) . .
O4 C5 C6 122.2(10) . .
C7 C6 C5 121.5(9) . .
C7 C6 C8 116.2(9) . .
C8 C6 C5 122.2(10) . .
C6 C7 H7 118.4 . .
C6 C7 C8 123.3(10) . 2_645
C8 C7 H7 118.4 2_645 .
C6 C8 H8 119.8 . .
C7 C8 C6 120.5(10) 2_645 .
C7 C8 H8 119.8 2_645 .
N1 C9A H9A 130.4 . .
N1 C9A C10A 99.2(13) . .
C10A C9A H9A 130.4 . .
N1 C9B H9B 124.8 . .
N1 C9B C10B 110.3(14) . .
C10B C9B H9B 124.8 . .
N3 C10A C9A 116.3(14) . .
N3 C10A H10A 121.9 . .
C9A C10A H10A 121.9 . .
N3 C10B C9B 102.1(8) . .
N3 C10B H10B 129.0 . .
C9B C10B H10B 129.0 . .
loop_
_geom_bond_atom_site_label_1
_geom_bond_atom_site_label_2
_geom_bond_distance
_geom_bond_site_symmetry_2
Zn1 O1 2.086(6) 2_655
Zn1 O1 2.086(6) .
Zn1 O4 2.068(7) 2_655
Zn1 O4 2.068(7) .
Zn1 N1 2.085(7) .
Zn1 N1 2.085(7) 2_655
Zn2 O2 1.902(6) .
Zn2 O3 1.941(6) .
Zn2 N2 2.016(8) .
Zn2 N3 1.985(9) 2_755
O1 C1 1.228(11) .
O2 C1 1.288(11) .
O3 C5 1.301(11) .
O4 C5 1.244(11) .
N1 N2 1.331(9) .
N1 C9A 1.404(18) .
N1 C9B 1.309(19) .
N2 N3 1.336(9) .
N3 C10A 1.236(14) .
N3 C10B 1.386(8) .
C1 C2 1.464(11) .
C2 C3 1.361(12) .
C2 C4 1.412(13) .
C3 H3 0.9300 .
C3 C4 1.365(12) 2_654
C4 H4 0.9300 .
C5 C6 1.431(12) .
C6 C7 1.353(13) .
C6 C8 1.383(13) .
C7 H7 0.9300 .
C7 C8 1.369(12) 2_645
C8 H8 0.9300 .
C9A H9A 0.9300 .
C9A C10A 1.413(19) .
C9B H9B 0.9300 .
C9B C10B 1.453(18) .
C10A H10A 0.9300 .
C10B H10B 0.9300 .
loop_
_geom_torsion_atom_site_label_1
_geom_torsion_atom_site_label_2
_geom_torsion_atom_site_label_3
_geom_torsion_atom_site_label_4
_geom_torsion
_geom_torsion_site_symmetry_1
_geom_torsion_site_symmetry_4
Zn1 O1 C1 O2 -32.0(18) . .
Zn1 O1 C1 C2 147.7(8) . .
Zn1 O4 C5 O3 -74(2) . .
Zn1 O4 C5 C6 103.6(16) . .
Zn1 N1 N2 Zn2 -9.4(9) . .
Zn1 N1 N2 N3 177.8(6) . .
Zn1 N1 C9A C10A -174.0(8) . .
Zn1 N1 C9B C10B 168.7(6) . .
Zn2 O2 C1 O1 -4.9(14) . .
Zn2 O2 C1 C2 175.3(6) . .
Zn2 O3 C5 O4 7.1(13) . .
Zn2 O3 C5 C6 -170.6(8) . .
Zn2 N2 N3 Zn2 10.5(11) . 2_755
Zn2 N2 N3 C10A 176.4(8) . .
Zn2 N2 N3 C10B -152.6(4) . .
Zn2 N3 C10A C9A 165.4(10) 2_755 .
Zn2 N3 C10B C9B 178.9(9) 2_755 .
O1 C1 C2 C3 -178.0(10) . .
O1 C1 C2 C4 2.4(15) . .
O2 C1 C2 C3 1.8(15) . .
O2 C1 C2 C4 -177.8(9) . .
O3 C5 C6 C7 173.3(11) . .
O3 C5 C6 C8 -8.0(17) . .
O4 C5 C6 C7 -4.4(18) . .
O4 C5 C6 C8 174.3(11) . .
N1 N2 N3 Zn2 -176.9(6) . 2_755
N1 N2 N3 C10A -11.0(12) . .
N1 N2 N3 C10B 20.0(9) . .
N1 C9A C10A N3 10.5(17) . .
N1 C9B C10B N3 10.6(14) . .
N2 N1 C9A C10A -15.7(13) . .
N2 N1 C9B C10B 0.8(15) . .
N2 N3 C10A C9A -0.4(16) . .
N2 N3 C10B C9B -17.5(10) . .
C1 C2 C3 C4 -178.1(10) . 2_654
C1 C2 C4 C3 178.1(10) . 2_654
C3 C2 C4 C3 -1.5(19) . 2_654
C4 C2 C3 C4 1.5(19) . 2_654
C5 C6 C7 C8 178.7(11) . 2_645
C5 C6 C8 C7 -178.7(11) . 2_645
C7 C6 C8 C7 0(2) . 2_645
C8 C6 C7 C8 0(2) . 2_645
C9A N1 N2 Zn2 -169.4(8) . .
C9A N1 N2 N3 17.8(12) . .
C9B N1 N2 Zn2 159.9(9) . .
C9B N1 N2 N3 -12.9(13) . .
loop_
_platon_squeeze_void_nr
_platon_squeeze_void_average_x
_platon_squeeze_void_average_y
_platon_squeeze_void_average_z
_platon_squeeze_void_volume
_platon_squeeze_void_count_electrons
_platon_squeeze_void_content
1 -0.015 -0.036 0.474 473 101 ' '
loop_
_refln_index_h
_refln_index_k
_refln_index_l
_refln_F_squared_meas
_refln_F_squared_sigma
_refln_scale_group_code
-1 0 0 231.6 6.56 1
1 0 0 281.48 7.59 1
-2 0 0 67.82 2.33 1
2 0 0 70.14 2.29 1
-3 0 0 264.4 4.83 1
3 0 0 256.09 4.59 1
-4 0 0 63.75 2.6 1
4 0 0 60.94 2.54 1
-5 0 0 62.35 3.89 1
5 0 0 57.63 3.87 1
-6 0 0 40.27 4.77 1
6 0 0 35.99 4.65 1
-7 0 0 5.14 5.86 1
7 0 0 2.8 6.49 1
-8 0 0 7.79 8.18 1
8 0 0 17.99 8.86 1
-9 0 0 46.5 9.92 1
9 0 0 39.66 9.13 1
-10 0 0 4.43 8.37 1
10 0 0 6.18 9.38 1
10 -1 0 5.33 9.04 1
-10 1 0 2.72 10.25 1
9 -1 0 63.41 6.87 1
-9 1 0 61.56 6.87 1
8 -1 0 5.88 5.08 1
-8 1 0 6.63 5.98 1
7 -1 0 10.99 5.13 1
-7 1 0 9.29 5.09 1
6 -1 0 113.97 5.85 1
-6 1 0 104.22 5.82 1
5 -1 0 5.78 3.24 1
-5 1 0 4.5 2.81 1
4 -1 0 36.73 2.44 1
-4 1 0 38.66 2.23 1
3 -1 0 451.55 8.95 1
-3 1 0 453.45 10.33 1
2 -1 0 16.72 2.92 1
-2 1 0 16.93 2.85 1
1 -1 0 47.42 3.01 1
-1 1 0 55.73 2.23 1
0 -1 0 911.49 20.64 1
0 1 0 918.2 21.17 1
-1 -1 0 231.67 4.02 1
1 1 0 236.69 3.69 1
-2 -1 0 17.41 1.96 1
2 1 0 16.77 2.01 1
-3 -1 0 204.62 4.41 1
3 1 0 191.2 4.1 1
-4 -1 0 282.15 5.77 1
4 1 0 274.66 5.9 1
-5 -1 0 16.94 3.87 1
5 1 0 14.68 3.39 1
-6 -1 0 53.96 8.65 1
6 1 0 54.09 5.84 1
-7 -1 0 16.17 8.62 1
7 1 0 12.29 6.51 1
-8 -1 0 21.07 8.85 1
8 1 0 6.36 5.56 1
-9 -1 0 17.93 6.41 1
9 1 0 11.08 6.23 1
-10 -1 0 14.24 6.88 1
10 1 0 8.83 8.25 1
10 -2 0 7.83 8.61 1
-10 2 0 4.9 7.06 1
9 -2 0 50.47 6.27 1
-9 2 0 57.63 8.85 1
8 -2 0 8.29 5.52 1
-8 2 0 8.36 6.96 1
7 -2 0 46.13 6.31 1
-7 2 0 36.67 8.95 1
6 -2 0 92.66 7.47 1
-6 2 0 84.8 6.75 1
5 -2 0 81.52 5.96 1
-5 2 0 80.68 6.09 1
4 -2 0 216.38 5.46 1
-4 2 0 212.07 6.57 1
3 -2 0 81.46 3.63 1
-3 2 0 72.84 3.49 1
2 -2 0 115.19 3.47 1
-2 2 0 132.66 3.8 1
1 -2 0 113.18 3.05 1
-1 2 0 112.56 2.95 1
0 -2 0 254.08 5.15 1
0 2 0 246.39 4.55 1
-1 -2 0 821.68 19.84 1
1 2 0 831.25 12.5 1
-2 -2 0 17.05 2 1
2 2 0 17.72 1.85 1
-3 -2 0 59.47 2.37 1
3 2 0 62.31 2.51 1
-4 -2 0 135.93 4.57 1
4 2 0 127.03 4.74 1
-5 -2 0 7.82 4.29 1
5 2 0 4.83 3.5 1
-6 -2 0 4.19 5.42 1
6 2 0 9.05 5.37 1
-7 -2 0 23.5 5.27 1
7 2 0 24.66 5.17 1
-8 -2 0 3.38 5.47 1
8 2 0 2.68 4.96 1
-9 -2 0 6.61 6.28 1
9 2 0 4.28 5.72 1
10 -3 0 8.19 10.59 1
-10 3 0 13.75 14.96 1
9 -3 0 4.4 7.55 1
-9 3 0 4.79 11.22 1
8 -3 0 32.21 9.42 1
-8 3 0 41.63 7.47 1
7 -3 0 27.22 8.24 1
-7 3 0 19.72 7.08 1
6 -3 0 16.23 6.25 1
-6 3 0 15.41 6.41 1
5 -3 0 126.24 6.76 1
-5 3 0 141.9 7.68 1
4 -3 0 16.27 2.5 1
-4 3 0 19.82 3.24 1
3 -3 0 17.54 2.23 1
-3 3 0 14.94 2.17 1
2 -3 0 266.2 5.36 1
-2 3 0 269.28 5.36 1
1 -3 0 60.04 2.71 1
-1 3 0 59.35 2.57 1
0 -3 0 4.38 1.68 1
0 3 0 5.26 2.16 1
-1 -3 0 353.33 8.04 1
1 3 0 344.39 6.78 1
-2 -3 0 15.35 1.96 1
2 3 0 17.94 1.86 1
-3 -3 0 3.82 2.28 1
3 3 0 2.16 2.17 1
-4 -3 0 55.53 3.52 1
4 3 0 56.47 3.58 1
-5 -3 0 2.75 3.85 1
5 3 0 7.29 3.92 1
-6 -3 0 7.06 5.18 1
6 3 0 8.6 5.33 1
-7 -3 0 13.76 5.18 1
7 3 0 26.71 6.55 1
-8 -3 0 15.68 6.12 1
8 3 0 8.66 7.34 1
-9 -3 0 10.13 6.53 1
9 3 0 2.56 8.48 1
10 -4 0 0 45.39 1
-10 4 0 4.09 8.8 1
9 -4 0 1.4 13.77 1
-9 4 0 0.12 8.26 1
8 -4 0 74.32 10.69 1
-8 4 0 76.59 8.25 1
7 -4 0 53.8 7.68 1
-7 4 0 65.34 9.29 1
6 -4 0 10.54 5.43 1
-6 4 0 20.14 6.73 1
5 -4 0 81.93 4.62 1
-5 4 0 82.08 6.11 1
4 -4 0 1.8 3.48 1
-4 4 0 8.24 3.45 1
3 -4 0 1.93 2.37 1
-3 4 0 5.89 2.87 1
2 -4 0 111.39 3.6 1
-2 4 0 114.01 4.06 1
1 -4 0 54.6 2.62 1
-1 4 0 54.87 2.99 1
0 -4 0 2.02 1.52 1
0 4 0 3.2 1.99 1
-1 -4 0 230.46 6.29 1
1 4 0 242.88 5.22 1
-2 -4 0 96.64 4.14 1
2 4 0 96.42 3.91 1
-3 -4 0 4.1 3.41 1
3 4 0 6.88 2.31 1
-4 -4 0 7.72 3.48 1
4 4 0 8.67 4.12 1
-5 -4 0 27.16 4.77 1
5 4 0 23.65 6.2 1
-6 -4 0 21.81 5.06 1
6 4 0 15.79 6.37 1
-7 -4 0 5.51 4.89 1
7 4 0 6.01 6.28 1
-8 -4 0 25.95 5.99 1
8 4 0 22.99 6.94 1
-9 -4 0 3.86 6.3 1
9 4 0 4.31 6.73 1
10 -5 0 1.63 11.51 1
-10 5 0 4.45 8.44 1
9 -5 0 22.19 8.71 1
-9 5 0 6.86 7.78 1
8 -5 0 4.42 7.15 1
-8 5 0 11.11 6.86 1
7 -5 0 31.72 7.11 1
-7 5 0 42.73 8.68 1
6 -5 0 2.64 6.18 1
-6 5 0 9.73 7.3 1
5 -5 0 16.45 5.79 1
-5 5 0 29.46 7.12 1
4 -5 0 63.19 4.25 1
-4 5 0 56.19 5.4 1
3 -5 0 2.64 3.13 1
-3 5 0 9.17 3.55 1
2 -5 0 104.65 3.79 1
-2 5 0 101.98 4.5 1
1 -5 0 168.24 5.3 1
-1 5 0 165.26 5.38 1
0 -5 0 12.39 2.61 1
0 5 0 15.45 2.46 1
-1 -5 0 36.38 3.72 1
1 5 0 35.82 2.49 1
-2 -5 0 263.02 9.02 1
2 5 0 228.66 8.57 1
-3 -5 0 9.4 2.88 1
3 5 0 0 5.18 1
-4 -5 0 2.82 3.83 1
4 5 0 7.16 4.76 1
-5 -5 0 30.19 4.06 1
5 5 0 40.97 5.99 1
-6 -5 0 0.83 4.19 1
6 5 0 3.18 5.31 1
-7 -5 0 6.35 4.98 1
7 5 0 2.58 6.06 1
-8 -5 0 7.29 5.34 1
8 5 0 10.51 5.73 1
10 -6 0 29.15 7.98 1
-10 6 0 5.81 9.9 1
9 -6 0 15.59 8.1 1
-9 6 0 1.2 12.26 1
8 -6 0 8.31 7.89 1
-8 6 0 2.06 8.3 1
7 -6 0 50.24 7.35 1
-7 6 0 38.61 9.39 1
6 -6 0 7.36 4.3 1
-6 6 0 13.36 8.1 1
5 -6 0 2.42 4.89 1
-5 6 0 10.5 5.81 1
4 -6 0 68.75 5.3 1
-4 6 0 60.69 7 1
3 -6 0 7.24 3.95 1
-3 6 0 15.71 4.93 1
2 -6 0 3.51 2.94 1
-2 6 0 3.64 4.28 1
1 -6 0 149.42 4.24 1
-1 6 0 149.83 6.98 1
0 -6 0 2.12 3.28 1
0 6 0 2.73 3.49 1
-1 -6 0 4.76 3.96 1
1 6 0 9.24 4.5 1
-2 -6 0 85.91 5.89 1
2 6 0 83.3 6.16 1
-3 -6 0 20.88 4.82 1
3 6 0 10.55 6.13 1
-4 -6 0 1.64 6.15 1
4 6 0 3.94 5.47 1
-5 -6 0 15.14 3.49 1
5 6 0 14.64 4.66 1
-6 -6 0 8.15 4.01 1
6 6 0 12.71 3.7 1
-7 -6 0 3.93 5.19 1
7 6 0 5.57 5.51 1
9 -7 0 19.18 9.88 1
-9 7 0 2.87 7.98 1
8 -7 0 5.52 7.86 1
-8 7 0 0.89 7.08 1
7 -7 0 24.54 3.79 1
-7 7 0 23.73 6.58 1
6 -7 0 4.91 5.68 1
-6 7 0 3.59 5.84 1
5 -7 0 6.57 5.94 1
-5 7 0 15.4 7.18 1
4 -7 0 56.46 5.92 1
-4 7 0 87.28 10.37 1
3 -7 0 3.3 4.47 1
-3 7 0 13.44 6.53 1
2 -7 0 8.78 4.35 1
-2 7 0 12.49 6.39 1
1 -7 0 32.36 4.19 1
-1 7 0 20.49 8.24 1
0 -7 0 8.05 5.42 1
0 7 0 11.2 4.59 1
-1 -7 0 10.89 9.37 1
1 7 0 22.86 30.39 1
-2 -7 0 12.6 6.42 1
2 7 0 20.05 6.15 1
-3 -7 0 12.52 5.77 1
3 7 0 10.51 4.72 1
-4 -7 0 0.98 5.52 1
4 7 0 3.54 4.64 1
-5 -7 0 3.56 4.9 1
5 7 0 6.73 4.79 1
-6 -7 0 12.47 5.11 1
6 7 0 8.15 5.06 1
9 -8 0 25.87 8.88 1
-9 8 0 14.75 11.77 1
8 -8 0 13.82 9.07 1
-8 8 0 9.57 8.34 1
7 -8 0 6.73 4.79 1
-7 8 0 16.53 8.33 1
6 -8 0 10.41 6.4 1
-6 8 0 13.04 7.49 1
5 -8 0 1.94 6.92 1
-5 8 0 2.27 7.65 1
4 -8 0 12.66 6.73 1
-4 8 0 22.81 9.41 1
3 -8 0 7.75 5.64 1
-3 8 0 23.84 8.61 1
2 -8 0 5.08 3.93 1
-2 8 0 9.1 6.54 1
1 -8 0 2.49 4.24 1
-1 8 0 3.04 4.85 1
0 -8 0 19.84 5.48 1
0 8 0 19.08 4.35 1
-1 -8 0 0.24 5.6 1
1 8 0 0 12.54 1
-2 -8 0 4.55 4.89 1
2 8 0 4.72 6.8 1
-3 -8 0 7.38 5.53 1
3 8 0 8.91 5.03 1
-4 -8 0 1.25 5.83 1
4 8 0 7.01 5.25 1
-5 -8 0 10.64 5.15 1
5 8 0 6.3 5.27 1
-6 -8 0 14.09 5.13 1
6 8 0 6.32 5.89 1
8 -9 0 8.86 10.05 1
-8 9 0 1.19 9.01 1
7 -9 0 59.05 31.05 1
-7 9 0 2.73 12.55 1
6 -9 0 31.43 9.26 1
-6 9 0 9.54 9.33 1
5 -9 0 16.64 13.81 1
-5 9 0 10.42 9.16 1
4 -9 0 20.35 5.56 1
-4 9 0 0.79 9.42 1
3 -9 0 29.72 4.93 1
-3 9 0 15.59 8.59 1
2 -9 0 2.93 3.21 1
-2 9 0 4.29 6.82 1
1 -9 0 1.41 4 1
-1 9 0 3.79 4.52 1
0 -9 0 11 4.44 1
0 9 0 1.07 4.97 1
-1 -9 0 1.13 5.19 1
1 9 0 1.87 10.91 1
-2 -9 0 6.68 5.08 1
2 9 0 6.23 7.49 1
-3 -9 0 7.62 6.08 1
3 9 0 10.16 5.84 1
-4 -9 0 1.77 6.39 1
4 9 0 9.83 5.98 1
7 -10 0 3.97 11.32 1
-7 10 0 0.7 10.08 1
6 -10 0 11.53 14.35 1
-6 10 0 0 22.34 1
5 -10 0 15.62 11.03 1
-5 10 0 0 10.23 1
4 -10 0 14.26 4.48 1
-4 10 0 3.53 7.89 1
3 -10 0 1.86 3.14 1
-3 10 0 8 7.19 1
2 -10 0 0.93 3.89 1
-2 10 0 4.22 5.11 1
1 -10 0 9.14 8.26 1
-1 10 0 3.61 6.06 1
0 -10 0 5.5 3.12 1
0 10 0 16.17 7.79 1
-1 -10 0 3.77 7.26 1
1 10 0 4.17 8.42 1
-2 -10 0 6.42 5.46 1
2 10 0 1.48 7.75 1
-3 -10 0 2.88 5.87 1
3 10 0 7.75 7.07 1
5 -11 0 33.24 9.19 1
-5 11 0 4.96 14.82 1
4 -11 0 5.11 8.92 1
-4 11 0 10.18 8.33 1
3 -11 0 21.29 10.07 1
-3 11 0 4.88 6.07 1
2 -11 0 16.29 9.61 1
-2 11 0 10.95 5.95 1
1 -11 0 7.2 8.7 1
-1 11 0 17.95 7.18 1
0 -11 0 14.98 9.2 1
0 11 0 0 14.53 1
-1 -11 0 11 9.03 1
1 11 0 6.1 8.22 1
2 11 -1 2.5 6.01 1
-2 -11 1 14.39 9.53 1
1 11 -1 0 8.39 1
-1 -11 1 12.65 9.28 1
0 11 -1 2.73 17.05 1
0 -11 1 24.61 11.92 1
-1 11 -1 15.08 5.46 1
1 -11 1 10.33 9.81 1
-2 11 -1 7.84 6 1
2 -11 1 16.18 8.46 1
-3 11 -1 26.08 12.91 1
3 -11 1 2.52 11.71 1
-4 11 -1 6.41 11.32 1
4 -11 1 5.41 10.46 1
-5 11 -1 3.38 8.26 1
5 -11 1 13.6 7.75 1
-6 11 -1 2.81 10.53 1
6 -11 1 8.23 8.2 1
4 10 -1 10.63 6.5 1
-4 -10 1 13.27 5.67 1
3 10 -1 3.52 6.37 1
-3 -10 1 2.91 8.04 1
2 10 -1 1.34 5.87 1
-2 -10 1 0 8.46 1
1 10 -1 4.7 8.57 1
-1 -10 1 2.58 8.31 1
0 10 -1 6.11 6.24 1
0 -10 1 13.53 8.52 1
-1 10 -1 6.12 6.31 1
1 -10 1 8.17 7.36 1
-2 10 -1 5.43 6.05 1
2 -10 1 15.15 7.23 1
-3 10 -1 22.5 7.71 1
3 -10 1 21.57 7.88 1
-4 10 -1 2.05 9.28 1
4 -10 1 5.11 3.81 1
-5 10 -1 1.81 9.48 1
5 -10 1 12.16 8.25 1
-6 10 -1 7.88 7.63 1
6 -10 1 24.58 8.41 1
-7 10 -1 6.2 8.11 1
7 -10 1 8.26 6.77 1
5 9 -1 13.19 7.18 1
-5 -9 1 12.92 4.39 1
4 9 -1 9.14 5.49 1
-4 -9 1 8.05 4.88 1
3 9 -1 8.33 5.42 1
-3 -9 1 2.88 5.67 1
2 9 -1 1.68 5.78 1
-2 -9 1 4.86 7.62 1
1 9 -1 7.56 10.5 1
-1 -9 1 9.12 9.63 1
0 9 -1 5.37 5.12 1
0 -9 1 7.22 7.17 1
-1 9 -1 2.88 5.66 1
1 -9 1 13.52 6.73 1
-2 9 -1 0 8.43 1
2 -9 1 1.95 6.61 1
-3 9 -1 27.02 7.65 1
3 -9 1 25.79 3.85 1
-4 9 -1 16.9 7.99 1
4 -9 1 17.17 6.54 1
-5 9 -1 0.55 6.53 1
5 -9 1 3.92 6.2 1
-6 9 -1 18.2 7.91 1
6 -9 1 23.91 6.92 1
-7 9 -1 9.37 8.93 1
7 -9 1 28.13 6.46 1
-8 9 -1 4.86 7.74 1
8 -9 1 1.86 7.53 1
6 8 -1 16.73 6.71 1
-6 -8 1 5.29 4.74 1
5 8 -1 8.81 5.79 1
-5 -8 1 6.56 4.37 1
4 8 -1 9.67 5.03 1
-4 -8 1 3.78 4.46 1
3 8 -1 9.25 3.81 1
-3 -8 1 2.54 5.28 1
2 8 -1 20.39 7.12 1
-2 -8 1 17.38 5.66 1
1 8 -1 1.94 7.53 1
-1 -8 1 0.46 4.62 1
0 8 -1 8.3 3.66 1
0 -8 1 7.02 7.36 1
-1 8 -1 18.19 7.1 1
1 -8 1 26.46 7.28 1
-2 8 -1 6.59 5.8 1
2 -8 1 4.66 2.5 1
-3 8 -1 10.12 5.53 1
3 -8 1 14.38 4.27 1
-4 8 -1 54.31 7.94 1
4 -8 1 48.38 6.11 1
-5 8 -1 15.71 7.02 1
5 -8 1 12.03 6.44 1
-6 8 -1 3.03 5.89 1
6 -8 1 7.01 6.32 1
-7 8 -1 37.99 7.84 1
7 -8 1 76.9 7.79 1
-8 8 -1 8.16 11.8 1
8 -8 1 0 28.09 1
-9 8 -1 0 8.26 1
9 -8 1 45.46 32.19 1
7 7 -1 12.61 6.02 1
-7 -7 1 1.43 5.42 1
6 7 -1 3.81 5.41 1
-6 -7 1 3.16 4.63 1
5 7 -1 16.52 4.7 1
-5 -7 1 14.49 4.62 1
4 7 -1 4.64 4.88 1
-4 -7 1 11.82 3.55 1
3 7 -1 3.33 4.64 1
-3 -7 1 3.46 4.92 1
2 7 -1 42.36 6.58 1
-2 -7 1 30.59 5.47 1
1 7 -1 2.25 5.93 1
-1 -7 1 0.31 3.96 1
0 7 -1 2.56 4.2 1
0 -7 1 1.45 2.81 1
-1 7 -1 111.95 6.75 1
1 -7 1 104.43 7.21 1
-2 7 -1 8.76 4.64 1
2 -7 1 2 2.99 1
-3 7 -1 9.16 5.25 1
3 -7 1 0.61 3.85 1
-4 7 -1 86.44 9.15 1
4 -7 1 79.74 5.28 1
-5 7 -1 14.33 6.49 1
5 -7 1 2.72 6.74 1
-6 7 -1 6.36 7.18 1
6 -7 1 2.05 7.03 1
-7 7 -1 36.85 7.81 1
7 -7 1 60.97 9.54 1
-8 7 -1 1.46 8.32 1
8 -7 1 1.36 6.51 1
-9 7 -1 0 8.67 1
9 -7 1 23.43 8.11 1
8 6 -1 23.59 7.47 1
-8 -6 1 7.29 5.62 1
7 6 -1 13.03 5.74 1
-7 -6 1 8.7 5.8 1
6 6 -1 4.76 5.35 1
-6 -6 1 1.33 3.34 1
5 6 -1 28.17 4.92 1
-5 -6 1 27.23 3.39 1
4 6 -1 7.51 4.06 1
-4 -6 1 14.25 5.01 1
3 6 -1 1.85 5.07 1
-3 -6 1 11.67 4.5 1
2 6 -1 68.79 4.97 1
-2 -6 1 59.9 4.4 1
1 6 -1 4.12 3.21 1
-1 -6 1 2.93 2.83 1
0 6 -1 20.25 3.37 1
0 -6 1 15.04 2.69 1
-1 6 -1 135.22 7.66 1
1 -6 1 138.77 3.91 1
-2 6 -1 73.99 4.38 1
2 -6 1 70.39 3.72 1
-3 6 -1 7.19 3.75 1
3 -6 1 1.84 3.29 1
-4 6 -1 58.57 6.64 1
4 -6 1 60.92 7.68 1
-5 6 -1 24.82 9.75 1
5 -6 1 25.96 3.68 1
-6 6 -1 13.41 7.8 1
6 -6 1 10.22 5.12 1
-7 6 -1 29.22 6.61 1
7 -6 1 38.51 6.23 1
-8 6 -1 9.04 6.39 1
8 -6 1 41.54 7.13 1
-9 6 -1 3.85 15.13 1
9 -6 1 2.95 6.76 1
-10 6 -1 4.22 7.56 1
10 -6 1 15.11 7.78 1
8 5 -1 24.08 6.36 1
-8 -5 1 10.6 6.24 1
7 5 -1 6.64 5.56 1
-7 -5 1 3.34 5.12 1
6 5 -1 22.66 6 1
-6 -5 1 11.46 4.37 1
5 5 -1 20.41 6.3 1
-5 -5 1 28.86 4.18 1
4 5 -1 1.88 4.19 1
-4 -5 1 1.28 3.28 1
3 5 -1 18.36 2.74 1
-3 -5 1 26.67 3.87 1
2 5 -1 50.88 2.5 1
-2 -5 1 51.6 3.36 1
1 5 -1 153.5 4.46 1
-1 -5 1 149.1 4.76 1
0 5 -1 9.17 2.6 1
0 -5 1 10.44 1.98 1
-1 5 -1 96.82 4.19 1
1 -5 1 86.74 3.13 1
-2 5 -1 278.78 7.94 1
2 -5 1 281.85 6.56 1
-3 5 -1 56.35 4.42 1
3 -5 1 47.91 3.85 1
-4 5 -1 63.95 4.85 1
4 -5 1 60.35 3.36 1
-5 5 -1 124.95 6.19 1
5 -5 1 118.51 5.79 1
-6 5 -1 14.81 6.61 1
6 -5 1 9.85 5.65 1
-7 5 -1 13.66 7.35 1
7 -5 1 10.68 6.26 1
-8 5 -1 16.97 7.22 1
8 -5 1 33.66 6.78 1
-9 5 -1 6.66 6.76 1
9 -5 1 1.07 10.59 1
-10 5 -1 4.83 7.29 1
10 -5 1 29.29 22.62 1
9 4 -1 5.33 7.5 1
-9 -4 1 3.19 7.22 1
8 4 -1 20.79 6.76 1
-8 -4 1 19.36 6.41 1
7 4 -1 18.66 6.81 1
-7 -4 1 24.22 5.28 1
6 4 -1 8.25 6.09 1
-6 -4 1 5.09 5.21 1
5 4 -1 1.89 3.66 1
-5 -4 1 3.08 4.13 1
4 4 -1 29.28 3.27 1
-4 -4 1 27.22 3.26 1
3 4 -1 94.01 3.49 1
-3 -4 1 78.75 3.2 1
2 4 -1 66.26 2.5 1
-2 -4 1 62.39 3.02 1
1 4 -1 97.57 3.05 1
-1 -4 1 90.42 3.4 1
0 4 -1 4.06 2.41 1
0 -4 1 2.83 1.5 1
-1 4 -1 19.17 2.31 1
1 -4 1 14.36 1.67 1
-2 4 -1 134.65 3.45 1
2 -4 1 133.73 3.71 1
-3 4 -1 43.73 2.6 1
3 -4 1 41.74 2.17 1
-4 4 -1 6.99 4.05 1
4 -4 1 4.81 2.09 1
-5 4 -1 239.6 8.04 1
5 -4 1 241.45 7.63 1
-6 4 -1 50.54 8.37 1
6 -4 1 40.74 5.3 1
-7 4 -1 4.78 7.18 1
7 -4 1 20.37 6.5 1
-8 4 -1 85.63 7.96 1
8 -4 1 98.87 11.23 1
-9 4 -1 15.86 11.94 1
9 -4 1 28.03 10.63 1
-10 4 -1 12.56 14.9 1
10 -4 1 12.38 12.57 1
9 3 -1 0 12.01 1
-9 -3 1 1.84 6.11 1
8 3 -1 2.47 5.81 1
-8 -3 1 0.88 5.75 1
7 3 -1 40.01 4.68 1
-7 -3 1 32.39 5.79 1
6 3 -1 4.29 4.35 1
-6 -3 1 5.72 4.79 1
5 3 -1 16.99 3.52 1
-5 -3 1 21.8 3.93 1
4 3 -1 106.09 4.12 1
-4 -3 1 103.48 4.69 1
3 3 -1 3.09 2 1
-3 -3 1 4.18 2.15 1
2 3 -1 168.87 3.63 1
-2 -3 1 168.26 4.28 1
1 3 -1 2.2 1.82 1
-1 -3 1 5.37 1.8 1
0 3 -1 99.88 3.35 1
0 -3 1 91.76 3.61 1
-1 3 -1 40.04 2.14 1
1 -3 1 32.78 1.95 1
-2 3 -1 183.84 4.03 1
2 -3 1 180.37 4.05 1
-3 3 -1 172.81 4.49 1
3 -3 1 177.97 3.83 1
-4 3 -1 5.37 2.49 1
4 -3 1 3.97 3.12 1
-5 3 -1 247.43 8.32 1
5 -3 1 238.63 7.86 1
-6 3 -1 79.42 7.44 1
6 -3 1 88.62 6.49 1
-7 3 -1 51.56 10.58 1
7 -3 1 55.52 7.33 1
-8 3 -1 13.98 11.28 1
8 -3 1 13.71 6.54 1
-9 3 -1 82.29 12.67 1
9 -3 1 67.08 8.44 1
-10 3 -1 12.28 10.44 1
10 -3 1 2.87 9.29 1
10 2 -1 9.87 7.99 1
-10 -2 1 19.4 7.02 1
9 2 -1 9.95 6.15 1
-9 -2 1 2.45 6.62 1
8 2 -1 1.91 5.07 1
-8 -2 1 0.81 5.71 1
7 2 -1 37.29 6.15 1
-7 -2 1 41.01 6.85 1
6 2 -1 63.34 4.72 1
-6 -2 1 65.79 5.57 1
5 2 -1 27.73 2.96 1
-5 -2 1 21.03 3.61 1
4 2 -1 114.15 4.2 1
-4 -2 1 109.86 4.35 1
3 2 -1 41.88 2.1 1
-3 -2 1 39.98 2.06 1
2 2 -1 202.14 4.13 1
-2 -2 1 194.54 3.74 1
1 2 -1 100.47 3 1
-1 -2 1 99.57 2.67 1
0 2 -1 403.15 6.31 1
0 -2 1 411.22 7.78 1
-1 2 -1 47.32 1.74 1
1 -2 1 47.52 1.86 1
-2 2 -1 33.71 2.22 1
2 -2 1 26.4 1.85 1
-3 2 -1 313.93 6.18 1
3 -2 1 318.75 5.94 1
-4 2 -1 6.65 2.18 1
4 -2 1 5.53 2.36 1
-5 2 -1 59.36 3.87 1
5 -2 1 59.3 4 1
-6 2 -1 199.05 8.67 1
6 -2 1 187.47 7.85 1
-7 2 -1 9.43 6.83 1
7 -2 1 12.24 5.63 1
-8 2 -1 4.72 6.24 1
8 -2 1 3.45 5.44 1
-9 2 -1 80.77 8.5 1
9 -2 1 65.33 8.46 1
-10 2 -1 8.32 9.85 1
10 -2 1 8.82 14.64 1
10 1 -1 13.2 12.68 1
-10 -1 1 3.97 12.23 1
9 1 -1 45.51 8.66 1
-9 -1 1 39.43 10.32 1
8 1 -1 3.51 7.12 1
-8 -1 1 7.78 10.15 1
7 1 -1 13.34 8.83 1
-7 -1 1 8.06 5.56 1
6 1 -1 107.59 5.41 1
-6 -1 1 124.81 6.37 1
5 1 -1 3.74 2.57 1
-5 -1 1 4.2 3.22 1
4 1 -1 101.36 2.89 1
-4 -1 1 105.57 3.51 1
3 1 -1 337.97 5.77 1
-3 -1 1 347.38 6.25 1
2 1 -1 238.95 4.45 1
-2 -1 1 239.51 4.54 1
1 1 -1 9.67 0.99 1
-1 -1 1 10.05 0.8 1
0 1 -1 887.88 22.37 1
0 -1 1 883.29 19.94 1
-1 1 -1 30.24 1.16 1
1 -1 1 28.88 1 1
-2 1 -1 85.03 2.75 1
2 -1 1 77.36 3.05 1
-3 1 -1 521.91 8.48 1
3 -1 1 518.8 8.17 1
-4 1 -1 113.43 3.38 1
4 -1 1 111.21 3.4 1
-5 1 -1 4.46 2.63 1
5 -1 1 4.12 3.17 1
-6 1 -1 173.15 6.79 1
6 -1 1 170.13 7.52 1
-7 1 -1 15.54 5.87 1
7 -1 1 13.99 5.97 1
-8 1 -1 16.78 7.43 1
8 -1 1 3.72 7.05 1
-9 1 -1 48.7 6.87 1
9 -1 1 19.56 8.52 1
-10 1 -1 13.52 8.23 1
10 -1 1 3.11 7.8 1
10 0 -1 5.93 9.14 1
-10 0 1 14.16 14.74 1
9 0 -1 56.74 11.3 1
-9 0 1 57.38 7.65 1
8 0 -1 9.65 6.46 1
-8 0 1 4.02 5.29 1
7 0 -1 0.16 5.27 1
-7 0 1 7.84 5.03 1
6 0 -1 97.59 5.46 1
-6 0 1 100.24 5.56 1
5 0 -1 4.94 2.37 1
-5 0 1 4.55 3.24 1
4 0 -1 48.12 2.59 1
-4 0 1 49.64 2.49 1
3 0 -1 301.2 7.32 1
-3 0 1 297.93 6.93 1
2 0 -1 51.08 2.98 1
-2 0 1 55.42 3.09 1
1 0 -1 46.07 2.34 1
-1 0 1 52.04 2.66 1
0 0 -1 813.98 27.27 1
0 0 1 843.41 24.97 1
-1 0 -1 295.56 4.82 1
1 0 1 296.39 4.64 1
-2 0 -1 11.23 1.94 1
2 0 1 11.76 2.03 1
-3 0 -1 237.04 4.82 1
3 0 1 241.39 4.54 1
-4 0 -1 268.63 5.17 1
4 0 1 266.9 5.3 1
-5 0 -1 28.44 4.13 1
5 0 1 22.43 5.03 1
-6 0 -1 70.39 8.39 1
6 0 1 56.49 9.21 1
-7 0 -1 24.74 14.23 1
7 0 1 60.09 15.87 1
-8 0 -1 7.61 6.56 1
8 0 1 8.15 7.67 1
-9 0 -1 17.54 6.57 1
9 0 1 6.35 5.99 1
-10 0 -1 16.08 6.05 1
10 0 1 12.55 6.12 1
10 -1 -1 0.33 8.6 1
-10 1 1 1.36 9.52 1
9 -1 -1 42.54 6.85 1
-9 1 1 49.77 5.93 1
8 -1 -1 6.13 4.9 1
-8 1 1 14.29 5.07 1
7 -1 -1 27.88 5.16 1
-7 1 1 21.19 6.2 1
6 -1 -1 159.76 6.24 1
-6 1 1 156.91 6.3 1
5 -1 -1 122.9 8.19 1
-5 1 1 129.48 7.5 1
4 -1 -1 147.85 5.6 1
-4 1 1 150.05 5.54 1
3 -1 -1 244.61 7.24 1
-3 1 1 211.86 7.85 1
2 -1 -1 167.18 4.12 1
-2 1 1 162.89 4.18 1
1 -1 -1 336.99 5.67 1
-1 1 1 349.94 6.01 1
0 -1 -1 9.46 1.12 1
0 1 1 9.45 1.31 1
-1 -1 -1 85.25 2.91 1
1 1 1 85.88 2.7 1
-2 -1 -1 25.69 1.94 1
2 1 1 24.39 1.93 1
-3 -1 -1 77.27 2.99 1
3 1 1 80.64 3.55 1
-4 -1 -1 296.44 9.53 1
4 1 1 293.74 9.27 1
-5 -1 -1 16.35 7.62 1
5 1 1 7.17 4.67 1
-6 -1 -1 26.79 7.44 1
6 1 1 40.45 6.36 1
-7 -1 -1 40.01 5.93 1
7 1 1 44.84 6.2 1
-8 -1 -1 4.03 4.89 1
8 1 1 3.38 5.01 1
-9 -1 -1 7.18 6.15 1
9 1 1 9.89 6.08 1
10 -2 -1 6.54 8.15 1
-10 2 1 1.18 9.5 1
9 -2 -1 4.96 5.74 1
-9 2 1 11.11 6.92 1
8 -2 -1 36.52 7.88 1
-8 2 1 26.62 7.33 1
7 -2 -1 31.8 8.64 1
-7 2 1 22.88 8.89 1
6 -2 -1 60.54 5.58 1
-6 2 1 63.09 7.24 1
5 -2 -1 218.91 8.21 1
-5 2 1 227.35 9.55 1
4 -2 -1 82.43 3.15 1
-4 2 1 83.69 3.41 1
3 -2 -1 4.17 1.95 1
-3 2 1 4.82 2.08 1
2 -2 -1 397.04 7.69 1
-2 2 1 375.1 6.56 1
1 -2 -1 14.51 2.6 1
-1 2 1 15 2.39 1
0 -2 -1 299.34 5.72 1
0 2 1 285.64 5.77 1
-1 -2 -1 114.61 3.49 1
1 2 1 118.2 3.8 1
-2 -2 -1 19.91 3.14 1
2 2 1 17.83 2.23 1
-3 -2 -1 5.08 3.01 1
3 2 1 6.49 2.46 1
-4 -2 -1 72.89 3.94 1
4 2 1 70.35 3.65 1
-5 -2 -1 16.09 4 1
5 2 1 14.46 3.77 1
-6 -2 -1 5.96 4.8 1
6 2 1 7.14 4.95 1
-7 -2 -1 29.41 5.13 1
7 2 1 31 5.56 1
-8 -2 -1 10.57 5.15 1
8 2 1 6.34 5.41 1
-9 -2 -1 7.01 6.94 1
9 2 1 6.22 6.29 1
10 -3 -1 4.3 10.81 1
-10 3 1 0.35 7.88 1
9 -3 -1 1.01 10.53 1
-9 3 1 2.83 7.33 1
8 -3 -1 37.48 8.06 1
-8 3 1 46.11 7.74 1
7 -3 -1 10.19 5.24 1
-7 3 1 16.93 8.12 1
6 -3 -1 7.09 3.94 1
-6 3 1 17.24 6.31 1
5 -3 -1 122.88 5.14 1
-5 3 1 119.95 6.41 1
4 -3 -1 22.5 2.87 1
-4 3 1 27.88 3.63 1
3 -3 -1 2.66 2.22 1
-3 3 1 5.44 2.14 1
2 -3 -1 277.1 5.58 1
-2 3 1 272.47 6.01 1
1 -3 -1 168.89 4.93 1
-1 3 1 169.72 4.58 1
0 -3 -1 25.89 2.06 1
0 3 1 26.73 2.23 1
-1 -3 -1 77.42 2.94 1
1 3 1 74.68 3.16 1
-2 -3 -1 38.78 3.37 1
2 3 1 42.43 2.78 1
-3 -3 -1 4.21 2.79 1
3 3 1 1.86 2.41 1
-4 -3 -1 16.97 3.49 1
4 3 1 16.42 3.33 1
-5 -3 -1 41.01 4.62 1
5 3 1 48.74 4.76 1
-6 -3 -1 10.48 5.39 1
6 3 1 14.17 5.66 1
-7 -3 -1 11.15 5.05 1
7 3 1 17.15 5.99 1
-8 -3 -1 17.86 5.21 1
8 3 1 26.38 5.81 1
-9 -3 -1 9.35 7.01 1
9 3 1 17.71 6.34 1
10 -4 -1 5.85 11.02 1
-10 4 1 9.71 8.96 1
9 -4 -1 19.23 10.85 1
-9 4 1 2.88 7.73 1
8 -4 -1 40.33 7.63 1
-8 4 1 35.73 9.19 1
7 -4 -1 108.79 6.07 1
-7 4 1 97.46 9.55 1
6 -4 -1 5.11 4.63 1
-6 4 1 28.91 13.01 1
5 -4 -1 46.46 4.68 1
-5 4 1 54.97 7.08 1
4 -4 -1 92.8 5.06 1
-4 4 1 95.71 6.03 1
3 -4 -1 1.68 3.09 1
-3 4 1 6.8 3.51 1
2 -4 -1 38.65 2.78 1
-2 4 1 40.48 2.9 1
1 -4 -1 164.9 4.79 1
-1 4 1 163.98 4.23 1
0 -4 -1 18.18 2.15 1
0 4 1 14 2.21 1
-1 -4 -1 10.86 3.1 1
1 4 1 14.87 2.91 1
-2 -4 -1 144.93 4.94 1
2 4 1 152.3 5.29 1
-3 -4 -1 1.82 3.74 1
3 4 1 4.27 4.45 1
-4 -4 -1 10.16 4.8 1
4 4 1 1.38 4.67 1
-5 -4 -1 32.2 5.39 1
5 4 1 46.4 5.83 1
-6 -4 -1 5.45 4.45 1
6 4 1 6.75 4.28 1
-7 -4 -1 1.12 5.27 1
7 4 1 1.67 5.31 1
-8 -4 -1 22.4 5.57 1
8 4 1 17.26 7 1
10 -5 -1 30.2 9.56 1
-10 5 1 0 9.81 1
9 -5 -1 17.04 10.1 1
-9 5 1 6.48 9.14 1
8 -5 -1 6.05 7.17 1
-8 5 1 3.13 11.46 1
7 -5 -1 29.32 5.4 1
-7 5 1 51.86 12.02 1
6 -5 -1 4.13 6.3 1
-6 5 1 21.65 7.94 1
5 -5 -1 6.6 6.12 1
-5 5 1 13.68 5.89 1
4 -5 -1 102.38 6.44 1
-4 5 1 140.15 8.32 1
3 -5 -1 2.56 3.78 1
-3 5 1 14.26 4.44 1
2 -5 -1 18.88 3.51 1
-2 5 1 15.76 4.33 1
1 -5 -1 245.4 6.57 1
-1 5 1 247.2 8.47 1
0 -5 -1 2.07 2.39 1
0 5 1 3.89 2.87 1
-1 -5 -1 3.66 3.34 1
1 5 1 8.27 5.03 1
-2 -5 -1 171.01 8.25 1
2 5 1 179.38 8.83 1
-3 -5 -1 16.71 4.51 1
3 5 1 17.34 6.74 1
-4 -5 -1 1.26 5.03 1
4 5 1 4.9 5.27 1
-5 -5 -1 27.5 5.23 1
5 5 1 26.93 5.44 1
-6 -5 -1 1.39 4.3 1
6 5 1 5.44 4.05 1
-7 -5 -1 5.65 5.55 1
7 5 1 10.8 6 1
-8 -5 -1 9.33 5.43 1
8 5 1 11.55 6.49 1
10 -6 -1 72.43 13.9 1
-10 6 1 0.5 9.77 1
9 -6 -1 23.07 13.11 1
-9 6 1 16.51 15.82 1
8 -6 -1 15.21 8.55 1
-8 6 1 1.49 8.94 1
7 -6 -1 19.95 5.19 1
-7 6 1 20.46 6.71 1
6 -6 -1 6.3 6.57 1
-6 6 1 16.93 7.12 1
5 -6 -1 3.64 5.84 1
-5 6 1 16.06 7.46 1
4 -6 -1 72.88 9.18 1
-4 6 1 65.97 7.38 1
3 -6 -1 2.55 4.81 1
-3 6 1 4.98 5.77 1
2 -6 -1 11.3 4.45 1
-2 6 1 12.2 5.29 1
1 -6 -1 78.56 7.13 1
-1 6 1 57.6 5.83 1
0 -6 -1 16.23 4.91 1
0 6 1 7.47 4.79 1
-1 -6 -1 9.64 5.73 1
1 6 1 12.75 6.43 1
-2 -6 -1 26.5 6.75 1
2 6 1 21.6 6.48 1
-3 -6 -1 13.92 6.72 1
3 6 1 5.55 6.26 1
-4 -6 -1 0.51 3.23 1
4 6 1 4 4.9 1
-5 -6 -1 7.42 3.37 1
5 6 1 8.4 4.96 1
-6 -6 -1 11.67 5.31 1
6 6 1 11.7 5.76 1
-7 -6 -1 7.01 5.49 1
7 6 1 8.97 6.48 1
9 -7 -1 12.97 7.82 1
-9 7 1 13.84 7.84 1
8 -7 -1 9.71 4.68 1
-8 7 1 5.22 7.12 1
7 -7 -1 15.14 5.99 1
-7 7 1 6.97 6.79 1
6 -7 -1 5.88 7.19 1
-6 7 1 2.76 5.99 1
5 -7 -1 9.04 7.49 1
-5 7 1 11.38 7.17 1
4 -7 -1 32.73 7.57 1
-4 7 1 24.29 9.01 1
3 -7 -1 19.32 6.66 1
-3 7 1 12.81 8.47 1
2 -7 -1 4.5 6.52 1
-2 7 1 7.1 6.96 1
1 -7 -1 15.25 5.18 1
-1 7 1 5.06 4.79 1
0 -7 -1 36.23 6.29 1
0 7 1 25.94 8.03 1
-1 -7 -1 7.01 6.94 1
1 7 1 2.99 5.2 1
-2 -7 -1 0.66 5.91 1
2 7 1 1.55 6.82 1
-3 -7 -1 8.48 6.2 1
3 7 1 9.07 5.65 1
-4 -7 -1 4.74 6.33 1
4 7 1 1.01 5.17 1
-5 -7 -1 10.15 6.07 1
5 7 1 1.13 5.66 1
-6 -7 -1 9.79 7.11 1
6 7 1 8.35 5.55 1
8 -8 -1 16.06 9.23 1
-8 8 1 4.48 10.08 1
7 -8 -1 4.52 7.34 1
-7 8 1 0 8.77 1
6 -8 -1 6.37 9.29 1
-6 8 1 7.43 9.24 1
5 -8 -1 0 33.94 1
-5 8 1 5.62 9.27 1
4 -8 -1 1.39 8.6 1
-4 8 1 2 8.72 1
3 -8 -1 16.15 6.65 1
-3 8 1 33.19 9.4 1
2 -8 -1 5.23 4.07 1
-2 8 1 1.79 5.74 1
1 -8 -1 6.14 4.62 1
-1 8 1 5.06 5.19 1
0 -8 -1 13.83 5.57 1
0 8 1 13.37 6.84 1
-1 -8 -1 3.05 5.81 1
1 8 1 2.7 11.82 1
-2 -8 -1 3.09 5.66 1
2 8 1 4.61 5.34 1
-3 -8 -1 5.37 6.54 1
3 8 1 5.83 6.75 1
-4 -8 -1 3.26 6.19 1
4 8 1 0 6.98 1
-5 -8 -1 10.05 4.93 1
5 8 1 3.61 5.46 1
8 -9 -1 17.54 29.1 1
-8 9 1 4.93 10.83 1
7 -9 -1 17.46 28.44 1
-7 9 1 4.06 10.14 1
6 -9 -1 7.4 12.17 1
-6 9 1 0 9.71 1
5 -9 -1 13.73 13.81 1
-5 9 1 1.47 9.34 1
4 -9 -1 5.39 6.37 1
-4 9 1 11.17 8.91 1
3 -9 -1 16.22 3.89 1
-3 9 1 11.84 7.33 1
2 -9 -1 4.88 4.93 1
-2 9 1 2.51 5.17 1
1 -9 -1 1.33 4.36 1
-1 9 1 3.74 4.89 1
0 -9 -1 6.19 5.54 1
0 9 1 2.61 6.21 1
-1 -9 -1 8.76 6.31 1
1 9 1 0 28.17 1
-2 -9 -1 2.93 6.33 1
2 9 1 6.34 8.33 1
-3 -9 -1 6.76 5.46 1
3 9 1 0 5.76 1
-4 -9 -1 10.11 6.37 1
4 9 1 6.95 5.89 1
6 -10 -1 25.17 8.99 1
-6 10 1 5.83 8.76 1
5 -10 -1 20.6 8.18 1
-5 10 1 9.61 8.57 1
4 -10 -1 19.26 5.31 1
-4 10 1 6.78 7.65 1
3 -10 -1 5.26 5.66 1
-3 10 1 3.17 6.55 1
2 -10 -1 5.71 5.32 1
-2 10 1 5.93 5.84 1
1 -10 -1 1.75 4.95 1
-1 10 1 14.91 10.2 1
0 -10 -1 6.29 5.19 1
0 10 1 1.22 16.89 1
-1 -10 -1 15.09 5.61 1
1 10 1 5.57 8.33 1
-2 -10 -1 17.46 6.14 1
2 10 1 21.14 13.6 1
4 -11 -1 8.72 5.85 1
-4 11 1 4.06 9.28 1
3 -11 -1 37.05 14.25 1
-3 11 1 26.36 12.4 1
2 -11 -1 21.33 8.74 1
-2 11 1 18.74 6.47 1
1 -11 -1 9.86 8.38 1
-1 11 1 0 14.87 1
0 12 -2 2.89 36.39 1
0 -12 2 0 11.74 1
-1 12 -2 14.34 10.66 1
1 -12 2 15.4 10.96 1
-2 12 -2 22.82 10.04 1
2 -12 2 1.8 11.36 1
-3 12 -2 20.78 8.26 1
3 -12 2 3.86 11.3 1
-4 12 -2 10.56 9.77 1
4 -12 2 11.42 10.21 1
2 11 -2 8.16 7.43 1
-2 -11 2 5.91 10.68 1
1 11 -2 4.49 9.24 1
-1 -11 2 7.66 14.29 1
0 11 -2 6.25 30.47 1
0 -11 2 23.15 11.19 1
-1 11 -2 16.3 11.84 1
1 -11 2 15.36 9.1 1
-2 11 -2 4.73 6.35 1
2 -11 2 8.93 8.7 1
-3 11 -2 6.28 6.73 1
3 -11 2 19.06 8.41 1
-4 11 -2 4.65 8.13 1
4 -11 2 8.39 7.57 1
-5 11 -2 0.57 7.44 1
5 -11 2 8.26 7.27 1
-6 11 -2 0 8.51 1
6 -11 2 16.95 6.93 1
4 10 -2 1.71 6.58 1
-4 -10 2 6.61 10.53 1
3 10 -2 2.03 7.48 1
-3 -10 2 11.13 10.48 1
2 10 -2 12.05 7.88 1
-2 -10 2 3.63 9.26 1
1 10 -2 0 7.44 1
-1 -10 2 8.83 8.6 1
0 10 -2 14.06 4.92 1
0 -10 2 16.21 8.49 1
-1 10 -2 9.37 4.88 1
1 -10 2 8.09 7.46 1
-2 10 -2 0.62 6.79 1
2 -10 2 14.68 6.64 1
-3 10 -2 11.85 6.71 1
3 -10 2 17.1 4.72 1
-4 10 -2 5.23 6.75 1
4 -10 2 4.39 3.76 1
-5 10 -2 6.57 7.06 1
5 -10 2 8.84 4.72 1
-6 10 -2 4.01 7.86 1
6 -10 2 12.18 6.76 1
-7 10 -2 8.92 9.73 1
7 -10 2 8.46 6.98 1
5 9 -2 0 9.84 1
-5 -9 2 13.63 10.78 1
4 9 -2 2.17 6.17 1
-4 -9 2 11.52 6.49 1
3 9 -2 11.28 5.95 1
-3 -9 2 6.93 7.73 1
2 9 -2 15.85 5.61 1
-2 -9 2 3.01 4.39 1
1 9 -2 7.95 3.94 1
-1 -9 2 2.66 5.14 1
0 9 -2 3.4 3.39 1
0 -9 2 3.85 8.21 1
-1 9 -2 5.49 4.53 1
1 -9 2 4.62 6.65 1
-2 9 -2 6.31 6.1 1
2 -9 2 16.86 7.12 1
-3 9 -2 13.5 7.17 1
3 -9 2 13.44 5.9 1
-4 9 -2 24.58 6.93 1
4 -9 2 35.78 4.92 1
-5 9 -2 5.85 6.65 1
5 -9 2 8.46 4.8 1
-6 9 -2 3.94 6.03 1
6 -9 2 8.35 5.92 1
-7 9 -2 14.06 7.46 1
7 -9 2 22.85 9.22 1
-8 9 -2 2.14 8.68 1
8 -9 2 20.36 30.05 1
6 8 -2 10.49 6.23 1
-6 -8 2 0 7.58 1
5 8 -2 16.39 5.53 1
-5 -8 2 11.26 6.82 1
4 8 -2 5.69 4.29 1
-4 -8 2 6.99 4.58 1
3 8 -2 3.44 3.52 1
-3 -8 2 1.32 5.23 1
2 8 -2 23.82 3.5 1
-2 -8 2 17.3 4.31 1
1 8 -2 3.9 5.08 1
-1 -8 2 1.62 5.38 1
0 8 -2 1.39 4.35 1
0 -8 2 2.21 5.88 1
-1 8 -2 33.48 4.88 1
1 -8 2 37.45 6.69 1
-2 8 -2 10.82 4.76 1
2 -8 2 8.74 5.84 1
-3 8 -2 9.62 5.17 1
3 -8 2 1.61 4.02 1
-4 8 -2 62.38 9.29 1
4 -8 2 43.38 7.32 1
-5 8 -2 7.46 6.31 1
5 -8 2 6.73 6.55 1
-6 8 -2 1.27 6.89 1
6 -8 2 19.95 7.18 1
-7 8 -2 14.85 7.87 1
7 -8 2 29.57 15.88 1
-8 8 -2 14.75 16.62 1
8 -8 2 21.58 33.19 1
-9 8 -2 0 13.1 1
9 -8 2 21.37 15 1
7 7 -2 10.39 5.93 1
-7 -7 2 8.59 3.24 1
6 7 -2 6.57 5 1
-6 -7 2 6.6 5.86 1
5 7 -2 38.71 3.99 1
-5 -7 2 33.68 5.16 1
4 7 -2 2.13 3.75 1
-4 -7 2 0.76 3.86 1
3 7 -2 1.57 3.04 1
-3 -7 2 0.51 5.71 1
2 7 -2 41.94 3.66 1
-2 -7 2 38.46 4.14 1
1 7 -2 5.11 4.53 1
-1 -7 2 1.99 3.03 1
0 7 -2 17.38 4.23 1
0 -7 2 17.28 4.29 1
-1 7 -2 56.61 4.74 1
1 -7 2 62.84 4.58 1
-2 7 -2 7.32 4.33 1
2 -7 2 3.17 4.38 1
-3 7 -2 18.12 4.84 1
3 -7 2 16.05 4.31 1
-4 7 -2 44.64 6.38 1
4 -7 2 35.56 6.27 1
-5 7 -2 18.63 6.61 1
5 -7 2 21.22 7.65 1
-6 7 -2 11.03 6.46 1
6 -7 2 18.3 18.15 1
-7 7 -2 3.01 6.54 1
7 -7 2 5.76 10.7 1
-8 7 -2 12.47 7.49 1
8 -7 2 18.66 7.39 1
-9 7 -2 5.27 10.15 1
9 -7 2 24.87 6.23 1
8 6 -2 37.26 8.75 1
-8 -6 2 10.47 5.87 1
7 6 -2 8.37 5.77 1
-7 -6 2 2.14 4.97 1
6 6 -2 1.86 4.1 1
-6 -6 2 4.61 4.75 1
5 6 -2 58.57 5.02 1
-5 -6 2 51.82 3.32 1
4 6 -2 15.43 4.4 1
-4 -6 2 23.79 3.43 1
3 6 -2 3.88 3.29 1
-3 -6 2 1.76 4 1
2 6 -2 27.35 2.63 1
-2 -6 2 24.52 3.17 1
1 6 -2 34.79 2.68 1
-1 -6 2 33.42 2.78 1
0 6 -2 42.03 3.43 1
0 -6 2 44.24 3.64 1
-1 6 -2 39.84 3.88 1
1 -6 2 34.32 3.25 1
-2 6 -2 70.07 5.6 1
2 -6 2 79.65 3.97 1
-3 6 -2 13.5 4.24 1
3 -6 2 0.92 4.14 1
-4 6 -2 11.9 5.31 1
4 -6 2 2.33 4.72 1
-5 6 -2 106.5 7.59 1
5 -6 2 98.42 7.26 1
-6 6 -2 5.13 6.29 1
6 -6 2 1.92 6.25 1
-7 6 -2 3.56 6.16 1
7 -6 2 5.51 4.94 1
-8 6 -2 15.5 6.84 1
8 -6 2 20.17 6.24 1
-9 6 -2 0.55 7.52 1
9 -6 2 6.99 7.55 1
-10 6 -2 2.74 6.57 1
10 -6 2 3.93 9.6 1
9 5 -2 4.99 7.72 1
-9 -5 2 6.77 7.43 1
8 5 -2 4.47 7.08 1
-8 -5 2 2.01 7.43 1
7 5 -2 10.62 4.55 1
-7 -5 2 3.16 5.27 1
6 5 -2 7.58 4.47 1
-6 -5 2 1.3 4.61 1
5 5 -2 4.06 3.94 1
-5 -5 2 13.39 4.23 1
4 5 -2 99.33 4.87 1
-4 -5 2 98.25 4.61 1
3 5 -2 2.6 2.75 1
-3 -5 2 2.49 2.58 1
2 5 -2 2.75 2.24 1
-2 -5 2 5.09 2.59 1
1 5 -2 187.83 4.17 1
-1 -5 2 187.25 5.22 1
0 5 -2 3.86 2.3 1
0 -5 2 1.27 2.8 1
-1 5 -2 4.44 2.88 1
1 -5 2 0 2.9 1
-2 5 -2 108.08 3.81 1
2 -5 2 113.28 3.89 1
-3 5 -2 27.61 2.99 1
3 -5 2 25.44 3.38 1
-4 5 -2 3.61 3.4 1
4 -5 2 1.27 3.1 1
-5 5 -2 180.82 7.16 1
5 -5 2 174.52 6.48 1
-6 5 -2 30.05 6.47 1
6 -5 2 20.26 4.86 1
-7 5 -2 15.27 6.7 1
7 -5 2 9.17 5.25 1
-8 5 -2 11.14 6.6 1
8 -5 2 7.02 6.99 1
-9 5 -2 15.18 9.92 1
9 -5 2 0 7.91 1
-10 5 -2 0 9.69 1
10 -5 2 7.34 10.3 1
9 4 -2 7.08 7.51 1
-9 -4 2 11.68 10.02 1
8 4 -2 6.4 5.85 1
-8 -4 2 0.4 5.83 1
7 4 -2 34.87 5.7 1
-7 -4 2 47.61 5.68 1
6 4 -2 6.32 4.43 1
-6 -4 2 2.69 5.13 1
5 4 -2 7.34 3.67 1
-5 -4 2 7.2 4.07 1
4 4 -2 181.83 5.88 1
-4 -4 2 171.98 5.93 1
3 4 -2 7.02 3.07 1
-3 -4 2 4.24 2.59 1
2 4 -2 125.6 4.36 1
-2 -4 2 115.92 4.05 1
1 4 -2 4.87 1.41 1
-1 -4 2 11.13 1.67 1
0 4 -2 82.48 2.89 1
0 -4 2 81.14 3.07 1
-1 4 -2 3.84 1.62 1
1 -4 2 4.34 1.75 1
-2 4 -2 7.88 1.92 1
2 -4 2 8.39 2.22 1
-3 4 -2 22.2 2.4 1
3 -4 2 14.17 2.24 1
-4 4 -2 35.11 3.47 1
4 -4 2 36.58 3.06 1
-5 4 -2 155.17 6.48 1
5 -4 2 149.64 6.18 1
-6 4 -2 115.64 7.8 1
6 -4 2 124.26 7.81 1
-7 4 -2 14.7 9.82 1
7 -4 2 16.75 6.79 1
-8 4 -2 22.73 10.33 1
8 -4 2 15.44 6.51 1
-9 4 -2 59.72 9.16 1
9 -4 2 47.48 8.4 1
-10 4 -2 1.62 7.75 1
10 -4 2 7.82 9.56 1
9 3 -2 1.29 6.3 1
-9 -3 2 6.12 6.54 1
8 3 -2 3.6 5.52 1
-8 -3 2 6.25 5.46 1
7 3 -2 36.9 6.21 1
-7 -3 2 33.48 5.77 1
6 3 -2 44.05 9.09 1
-6 -3 2 48.87 5.32 1
5 3 -2 26.5 5.69 1
-5 -3 2 34.86 5.99 1
4 3 -2 145.28 5.94 1
-4 -3 2 138.68 5.66 1
3 3 -2 191.09 5.06 1
-3 -3 2 175.06 4.87 1
2 3 -2 39.97 2.1 1
-2 -3 2 40.08 2.06 1
1 3 -2 69.85 2.16 1
-1 -3 2 64.71 2.76 1
0 3 -2 324.79 5.22 1
0 -3 2 322.27 6.51 1
-1 3 -2 45.57 2.17 1
1 -3 2 42.7 2.34 1
-2 3 -2 20.63 1.75 1
2 -3 2 18.27 1.95 1
-3 3 -2 149.64 3.59 1
3 -3 2 151.04 3.77 1
-4 3 -2 14.56 2.49 1
4 -3 2 12.64 2.78 1
-5 3 -2 46.62 5.1 1
5 -3 2 45.84 4.95 1
-6 3 -2 149.86 11.99 1
6 -3 2 168.79 8.18 1
-7 3 -2 11.32 9.81 1
7 -3 2 16.82 6.84 1
-8 3 -2 5.78 6.21 1
8 -3 2 4.71 6.25 1
-9 3 -2 52.78 8.67 1
9 -3 2 52.64 7.84 1
-10 3 -2 7.21 7.75 1
10 -3 2 0 11.43 1
10 2 -2 7.43 6.64 1
-10 -2 2 0.19 8.55 1
9 2 -2 29.24 6.18 1
-9 -2 2 27.33 7.98 1
8 2 -2 7.01 5.21 1
-8 -2 2 7.26 5.7 1
7 2 -2 15.16 7.19 1
-7 -2 2 14.62 5.91 1
6 2 -2 120 7.17 1
-6 -2 2 135.92 7.01 1
5 2 -2 6.35 3.81 1
-5 -2 2 8.72 3.57 1
4 2 -2 31.55 2.41 1
-4 -2 2 28.66 2.89 1
3 2 -2 292.19 5.21 1
-3 -2 2 296.97 5.41 1
2 2 -2 3.36 1.43 1
-2 -2 2 5.79 1.74 1
1 2 -2 13.64 1.73 1
-1 -2 2 14.1 2.01 1
0 2 -2 922.64 13.71 1
0 -2 2 927.49 16.52 1
-1 2 -2 105.55 3.05 1
1 -2 2 106.46 3.17 1
-2 2 -2 2.77 1.52 1
2 -2 2 6.26 1.74 1
-3 2 -2 212.3 4.11 1
3 -2 2 213.81 4.47 1
-4 2 -2 9.55 2.18 1
4 -2 2 8.18 2.86 1
-5 2 -2 23.57 2.58 1
5 -2 2 27.11 3.77 1
-6 2 -2 197.17 6.96 1
6 -2 2 195.21 8.46 1
-7 2 -2 18.58 4.85 1
7 -2 2 21.24 5.88 1
-8 2 -2 12.58 6.53 1
8 -2 2 9.67 8.38 1
-9 2 -2 27.09 8.15 1
9 -2 2 25.53 9.48 1
-10 2 -2 10.94 8.11 1
10 -2 2 5.43 17.99 1
10 1 -2 10.36 10.51 1
-10 -1 2 29.6 20.55 1
9 1 -2 92.42 17.99 1
-9 -1 2 55.08 8.55 1
8 1 -2 6.81 7.63 1
-8 -1 2 1.55 5.49 1
7 1 -2 2.04 7.16 1
-7 -1 2 6.03 5.68 1
6 1 -2 149.97 6.76 1
-6 -1 2 148.12 6.67 1
5 1 -2 33.2 3.32 1
-5 -1 2 38.6 3.74 1
4 1 -2 8.8 2.02 1
-4 -1 2 6.76 2.12 1
3 1 -2 424.2 7.23 1
-3 -1 2 424.16 7.59 1
2 1 -2 42.14 2.4 1
-2 -1 2 37.89 2.52 1
1 1 -2 14.83 1.31 1
-1 -1 2 13.66 1.22 1
0 1 -2 347.51 5.78 1
0 -1 2 350.82 5.76 1
-1 1 -2 33.18 1.76 1
1 -1 2 29.39 2.57 1
-2 1 -2 45.88 2.48 1
2 -1 2 48.22 2.29 1
-3 1 -2 222.87 4.53 1
3 -1 2 217.84 4.66 1
-4 1 -2 178.35 4.74 1
4 -1 2 182.02 5.17 1
-5 1 -2 44.25 3.5 1
5 -1 2 44.16 4.37 1
-6 1 -2 87.95 6.03 1
6 -1 2 90.07 7.86 1
-7 1 -2 61.21 7.58 1
7 -1 2 51.25 7.86 1
-8 1 -2 4.74 4.9 1
8 -1 2 0 7.16 1
-9 1 -2 9.09 5.8 1
9 -1 2 2.08 6.01 1
-10 1 -2 28.77 9.33 1
10 -1 2 6.05 7.22 1
10 0 -2 12.88 14.57 1
-10 0 2 7.35 7.02 1
9 0 -2 21.97 7.6 1
-9 0 2 40.38 6.36 1
8 0 -2 2.89 6 1
-8 0 2 1.09 5.25 1
7 0 -2 21.71 5.61 1
-7 0 2 18.25 5.83 1
6 0 -2 112.78 7.88 1
-6 0 2 112.57 8.85 1
5 0 -2 37.05 5.64 1
-5 0 2 30.58 4.49 1
4 0 -2 264.18 7.39 1
-4 0 2 260.57 6.15 1
3 0 -2 78.23 3.47 1
-3 0 2 82.68 3.84 1
2 0 -2 128.97 3.54 1
-2 0 2 113 3.65 1
1 0 -2 79.93 2.72 1
-1 0 2 82.04 2.54 1
0 0 -2 146.22 3.11 1
0 0 2 148.59 3.58 1
-1 0 -2 985.16 15.34 1
1 0 2 1000 16.24 1
-2 0 -2 19.3 2.01 1
2 0 2 18.79 1.78 1
-3 0 -2 126.71 3.97 1
3 0 2 128.86 3.67 1
-4 0 -2 197.71 6.59 1
4 0 2 217.53 9.05 1
-5 0 -2 3.24 3.8 1
5 0 2 6.21 8.68 1
-6 0 -2 7.11 4.85 1
6 0 2 8.97 6.26 1
-7 0 -2 48.88 5.71 1
7 0 2 37.96 6.32 1
-8 0 -2 4.36 4.77 1
8 0 2 6.68 5.25 1
-9 0 -2 4.94 5.85 1
9 0 2 5.71 7.02 1
10 -1 -2 0.45 7.57 1
-10 1 2 4.86 8.82 1
9 -1 -2 16.6 7.15 1
-9 1 2 5.53 5.28 1
8 -1 -2 28.64 8.22 1
-8 1 2 37.69 8.76 1
7 -1 -2 21.78 10.26 1
-7 1 2 15.37 7.16 1
6 -1 -2 100.9 9.16 1
-6 1 2 91.1 7.28 1
5 -1 -2 171.84 8.73 1
-5 1 2 168.86 8.52 1
4 -1 -2 112.94 3.87 1
-4 1 2 111.11 3.63 1
3 -1 -2 5.6 2.1 1
-3 1 2 3.75 2.03 1
2 -1 -2 340.91 6.44 1
-2 1 2 320.35 6.81 1
1 -1 -2 49.94 2.79 1
-1 1 2 46.92 2.72 1
0 -1 -2 548.73 10.36 1
0 1 2 544.18 8.81 1
-1 -1 -2 70.4 3.18 1
1 1 2 72.12 2.94 1
-2 -1 -2 12.25 2.74 1
2 1 2 11.5 2.62 1
-3 -1 -2 11.27 4.71 1
3 1 2 12.68 4.55 1
-4 -1 -2 137.53 5.09 1
4 1 2 137.77 5.54 1
-5 -1 -2 38.65 4.78 1
5 1 2 50.56 4.48 1
-6 -1 -2 0.65 4.91 1
6 1 2 3.42 4.68 1
-7 -1 -2 37.24 5.24 1
7 1 2 37.97 5.26 1
-8 -1 -2 18.74 5.24 1
8 1 2 20.8 5.63 1
-9 -1 -2 10.39 5.69 1
9 1 2 17.57 6.64 1
10 -2 -2 5.22 10.9 1
-10 2 2 0 10.29 1
9 -2 -2 3.97 8.16 1
-9 2 2 4.63 9.43 1
8 -2 -2 49.97 8.11 1
-8 2 2 48.75 8.19 1
7 -2 -2 28.84 7.64 1
-7 2 2 27.75 8.64 1
6 -2 -2 11.13 4.78 1
-6 2 2 16.61 6.35 1
5 -2 -2 180.95 7.29 1
-5 2 2 172.56 7.32 1
4 -2 -2 5.19 3.37 1
-4 2 2 8.13 3.7 1
3 -2 -2 91.63 3.37 1
-3 2 2 96.78 3.39 1
2 -2 -2 119.47 3.76 1
-2 2 2 122.89 4.39 1
1 -2 -2 150.05 4.35 1
-1 2 2 150.11 4.36 1
0 -2 -2 16.09 3.41 1
0 2 2 11.21 3.22 1
-1 -2 -2 17.09 3.73 1
1 2 2 21.77 2.82 1
-2 -2 -2 62.96 3.05 1
2 2 2 70.98 3.08 1
-3 -2 -2 0 2.89 1
3 2 2 1.11 2.47 1
-4 -2 -2 21.3 3.31 1
4 2 2 31.71 3.44 1
-5 -2 -2 48.4 5.27 1
5 2 2 57.09 4.58 1
-6 -2 -2 16.01 5.04 1
6 2 2 12.07 5.4 1
-7 -2 -2 10.64 5.07 1
7 2 2 12.01 4.99 1
-8 -2 -2 19.63 10.46 1
8 2 2 16.94 6.83 1
-9 -2 -2 10.08 10.13 1
9 2 2 32.2 8.09 1
10 -3 -2 10.89 9.18 1
-10 3 2 23.69 11.48 1
9 -3 -2 8.93 8.99 1
-9 3 2 15.98 8.57 1
8 -3 -2 51.75 5.8 1
-8 3 2 30.69 7.53 1
7 -3 -2 69.09 6.41 1
-7 3 2 67.03 8.71 1
6 -3 -2 20.21 5.47 1
-6 3 2 24.2 6.11 1
5 -3 -2 39.33 4.77 1
-5 3 2 43.07 5.33 1
4 -3 -2 144.75 7 1
-4 3 2 150.44 7.33 1
3 -3 -2 12.61 3.72 1
-3 3 2 18.72 4.44 1
2 -3 -2 10.27 3.1 1
-2 3 2 8.57 3.47 1
1 -3 -2 256.23 7.45 1
-1 3 2 261.41 6.36 1
0 -3 -2 17.32 2.62 1
0 3 2 15.86 3 1
-1 -3 -2 1.4 1.82 1
1 3 2 2.95 2.36 1
-2 -3 -2 101.62 3.99 1
2 3 2 87.98 3.89 1
-3 -3 -2 1.83 2.85 1
3 3 2 2.18 3.72 1
-4 -3 -2 10.03 4.1 1
4 3 2 4.5 3.51 1
-5 -3 -2 52.03 5.66 1
5 3 2 64.43 5.37 1
-6 -3 -2 1.88 4.39 1
6 3 2 6.77 4.82 1
-7 -3 -2 3.8 5.17 1
7 3 2 3.88 6.64 1
-8 -3 -2 10.02 5.67 1
8 3 2 25.94 7.63 1
10 -4 -2 16.82 9.06 1
-10 4 2 5.45 8.75 1
9 -4 -2 4.34 4.86 1
-9 4 2 2.16 10.72 1
8 -4 -2 15.67 5.04 1
-8 4 2 1.28 9.91 1
7 -4 -2 127.19 8.22 1
-7 4 2 124.97 11.42 1
6 -4 -2 7.53 6.34 1
-6 4 2 14.7 7.69 1
5 -4 -2 8.37 5.5 1
-5 4 2 14.9 7.41 1
4 -4 -2 204.55 10.74 1
-4 4 2 222.02 12.85 1
3 -4 -2 1.41 4.48 1
-3 4 2 8.71 5.94 1
2 -4 -2 6.67 4.46 1
-2 4 2 6.73 4.04 1
1 -4 -2 132.32 5.4 1
-1 4 2 119.81 4.24 1
0 -4 -2 3.2 2.65 1
0 4 2 5.96 4.27 1
-1 -4 -2 8.1 3.68 1
1 4 2 2.26 4.29 1
-2 -4 -2 119.23 5.78 1
2 4 2 139.2 6.1 1
-3 -4 -2 3.8 4.63 1
3 4 2 7.28 5.04 1
-4 -4 -2 5.24 4.24 1
4 4 2 1.78 4.79 1
-5 -4 -2 32.05 4.57 1
5 4 2 35.71 5.31 1
-6 -4 -2 9.09 5.36 1
6 4 2 6.63 4.68 1
-7 -4 -2 7.54 5.3 1
7 4 2 0.88 5.49 1
-8 -4 -2 12.74 5.71 1
8 4 2 4.44 6.3 1
10 -5 -2 20.77 11.37 1
-10 5 2 0.36 18.26 1
9 -5 -2 16.71 11.66 1
-9 5 2 10.96 19.54 1
8 -5 -2 14.19 7.8 1
-8 5 2 7.09 11.71 1
7 -5 -2 10.41 6.37 1
-7 5 2 12.44 8.24 1
6 -5 -2 4.08 9.55 1
-6 5 2 19.28 9.91 1
5 -5 -2 17.44 8.06 1
-5 5 2 25.38 8.98 1
4 -5 -2 105.42 7.47 1
-4 5 2 103.83 8 1
3 -5 -2 7.9 4.95 1
-3 5 2 10.27 5.48 1
2 -5 -2 3.21 4.29 1
-2 5 2 8.52 5.33 1
1 -5 -2 66.19 4.13 1
-1 5 2 48.51 4.87 1
0 -5 -2 20.55 3.24 1
0 5 2 11.21 7.14 1
-1 -5 -2 7.13 4.88 1
1 5 2 4.2 5.58 1
-2 -5 -2 37.77 5.61 1
2 5 2 40.07 5.31 1
-3 -5 -2 22.19 4.73 1
3 5 2 26.76 6.26 1
-4 -5 -2 0 6.69 1
4 5 2 4.72 5.03 1
-5 -5 -2 15.52 4.51 1
5 5 2 9.32 5.53 1
-6 -5 -2 23.55 5.22 1
6 5 2 12.1 5.42 1
-7 -5 -2 6.5 5.26 1
7 5 2 3.97 6.11 1
9 -6 -2 11.43 8.06 1
-9 6 2 18.26 11.11 1
8 -6 -2 3.48 6.25 1
-8 6 2 0 9.06 1
7 -6 -2 15.34 5.99 1
-7 6 2 7.32 8.94 1
6 -6 -2 7.14 6.21 1
-6 6 2 20.76 7.88 1
5 -6 -2 5.19 7.13 1
-5 6 2 13.48 7.83 1
4 -6 -2 32.64 8.29 1
-4 6 2 33.08 7.81 1
3 -6 -2 27.3 7.06 1
-3 6 2 15.57 7.1 1
2 -6 -2 13.88 4.88 1
-2 6 2 14.85 5.45 1
1 -6 -2 3.41 4.13 1
-1 6 2 2.91 5.32 1
0 -6 -2 44.76 4.77 1
0 6 2 35.52 7.19 1
-1 -6 -2 2.77 5.24 1
1 6 2 6.55 6.48 1
-2 -6 -2 3.42 5.63 1
2 6 2 3.73 5.36 1
-3 -6 -2 13.78 5.44 1
3 6 2 12.91 5.98 1
-4 -6 -2 0.54 3.69 1
4 6 2 2.11 5.04 1
-5 -6 -2 4.61 5.45 1
5 6 2 6.14 5.83 1
-6 -6 -2 16.39 5.47 1
6 6 2 13.24 7.2 1
9 -7 -2 20.9 7.66 1
-9 7 2 5.65 10.76 1
8 -7 -2 3.14 7.02 1
-8 7 2 3.56 11.11 1
7 -7 -2 6.75 6.31 1
-7 7 2 2.13 7.28 1
6 -7 -2 7.56 7.3 1
-6 7 2 10.09 7.25 1
5 -7 -2 2.64 8.67 1
-5 7 2 0.68 6.44 1
4 -7 -2 0 11.42 1
-4 7 2 7.22 7.85 1
3 -7 -2 55.27 9.71 1
-3 7 2 33.09 6.84 1
2 -7 -2 2.3 4.88 1
-2 7 2 12.81 6.79 1
1 -7 -2 5.41 4.67 1
-1 7 2 9.99 5.24 1
0 -7 -2 39.04 6.27 1
0 7 2 15.01 8.32 1
-1 -7 -2 6.9 5.23 1
1 7 2 1.21 6.27 1
-2 -7 -2 4.3 4.93 1
2 7 2 4.18 6.73 1
-3 -7 -2 5.6 6.32 1
3 7 2 3.96 7.26 1
-4 -7 -2 0.96 7.93 1
4 7 2 7.74 7.63 1
-5 -7 -2 9.27 6.1 1
5 7 2 3.86 6.75 1
8 -8 -2 14.25 9.64 1
-8 8 2 4.45 10.65 1
7 -8 -2 31.78 13.77 1
-7 8 2 0 14.39 1
6 -8 -2 4.99 10.25 1
-6 8 2 2.1 8.96 1
5 -8 -2 7.59 8.52 1
-5 8 2 6.96 8.32 1
4 -8 -2 0 9.18 1
-4 8 2 5.52 7.09 1
3 -8 -2 16.26 8.49 1
-3 8 2 16.3 6.07 1
2 -8 -2 14.73 4.5 1
-2 8 2 6.42 5.66 1
1 -8 -2 7.87 3.85 1
-1 8 2 4.18 5.99 1
0 -8 -2 15.02 4.6 1
0 8 2 5.64 8.44 1
-1 -8 -2 3.45 6.18 1
1 8 2 1.54 8.37 1
-2 -8 -2 4.22 6.6 1
2 8 2 0 8.78 1
-3 -8 -2 9.25 6.83 1
3 8 2 0 8.36 1
-4 -8 -2 4.86 6.61 1
4 8 2 6.48 6.05 1
7 -9 -2 18.64 14.25 1
-7 9 2 13.13 11.07 1
6 -9 -2 32.16 11.66 1
-6 9 2 2.35 10.15 1
5 -9 -2 15.49 9.3 1
-5 9 2 6.58 8.27 1
4 -9 -2 7.29 6.38 1
-4 9 2 3.95 8.73 1
3 -9 -2 17.44 5.53 1
-3 9 2 4.6 6.28 1
2 -9 -2 16.98 4.75 1
-2 9 2 11.05 7 1
1 -9 -2 0 6.16 1
-1 9 2 3.14 9.75 1
0 -9 -2 5.35 6.45 1
0 9 2 0 8.56 1
-1 -9 -2 9.22 6.45 1
1 9 2 4.71 10.34 1
-2 -9 -2 3.8 5.98 1
2 9 2 0.28 8.38 1
-3 -9 -2 9.26 6.49 1
3 9 2 12.57 7.77 1
5 -10 -2 15.66 8.44 1
-5 10 2 19.49 8.68 1
4 -10 -2 12.97 6.87 1
-4 10 2 3.1 7.46 1
3 -10 -2 3.25 6.48 1
-3 10 2 7.79 7.06 1
2 -10 -2 3.26 5.95 1
-2 10 2 11.43 7.44 1
1 -10 -2 8.49 6.16 1
-1 10 2 13.29 8.84 1
0 -10 -2 1.96 5.62 1
0 10 2 9.57 14.45 1
-1 -10 -2 13.36 6.1 1
1 10 2 7.97 9.82 1
1 12 -3 7.29 8.3 1
-1 -12 3 0 11.81 1
0 12 -3 3.54 10.39 1
0 -12 3 2.57 11.75 1
-1 12 -3 19.73 12.37 1
1 -12 3 18.62 10.89 1
-2 12 -3 14.93 7.01 1
2 -12 3 23.28 9.86 1
-3 12 -3 4.52 7.54 1
3 -12 3 14.35 8.68 1
-4 12 -3 0 7.65 1
4 -12 3 21.18 8.32 1
3 11 -3 6.69 6.97 1
-3 -11 3 23.13 12.56 1
2 11 -3 7.25 7.27 1
-2 -11 3 2.36 10.55 1
1 11 -3 3.65 8.65 1
-1 -11 3 2.13 11.09 1
0 11 -3 13.01 5.64 1
0 -11 3 7.46 9.96 1
-1 11 -3 4.43 5 1
1 -11 3 9.78 10.39 1
-2 11 -3 4.67 6.21 1
2 -11 3 5.63 7.4 1
-3 11 -3 8.7 6.24 1
3 -11 3 13.72 8.78 1
-4 11 -3 8.16 6.77 1
4 -11 3 23.84 7.9 1
-5 11 -3 2.38 7.64 1
5 -11 3 14.77 7.73 1
-6 11 -3 17.58 17.94 1
6 -11 3 19.03 9.45 1
5 10 -3 8.5 6.92 1
-5 -10 3 0 10.42 1
4 10 -3 5.15 8.45 1
-4 -10 3 12.32 6.63 1
3 10 -3 12.06 6.91 1
-3 -10 3 4.3 10.73 1
2 10 -3 2.73 3.72 1
-2 -10 3 7.32 5.56 1
1 10 -3 2.11 3.98 1
-1 -10 3 2.51 4.83 1
0 10 -3 4.16 4.54 1
0 -10 3 9.78 8.26 1
-1 10 -3 26.69 5.57 1
1 -10 3 30.84 7.24 1
-2 10 -3 0.62 5.89 1
2 -10 3 0.56 6.94 1
-3 10 -3 8.36 5.24 1
3 -10 3 14.28 8.02 1
-4 10 -3 19.79 7.42 1
4 -10 3 18.92 3.73 1
-5 10 -3 11.73 9.7 1
5 -10 3 17.12 6.71 1
-6 10 -3 2.34 7.81 1
6 -10 3 17.52 6.59 1
-7 10 -3 5.84 7.54 1
7 -10 3 23.43 8.64 1
6 9 -3 9.35 8.79 1
5 9 -3 22.52 6.22 1
-5 -9 3 14.27 12.84 1
4 9 -3 5.47 3.59 1
-4 -9 3 1.94 10.91 1
3 9 -3 7 3.61 1
-3 -9 3 9.16 8.18 1
2 9 -3 23.33 4.12 1
-2 -9 3 27.79 5.41 1
1 9 -3 3.86 4.09 1
-1 -9 3 2.25 6.66 1
0 9 -3 3.1 4.15 1
0 -9 3 5.15 5.15 1
-1 9 -3 12.81 4.76 1
1 -9 3 10.6 7.59 1
-2 9 -3 13.93 5.88 1
2 -9 3 8.79 6.01 1
-3 9 -3 4.34 5.47 1
3 -9 3 2.2 5.96 1
-4 9 -3 38.64 7.08 1
4 -9 3 43.84 4.78 1
-5 9 -3 5.01 5.64 1
5 -9 3 7.6 4.8 1
-6 9 -3 1.95 6.35 1
6 -9 3 4.1 7.9 1
-7 9 -3 24.36 7.29 1
7 -9 3 31.53 8.65 1
-8 9 -3 3.73 8.41 1
8 -9 3 26.29 10.3 1
7 8 -3 8.45 6.39 1
-7 -8 3 10.15 11.18 1
6 8 -3 9.53 5.89 1
-6 -8 3 2.49 7.47 1
5 8 -3 20.14 4.83 1
-5 -8 3 6.22 7.3 1
4 8 -3 3.84 3.89 1
-4 -8 3 6.65 8.84 1
3 8 -3 2.94 3.49 1
-3 -8 3 2.76 5.68 1
2 8 -3 23.16 3.95 1
-2 -8 3 38.06 5.69 1
1 8 -3 6.44 3.37 1
-1 -8 3 11.19 4.58 1
0 8 -3 2.49 5.37 1
0 -8 3 2.39 5.16 1
-1 8 -3 74.39 6.39 1
1 -8 3 66.46 8.37 1
-2 8 -3 7.94 4.6 1
2 -8 3 5.72 6.3 1
-3 8 -3 27.35 7.15 1
3 -8 3 15.03 4.12 1
-4 8 -3 21.45 6.23 1
4 -8 3 11.66 7 1
-5 8 -3 13.26 6.53 1
5 -8 3 14.05 6.19 1
-6 8 -3 8.99 6.82 1
6 -8 3 10.74 8.7 1
-7 8 -3 5.44 7.11 1
7 -8 3 28.5 9.59 1
-8 8 -3 0 10.11 1
8 -8 3 22.76 9.41 1
-9 8 -3 0 10.17 1
9 -8 3 4.99 13.08 1
7 7 -3 7.77 5.52 1
-7 -7 3 9 4.51 1
6 7 -3 11.48 5.03 1
-6 -7 3 0.63 3.03 1
5 7 -3 16.68 4.18 1
-5 -7 3 16.67 6.28 1
4 7 -3 21.18 4.94 1
-4 -7 3 22.13 6.77 1
3 7 -3 6.87 3.53 1
-3 -7 3 2.15 6.06 1
2 7 -3 30.16 3.14 1
-2 -7 3 25.96 5.08 1
1 7 -3 20.01 2.52 1
-1 -7 3 28.45 4 1
0 7 -3 13.4 3.95 1
0 -7 3 16.69 4.21 1
-1 7 -3 63.15 4.57 1
1 -7 3 51.32 4.37 1
-2 7 -3 50.13 4.17 1
2 -7 3 54.86 5.53 1
-3 7 -3 21.19 4.61 1
3 -7 3 18.88 4.62 1
-4 7 -3 4.21 5.09 1
4 -7 3 0.18 4.95 1
-5 7 -3 90.03 7.23 1
5 -7 3 79.69 6.72 1
-6 7 -3 2.47 5.11 1
6 -7 3 3.8 7.33 1
-7 7 -3 4.62 5.62 1
7 -7 3 4.04 6.1 1
-8 7 -3 12.95 7.39 1
8 -7 3 24.94 9.9 1
-9 7 -3 0.47 6.67 1
9 -7 3 11.4 7.12 1
8 6 -3 4.3 6.82 1
-8 -6 3 7.14 7.07 1
7 6 -3 14.77 4.52 1
-7 -6 3 2.94 6.78 1
6 6 -3 6.3 4.31 1
-6 -6 3 6.96 5.06 1
5 6 -3 6.77 4.31 1
-5 -6 3 11.32 4.53 1
4 6 -3 77.35 4.64 1
-4 -6 3 75.16 4.98 1
3 6 -3 3.05 3.21 1
-3 -6 3 6.1 4.79 1
2 6 -3 8.19 2.95 1
-2 -6 3 5.63 4.2 1
1 6 -3 78.91 2.63 1
-1 -6 3 77.07 4.24 1
0 6 -3 7.68 2.78 1
0 -6 3 4.38 3.19 1
-1 6 -3 7.52 3.38 1
1 -6 3 9.95 3.8 1
-2 6 -3 124.25 4.16 1
2 -6 3 130.38 4.56 1
-3 6 -3 1.98 3.75 1
3 -6 3 1.77 4.27 1
-4 6 -3 22.05 4.09 1
4 -6 3 23.39 4.5 1
-5 6 -3 130.6 7.13 1
5 -6 3 125.94 8.14 1
-6 6 -3 23.92 5.36 1
6 -6 3 10.97 6.09 1
-7 6 -3 2.08 5.68 1
7 -6 3 3.08 5.26 1
-8 6 -3 9.85 6.21 1
8 -6 3 18.3 7.85 1
-9 6 -3 2.58 6.63 1
9 -6 3 18.13 11.06 1
9 5 -3 2.32 5.82 1
-9 -5 3 3.97 8.72 1
8 5 -3 4.73 5.66 1
-8 -5 3 12.77 7.69 1
7 5 -3 7.28 5.2 1
-7 -5 3 11.18 7.46 1
6 5 -3 2.96 4.29 1
-6 -5 3 4.43 5.44 1
5 5 -3 13.19 4.45 1
-5 -5 3 13.15 4.47 1
4 5 -3 119.03 5.98 1
-4 -5 3 113.03 5.5 1
3 5 -3 22.12 3.16 1
-3 -5 3 21.2 3.27 1
2 5 -3 5.91 2.65 1
-2 -5 3 3.24 3.08 1
1 5 -3 90.04 2.91 1
-1 -5 3 92.28 3.93 1
0 5 -3 93.22 2.57 1
0 -5 3 93.87 4.06 1
-1 5 -3 10.61 1.86 1
1 -5 3 10.64 2.81 1
-2 5 -3 68.02 2.73 1
2 -5 3 64.67 3.06 1
-3 5 -3 99.43 3.79 1
3 -5 3 100.91 5.1 1
-4 5 -3 13.32 3.38 1
4 -5 3 13.67 3.09 1
-5 5 -3 104.68 5.72 1
5 -5 3 87.12 5.05 1
-6 5 -3 89.02 6.84 1
6 -5 3 74.95 7.42 1
-7 5 -3 5.32 7.06 1
7 -5 3 4.49 7.54 1
-8 5 -3 4.07 7.34 1
8 -5 3 10.17 11.79 1
-9 5 -3 24.36 10.06 1
9 -5 3 13.97 7.12 1
-10 5 -3 4.62 6.52 1
10 -5 3 4 11.45 1
9 4 -3 10.11 9.25 1
-9 -4 3 10.46 7.57 1
8 4 -3 3.62 5.41 1
-8 -4 3 2.09 7.57 1
7 4 -3 42.82 5.88 1
-7 -4 3 44.24 5.27 1
6 4 -3 33.8 5.81 1
-6 -4 3 45.03 5.93 1
5 4 -3 24.48 4.21 1
-5 -4 3 25.8 4.39 1
4 4 -3 62.69 4.93 1
-4 -4 3 63.85 4.59 1
3 4 -3 81.1 4.47 1
-3 -4 3 93.88 4.56 1
2 4 -3 104.62 3.69 1
-2 -4 3 108.08 3.93 1
1 4 -3 35.1 1.61 1
-1 -4 3 30.12 2.97 1
0 4 -3 223.2 4.09 1
0 -4 3 220.79 5.45 1
-1 4 -3 68.6 2.43 1
1 -4 3 64.08 2.74 1
-2 4 -3 5.13 1.76 1
2 -4 3 2.68 2.18 1
-3 4 -3 67.73 2.49 1
3 -4 3 77.97 3.23 1
-4 4 -3 28.52 3.17 1
4 -4 3 26.92 3.98 1
-5 4 -3 6.12 4.58 1
5 -4 3 17.61 5.25 1
-6 4 -3 141.01 8.38 1
6 -4 3 140.62 8.47 1
-7 4 -3 8.31 7.76 1
7 -4 3 3.19 6.42 1
-8 4 -3 7.25 5.92 1
8 -4 3 3.63 6.19 1
-9 4 -3 58.99 8.64 1
9 -4 3 53.97 7.73 1
-10 4 -3 5.41 6.76 1
10 -4 3 4.16 8.31 1
10 3 -3 3.23 6.26 1
-10 -3 3 17.93 8.3 1
9 3 -3 15.8 6.38 1
-9 -3 3 16.18 6.44 1
8 3 -3 6.4 5.39 1
-8 -3 3 2.23 5.53 1
7 3 -3 8.06 6.67 1
-7 -3 3 4.16 5.47 1
6 3 -3 153.66 7.79 1
-6 -3 3 144.75 7.82 1
5 3 -3 3.34 3.86 1
-5 -3 3 9.97 4.12 1
4 3 -3 5.43 2.69 1
-4 -3 3 5.37 2.75 1
3 3 -3 321.94 5.2 1
-3 -3 3 314.19 6.16 1
2 3 -3 2.03 1.7 1
-2 -3 3 0.33 1.89 1
1 3 -3 22.7 1.55 1
-1 -3 3 22.17 2.14 1
0 3 -3 239.76 4.58 1
0 -3 3 239.76 5.61 1
-1 3 -3 93.66 2.68 1
1 -3 3 92.48 3.12 1
-2 3 -3 3.46 1.67 1
2 -3 3 2.2 1.75 1
-3 3 -3 222.28 4.86 1
3 -3 3 218.53 6.11 1
-4 3 -3 9.04 3.35 1
4 -3 3 5.04 3.73 1
-5 3 -3 25.61 5.51 1
5 -3 3 39.66 5.26 1
-6 3 -3 120.8 7.42 1
6 -3 3 112.81 6.43 1
-7 3 -3 8.13 6.33 1
7 -3 3 4.69 5.8 1
-8 3 -3 7.73 5.89 1
8 -3 3 7.69 5.79 1
-9 3 -3 10.82 7.45 1
9 -3 3 18.68 8.48 1
-10 3 -3 7.39 7.32 1
10 -3 3 9.47 10.08 1
10 2 -3 2.98 7.76 1
-10 -2 3 9.08 8.38 1
9 2 -3 34.59 7.16 1
-9 -2 3 46.86 7.16 1
8 2 -3 8.73 7.07 1
-8 -2 3 1.6 6.75 1
7 2 -3 6.97 7.1 1
-7 -2 3 7.81 5.92 1
6 2 -3 174.49 8.12 1
-6 -2 3 187.74 8.22 1
5 2 -3 63.22 5.03 1
-5 -2 3 71.32 4.86 1
4 2 -3 16.46 2.42 1
-4 -2 3 25.6 2.95 1
3 2 -3 264.66 5 1
-3 -2 3 267.38 5.05 1
2 2 -3 69.2 2.69 1
-2 -2 3 64.45 2.37 1
1 2 -3 16.23 1.77 1
-1 -2 3 20.61 1.89 1
0 2 -3 147.95 3.48 1
0 -2 3 156.4 4.43 1
-1 2 -3 24.62 2.26 1
1 -2 3 29.04 1.94 1
-2 2 -3 41.99 2.17 1
2 -2 3 44.14 2.36 1
-3 2 -3 171.45 3.85 1
3 -2 3 170.53 4.1 1
-4 2 -3 87.29 3.95 1
4 -2 3 90.24 4.41 1
-5 2 -3 71.85 4.2 1
5 -2 3 71.98 4.69 1
-6 2 -3 61.94 4.84 1
6 -2 3 63.84 5.82 1
-7 2 -3 46.96 5.06 1
7 -2 3 57.97 7.44 1
-8 2 -3 3.48 4.38 1
8 -2 3 7.06 8.35 1
-9 2 -3 3.44 10.31 1
9 -2 3 0.19 7.76 1
-10 2 -3 23.18 10.97 1
10 -2 3 8.06 8.26 1
10 1 -3 1.55 9.03 1
-10 -1 3 2.8 10.2 1
9 1 -3 102.15 20.36 1
-9 -1 3 0 34.04 1
8 1 -3 12.41 6.38 1
-8 -1 3 8.18 5.92 1
7 1 -3 13.18 5.9 1
-7 -1 3 26.78 5.59 1
6 1 -3 114.06 6.93 1
-6 -1 3 126.21 7.43 1
5 1 -3 152.33 6.21 1
-5 -1 3 169.04 6.81 1
4 1 -3 28.1 2.8 1
-4 -1 3 28.14 3.66 1
3 1 -3 178.45 4.17 1
-3 -1 3 173.7 4.01 1
2 1 -3 271.61 5.29 1
-2 -1 3 268.47 4.87 1
1 1 -3 32.81 2.38 1
-1 -1 3 34.65 2.1 1
0 1 -3 32.83 2.12 1
0 -1 3 40.05 2.17 1
-1 1 -3 55.91 2.62 1
1 -1 3 69.66 3.2 1
-2 1 -3 61.43 2.46 1
2 -1 3 62.88 2.48 1
-3 1 -3 43.37 2.26 1
3 -1 3 45.3 2.35 1
-4 1 -3 216.3 5.79 1
4 -1 3 218.39 6.15 1
-5 1 -3 2.24 3.02 1
5 -1 3 7.84 4.22 1
-6 1 -3 1.04 6.21 1
6 -1 3 12.07 4.9 1
-7 1 -3 42.87 5.38 1
7 -1 3 50.89 5.84 1
-8 1 -3 17.84 5.37 1
8 -1 3 9.94 6.08 1
-9 1 -3 4.9 6.26 1
9 -1 3 8.4 7.53 1
10 0 -3 2.91 7.31 1
-10 0 3 1.19 8.2 1
9 0 -3 11.39 8.37 1
-9 0 3 5.87 6.44 1
8 0 -3 21.17 8.01 1
-8 0 3 20.12 10.37 1
7 0 -3 28.39 8.58 1
-7 0 3 35.49 8.49 1
6 0 -3 42.16 6.88 1
-6 0 3 39.83 4.99 1
5 0 -3 107.57 6.98 1
-5 0 3 96.98 5.9 1
4 0 -3 81.99 3.74 1
-4 0 3 84.21 3.62 1
3 0 -3 4.11 2.01 1
-3 0 3 2.88 2.08 1
2 0 -3 271.2 5.97 1
-2 0 3 264.63 5.26 1
1 0 -3 5.98 2.06 1
-1 0 3 7.04 2.16 1
0 0 -3 4.84 1.81 1
0 0 3 6.39 1.6 1
-1 0 -3 396.92 7.55 1
1 0 3 399.64 8.45 1
-2 0 -3 17.76 1.86 1
2 0 3 22.74 2.65 1
-3 0 -3 4.39 2.1 1
3 0 3 7.02 2.23 1
-4 0 -3 126.42 4.65 1
4 0 3 138.36 4.96 1
-5 0 -3 35.15 3.75 1
5 0 3 54.81 4.75 1
-6 0 -3 8.59 5.67 1
6 0 3 8.27 5.06 1
-7 0 -3 30.11 5.28 1
7 0 3 31.25 5.32 1
-8 0 -3 23.49 5.35 1
8 0 3 33.08 5.96 1
-9 0 -3 10.51 5.49 1
9 0 3 4.73 6.88 1
10 -1 -3 6.52 9.96 1
-10 1 3 0 15.14 1
9 -1 -3 3.88 8.66 1
-9 1 3 0 14.96 1
8 -1 -3 41.17 8.2 1
-8 1 3 20.92 6.65 1
7 -1 -3 28.77 8.76 1
-7 1 3 23.69 7.74 1
6 -1 -3 14.3 5.72 1
-6 1 3 9.42 4.4 1
5 -1 -3 173.44 7.32 1
-5 1 3 184.94 6.92 1
4 -1 -3 23.34 3.18 1
-4 1 3 25.42 3.39 1
3 -1 -3 20.3 2.34 1
-3 1 3 18.16 2.54 1
2 -1 -3 171.94 4.48 1
-2 1 3 172.85 4.16 1
1 -1 -3 110.33 3.64 1
-1 1 3 99.96 3.87 1
0 -1 -3 177.43 6.85 1
0 1 3 175.56 5.31 1
-1 -1 -3 4.3 2.69 1
1 1 3 2.62 4.24 1
-2 -1 -3 18.45 2.76 1
2 1 3 13.56 2.01 1
-3 -1 -3 3.05 3.8 1
3 1 3 9.96 2.46 1
-4 -1 -3 29.24 3.34 1
4 1 3 34.31 3.5 1
-5 -1 -3 97.08 5.4 1
5 1 3 113.68 6.48 1
-6 -1 -3 4.34 5.42 1
6 1 3 7.44 5.49 1
-7 -1 -3 15.75 4.97 1
7 1 3 14.99 5.37 1
-8 -1 -3 27.18 7.02 1
8 1 3 23.77 8.03 1
-9 -1 -3 14.17 7.84 1
9 1 3 2.82 9.08 1
10 -2 -3 16.58 9.87 1
-10 2 3 19.99 11.84 1
9 -2 -3 0.65 8.1 1
-9 2 3 6.15 10.39 1
8 -2 -3 53.4 6.19 1
-8 2 3 62.54 7.26 1
7 -2 -3 49.19 6.38 1
-7 2 3 50.35 6.62 1
6 -2 -3 54.1 5.75 1
-6 2 3 45.53 6.48 1
5 -2 -3 37.87 5.08 1
-5 2 3 46.97 5.21 1
4 -2 -3 183.55 6.95 1
-4 2 3 147.37 7.12 1
3 -2 -3 20.96 3.44 1
-3 2 3 22.48 3.53 1
2 -2 -3 9.44 4.22 1
-2 2 3 13.26 3.85 1
1 -2 -3 335.19 11.5 1
-1 2 3 351.15 11.27 1
0 -2 -3 6.33 2.7 1
0 2 3 10.36 2.64 1
-1 -2 -3 3.38 2.96 1
1 2 3 1.07 2.76 1
-2 -2 -3 94.63 3.89 1
2 2 3 87.39 3.66 1
-3 -2 -3 7.6 3.34 1
3 2 3 10.29 4.98 1
-4 -2 -3 2.12 4.62 1
4 2 3 4.55 4.04 1
-5 -2 -3 51.44 5.47 1
5 2 3 63.51 4.99 1
-6 -2 -3 3.15 7.08 1
6 2 3 2.89 6.81 1
-7 -2 -3 8.48 8.97 1
7 2 3 1.6 7.62 1
-8 -2 -3 24.62 8.44 1
8 2 3 23.86 7.9 1
10 -3 -3 32.37 9.34 1
-10 3 3 34.65 10.15 1
9 -3 -3 3.43 5.37 1
-9 3 3 1.93 8.39 1
8 -3 -3 24.76 5.76 1
-8 3 3 6.74 7.77 1
7 -3 -3 66.33 6.78 1
-7 3 3 56.22 8.18 1
6 -3 -3 21.93 5.99 1
-6 3 3 14.85 8.96 1
5 -3 -3 9.39 5.52 1
-5 3 3 19.16 8.78 1
4 -3 -3 238.52 9.76 1
-4 3 3 272.35 13.96 1
3 -3 -3 5.21 4.96 1
-3 3 3 3.73 5.5 1
2 -3 -3 3.87 3.42 1
-2 3 3 2.08 3.22 1
1 -3 -3 212.8 7.52 1
-1 3 3 210.21 5.39 1
0 -3 -3 17.96 3.4 1
0 3 3 19.86 3.23 1
-1 -3 -3 0.71 3.16 1
1 3 3 4.38 3.73 1
-2 -3 -3 127.54 4.99 1
2 3 3 121.02 5.55 1
-3 -3 -3 3.53 3.45 1
3 3 3 3.18 4.14 1
-4 -3 -3 1.65 4.88 1
4 3 3 7.43 4.61 1
-5 -3 -3 29.58 7.56 1
5 3 3 34.89 5.98 1
-6 -3 -3 5.3 5.21 1
6 3 3 18.11 6.48 1
-7 -3 -3 2.3 5.06 1
7 3 3 2.62 6.53 1
-8 -3 -3 11.98 5.59 1
8 3 3 3.79 7.04 1
10 -4 -3 45.68 8.78 1
-10 4 3 30.47 10.72 1
9 -4 -3 8.12 7.59 1
-9 4 3 0 12.29 1
8 -4 -3 5.79 6.17 1
-8 4 3 11.07 10.08 1
7 -4 -3 68.24 9.71 1
-7 4 3 83.76 10.03 1
6 -4 -3 15.75 8.65 1
-6 4 3 19.32 10.68 1
5 -4 -3 22.53 8.01 1
-5 4 3 62.22 16.38 1
4 -4 -3 100.46 8.02 1
-4 4 3 106.45 9.58 1
3 -4 -3 12.04 4.97 1
-3 4 3 8.17 6.13 1
2 -4 -3 8.06 4.68 1
-2 4 3 7.49 4.68 1
1 -4 -3 34.9 4.56 1
-1 4 3 26.64 4.79 1
0 -4 -3 14.36 3.6 1
0 4 3 17.02 4.41 1
-1 -4 -3 4.67 2.7 1
1 4 3 6.53 4.73 1
-2 -4 -3 64.16 5.29 1
2 4 3 60.77 5.15 1
-3 -4 -3 7.01 5.34 1
3 4 3 12.4 5.4 1
-4 -4 -3 3.3 4.88 1
4 4 3 4.08 5.21 1
-5 -4 -3 10.58 4.38 1
5 4 3 5.32 4.74 1
-6 -4 -3 14.59 5.3 1
6 4 3 9.29 5.61 1
-7 -4 -3 4.89 5.28 1
7 4 3 6.76 6.66 1
10 -5 -3 0 32.56 1
-10 5 3 34.12 12.44 1
9 -5 -3 12.8 12.07 1
-9 5 3 49.12 15.35 1
8 -5 -3 5.39 9.19 1
-8 5 3 1.16 9.94 1
7 -5 -3 12.35 8.83 1
-7 5 3 16.7 10 1
6 -5 -3 7.28 7.68 1
-6 5 3 5.8 9.89 1
5 -5 -3 30.39 7.21 1
-5 5 3 35.98 8.66 1
4 -5 -3 13.49 7.14 1
-4 5 3 5.52 7.45 1
3 -5 -3 20.08 6.47 1
-3 5 3 23.7 7.48 1
2 -5 -3 2.05 5.33 1
-2 5 3 4.62 5.51 1
1 -5 -3 2.75 4.15 1
-1 5 3 2.02 5.49 1
0 -5 -3 58.47 4.57 1
0 5 3 53.87 7.71 1
-1 -5 -3 5.5 5.46 1
1 5 3 11.87 6.98 1
-2 -5 -3 11.04 4.99 1
2 5 3 7.58 5.59 1
-3 -5 -3 14.88 5.18 1
3 5 3 16.31 5.79 1
-4 -5 -3 3.75 5.03 1
4 5 3 0.54 5.01 1
-5 -5 -3 6.9 5.59 1
5 5 3 1.23 5.92 1
-6 -5 -3 12.29 5.98 1
6 5 3 10.94 6.93 1
9 -6 -3 17.89 11.41 1
-9 6 3 9.47 11.68 1
8 -6 -3 10.7 8.88 1
-8 6 3 1.24 10.49 1
7 -6 -3 8.99 6.95 1
-7 6 3 10.69 8.22 1
6 -6 -3 14.2 7.44 1
-6 6 3 11.72 7.38 1
5 -6 -3 3.76 7.26 1
-5 6 3 8.55 7.33 1
4 -6 -3 1.31 9.24 1
-4 6 3 6.55 7.8 1
3 -6 -3 28.91 8.12 1
-3 6 3 7.12 6.23 1
2 -6 -3 1.5 5.56 1
-2 6 3 14.46 7.63 1
1 -6 -3 6.22 4.8 1
-1 6 3 1.59 6.44 1
0 -6 -3 25.17 4.1 1
0 6 3 24.4 6.18 1
-1 -6 -3 1.31 6.34 1
1 6 3 5.53 7.53 1
-2 -6 -3 9.87 5.53 1
2 6 3 2.3 5.52 1
-3 -6 -3 6.9 6.1 1
3 6 3 11.29 6.92 1
-4 -6 -3 1.25 4.39 1
4 6 3 4.1 6.12 1
-5 -6 -3 3.72 6.07 1
5 6 3 3.21 6.71 1
-6 -6 -3 18.29 5.63 1
6 6 3 4.37 6.84 1
8 -7 -3 9.35 7.72 1
-8 7 3 4.29 9.05 1
7 -7 -3 16.5 6.87 1
-7 7 3 1.5 8.56 1
6 -7 -3 8.39 10.02 1
-6 7 3 6.07 7.38 1
5 -7 -3 0.11 10.6 1
-5 7 3 2.04 6.08 1
4 -7 -3 11.96 10.13 1
-4 7 3 3.44 6.67 1
3 -7 -3 25.17 7.67 1
-3 7 3 11.43 5.8 1
2 -7 -3 1.07 4.95 1
-2 7 3 7.78 6.61 1
1 -7 -3 3 4.21 1
-1 7 3 5.19 8.54 1
0 -7 -3 11.45 5.38 1
0 7 3 4.63 5.39 1
-1 -7 -3 4.95 6.38 1
1 7 3 2.65 8.56 1
-2 -7 -3 5.77 7.2 1
2 7 3 5.07 6.29 1
-3 -7 -3 4.88 6.82 1
3 7 3 5.86 7.85 1
-4 -7 -3 5.23 6.37 1
4 7 3 10.35 6.42 1
-5 -7 -3 10.85 6.12 1
5 7 3 3.01 5.45 1
8 -8 -3 18.97 10.9 1
-8 8 3 4.88 7.26 1
7 -8 -3 0 9.22 1
-7 8 3 6.36 8.74 1
6 -8 -3 8.56 10.84 1
-6 8 3 1.56 8.38 1
5 -8 -3 8.14 10.42 1
-5 8 3 15.25 8.36 1
4 -8 -3 14.16 11.1 1
-4 8 3 12.44 6.77 1
3 -8 -3 3.53 5.93 1
-3 8 3 4.05 8.74 1
2 -8 -3 9.62 6.28 1
-2 8 3 7.71 6.84 1
1 -8 -3 13.4 5.54 1
-1 8 3 15.15 11.11 1
0 -8 -3 0.62 6.49 1
0 8 3 0.06 5.78 1
-1 -8 -3 14.13 7.14 1
1 8 3 1.78 9.42 1
-2 -8 -3 3.7 6.28 1
2 8 3 0 7.63 1
-3 -8 -3 4.91 6.13 1
3 8 3 0.93 8.17 1
6 -9 -3 4.66 9.15 1
-6 9 3 10.52 8.69 1
5 -9 -3 23.17 9.59 1
-5 9 3 5.2 9.21 1
4 -9 -3 0 13.73 1
-4 9 3 6.63 7.45 1
3 -9 -3 3.09 6.88 1
-3 9 3 6.79 7.89 1
2 -9 -3 1.35 6.83 1
-2 9 3 7.68 8.17 1
1 -9 -3 1.7 9.36 1
-1 9 3 5.6 9.86 1
0 -9 -3 2.02 6.46 1
0 9 3 6.88 8.57 1
-1 -9 -3 7.78 7.25 1
1 9 3 1.37 7.72 1
-2 -9 -3 15.41 6.64 1
2 9 3 2.5 8.14 1
3 -10 -3 0.97 6.64 1
-3 10 3 24.72 10.5 1
2 -10 -3 6.5 6.26 1
-2 10 3 0 9.95 1
1 12 -4 9.06 5.8 1
-1 -12 4 15.49 12.01 1
0 12 -4 10.25 4.22 1
0 -12 4 16.45 11.03 1
-1 12 -4 12.41 4.89 1
1 -12 4 12.7 8.64 1
-2 12 -4 6.51 6.1 1
2 -12 4 13.33 8.18 1
-3 12 -4 0 8.82 1
3 -12 4 9.95 8.19 1
-4 12 -4 0 7.86 1
4 -12 4 7.26 7.42 1
-5 12 -4 3.51 9.26 1
5 -12 4 9.63 8.28 1
3 11 -4 4.73 5.57 1
-3 -11 4 10.74 11.03 1
2 11 -4 6.9 4.59 1
-2 -11 4 13.95 14.7 1
1 11 -4 3.12 4.75 1
-1 -11 4 4.32 9.72 1
0 11 -4 12.71 4.63 1
0 -11 4 6.97 8.32 1
-1 11 -4 18.17 5.23 1
1 -11 4 19.09 7.96 1
-2 11 -4 1.96 6.45 1
2 -11 4 5.92 7.02 1
-3 11 -4 1.39 7.71 1
3 -11 4 5.82 7.07 1
-4 11 -4 6.38 8.4 1
4 -11 4 38.77 11.08 1
-5 11 -4 13.62 19.92 1
5 -11 4 14.02 7.57 1
-6 11 -4 4.05 9.18 1
6 -11 4 8.96 6.68 1
5 10 -4 18.36 5.33 1
-5 -10 4 33.33 7.35 1
4 10 -4 12.1 6.29 1
-4 -10 4 3.49 8.86 1
3 10 -4 1.5 4.32 1
-3 -10 4 3.66 9.96 1
2 10 -4 14.93 4.25 1
-2 -10 4 17.48 9.18 1
1 10 -4 3.57 4.36 1
-1 -10 4 14.19 4.33 1
0 10 -4 7.06 3.53 1
0 -10 4 3.43 4.78 1
-1 10 -4 37.15 5.78 1
1 -10 4 40.95 8.66 1
-2 10 -4 2.66 6.84 1
2 -10 4 2.58 6.18 1
-3 10 -4 1.35 6.04 1
3 -10 4 7.09 5.66 1
-4 10 -4 21.53 6.75 1
4 -10 4 31.9 7.12 1
-5 10 -4 0.72 5.48 1
5 -10 4 3.35 4.97 1
-6 10 -4 0 6.32 1
6 -10 4 7.08 6.11 1
-7 10 -4 2.18 7.35 1
7 -10 4 14.85 8.6 1
6 9 -4 9.76 5.23 1
-6 -9 4 12.97 12.53 1
5 9 -4 13.99 6.15 1
-5 -9 4 10.66 7.98 1
4 9 -4 7.45 3.94 1
-4 -9 4 11.51 6.17 1
3 9 -4 3.77 2.87 1
-3 -9 4 5.01 8.01 1
2 9 -4 18.2 4.61 1
-2 -9 4 15.06 8.29 1
1 9 -4 4 4.24 1
-1 -9 4 3.73 4.46 1
0 9 -4 17.46 5.1 1
0 -9 4 14.38 5.25 1
-1 9 -4 11.59 4.63 1
1 -9 4 22.76 5.95 1
-2 9 -4 19.35 6.24 1
2 -9 4 4.08 6.11 1
-3 9 -4 12.25 7.07 1
3 -9 4 8.98 6.18 1
-4 9 -4 5.5 7.01 1
4 -9 4 15.1 4.71 1
-5 9 -4 11.35 5.85 1
5 -9 4 31.07 6.25 1
-6 9 -4 1.93 5.68 1
6 -9 4 7.25 5.47 1
-7 9 -4 5.49 7.23 1
7 -9 4 24.75 8.59 1
-8 9 -4 0 7.22 1
8 -9 4 10.61 10.49 1
7 8 -4 10.23 5.78 1
-7 -8 4 12.77 7.62 1
6 8 -4 16.44 5.73 1
-6 -8 4 1.81 7.19 1
5 8 -4 6.78 5.09 1
-5 -8 4 8.7 7.41 1
4 8 -4 13.57 4.93 1
-4 -8 4 15.15 6.41 1
3 8 -4 4.39 4.82 1
-3 -8 4 0.04 8.48 1
2 8 -4 14.85 3.82 1
-2 -8 4 8.98 7.92 1
1 8 -4 16.71 3.16 1
-1 -8 4 31.13 4.45 1
0 8 -4 4.78 3.07 1
0 -8 4 3.6 5.28 1
-1 8 -4 53.93 4.61 1
1 -8 4 59.66 5.43 1
-2 8 -4 59.8 5 1
2 -8 4 50.46 6.73 1
-3 8 -4 16.67 4.2 1
3 -8 4 10.68 4.54 1
-4 8 -4 10.19 5.52 1
4 -8 4 4.89 5.06 1
-5 8 -4 37.86 6.5 1
5 -8 4 33.65 8.42 1
-6 8 -4 2 4.52 1
6 -8 4 11.67 7.66 1
-7 8 -4 2.19 5.18 1
7 -8 4 5.62 7.8 1
-8 8 -4 6.8 7.06 1
8 -8 4 12.07 9.65 1
8 7 -4 10.9 6.22 1
-8 -7 4 10.43 5.35 1
7 7 -4 13.2 5.93 1
-7 -7 4 16.87 5.62 1
6 7 -4 14.52 5.25 1
-6 -7 4 1.07 4.1 1
5 7 -4 6.43 5.3 1
-5 -7 4 2.97 3.76 1
4 7 -4 41.15 5.78 1
-4 -7 4 28.02 4.02 1
3 7 -4 4.65 3.77 1
-3 -7 4 8.33 5.82 1
2 7 -4 18.57 3.83 1
-2 -7 4 21.06 7.49 1
1 7 -4 60.9 2.72 1
-1 -7 4 56.18 4.32 1
0 7 -4 8.09 2.74 1
0 -7 4 3.44 3.57 1
-1 7 -4 5.23 3.21 1
1 -7 4 8.79 3.79 1
-2 7 -4 115.63 4.85 1
2 -7 4 101.7 6.53 1
-3 7 -4 2.2 3.71 1
3 -7 4 3.61 4.56 1
-4 7 -4 14.18 4.3 1
4 -7 4 16.1 5.3 1
-5 7 -4 91.08 6.39 1
5 -7 4 77.1 6.88 1
-6 7 -4 9.29 5.07 1
6 -7 4 25.06 7.09 1
-7 7 -4 15.7 4.94 1
7 -7 4 11.86 7.19 1
-8 7 -4 8.98 7.9 1
8 -7 4 12.42 6.38 1
-9 7 -4 0 7.45 1
9 -7 4 1.83 12.48 1
8 6 -4 2.18 6.14 1
-8 -6 4 0 5.32 1
7 6 -4 17.07 6.46 1
-7 -6 4 10.84 5.05 1
6 6 -4 3.06 4.74 1
-6 -6 4 6.25 4.56 1
5 6 -4 4.58 5.06 1
-5 -6 4 10.88 6.29 1
4 6 -4 87.25 6.31 1
-4 -6 4 72.77 5.31 1
3 6 -4 15.76 3.42 1
-3 -6 4 8.06 3.86 1
2 6 -4 4.7 2.94 1
-2 -6 4 5.38 4.17 1
1 6 -4 84.01 2.79 1
-1 -6 4 90.29 5.03 1
0 6 -4 43.6 2.15 1
0 -6 4 51.39 3.72 1
-1 6 -4 20.75 2.19 1
1 -6 4 25.13 3.45 1
-2 6 -4 90.92 3.12 1
2 -6 4 100.04 4.78 1
-3 6 -4 80.21 3.95 1
3 -6 4 87.65 5.57 1
-4 6 -4 27.17 3.83 1
4 -6 4 26.62 5.16 1
-5 6 -4 40.02 4.7 1
5 -6 4 49.38 5.94 1
-6 6 -4 74.46 5.75 1
6 -6 4 64.71 9.03 1
-7 6 -4 12.59 4.9 1
7 -6 4 1.92 5.95 1
-8 6 -4 0.67 6.32 1
8 -6 4 1.54 6.84 1
-9 6 -4 13.01 6.92 1
9 -6 4 9.37 6.5 1
9 5 -4 4.69 7.38 1
-9 -5 4 2.36 9.67 1
8 5 -4 4.75 6.04 1
-8 -5 4 16 7.02 1
7 5 -4 8.6 5.13 1
-7 -5 4 11.05 6.91 1
6 5 -4 10.91 5.26 1
-6 -5 4 3.82 5.4 1
5 5 -4 28.95 4.86 1
-5 -5 4 39.64 4.9 1
4 5 -4 36.47 4.21 1
-4 -5 4 41.29 5.46 1
3 5 -4 68.85 3.72 1
-3 -5 4 72.37 4.27 1
2 5 -4 3.88 2.4 1
-2 -5 4 4.13 3.07 1
1 5 -4 57.18 2.19 1
-1 -5 4 60.62 4.21 1
0 5 -4 351.52 5.45 1
0 -5 4 366.99 10.48 1
-1 5 -4 75.81 2.65 1
1 -5 4 70.98 3.68 1
-2 5 -4 5.02 2.42 1
2 -5 4 4.68 3.1 1
-3 5 -4 165.66 4.45 1
3 -5 4 168.87 6.41 1
-4 5 -4 3.33 2.88 1
4 -5 4 3.34 3.96 1
-5 5 -4 3.11 4.93 1
5 -5 4 0.74 5.58 1
-6 5 -4 89.38 8.42 1
6 -5 4 111.37 7.13 1
-7 5 -4 10.46 4.62 1
7 -5 4 2.2 6.05 1
-8 5 -4 1.87 6.19 1
8 -5 4 8.47 8.04 1
-9 5 -4 35.37 6.96 1
9 -5 4 26.88 9.16 1
9 4 -4 17.52 6.18 1
-9 -4 4 25.55 8.29 1
8 4 -4 6.39 6.09 1
-8 -4 4 0.09 7.18 1
7 4 -4 19.02 5.83 1
-7 -4 4 15.33 5.23 1
6 4 -4 108.32 7.44 1
-6 -4 4 117.83 7.03 1
5 4 -4 0.89 3.53 1
-5 -4 4 6.79 5.04 1
4 4 -4 0.39 2.73 1
-4 -4 4 4.05 3.5 1
3 4 -4 148.85 4.32 1
-3 -4 4 144.88 5.41 1
2 4 -4 23.84 2.16 1
-2 -4 4 20.85 2.74 1
1 4 -4 15.8 1.58 1
-1 -4 4 15.5 2.43 1
0 4 -4 246.06 4.21 1
0 -4 4 266.57 7.47 1
-1 4 -4 64.71 2.39 1
1 -4 4 61.66 3.54 1
-2 4 -4 40.92 3.04 1
2 -4 4 45.95 3.16 1
-3 4 -4 93.15 5.03 1
3 -4 4 87.76 4.75 1
-4 4 -4 1.46 4.88 1
4 -4 4 5.45 3.59 1
-5 4 -4 28.95 6.41 1
5 -4 4 34.36 5.12 1
-6 4 -4 83.56 7.07 1
6 -4 4 88.19 6.79 1
-7 4 -4 18.46 6.13 1
7 -4 4 6.28 5.43 1
-8 4 -4 4.5 5.99 1
8 -4 4 0 6.62 1
-9 4 -4 30.58 8.16 1
9 -4 4 26.79 7.37 1
10 3 -4 0.91 5.78 1
-10 -3 4 0 7.76 1
9 3 -4 31.93 8.4 1
-9 -3 4 29.53 6.39 1
8 3 -4 4.62 6.99 1
-8 -3 4 0.54 8.19 1
7 3 -4 3.7 5.92 1
-7 -3 4 1.25 6.94 1
6 3 -4 175.96 7.95 1
-6 -3 4 141.88 7.92 1
5 3 -4 32.81 3.82 1
-5 -3 4 34.91 4.06 1
4 3 -4 36.44 2.92 1
-4 -3 4 30.3 2.86 1
3 3 -4 180.43 4.14 1
-3 -3 4 175.42 5.15 1
2 3 -4 77.95 2.56 1
-2 -3 4 79.55 3.03 1
1 3 -4 19.34 1.89 1
-1 -3 4 18.61 2.25 1
0 3 -4 107.71 2.62 1
0 -3 4 113.72 3.56 1
-1 3 -4 3.53 1.83 1
1 -3 4 6.39 2.54 1
-2 3 -4 74.84 3.89 1
2 -3 4 62.74 3.35 1
-3 3 -4 100.22 4.35 1
3 -3 4 96.19 4.35 1
-4 3 -4 56.97 3.44 1
4 -3 4 66.76 3.97 1
-5 3 -4 40.43 3.48 1
5 -3 4 39.38 4.6 1
-6 3 -4 32.05 4.53 1
6 -3 4 36.47 5.89 1
-7 3 -4 19.87 5.68 1
7 -3 4 27.73 6.34 1
-8 3 -4 4.31 6.51 1
8 -3 4 0 7.09 1
-9 3 -4 0 15.16 1
9 -3 4 9.62 9.43 1
10 2 -4 2.43 6.97 1
-10 -2 4 2.49 8.3 1
9 2 -4 27.27 7.36 1
-9 -2 4 38.78 7.94 1
8 2 -4 3.62 5.87 1
-8 -2 4 14.33 5.94 1
7 2 -4 17.88 6.24 1
-7 -2 4 14.69 5.89 1
6 2 -4 100.05 5.97 1
-6 -2 4 103.56 5.94 1
5 2 -4 146.03 6.19 1
-5 -2 4 144.43 6.2 1
4 2 -4 34.77 3.18 1
-4 -2 4 31.43 2.48 1
3 2 -4 52.06 2.53 1
-3 -2 4 59.22 2.66 1
2 2 -4 154.65 3.53 1
-2 -2 4 159.9 3.8 1
1 2 -4 52.47 2.54 1
-1 -2 4 52.45 2.35 1
0 2 -4 75.79 2.79 1
0 -2 4 64.02 2.9 1
-1 2 -4 73.2 2.6 1
1 -2 4 75.18 3.6 1
-2 2 -4 111.12 3.02 1
2 -2 4 108.74 3.7 1
-3 2 -4 7.25 2 1
3 -2 4 11.26 2.54 1
-4 2 -4 93.36 3.97 1
4 -2 4 98.52 4.77 1
-5 2 -4 3.14 3.4 1
5 -2 4 7.93 4.19 1
-6 2 -4 4.62 6.07 1
6 -2 4 8.33 6.11 1
-7 2 -4 53.22 8.17 1
7 -2 4 56.59 6.89 1
-8 2 -4 15.36 8.67 1
8 -2 4 10.74 7.73 1
-9 2 -4 8.24 11.26 1
9 -2 4 4.77 7.31 1
10 1 -4 2.72 6.95 1
-10 -1 4 3.75 8.56 1
9 1 -4 18.62 6.69 1
-9 -1 4 16.41 9.48 1
8 1 -4 56.85 6.98 1
-8 -1 4 60.36 8.53 1
7 1 -4 10.65 5.86 1
-7 -1 4 26.62 6.96 1
6 1 -4 23.13 5.63 1
-6 -1 4 34.29 5.42 1
5 1 -4 136.53 5.78 1
-5 -1 4 128.26 5.46 1
4 1 -4 4.65 2.82 1
-4 -1 4 8.88 3.33 1
3 1 -4 9.08 2.14 1
-3 -1 4 5.85 2.01 1
2 1 -4 135.11 4.04 1
-2 -1 4 136.55 3.66 1
1 1 -4 13.93 1.96 1
-1 -1 4 12.71 2.09 1
0 1 -4 7.08 1.49 1
0 -1 4 4 1.28 1
-1 1 -4 185.33 4.35 1
1 -1 4 187.41 5.06 1
-2 1 -4 21.64 2.72 1
2 -1 4 21.32 2.56 1
-3 1 -4 28.42 2.16 1
3 -1 4 30.47 2.48 1
-4 1 -4 65.57 3.63 1
4 -1 4 71.87 3.85 1
-5 1 -4 20.06 3.7 1
5 -1 4 26.65 4.64 1
-6 1 -4 8.17 5.9 1
6 -1 4 9.94 6.15 1
-7 1 -4 36.86 7.43 1
7 -1 4 38.13 6.42 1
-8 1 -4 30.88 5.89 1
8 -1 4 33.33 6.74 1
-9 1 -4 11.09 6.01 1
9 -1 4 8.65 7.83 1
10 0 -4 0 9.65 1
-10 0 4 8.94 24.31 1
9 0 -4 1.13 8.59 1
-9 0 4 5.06 15.06 1
8 0 -4 58.59 9.29 1
-8 0 4 51.63 11.27 1
7 0 -4 58.7 10.25 1
-7 0 4 40.05 7.52 1
6 0 -4 9.98 6 1
-6 0 4 8.46 4.19 1
5 0 -4 78.17 6.1 1
-5 0 4 70.1 4.51 1
4 0 -4 4.57 3.02 1
-4 0 4 3.2 3.73 1
3 0 -4 47.46 3.05 1
-3 0 4 56.35 2.9 1
2 0 -4 34.92 2.55 1
-2 0 4 32.51 2.56 1
1 0 -4 26.17 2.23 1
-1 0 4 25.9 2.3 1
0 0 -4 17.66 2 1
0 0 4 14.5 1.68 1
-1 0 -4 158.35 4.61 1
1 0 4 155.35 4.5 1
-2 0 -4 107.13 4.06 1
2 0 4 107.03 4.94 1
-3 0 -4 18.83 3.02 1
3 0 4 27.01 2.74 1
-4 0 -4 5.32 2.9 1
4 0 4 8.58 3.18 1
-5 0 -4 64.01 4.41 1
5 0 4 64.04 5.29 1
-6 0 -4 12.15 5.52 1
6 0 4 11.78 4.97 1
-7 0 -4 7.81 5.07 1
7 0 4 7.58 5.31 1
-8 0 -4 24.51 5.83 1
8 0 4 40.06 8.25 1
-9 0 -4 6.14 5.93 1
9 0 4 5.3 11.3 1
10 -1 -4 4.15 10.24 1
-10 1 4 21.17 13.07 1
9 -1 -4 16.33 16.34 1
-9 1 4 0 15.39 1
8 -1 -4 121.49 13.65 1
-8 1 4 89.16 7.07 1
7 -1 -4 81.95 8.9 1
-7 1 4 93.23 6.52 1
6 -1 -4 7.14 9.36 1
-6 1 4 9.7 6.64 1
5 -1 -4 63.58 5.65 1
-5 1 4 65.44 6.23 1
4 -1 -4 191.29 8.31 1
-4 1 4 175.98 10.17 1
3 -1 -4 25.24 5.45 1
-3 1 4 16.09 4.82 1
2 -1 -4 4.05 3.98 1
-2 1 4 3.81 3.96 1
1 -1 -4 102.59 5.29 1
-1 1 4 103.04 6 1
0 -1 -4 133.84 4.67 1
0 1 4 129.67 3.99 1
-1 -1 -4 24.53 3.1 1
1 1 4 22.81 2.36 1
-2 -1 -4 70.29 3.86 1
2 1 4 75.63 3.44 1
-3 -1 -4 24.99 4.42 1
3 1 4 19.75 2.72 1
-4 -1 -4 2.55 4.47 1
4 1 4 11.9 3.81 1
-5 -1 -4 34.3 4.64 1
5 1 4 46.04 5.04 1
-6 -1 -4 3.32 5.7 1
6 1 4 1.16 7.16 1
-7 -1 -4 6.8 6.02 1
7 1 4 2.53 8.57 1
-8 -1 -4 16.71 6.04 1
8 1 4 16.65 7.93 1
10 -2 -4 15.9 10.07 1
-10 2 4 38.51 10.03 1
9 -2 -4 1.71 8.45 1
-9 2 4 14.45 6.39 1
8 -2 -4 44.67 7.41 1
-8 2 4 67.25 6.4 1
7 -2 -4 171.46 10.12 1
-7 2 4 163.68 8.97 1
6 -2 -4 11.99 9.41 1
-6 2 4 9.29 6.91 1
5 -2 -4 7.92 8.85 1
-5 2 4 0.72 6.46 1
4 -2 -4 265.26 13.29 1
-4 2 4 258.41 11.29 1
3 -2 -4 12.91 6.25 1
-3 2 4 6.81 5.93 1
2 -2 -4 8.63 3.89 1
-2 2 4 8.86 3.41 1
1 -2 -4 135.06 6.14 1
-1 2 4 137.16 5.98 1
0 -2 -4 2.47 3.07 1
0 2 4 2.99 2.92 1
-1 -2 -4 7.32 3.75 1
1 2 4 3.66 3.36 1
-2 -2 -4 110.09 4.94 1
2 2 4 109.41 4.59 1
-3 -2 -4 2.55 4.43 1
3 2 4 2.56 3.52 1
-4 -2 -4 22 7.74 1
4 2 4 31.86 7.65 1
-5 -2 -4 0 10.59 1
5 2 4 31.66 11.53 1
-6 -2 -4 1.6 7.36 1
6 2 4 13.9 8.18 1
-7 -2 -4 3.82 5.82 1
7 2 4 3.51 6.74 1
-8 -2 -4 5.48 5.44 1
8 2 4 12.21 6.33 1
10 -3 -4 18.03 8 1
-10 3 4 30.37 9.25 1
9 -3 -4 0 6.87 1
-9 3 4 10.96 7.2 1
8 -3 -4 3.08 8.38 1
-8 3 4 8.46 7.81 1
7 -3 -4 139.65 10.63 1
-7 3 4 130.37 11.46 1
6 -3 -4 37.58 13.61 1
-6 3 4 29.83 15.1 1
5 -3 -4 40.75 10.78 1
-5 3 4 42.88 15.29 1
4 -3 -4 143.41 9.34 1
-4 3 4 125.57 10.06 1
3 -3 -4 25.59 4.99 1
-3 3 4 16.43 5.48 1
2 -3 -4 3.17 3.73 1
-2 3 4 3.68 3.77 1
1 -3 -4 18.53 5.06 1
-1 3 4 17.98 4.33 1
0 -3 -4 15.24 3.7 1
0 3 4 8.26 3.96 1
-1 -3 -4 3.47 3.87 1
1 3 4 6.52 4.77 1
-2 -3 -4 50.38 6.44 1
2 3 4 47.27 5.22 1
-3 -3 -4 1.11 7.42 1
3 3 4 11.15 6.61 1
-4 -3 -4 13.23 7 1
4 3 4 9.68 6.22 1
-5 -3 -4 2.4 4.96 1
5 3 4 4.96 5.19 1
-6 -3 -4 19.66 5.1 1
6 3 4 9.72 5.22 1
-7 -3 -4 3.86 6.54 1
7 3 4 4.21 5.84 1
10 -4 -4 7.88 8.39 1
-10 4 4 6.22 9.21 1
9 -4 -4 21.69 9.63 1
-9 4 4 4.86 11.96 1
8 -4 -4 0 9.24 1
-8 4 4 3.7 10.18 1
7 -4 -4 67.16 9.4 1
-7 4 4 92.72 12.66 1
6 -4 -4 67.53 9.76 1
-6 4 4 78.51 11.58 1
5 -4 -4 3.77 6.66 1
-5 4 4 2.78 8.54 1
4 -4 -4 24.69 7.16 1
-4 4 4 21.33 9.72 1
3 -4 -4 43.31 6.41 1
-3 4 4 35.64 6.48 1
2 -4 -4 2.93 5.64 1
-2 4 4 1.63 6.06 1
1 -4 -4 4.26 4.53 1
-1 4 4 5.04 6.8 1
0 -4 -4 20.83 5.33 1
0 4 4 26.38 7.95 1
-1 -4 -4 8.66 5.27 1
1 4 4 5.3 5.09 1
-2 -4 -4 3.38 3.9 1
2 4 4 9.39 5.42 1
-3 -4 -4 17.78 4.36 1
3 4 4 8.04 5.42 1
-4 -4 -4 4.3 6.38 1
4 4 4 4.67 5.16 1
-5 -4 -4 6.58 5.64 1
5 4 4 1.96 5.02 1
-6 -4 -4 4.88 7.33 1
6 4 4 5.12 5.54 1
-7 -4 -4 4.41 5.96 1
7 4 4 3.83 5.78 1
9 -5 -4 17.08 10.94 1
-9 5 4 2.96 13.22 1
8 -5 -4 7.63 9.28 1
-8 5 4 6.72 10.78 1
7 -5 -4 4.97 6.94 1
-7 5 4 6.33 8.31 1
6 -5 -4 19.25 7.31 1
-6 5 4 21.55 8.19 1
5 -5 -4 4.23 7.13 1
-5 5 4 5.01 8.65 1
4 -5 -4 2.55 6.95 1
-4 5 4 2.57 8.32 1
3 -5 -4 56.89 10.44 1
-3 5 4 43.88 7.3 1
2 -5 -4 11 7.86 1
-2 5 4 1.02 6.94 1
1 -5 -4 2.61 4.93 1
-1 5 4 3.64 9.37 1
0 -5 -4 18.79 4.8 1
0 5 4 24.9 8.19 1
-1 -5 -4 4.06 4.02 1
1 5 4 1.79 7.92 1
-2 -5 -4 1.05 8.05 1
2 5 4 4.14 5.7 1
-3 -5 -4 8.61 6.11 1
3 5 4 7.45 5.39 1
-4 -5 -4 2.88 6.36 1
4 5 4 6.45 6.01 1
-5 -5 -4 1.66 7.66 1
5 5 4 4.35 5.83 1
-6 -5 -4 9.95 5.83 1
6 5 4 9.14 5.61 1
9 -6 -4 29.41 8.18 1
-9 6 4 4.13 10.38 1
8 -6 -4 10.94 8.78 1
-8 6 4 3.07 9.23 1
7 -6 -4 5.61 8.15 1
-7 6 4 3.45 8.66 1
6 -6 -4 38.53 7.55 1
-6 6 4 11.97 7.95 1
5 -6 -4 26.2 10.32 1
-5 6 4 18.73 7.34 1
4 -6 -4 10.09 15.1 1
-4 6 4 6.58 6.67 1
3 -6 -4 10.56 8.63 1
-3 6 4 12.33 6.59 1
2 -6 -4 11.95 6.97 1
-2 6 4 1.89 6.82 1
1 -6 -4 4.41 5.98 1
-1 6 4 19.11 8.07 1
0 -6 -4 6.4 4.65 1
0 6 4 4.36 6.66 1
-1 -6 -4 10.71 5.9 1
1 6 4 7.17 6.87 1
-2 -6 -4 4.96 6.32 1
2 6 4 2.92 5.8 1
-3 -6 -4 0 6.42 1
3 6 4 0.93 6.68 1
-4 -6 -4 5.13 9.6 1
4 6 4 7.63 6.26 1
-5 -6 -4 2.9 6.75 1
5 6 4 6.43 5.01 1
8 -7 -4 12.15 8.43 1
-8 7 4 7.98 8.62 1
7 -7 -4 2.54 12.72 1
-7 7 4 0.87 8.47 1
6 -7 -4 0 17.36 1
-6 7 4 2.52 7.62 1
5 -7 -4 29.62 12.31 1
-5 7 4 14.53 6.28 1
4 -7 -4 2.6 10.52 1
-4 7 4 2.45 6.81 1
3 -7 -4 11.35 8.42 1
-3 7 4 8.9 6.52 1
2 -7 -4 15.58 6.58 1
-2 7 4 10.65 6.6 1
1 -7 -4 4.88 4.83 1
-1 7 4 10.67 9 1
0 -7 -4 2.66 6.12 1
0 7 4 3.16 6.39 1
-1 -7 -4 7.69 6.24 1
1 7 4 2.65 8.38 1
-2 -7 -4 0 7.19 1
2 7 4 3.83 6.13 1
-3 -7 -4 3.84 6.61 1
3 7 4 2.88 7.34 1
-4 -7 -4 13.09 6.95 1
4 7 4 6.49 6.52 1
7 -8 -4 1.53 12.2 1
-7 8 4 8.5 11.13 1
6 -8 -4 0 12.16 1
-6 8 4 8.39 8.77 1
5 -8 -4 25.83 11.88 1
-5 8 4 9.48 8.38 1
4 -8 -4 0 10.59 1
-4 8 4 3.35 6.93 1
3 -8 -4 7 6.91 1
-3 8 4 5.07 7.92 1
2 -8 -4 12.87 9.55 1
-2 8 4 12.91 12.95 1
1 -8 -4 12.07 4.67 1
-1 8 4 13.23 7.65 1
0 -8 -4 3.73 6.77 1
0 8 4 5.46 6.38 1
-1 -8 -4 1.75 6.54 1
1 8 4 6.26 6.34 1
-2 -8 -4 7.29 6.61 1
2 8 4 9.96 7.35 1
5 -9 -4 6.85 13.79 1
-5 9 4 7.53 8.13 1
4 -9 -4 14.88 10.04 1
-4 9 4 15.3 8.19 1
3 -9 -4 7.68 6.96 1
-3 9 4 9.87 8.81 1
2 -9 -4 2.73 6.83 1
-2 9 4 1.48 9.45 1
1 -9 -4 3.04 6.08 1
-1 9 4 0 6.96 1
0 -9 -4 4.21 8.13 1
0 9 4 0.43 9.24 1
2 12 -5 13.14 9.54 1
-2 -12 5 12.32 12.36 1
1 12 -5 4.75 4.76 1
-1 -12 5 14.41 10.67 1
0 12 -5 11.29 4.24 1
0 -12 5 4.58 8.87 1
-1 12 -5 17.04 5.11 1
1 -12 5 26.11 9.48 1
-2 12 -5 4.23 5.13 1
2 -12 5 11.58 8.72 1
-3 12 -5 2.61 7.4 1
3 -12 5 12.71 7.52 1
-4 12 -5 5.36 7.6 1
4 -12 5 18.31 7.77 1
4 11 -5 3.49 9.55 1
-4 -11 5 29.25 12.48 1
3 11 -5 6.21 4.76 1
-3 -11 5 0 9.68 1
2 11 -5 16 5.03 1
-2 -11 5 35.81 10.73 1
1 11 -5 2.24 4.72 1
-1 -11 5 8.45 8.59 1
0 11 -5 7.18 3.44 1
0 -11 5 16.24 6.24 1
-1 11 -5 27.74 5.89 1
1 -11 5 25.89 9.32 1
-2 11 -5 5.55 5.9 1
2 -11 5 12.3 5.83 1
-3 11 -5 0.64 6.88 1
3 -11 5 6.27 6.64 1
-4 11 -5 7.45 7.86 1
4 -11 5 31.32 9.5 1
-5 11 -5 2.47 8.24 1
5 -11 5 8.83 6.93 1
-6 11 -5 0 11.15 1
6 -11 5 4.63 6.3 1
5 10 -5 14.01 4.65 1
-5 -10 5 22.04 11.29 1
4 10 -5 6.6 4.25 1
-4 -10 5 2.48 10.88 1
3 10 -5 3.15 3.36 1
-3 -10 5 0 8.44 1
2 10 -5 17.24 4.92 1
-2 -10 5 16.27 9.1 1
1 10 -5 0 5.06 1
-1 -10 5 1.5 10.15 1
0 10 -5 5.36 4.86 1
0 -10 5 17.08 4.85 1
-1 10 -5 31.97 4.55 1
1 -10 5 30.07 5.51 1
-2 10 -5 16.59 4.86 1
2 -10 5 20.7 6.18 1
-3 10 -5 1.24 6.14 1
3 -10 5 7.85 5.97 1
-4 10 -5 2.16 4.96 1
4 -10 5 17.56 7.09 1
-5 10 -5 3.9 5.86 1
5 -10 5 4.79 6.6 1
-6 10 -5 4.98 8.93 1
6 -10 5 9.47 7.82 1
-7 10 -5 1.11 7.74 1
7 -10 5 8.38 8.75 1
6 9 -5 6.7 5.52 1
-6 -9 5 0.22 7.52 1
5 9 -5 14.35 5.76 1
-5 -9 5 0.64 10.55 1
4 9 -5 8.35 5 1
-4 -9 5 12.1 10.19 1
3 9 -5 5.12 3.8 1
-3 -9 5 2.49 9.6 1
2 9 -5 13.99 4.96 1
-2 -9 5 7.75 8.95 1
1 9 -5 28.49 3.74 1
-1 -9 5 32.54 7.91 1
0 9 -5 10.13 3.61 1
0 -9 5 11.11 5.13 1
-1 9 -5 9 3.89 1
1 -9 5 4.77 8.63 1
-2 9 -5 11.47 3.91 1
2 -9 5 3.11 6.19 1
-3 9 -5 11.09 4.25 1
3 -9 5 13.15 6.71 1
-4 9 -5 0.57 5.06 1
4 -9 5 9.73 4.7 1
-5 9 -5 12.69 4.96 1
5 -9 5 26.14 6.22 1
-6 9 -5 2.98 5.1 1
6 -9 5 4.96 7.8 1
-7 9 -5 4.89 7.74 1
7 -9 5 3.87 7.73 1
-8 9 -5 11.4 7.7 1
8 -9 5 26.25 8.82 1
7 8 -5 14.09 5.65 1
-7 -8 5 10.27 4.18 1
6 8 -5 5.35 5.25 1
-6 -8 5 3.59 3.52 1
5 8 -5 2.23 5.1 1
-5 -8 5 2.69 6.54 1
4 8 -5 26.28 6.65 1
-4 -8 5 23.56 10.46 1
3 8 -5 2.06 4.72 1
-3 -8 5 6.67 7.31 1
2 8 -5 4.91 3.48 1
-2 -8 5 6.92 7.12 1
1 8 -5 65.54 3.75 1
-1 -8 5 68.86 8.57 1
0 8 -5 10.11 2.98 1
0 -8 5 13.04 4.46 1
-1 8 -5 21.25 3.61 1
1 -8 5 25.2 4.95 1
-2 8 -5 102.35 4.64 1
2 -8 5 80.3 7.54 1
-3 8 -5 0.24 5.13 1
3 -8 5 10.93 5.03 1
-4 8 -5 18.64 6.02 1
4 -8 5 18.77 5.49 1
-5 8 -5 22.95 6.23 1
5 -8 5 22.6 7.24 1
-6 8 -5 3.61 6.53 1
6 -8 5 8.13 7.5 1
-7 8 -5 18.45 5.32 1
7 -8 5 8.55 8.08 1
-8 8 -5 7.04 7.29 1
8 -8 5 18.71 8.04 1
8 7 -5 0 6.64 1
-8 -7 5 8.53 6.16 1
7 7 -5 91.39 38.86 1
-7 -7 5 13.59 5.13 1
6 7 -5 12.33 6.23 1
-6 -7 5 4.64 4.79 1
5 7 -5 9.28 4.81 1
-5 -7 5 0 6.49 1
4 7 -5 46.27 5.72 1
-4 -7 5 32.86 5.77 1
3 7 -5 9.93 4.08 1
-3 -7 5 11.39 4.89 1
2 7 -5 9.57 3.98 1
-2 -7 5 6.28 5.82 1
1 7 -5 90.99 3.48 1
-1 -7 5 102.34 6.04 1
0 7 -5 51.57 2.9 1
0 -7 5 61.95 5.49 1
-1 7 -5 4.96 2.55 1
1 -7 5 2.64 4.14 1
-2 7 -5 80.96 3.86 1
2 -7 5 67.27 5.92 1
-3 7 -5 41.46 4.72 1
3 -7 5 47.89 5.23 1
-4 7 -5 26.33 8.17 1
4 -7 5 23.85 6.01 1
-5 7 -5 8.5 5.86 1
5 -7 5 13.94 8.14 1
-6 7 -5 14.89 6.72 1
6 -7 5 24.41 6.43 1
-7 7 -5 6.08 6.92 1
7 -7 5 14.51 7.73 1
-8 7 -5 9.95 6.82 1
8 -7 5 0 8.57 1
-9 7 -5 20.81 9.26 1
9 -7 5 17.85 5.77 1
8 6 -5 8.25 6.31 1
-8 -6 5 3.07 5.66 1
7 6 -5 9.84 5.98 1
-7 -6 5 6.8 5.57 1
6 6 -5 21.19 5.69 1
-6 -6 5 27.66 5.88 1
5 6 -5 1.78 4.65 1
-5 -6 5 1.4 5.3 1
4 6 -5 47.62 5.51 1
-4 -6 5 39.76 5.7 1
3 6 -5 34.06 3.81 1
-3 -6 5 37.32 5.18 1
2 6 -5 7.16 2.77 1
-2 -6 5 12.96 4.55 1
1 6 -5 77.47 3.21 1
-1 -6 5 77.44 5.16 1
0 6 -5 288.72 5.56 1
0 -6 5 283.44 8.92 1
-1 6 -5 19.33 2.44 1
1 -6 5 18.65 4.25 1
-2 6 -5 16.1 2.83 1
2 -6 5 20.34 4.89 1
-3 6 -5 162.14 5.97 1
3 -6 5 166.22 7.14 1
-4 6 -5 3.58 4.28 1
4 -6 5 9.64 5.29 1
-5 6 -5 4.75 6.39 1
5 -6 5 11.82 6.77 1
-6 6 -5 30.29 6.73 1
6 -6 5 55.08 5.98 1
-7 6 -5 4.41 5.92 1
7 -6 5 2.7 5.51 1
-8 6 -5 4.89 5.98 1
8 -6 5 7.4 10.26 1
-9 6 -5 25.89 9.47 1
9 -6 5 28.45 11.22 1
9 5 -5 10.99 6.81 1
-9 -5 5 14.81 8.24 1
8 5 -5 4.76 5.93 1
-8 -5 5 10.05 6.57 1
7 5 -5 5.55 5.77 1
-7 -5 5 5.59 4.99 1
6 5 -5 24.78 5.64 1
-6 -5 5 55.6 5.77 1
5 5 -5 8.01 5.03 1
-5 -5 5 6.56 5.78 1
4 5 -5 4.58 4.18 1
-4 -5 5 3.65 4.81 1
3 5 -5 106.86 4.59 1
-3 -5 5 113.6 5.8 1
2 5 -5 4.24 2.28 1
-2 -5 5 7.55 3.25 1
1 5 -5 26.16 2.03 1
-1 -5 5 29.52 3.64 1
0 5 -5 578.38 8.74 1
0 -5 5 580.62 13.72 1
-1 5 -5 3.13 2.04 1
1 -5 5 1.8 3.41 1
-2 5 -5 7.81 2.67 1
2 -5 5 10.19 3.3 1
-3 5 -5 121.54 4.64 1
3 -5 5 138.12 6.13 1
-4 5 -5 18.94 3.87 1
4 -5 5 24.48 5.02 1
-5 5 -5 22.74 4.49 1
5 -5 5 25.13 4.25 1
-6 5 -5 27.62 5.94 1
6 -5 5 9.77 4.85 1
-7 5 -5 6.28 5.18 1
7 -5 5 8.2 6.81 1
-8 5 -5 5.36 5.82 1
8 -5 5 2.31 7.3 1
-9 5 -5 12.53 6.13 1
9 -5 5 4.28 8.14 1
9 4 -5 27.34 8.43 1
-9 -4 5 13.22 5.86 1
8 4 -5 3.22 6.65 1
-8 -4 5 0 8.89 1
7 4 -5 12.76 4.68 1
-7 -4 5 4.7 5.68 1
6 4 -5 183.7 7.86 1
-6 -4 5 169.59 8.31 1
5 4 -5 48.15 4.34 1
-5 -4 5 49.08 5.23 1
4 4 -5 4.74 2.99 1
-4 -4 5 4.49 3.85 1
3 4 -5 148.1 4.3 1
-3 -4 5 145.02 5.85 1
2 4 -5 4.95 1.9 1
-2 -4 5 7.97 2.69 1
1 4 -5 9.38 1.9 1
-1 -4 5 9.81 3.19 1
0 4 -5 202.51 3.94 1
0 -4 5 206.97 5.5 1
-1 4 -5 80.79 3.46 1
1 -4 5 84.18 5.66 1
-2 4 -5 17.26 3.07 1
2 -4 5 15.97 3.28 1
-3 4 -5 33.92 2.96 1
3 -4 5 40.98 3.85 1
-4 4 -5 25.38 3.36 1
4 -4 5 34.01 4.45 1
-5 4 -5 37.17 3.79 1
5 -4 5 56.47 5.25 1
-6 4 -5 1.51 4.17 1
6 -4 5 2.36 5.11 1
-7 4 -5 6.3 5.28 1
7 -4 5 4.23 5.27 1
-8 4 -5 6.26 6.21 1
8 -4 5 0 9.89 1
-9 4 -5 10.6 8.83 1
9 -4 5 5.21 12.83 1
10 3 -5 0.21 7.12 1
-10 -3 5 2.17 11.1 1
9 3 -5 29.98 12.57 1
-9 -3 5 25.32 9.78 1
8 3 -5 4.92 5.59 1
-8 -3 5 10.94 7.35 1
7 3 -5 18.07 5.89 1
-7 -3 5 6.69 4.91 1
6 3 -5 80.83 5.51 1
-6 -3 5 73.67 6.47 1
5 3 -5 141.86 6.2 1
-5 -3 5 115.32 6.16 1
4 3 -5 6.83 2.87 1
-4 -3 5 5.05 3.22 1
3 3 -5 114.43 4.13 1
-3 -3 5 111.58 5.12 1
2 3 -5 202.87 4.95 1
-2 -3 5 202.48 4.85 1
1 3 -5 23.74 3.04 1
-1 -3 5 26.47 3.32 1
0 3 -5 82.63 2.89 1
0 -3 5 92.56 4.74 1
-1 3 -5 244.18 5.33 1
1 -3 5 250.82 6.5 1
-2 3 -5 3.1 2.05 1
2 -3 5 3.78 3.02 1
-3 3 -5 29.51 2.7 1
3 -3 5 35.37 2.95 1
-4 3 -5 78.88 3.88 1
4 -3 5 95.49 5.49 1
-5 3 -5 5.13 3.34 1
5 -3 5 5.87 4.59 1
-6 3 -5 3.88 6.4 1
6 -3 5 8.4 6.63 1
-7 3 -5 15.39 8.02 1
7 -3 5 4.88 7.04 1
-8 3 -5 19.19 7.03 1
8 -3 5 2.94 7.22 1
-9 3 -5 8.74 10.41 1
9 -3 5 4.35 8.62 1
10 2 -5 1.65 6.13 1
-10 -2 5 17.19 8.45 1
9 2 -5 2.76 5.91 1
-9 -2 5 0 6.79 1
8 2 -5 16.94 5.65 1
-8 -2 5 16.02 6.02 1
7 2 -5 14.55 5.82 1
-7 -2 5 6.72 5.42 1
6 2 -5 11.89 5.33 1
-6 -2 5 9.68 4.75 1
5 2 -5 160.22 6.62 1
-5 -2 5 156.08 5.51 1
4 2 -5 16.81 3.44 1
-4 -2 5 13.55 3.34 1
3 2 -5 44.24 4.23 1
-3 -2 5 35.02 3.43 1
2 2 -5 204.58 6.46 1
-2 -2 5 205.31 5.23 1
1 2 -5 39.15 2.57 1
-1 -2 5 37.16 1.74 1
0 2 -5 29.06 2.08 1
0 -2 5 33.84 2.6 1
-1 2 -5 369.08 6.41 1
1 -2 5 355.93 9.21 1
-2 2 -5 19.33 1.79 1
2 -2 5 20.99 3.6 1
-3 2 -5 2.11 1.86 1
3 -2 5 2.12 2.38 1
-4 2 -5 53.89 4.44 1
4 -2 5 62.76 4.69 1
-5 2 -5 9.19 7.24 1
5 -2 5 11.73 5 1
-6 2 -5 34.24 6.84 1
6 -2 5 22.04 5.68 1
-7 2 -5 23.56 7.36 1
7 -2 5 15.63 6.37 1
-8 2 -5 16.99 6.84 1
8 -2 5 3.77 7.64 1
-9 2 -5 7.83 5.02 1
9 -2 5 16.31 8.88 1
10 1 -5 3.39 6.66 1
-10 -1 5 18.17 12.39 1
9 1 -5 6.23 6.48 1
-9 -1 5 0 8.62 1
8 1 -5 49.46 6.74 1
-8 -1 5 47.82 7.23 1
7 1 -5 20.66 7.16 1
-7 -1 5 26.08 6.51 1
6 1 -5 15.38 6.08 1
-6 -1 5 12.87 5.54 1
5 1 -5 70.8 6.16 1
-5 -1 5 83.34 6.68 1
4 1 -5 54.28 3.89 1
-4 -1 5 64.27 4.07 1
3 1 -5 17.74 3.16 1
-3 -1 5 19.63 2.65 1
2 1 -5 139.98 4.85 1
-2 -1 5 144.27 4.11 1
1 1 -5 68.85 3 1
-1 -1 5 61.52 2.99 1
0 1 -5 7.52 1.81 1
0 -1 5 5.92 1.48 1
-1 1 -5 194.56 5.06 1
1 -1 5 197.78 5.74 1
-2 1 -5 129.76 5.52 1
2 -1 5 145.89 4.97 1
-3 1 -5 1.26 4.23 1
3 -1 5 7.38 3.68 1
-4 1 -5 9.62 4.6 1
4 -1 5 12.12 4.25 1
-5 1 -5 58.38 6.56 1
5 -1 5 57.72 5.91 1
-6 1 -5 15.56 3.92 1
6 -1 5 8.93 5.27 1
-7 1 -5 3.9 5.23 1
7 -1 5 5.41 6.18 1
-8 1 -5 8.9 5.11 1
8 -1 5 7.62 5.73 1
10 0 -5 0 12.7 1
-10 0 5 19.81 17.67 1
9 0 -5 15.78 12.21 1
-9 0 5 26.32 10.77 1
8 0 -5 8.38 8.1 1
-8 0 5 24.58 7.13 1
7 0 -5 49.38 9.65 1
-7 0 5 45.45 5.66 1
6 0 -5 12.71 6.6 1
-6 0 5 4.94 5.16 1
5 0 -5 22 5.17 1
-5 0 5 24.48 5.3 1
4 0 -5 118.92 6.89 1
-4 0 5 110.58 6.07 1
3 0 -5 11.82 3.87 1
-3 0 5 3.53 3.19 1
2 0 -5 29.6 3.7 1
-2 0 5 27.51 3.16 1
1 0 -5 129.73 4.68 1
-1 0 5 119.23 4.39 1
0 0 -5 42.78 2.84 1
0 0 5 41.87 2.32 1
-1 0 -5 32.21 3.71 1
1 0 5 28.99 3.57 1
-2 0 -5 350.11 8.49 1
2 0 5 351.18 9.21 1
-3 0 -5 2.37 4.99 1
3 0 5 2.14 4.31 1
-4 0 -5 3.23 4.84 1
4 0 5 1.63 3.33 1
-5 0 -5 41.52 5.03 1
5 0 5 42.48 6.15 1
-6 0 -5 8.01 3.57 1
6 0 5 0.25 5.09 1
-7 0 -5 2.43 5.71 1
7 0 5 0.53 5.89 1
-8 0 -5 8.92 7 1
8 0 5 4.31 6.52 1
10 -1 -5 0 28.65 1
-10 1 5 17.04 9.39 1
9 -1 -5 0.63 8.8 1
-9 1 5 6.14 9.35 1
8 -1 -5 8.67 7.18 1
-8 1 5 11.99 6.25 1
7 -1 -5 61.52 7.61 1
-7 1 5 62.55 7.15 1
6 -1 -5 12.16 7.43 1
-6 1 5 2.86 7.86 1
5 -1 -5 14.62 9.15 1
-5 1 5 0 7.33 1
4 -1 -5 299.75 13.66 1
-4 1 5 272.94 12.58 1
3 -1 -5 18.03 6.58 1
-3 1 5 15.82 5.64 1
2 -1 -5 21.19 3.67 1
-2 1 5 18.53 3.87 1
1 -1 -5 174.21 5.42 1
-1 1 5 167.07 5.45 1
0 -1 -5 16.55 4.31 1
0 1 5 15.64 2.7 1
-1 -1 -5 34.15 4.64 1
1 1 5 28.31 2.65 1
-2 -1 -5 104.17 5.38 1
2 1 5 105.82 3.54 1
-3 -1 -5 9.18 4.82 1
3 1 5 4.77 2.97 1
-4 -1 -5 7.84 5.84 1
4 1 5 10.59 4.36 1
-5 -1 -5 15.57 5.54 1
5 1 5 17.99 6.21 1
-6 -1 -5 7.22 5.27 1
6 1 5 4.4 4.89 1
-7 -1 -5 6.77 6.99 1
7 1 5 7.24 7.06 1
-8 -1 -5 10.6 7.2 1
8 1 5 11.18 6.17 1
10 -2 -5 10.3 9.13 1
-10 2 5 12.44 8.55 1
9 -2 -5 0 8.89 1
-9 2 5 6.57 8.44 1
8 -2 -5 7.29 10.86 1
-8 2 5 15.07 10.81 1
7 -2 -5 79.5 11.83 1
-7 2 5 76.73 12.24 1
6 -2 -5 37.06 11.57 1
-6 2 5 11.31 10.96 1
5 -2 -5 17.72 9.55 1
-5 2 5 5.7 10.79 1
4 -2 -5 154.05 12.62 1
-4 2 5 156.5 10.28 1
3 -2 -5 38.58 5.03 1
-3 2 5 33.67 5.42 1
2 -2 -5 3.23 4.79 1
-2 2 5 1.5 3.63 1
1 -2 -5 57.97 5.69 1
-1 2 5 51.98 5.03 1
0 -2 -5 41.6 4.42 1
0 2 5 36.96 3.59 1
-1 -2 -5 8.38 5.18 1
1 2 5 6.17 3.42 1
-2 -2 -5 51.44 6.01 1
2 2 5 56.23 7.08 1
-3 -2 -5 17.15 6.35 1
3 2 5 13.11 9.14 1
-4 -2 -5 1.45 6.88 1
4 2 5 12.06 8.36 1
-5 -2 -5 4.02 5.06 1
5 2 5 3.23 4.51 1
-6 -2 -5 6.98 5.2 1
6 2 5 6.81 4.61 1
-7 -2 -5 10.31 6.54 1
7 2 5 11.87 7.55 1
10 -3 -5 11.75 9.78 1
-10 3 5 20.22 11.23 1
9 -3 -5 6.99 10.57 1
-9 3 5 9.62 11.51 1
8 -3 -5 11.34 9.63 1
-8 3 5 30.19 12.35 1
7 -3 -5 21.31 10.24 1
-7 3 5 24.65 13.01 1
6 -3 -5 32.52 9.92 1
-6 3 5 28.91 13.01 1
5 -3 -5 4.44 7.6 1
-5 3 5 10.51 8.94 1
4 -3 -5 30.03 6.26 1
-4 3 5 23.25 8.11 1
3 -3 -5 62.24 6.69 1
-3 3 5 50.07 6.98 1
2 -3 -5 1.52 5.9 1
-2 3 5 1.62 6.56 1
1 -3 -5 12.17 4.91 1
-1 3 5 4.18 4.63 1
0 -3 -5 63.49 5.98 1
0 3 5 67.29 7.14 1
-1 -3 -5 4.29 9.78 1
1 3 5 1.82 8.42 1
-2 -3 -5 10.07 7.98 1
2 3 5 7.46 5.93 1
-3 -3 -5 26.48 5.86 1
3 3 5 16.9 5.76 1
-4 -3 -5 0.28 5.03 1
4 3 5 0.13 4.19 1
-5 -3 -5 0.5 4.38 1
5 3 5 3.31 4.32 1
-6 -3 -5 6.84 5.38 1
6 3 5 7.76 5.24 1
-7 -3 -5 7.49 6.94 1
7 3 5 7.86 8.81 1
9 -4 -5 6.21 11.58 1
-9 4 5 17.67 18.65 1
8 -4 -5 11.38 8.53 1
-8 4 5 3.3 10.57 1
7 -4 -5 9.63 7.53 1
-7 4 5 3.55 9.09 1
6 -4 -5 22 7.34 1
-6 4 5 25.55 8.88 1
5 -4 -5 3.82 6.92 1
-5 4 5 6.86 7.49 1
4 -4 -5 8.17 7.03 1
-4 4 5 2.31 7.51 1
3 -4 -5 37.18 8.91 1
-3 4 5 18.9 8.37 1
2 -4 -5 2.04 10.1 1
-2 4 5 0.7 8.01 1
1 -4 -5 11.81 7.61 1
-1 4 5 18.87 10.16 1
0 -4 -5 30.22 6.26 1
0 4 5 32.13 7.87 1
-1 -4 -5 0.99 5.27 1
1 4 5 6.09 7.27 1
-2 -4 -5 4.19 4.49 1
2 4 5 13.17 5.29 1
-3 -4 -5 3.19 4.12 1
3 4 5 17.12 5.04 1
-4 -4 -5 4.46 6.21 1
4 4 5 11.53 5.08 1
-5 -4 -5 3.2 6.63 1
5 4 5 1.8 5.08 1
-6 -4 -5 7.18 6.51 1
6 4 5 7.53 6.63 1
9 -5 -5 26.76 10.4 1
-9 5 5 8.95 12.2 1
8 -5 -5 13.68 9.08 1
-8 5 5 0 14.73 1
7 -5 -5 11.54 7.08 1
-7 5 5 7.51 8.99 1
6 -5 -5 10.4 6.85 1
-6 5 5 7.46 8.5 1
5 -5 -5 7.69 6.74 1
-5 5 5 5.34 7.36 1
4 -5 -5 7.22 11.53 1
-4 5 5 1.93 7.92 1
3 -5 -5 12.63 11.91 1
-3 5 5 16.43 8.4 1
2 -5 -5 5.62 7.43 1
-2 5 5 2.27 9.45 1
1 -5 -5 3.86 6.03 1
-1 5 5 4.84 7.18 1
0 -5 -5 7.16 5.82 1
0 5 5 8.73 6.97 1
-1 -5 -5 19.54 5.75 1
1 5 5 7.38 7.75 1
-2 -5 -5 3.5 6.35 1
2 5 5 2.88 5.52 1
-3 -5 -5 2.09 6.23 1
3 5 5 11.3 5.39 1
-4 -5 -5 5.79 8.33 1
4 5 5 5.18 5.92 1
-5 -5 -5 0 6.52 1
5 5 5 5.17 5.28 1
8 -6 -5 9.47 7.74 1
-8 6 5 7.64 9.6 1
7 -6 -5 10.8 9.71 1
-7 6 5 19.86 17.02 1
6 -6 -5 3.6 9.51 1
-6 6 5 1.43 7.66 1
5 -6 -5 19.35 15.66 1
-5 6 5 20.07 6.88 1
4 -6 -5 8.74 11.35 1
-4 6 5 1.18 6.7 1
3 -6 -5 3.68 7.5 1
-3 6 5 6.79 6.6 1
2 -6 -5 14 6.78 1
-2 6 5 14.55 9.34 1
1 -6 -5 3.64 6.31 1
-1 6 5 1.15 6.59 1
0 -6 -5 3.94 6.34 1
0 6 5 6.38 6.61 1
-1 -6 -5 4.59 6.54 1
1 6 5 12.69 8.38 1
-2 -6 -5 3.59 6.37 1
2 6 5 1.29 5.97 1
-3 -6 -5 0.84 6.32 1
3 6 5 5.11 8.06 1
-4 -6 -5 6.88 7 1
4 6 5 12.36 6.78 1
7 -7 -5 1.21 16.25 1
-7 7 5 7.32 9.11 1
6 -7 -5 0 12.45 1
-6 7 5 0.19 6.37 1
5 -7 -5 13.57 12.44 1
-5 7 5 14.34 8.57 1
4 -7 -5 8.97 11.36 1
-4 7 5 5.93 6.99 1
3 -7 -5 4.23 6.75 1
-3 7 5 7.47 8.28 1
2 -7 -5 21.95 7.3 1
-2 7 5 17.28 10.14 1
1 -7 -5 5.62 5.6 1
-1 7 5 3.21 8.79 1
0 -7 -5 1.34 5.99 1
0 7 5 3.82 8.05 1
-1 -7 -5 4.83 6.99 1
1 7 5 6.4 6.66 1
-2 -7 -5 4.38 6.79 1
2 7 5 6.33 8.45 1
6 -8 -5 27.93 18.63 1
-6 8 5 9.46 9.22 1
5 -8 -5 15.38 13.71 1
-5 8 5 5.29 6.87 1
4 -8 -5 7.42 11.37 1
-4 8 5 10.64 7.67 1
3 -8 -5 7.43 7.14 1
-3 8 5 3.88 9.68 1
2 -8 -5 3.05 7.63 1
-2 8 5 5.59 10.19 1
1 -8 -5 0.62 7.59 1
-1 8 5 3.33 7.7 1
0 -8 -5 0.7 8.15 1
0 8 5 2.86 9.55 1
-1 -8 -5 0.5 6.77 1
1 8 5 4.92 6.83 1
2 12 -6 7.64 5.31 1
-2 -12 6 0.56 9.78 1
1 12 -6 6.44 5.56 1
-1 -12 6 3.05 9.55 1
0 12 -6 8.81 4.18 1
0 -12 6 0 8.65 1
-1 12 -6 25.47 5.1 1
1 -12 6 36.25 11.65 1
-2 12 -6 10.23 5.55 1
2 -12 6 5.28 6.54 1
-3 12 -6 8.56 5.77 1
3 -12 6 10.64 7.44 1
-4 12 -6 25.83 5.72 1
4 -12 6 13.99 7.32 1
4 11 -6 7.11 6.02 1
-4 -11 6 6.4 10.83 1
3 11 -6 8.08 4.97 1
-3 -11 6 9.2 9.27 1
2 11 -6 5.58 5.41 1
-2 -11 6 13.81 8.34 1
1 11 -6 4.18 4.8 1
-1 -11 6 5.35 8.6 1
0 11 -6 9.32 3.74 1
0 -11 6 5.05 8.41 1
-1 11 -6 27.67 6.86 1
1 -11 6 30.65 8.13 1
-2 11 -6 12.23 4.94 1
2 -11 6 19.19 6.94 1
-3 11 -6 5.5 4.72 1
3 -11 6 0.16 6.96 1
-4 11 -6 17.62 4.74 1
4 -11 6 12.75 7.81 1
-5 11 -6 0 5.51 1
5 -11 6 2.28 6.78 1
-6 11 -6 0 8.84 1
6 -11 6 5.63 8.73 1
5 10 -6 9.41 5.71 1
-5 -10 6 11.52 10.39 1
4 10 -6 8.94 4.6 1
-4 -10 6 0 13.86 1
3 10 -6 5.58 3.54 1
-3 -10 6 11.96 8.4 1
2 10 -6 9.36 4.4 1
-2 -10 6 10.34 8.53 1
1 10 -6 12.56 4.17 1
-1 -10 6 16.07 7.61 1
0 10 -6 8.64 3.41 1
0 -10 6 4.33 7.41 1
-1 10 -6 13.2 3.59 1
1 -10 6 11.83 6.22 1
-2 10 -6 39.45 4.04 1
2 -10 6 41.84 7.07 1
-3 10 -6 3.62 5.13 1
3 -10 6 1.64 6.36 1
-4 10 -6 1.87 5.09 1
4 -10 6 3.24 6.51 1
-5 10 -6 13.55 6.08 1
5 -10 6 23.11 6.92 1
-6 10 -6 1.88 6.26 1
6 -10 6 4.39 8.18 1
-7 10 -6 6.38 7.09 1
7 -10 6 10.84 8.17 1
6 9 -6 2.39 5.4 1
-6 -9 6 10.72 11.16 1
5 9 -6 6.71 7.08 1
-5 -9 6 9.27 11.16 1
4 9 -6 29.27 6.38 1
-4 -9 6 32.97 10.14 1
3 9 -6 4.35 4.81 1
-3 -9 6 0 7.48 1
2 9 -6 5.51 3.36 1
-2 -9 6 3.88 6.71 1
1 9 -6 25.41 3.39 1
-1 -9 6 35.65 7.95 1
0 9 -6 2.43 3.45 1
0 -9 6 3.28 7.26 1
-1 9 -6 9.49 4 1
1 -9 6 12.51 6.93 1
-2 9 -6 34.89 3.66 1
2 -9 6 21.72 6.33 1
-3 9 -6 11.12 7.05 1
3 -9 6 5.87 6.17 1
-4 9 -6 6.51 5.29 1
4 -9 6 2.05 6.07 1
-5 9 -6 30.8 6.23 1
5 -9 6 28.99 6.29 1
-6 9 -6 10.88 7.44 1
6 -9 6 12.73 7.49 1
-7 9 -6 5.5 6.7 1
7 -9 6 2.52 7.69 1
7 8 -6 18.35 6.63 1
-7 -8 6 10.04 5.16 1
6 8 -6 8.51 6.81 1
-6 -8 6 7.52 5.47 1
5 8 -6 4.68 5.8 1
-5 -8 6 6.58 8.96 1
4 8 -6 19.56 5.17 1
-4 -8 6 8.87 7.2 1
3 8 -6 6.85 4.03 1
-3 -8 6 7.74 6.67 1
2 8 -6 7.32 3.63 1
-2 -8 6 10.18 5.97 1
1 8 -6 25.61 2.48 1
-1 -8 6 35.66 5.98 1
0 8 -6 41.53 2.87 1
0 -8 6 49.13 8.04 1
-1 8 -6 5.3 3.15 1
1 -8 6 2.9 6.19 1
-2 8 -6 95.73 4.7 1
2 -8 6 79.72 6.96 1
-3 8 -6 75.04 6.8 1
3 -8 6 72.02 7.66 1
-4 8 -6 1.99 5.89 1
4 -8 6 1 5.84 1
-5 8 -6 22.81 6.33 1
5 -8 6 20.74 5.57 1
-6 8 -6 27.26 7.11 1
6 -8 6 10.36 6.99 1
-7 8 -6 15.51 8.32 1
7 -8 6 15.87 9.75 1
-8 8 -6 5.73 7.08 1
8 -8 6 6.64 7.82 1
8 7 -6 4.95 6.15 1
-8 -7 6 9.5 5.79 1
7 7 -6 8.32 6.58 1
-7 -7 6 5.14 5.52 1
6 7 -6 7.21 5.4 1
-6 -7 6 5.15 6.49 1
5 7 -6 3.11 5.28 1
-5 -7 6 3.13 5.78 1
4 7 -6 18.3 5.04 1
-4 -7 6 15.4 5.73 1
3 7 -6 21.29 4.53 1
-3 -7 6 16.27 6.85 1
2 7 -6 6.67 3.89 1
-2 -7 6 14.56 5.81 1
1 7 -6 14.33 2.59 1
-1 -7 6 11.67 5.43 1
0 7 -6 104.97 3.95 1
0 -7 6 104.76 6.71 1
-1 7 -6 15.06 3.04 1
1 -7 6 12.1 5.52 1
-2 7 -6 19.2 3.73 1
2 -7 6 28.67 6.23 1
-3 7 -6 155.58 8.3 1
3 -7 6 165.29 8.75 1
-4 7 -6 5.8 5.2 1
4 -7 6 8.43 5.76 1
-5 7 -6 4.6 6.19 1
5 -7 6 15.22 6.79 1
-6 7 -6 60.89 7.71 1
6 -7 6 73.58 7.35 1
-7 7 -6 7.15 6.78 1
7 -7 6 6.85 6.63 1
-8 7 -6 8.19 7.55 1
8 -7 6 0 6.41 1
8 6 -6 5.19 6.06 1
-8 -6 6 7.03 7.36 1
7 6 -6 2.11 5.56 1
-7 -6 6 6.5 5.86 1
6 6 -6 19.06 5.97 1
-6 -6 6 32.59 6.85 1
5 6 -6 3.82 5.33 1
-5 -6 6 3.9 6.77 1
4 6 -6 7.91 4.56 1
-4 -6 6 2.09 6.16 1
3 6 -6 57.39 4.56 1
-3 -6 6 60.89 5.46 1
2 6 -6 23.74 2.21 1
-2 -6 6 23.46 5.22 1
1 6 -6 3.4 2.33 1
-1 -6 6 3.44 4.45 1
0 6 -6 197.85 4.34 1
0 -6 6 196.1 7.95 1
-1 6 -6 3.45 2.98 1
1 -6 6 6.41 4.28 1
-2 6 -6 2.68 3.61 1
2 -6 6 2.53 5.89 1
-3 6 -6 189.18 7.29 1
3 -6 6 162.3 10.52 1
-4 6 -6 54.81 4.93 1
4 -6 6 61.67 6.65 1
-5 6 -6 5.62 4.76 1
5 -6 6 1.78 5.94 1
-6 6 -6 79.85 7.76 1
6 -6 6 69.93 6.67 1
-7 6 -6 14.28 7.67 1
7 -6 6 2.9 6.16 1
-8 6 -6 2.89 6.82 1
8 -6 6 0 7.23 1
9 5 -6 22.71 7.37 1
-9 -5 6 25.34 7.94 1
8 5 -6 5.14 8.89 1
7 5 -6 4.09 5.58 1
-7 -5 6 3.35 6.38 1
6 5 -6 27.72 4.27 1
-6 -5 6 26.72 7.03 1
5 5 -6 3.79 5.22 1
-5 -5 6 3.68 6.04 1
4 5 -6 21.33 5.84 1
-4 -5 6 25.49 5.01 1
3 5 -6 86.83 4.17 1
-3 -5 6 90.7 5.53 1
2 5 -6 3.24 2.31 1
-2 -5 6 3.17 3.81 1
1 5 -6 19.85 2.17 1
-1 -5 6 12.75 4.13 1
0 5 -6 125.56 3.15 1
0 -5 6 127.49 5.76 1
-1 5 -6 66.22 3.34 1
1 -5 6 64.83 5.06 1
-2 5 -6 16.29 3.27 1
2 -5 6 11.61 4.23 1
-3 5 -6 59.43 3.64 1
3 -5 6 58.3 5.11 1
-4 5 -6 101.6 5.13 1
4 -5 6 92.12 6.58 1
-5 5 -6 3.59 4.45 1
5 -5 6 4.78 4.78 1
-6 5 -6 44.4 4.61 1
6 -5 6 14.31 5.61 1
-7 5 -6 32.65 7.03 1
7 -5 6 6.19 8.5 1
-8 5 -6 17.87 6.18 1
8 -5 6 0 9.73 1
9 4 -6 13.13 8.59 1
-9 -4 6 7.45 8.45 1
8 4 -6 1.49 5.67 1
-8 -4 6 0.75 6.51 1
7 4 -6 8.48 4.05 1
-7 -4 6 9.63 4.98 1
6 4 -6 70.62 7.65 1
-6 -4 6 79.12 7.58 1
5 4 -6 62.24 5.01 1
-5 -4 6 65.58 6.15 1
4 4 -6 7.76 3.47 1
-4 -4 6 9.9 4.43 1
3 4 -6 66.19 3.98 1
-3 -4 6 71.76 4.69 1
2 4 -6 69.86 3.51 1
-2 -4 6 71.6 3.65 1
1 4 -6 50.11 3.83 1
-1 -4 6 59.13 4.18 1
0 4 -6 4 2.52 1
0 -4 6 4.87 2.71 1
-1 4 -6 116.13 3.59 1
1 -4 6 125.33 5.24 1
-2 4 -6 2.07 2.32 1
2 -4 6 7.01 4 1
-3 4 -6 8.85 2.8 1
3 -4 6 4.31 2.82 1
-4 4 -6 55.45 4.58 1
4 -4 6 60.67 4.08 1
-5 4 -6 1.55 3.6 1
5 -4 6 0 4.86 1
-6 4 -6 4.03 4.4 1
6 -4 6 0 5.84 1
-7 4 -6 26.79 4.86 1
7 -4 6 19.75 6.95 1
-8 4 -6 5.31 7.53 1
8 -4 6 6.81 7.26 1
9 3 -6 0 6.9 1
-9 -3 6 17.33 6.63 1
8 3 -6 12.47 5.74 1
-8 -3 6 12.93 5.74 1
7 3 -6 5.48 5.43 1
-7 -3 6 5.94 5.43 1
6 3 -6 7.01 4.7 1
-6 -3 6 0 6.13 1
5 3 -6 63.92 5.83 1
-5 -3 6 66.02 6.62 1
4 3 -6 5.93 5.61 1
-4 -3 6 0.23 5.12 1
3 3 -6 18.85 4.43 1
-3 -3 6 17.71 4.11 1
2 3 -6 235.66 9.06 1
-2 -3 6 237.06 6.14 1
1 3 -6 21.48 2.86 1
-1 -3 6 19.63 3.29 1
0 3 -6 2.33 2.13 1
0 -3 6 6.04 3.4 1
-1 3 -6 123.91 4.22 1
1 -3 6 125.66 4.84 1
-2 3 -6 17.74 2.11 1
2 -3 6 29.3 3.6 1
-3 3 -6 3.75 2.45 1
3 -3 6 4.3 2.93 1
-4 3 -6 63.72 4.63 1
4 -3 6 68.1 4.21 1
-5 3 -6 32.73 6.91 1
5 -3 6 23.37 5.04 1
-6 3 -6 0 6.23 1
6 -3 6 3.41 4.88 1
-7 3 -6 17.66 6.57 1
7 -3 6 38.35 7.77 1
-8 3 -6 14.2 7.23 1
8 -3 6 1.87 7.38 1
10 2 -6 2.06 7.7 1
-10 -2 6 16.37 8.11 1
9 2 -6 3.6 12.67 1
-9 -2 6 7.68 6.54 1
8 2 -6 20.54 5.8 1
-8 -2 6 35.92 5.24 1
7 2 -6 3.56 6.35 1
-7 -2 6 13.22 5.09 1
6 2 -6 7.48 6.71 1
-6 -2 6 14.09 5.06 1
5 2 -6 52.46 8.26 1
-5 -2 6 40.49 5.43 1
4 2 -6 34.17 5.79 1
-4 -2 6 14.21 6.77 1
3 2 -6 5.24 3.16 1
-3 -2 6 1.57 3.25 1
2 2 -6 118.55 4.93 1
-2 -2 6 119.77 3.97 1
1 2 -6 87.74 4.2 1
-1 -2 6 82.04 2.72 1
0 2 -6 13.21 2.46 1
0 -2 6 15.21 3.2 1
-1 2 -6 74.25 6.18 1
1 -2 6 81.03 4.9 1
-2 2 -6 76 5.4 1
2 -2 6 104.16 6.16 1
-3 2 -6 7.54 7.32 1
3 -2 6 1.83 3.25 1
-4 2 -6 10.97 4.54 1
4 -2 6 14.87 3.56 1
-5 2 -6 68.96 6.48 1
5 -2 6 50.72 6.84 1
-6 2 -6 3.26 5.83 1
6 -2 6 4.34 5.64 1
-7 2 -6 14.22 5.5 1
7 -2 6 18.37 5.72 1
-8 2 -6 22.24 6.52 1
8 -2 6 27.98 7.4 1
10 1 -6 3.33 7.94 1
-10 -1 6 22.54 7.46 1
9 1 -6 0 8.76 1
-9 -1 6 13.58 7.8 1
8 1 -6 19.94 7.01 1
-8 -1 6 27.66 7.04 1
7 1 -6 31.44 7.52 1
-7 -1 6 38.56 5.32 1
6 1 -6 20.29 7.06 1
-6 -1 6 7.57 4.89 1
5 1 -6 14.92 5.18 1
-5 -1 6 2.33 4.99 1
4 1 -6 56.96 5.56 1
-4 -1 6 62.91 4.79 1
3 1 -6 10 3.79 1
-3 -1 6 6.99 3.92 1
2 1 -6 48.9 4.07 1
-2 -1 6 46.44 3.26 1
1 1 -6 135.13 6.13 1
-1 -1 6 133.64 4.14 1
0 1 -6 27.72 2.56 1
0 -1 6 25.43 2.37 1
-1 1 -6 8.53 4.05 1
1 -1 6 11 3.31 1
-2 1 -6 183.48 9.15 1
2 -1 6 193.49 7.13 1
-3 1 -6 3.12 9.2 1
3 -1 6 0.53 4.71 1
-4 1 -6 2.89 5.05 1
4 -1 6 3.4 4.61 1
-5 1 -6 43.01 4.28 1
5 -1 6 45.17 4.24 1
-6 1 -6 6.56 4.02 1
6 -1 6 2.43 4.93 1
-7 1 -6 6.82 4.42 1
7 -1 6 9.61 6.48 1
-8 1 -6 20.21 6.69 1
8 -1 6 29.32 7.31 1
10 0 -6 4.82 8.12 1
-10 0 6 39.07 10.16 1
9 0 -6 0.76 10.83 1
-9 0 6 12.55 12.01 1
8 0 -6 3.5 7.14 1
-8 0 6 4.12 4.79 1
7 0 -6 33.71 6.55 1
-7 0 6 35.29 5.73 1
6 0 -6 7.35 6.68 1
-6 0 6 2.75 5.29 1
5 0 -6 14.05 6.33 1
-5 0 6 3.18 7.58 1
4 0 -6 92.39 7.24 1
-4 0 6 96.78 8.51 1
3 0 -6 13.92 4.13 1
-3 0 6 16.96 4.57 1
2 0 -6 2.65 3.9 1
-2 0 6 1.21 3.15 1
1 0 -6 116.8 5.58 1
-1 0 6 109.78 4.53 1
0 0 -6 4.55 4.18 1
0 0 6 2.92 2.11 1
-1 0 -6 8.52 4.44 1
1 0 6 6.32 4.46 1
-2 0 -6 144.77 6.93 1
2 0 6 158.19 7.11 1
-3 0 -6 17.29 6.26 1
3 0 6 18.88 5.1 1
-4 0 -6 2.52 5.52 1
4 0 6 9.36 6.53 1
-5 0 -6 20.05 5.18 1
5 0 6 24.13 3.61 1
-6 0 -6 13.16 5.4 1
6 0 6 20.2 5.68 1
-7 0 -6 6.24 5.31 1
7 0 6 8.95 6.84 1
10 -1 -6 8.18 11.52 1
-10 1 6 16.58 10.68 1
9 -1 -6 4.34 15.73 1
-9 1 6 16.94 10.78 1
8 -1 -6 1.14 8.7 1
-8 1 6 8.59 6.92 1
7 -1 -6 62.48 10.56 1
-7 1 6 82.04 12.13 1
6 -1 -6 33.9 11.27 1
-6 1 6 19.21 14.05 1
5 -1 -6 8.95 10.14 1
-5 1 6 1.22 10.19 1
4 -1 -6 111.82 7.59 1
-4 1 6 122.84 8.82 1
3 -1 -6 16.34 5.27 1
-3 1 6 11.71 5.67 1
2 -1 -6 0.8 4.38 1
-2 1 6 1.47 3.61 1
1 -1 -6 70.88 5.2 1
-1 1 6 68.18 3.96 1
0 -1 -6 34.57 4.67 1
0 1 6 26.06 3.12 1
-1 -1 -6 32.29 5.75 1
1 1 6 23.38 2.6 1
-2 -1 -6 8.11 5.53 1
2 1 6 9.57 5.31 1
-3 -1 -6 12.23 6.06 1
3 1 6 10.87 6.77 1
-4 -1 -6 9.02 6.12 1
4 1 6 2.18 3.54 1
-5 -1 -6 5.55 5.07 1
5 1 6 10.26 5.06 1
-6 -1 -6 7.73 5.43 1
6 1 6 13.06 5.16 1
-7 -1 -6 7.22 6.85 1
7 1 6 4.96 6.57 1
9 -2 -6 9.48 13.87 1
-9 2 6 14.12 13.53 1
8 -2 -6 9.96 10.25 1
-8 2 6 16.84 11.89 1
7 -2 -6 24.34 10.11 1
-7 2 6 33.26 11.25 1
6 -2 -6 15.41 10.69 1
-6 2 6 11.93 9.42 1
5 -2 -6 6.14 8.77 1
-5 2 6 7.33 7.76 1
4 -2 -6 23.94 6.57 1
-4 2 6 17.32 7.64 1
3 -2 -6 50.94 6.35 1
-3 2 6 45.33 8.5 1
2 -2 -6 4.77 5.48 1
-2 2 6 9.48 5.84 1
1 -2 -6 13.11 6.23 1
-1 2 6 6.2 4.25 1
0 -2 -6 107.5 7.6 1
0 2 6 92.15 6.39 1
-1 -2 -6 2.36 7.55 1
1 2 6 4.4 4.49 1
-2 -2 -6 5.02 5.92 1
2 2 6 4.05 3.31 1
-3 -2 -6 9.79 5.85 1
3 2 6 14.78 3.21 1
-4 -2 -6 4.74 5.74 1
4 2 6 0.06 4.9 1
-5 -2 -6 2.52 5.29 1
5 2 6 7.38 6.89 1
-6 -2 -6 5.69 5.68 1
6 2 6 10.91 7.82 1
9 -3 -6 0 17.19 1
-9 3 6 13.23 17.04 1
8 -3 -6 6.71 11.59 1
-8 3 6 14.02 13.4 1
7 -3 -6 11.75 7.36 1
-7 3 6 10.23 9.82 1
6 -3 -6 19.64 6.78 1
-6 3 6 15.9 8.06 1
5 -3 -6 6.42 6.44 1
-5 3 6 10.85 7.82 1
4 -3 -6 0.03 6.44 1
-4 3 6 4.77 7.43 1
3 -3 -6 47.95 8.97 1
-3 3 6 43.12 8.76 1
2 -3 -6 0 14.66 1
-2 3 6 0 15.72 1
1 -3 -6 6.26 9.07 1
-1 3 6 0.97 7.95 1
0 -3 -6 44.43 6.94 1
0 3 6 34.97 5.7 1
-1 -3 -6 8.14 6.38 1
1 3 6 4.83 6.98 1
-2 -3 -6 3.83 5.08 1
2 3 6 6.15 4.33 1
-3 -3 -6 7.24 4.9 1
3 3 6 6.72 4.62 1
-4 -3 -6 7.19 5.45 1
4 3 6 5.33 4.66 1
-5 -3 -6 2.45 5.63 1
5 3 6 1.98 5.41 1
-6 -3 -6 8.58 6.85 1
6 3 6 13.92 8.43 1
9 -4 -6 16.82 8.91 1
-9 4 6 32.63 14.9 1
8 -4 -6 18.62 12.19 1
-8 4 6 13.45 14.7 1
7 -4 -6 12.82 8.96 1
-7 4 6 6.37 9.99 1
6 -4 -6 12.2 6.42 1
-6 4 6 18.18 7.54 1
5 -4 -6 19.91 7.38 1
-5 4 6 24.82 7.52 1
4 -4 -6 0.25 6.79 1
-4 4 6 2.68 7.54 1
3 -4 -6 15.91 11.29 1
-3 4 6 18.33 14.65 1
2 -4 -6 13.76 11.19 1
-2 4 6 5.65 9.78 1
1 -4 -6 0.54 6.93 1
-1 4 6 2.23 7.94 1
0 -4 -6 7.47 6 1
0 4 6 6.02 7.49 1
-1 -4 -6 14.29 6.57 1
1 4 6 14.73 8.44 1
-2 -4 -6 4.49 5.12 1
2 4 6 8.77 4.31 1
-3 -4 -6 3.91 5.81 1
3 4 6 0.85 4.85 1
-4 -4 -6 2.31 8.57 1
4 4 6 5.17 5.11 1
-5 -4 -6 14.03 9.32 1
5 4 6 5.28 6.6 1
8 -5 -6 13.37 7.89 1
-8 5 6 22.03 11.41 1
7 -5 -6 4.79 8.52 1
-7 5 6 4.12 9.84 1
6 -5 -6 12.53 7.71 1
-6 5 6 2.91 7.57 1
5 -5 -6 13.8 9.32 1
-5 5 6 11.05 7.63 1
4 -5 -6 0 10.01 1
-4 5 6 2.89 6.88 1
3 -5 -6 0 10.54 1
-3 5 6 3.35 7.55 1
2 -5 -6 17.34 6.56 1
-2 5 6 17.11 8.19 1
1 -5 -6 0.29 5.93 1
-1 5 6 0 7.34 1
0 -5 -6 3.73 6.34 1
0 5 6 7.57 7.9 1
-1 -5 -6 9.9 7.59 1
1 5 6 12.73 8.8 1
-2 -5 -6 1.03 5.42 1
2 5 6 4.08 6.02 1
-3 -5 -6 0.44 6.25 1
3 5 6 3.58 6.85 1
-4 -5 -6 0 7.2 1
4 5 6 2.3 5.6 1
7 -6 -6 0 9.61 1
-7 6 6 7.42 8.18 1
6 -6 -6 0 18.26 1
-6 6 6 8.57 6.81 1
5 -6 -6 24.02 13.52 1
-5 6 6 10.93 7.54 1
4 -6 -6 0.33 11.42 1
-4 6 6 3.81 7.26 1
3 -6 -6 7.92 6.99 1
-3 6 6 10.69 9.52 1
2 -6 -6 9.69 7 1
-2 6 6 23.23 10.66 1
1 -6 -6 3.2 6.68 1
-1 6 6 2.95 7.61 1
0 -6 -6 3.77 6.54 1
0 6 6 9.53 7.29 1
-1 -6 -6 3.71 6.38 1
1 6 6 8.65 6.54 1
-2 -6 -6 4.4 6.82 1
2 6 6 7.65 6.08 1
-3 -6 -6 1.85 7.66 1
3 6 6 7.47 6.36 1
6 -7 -6 20.24 19.97 1
-6 7 6 13.33 6.78 1
5 -7 -6 8.91 12.44 1
-5 7 6 9.6 7.5 1
4 -7 -6 2.54 12.96 1
-4 7 6 4.96 8.78 1
3 -7 -6 3.9 7.5 1
-3 7 6 0.29 11.45 1
2 -7 -6 0.63 7.2 1
-2 7 6 4.6 9.22 1
1 -7 -6 4.1 6.99 1
-1 7 6 9.8 7.64 1
0 -7 -6 0.56 7.05 1
0 7 6 5.81 8.76 1
-1 -7 -6 1.41 7.15 1
1 7 6 4.2 6.61 1
2 12 -7 7.27 5.65 1
-2 -12 7 2.59 8.93 1
1 12 -7 5.89 5.09 1
-1 -12 7 10.85 8.9 1
0 12 -7 6.42 4.35 1
0 -12 7 3.76 8.24 1
-1 12 -7 15.08 4.91 1
1 -12 7 5.14 8.06 1
-2 12 -7 7.91 5.02 1
2 -12 7 12.5 6.76 1
-3 12 -7 11.02 5.1 1
3 -12 7 15.11 8.36 1
-4 12 -7 1.86 10.67 1
4 -12 7 18.71 7.84 1
4 11 -7 9.49 4.84 1
-4 -11 7 6.99 10.3 1
3 11 -7 2.92 4.95 1
-3 -11 7 0 14.91 1
2 11 -7 8.63 5.09 1
-2 -11 7 1.75 10.72 1
1 11 -7 6.03 4.34 1
-1 -11 7 1.33 7.95 1
0 11 -7 10.91 5.28 1
0 -11 7 9.56 7.99 1
-1 11 -7 8.17 4.33 1
1 -11 7 6.67 6.76 1
-2 11 -7 9.94 4.36 1
2 -11 7 21 7.04 1
-3 11 -7 1.46 5.47 1
3 -11 7 9.61 9.03 1
-4 11 -7 1.04 7.03 1
4 -11 7 8.31 7.91 1
-5 11 -7 8.93 5.97 1
5 -11 7 9.26 6.78 1
5 10 -7 8.49 6.34 1
-5 -10 7 3.26 10.54 1
4 10 -7 18.54 5.95 1
-4 -10 7 15.65 9.74 1
3 10 -7 8.61 4.4 1
-3 -10 7 0.55 7.89 1
2 10 -7 6.06 2.6 1
-2 -10 7 2.13 8.99 1
1 10 -7 18.33 4.53 1
-1 -10 7 20.02 7.78 1
0 10 -7 6.87 4.06 1
0 -10 7 4.76 6.26 1
-1 10 -7 7.17 3.69 1
1 -10 7 5.32 6.34 1
-2 10 -7 10.57 3.53 1
2 -10 7 14.01 6.57 1
-3 10 -7 5.32 5.75 1
3 -10 7 4.34 8.01 1
-4 10 -7 2.94 5.45 1
4 -10 7 6.23 7.75 1
-5 10 -7 17.35 6.28 1
5 -10 7 22.69 6.7 1
-6 10 -7 10.06 7.67 1
6 -10 7 13.78 7.9 1
6 9 -7 1.85 5.68 1
-6 -9 7 3.18 6.78 1
5 9 -7 2.94 7.31 1
4 9 -7 30.72 5.73 1
-4 -9 7 15.97 5.94 1
3 9 -7 17.49 4.05 1
-3 -9 7 3.86 5.84 1
2 9 -7 8.99 3.51 1
-2 -9 7 0.22 5.58 1
1 9 -7 11.15 2.49 1
-1 -9 7 15.83 5.69 1
0 9 -7 14.88 2.64 1
0 -9 7 18.62 7.08 1
-1 9 -7 17.62 3.39 1
1 -9 7 19.61 6.57 1
-2 9 -7 1.69 4.33 1
2 -9 7 1.22 6.99 1
-3 9 -7 8.7 5.3 1
3 -9 7 1.72 5.73 1
-4 9 -7 6.18 5.72 1
4 -9 7 3.21 5.95 1
-5 9 -7 12.08 6.27 1
5 -9 7 11 6.03 1
-6 9 -7 24.31 7.73 1
6 -9 7 21.8 8.71 1
-7 9 -7 4.44 6.91 1
7 -9 7 2.09 7.74 1
7 8 -7 8.64 6.11 1
-7 -8 7 7.19 6.4 1
6 8 -7 18.96 7.36 1
-6 -8 7 19.34 7.01 1
5 8 -7 4.62 5.26 1
-5 -8 7 5.09 6.14 1
4 8 -7 19.06 5.26 1
-4 -8 7 10.76 5.59 1
3 8 -7 24.89 5.71 1
-3 -8 7 17.14 6.21 1
2 8 -7 7.39 4.17 1
-2 -8 7 11.83 6.71 1
1 8 -7 6.88 2.96 1
-1 -8 7 5.86 6.34 1
0 8 -7 78.64 4.1 1
0 -8 7 100.88 7.19 1
-1 8 -7 0 3.18 1
1 -8 7 4.5 6.04 1
-2 8 -7 8.64 5.01 1
2 -8 7 15.72 7.42 1
-3 8 -7 51.11 5.77 1
3 -8 7 42.45 6.63 1
-4 8 -7 6.56 5.68 1
4 -8 7 6.28 8.12 1
-5 8 -7 7.56 6.53 1
5 -8 7 6.72 6.51 1
-6 8 -7 34.83 7.45 1
6 -8 7 32.45 7.53 1
-7 8 -7 10.79 7 1
7 -8 7 9.81 7.25 1
8 7 -7 4.63 5.97 1
-8 -7 7 11.99 7.45 1
7 7 -7 11.8 7.06 1
-7 -7 7 12.39 8.04 1
6 7 -7 17.24 5.81 1
-6 -7 7 22.17 6.92 1
5 7 -7 3.85 4.99 1
-5 -7 7 0 5.28 1
4 7 -7 3.11 5.01 1
-4 -7 7 7.69 5.98 1
3 7 -7 75.16 5.77 1
-3 -7 7 66.38 7.1 1
2 7 -7 3.3 2.6 1
-2 -7 7 0 5.98 1
1 7 -7 2.41 2.86 1
-1 -7 7 2.15 6.32 1
0 7 -7 92.17 4.28 1
0 -7 7 82.8 6.64 1
-1 7 -7 3.21 2.9 1
1 -7 7 7.54 5.26 1
-2 7 -7 4.36 4.28 1
2 -7 7 3.25 5.79 1
-3 7 -7 69.44 6.25 1
3 -7 7 61.31 6.54 1
-4 7 -7 5.32 5.22 1
4 -7 7 2.61 5.2 1
-5 7 -7 6.64 5.17 1
5 -7 7 6.17 5.14 1
-6 7 -7 55.09 8.45 1
6 -7 7 54.29 6.54 1
-7 7 -7 6.12 12.89 1
7 -7 7 9.74 6.14 1
-8 7 -7 1.35 8 1
8 -7 7 7.57 6.28 1
8 6 -7 2.57 5.92 1
-8 -6 7 6.61 8.14 1
7 6 -7 2.07 5.63 1
-7 -6 7 2.77 8.08 1
6 6 -7 35.01 6.24 1
-6 -6 7 37.33 7.05 1
5 6 -7 1 4.95 1
-5 -6 7 8.95 5.62 1
4 6 -7 5.13 5.89 1
-4 -6 7 5.41 5.33 1
3 6 -7 86.7 6.05 1
-3 -6 7 72.64 7.19 1
2 6 -7 6.31 2.55 1
-2 -6 7 1.85 5.81 1
1 6 -7 9.97 2.21 1
-1 -6 7 16.92 4.47 1
0 6 -7 62.18 2.78 1
0 -6 7 72.36 6.62 1
-1 6 -7 27.11 2.99 1
1 -6 7 21.35 5.43 1
-2 6 -7 12.05 3.89 1
2 -6 7 10.57 5.04 1
-3 6 -7 37.35 4.92 1
3 -6 7 38.57 5.22 1
-4 6 -7 20.51 6.73 1
4 -6 7 23.17 5.45 1
-5 6 -7 20.33 5.79 1
5 -6 7 6.25 7.56 1
-6 6 -7 23.24 4.79 1
6 -6 7 19.95 5.53 1
-7 6 -7 32.22 7.43 1
7 -6 7 21.85 5.8 1
-8 6 -7 5.16 6.48 1
8 -6 7 0.93 6.44 1
9 5 -7 2.35 9.8 1
8 5 -7 7.04 6.75 1
-8 -5 7 9.46 7.92 1
7 5 -7 7.78 5.02 1
-7 -5 7 10.81 7 1
6 5 -7 21.97 3.96 1
-6 -5 7 11.43 6.89 1
5 5 -7 1.85 4.05 1
-5 -5 7 8.48 7.02 1
4 5 -7 34.19 4.32 1
-4 -5 7 38.93 5.47 1
3 5 -7 39.42 3.76 1
-3 -5 7 42.59 4.87 1
2 5 -7 58.46 4.43 1
-2 -5 7 57.59 6.13 1
1 5 -7 9.95 3.05 1
-1 -5 7 8.62 3.96 1
0 5 -7 9.79 2.33 1
0 -5 7 4.99 4.16 1
-1 5 -7 125.68 4.03 1
1 -5 7 129.14 7.17 1
-2 5 -7 4.91 3.16 1
2 -5 7 4.96 5.56 1
-3 5 -7 5.47 3.3 1
3 -5 7 11.42 6.38 1
-4 5 -7 36.22 4.26 1
4 -5 7 33.48 4.34 1
-5 5 -7 1.94 3.44 1
5 -5 7 11.19 4.77 1
-6 5 -7 6.62 4.31 1
6 -5 7 5.55 4.41 1
-7 5 -7 45.09 5.31 1
7 -5 7 21.43 8.27 1
-8 5 -7 4.47 6.21 1
8 -5 7 2.01 7.97 1
9 4 -7 3.21 6.72 1
-9 -4 7 13.98 5.81 1
8 4 -7 8.63 6.31 1
-8 -4 7 24.86 8.44 1
7 4 -7 3.39 6.02 1
-7 -4 7 3.72 7.06 1
6 4 -7 12.43 4.49 1
-6 -4 7 9.21 7.34 1
5 4 -7 85.82 6.33 1
-5 -4 7 85.04 8 1
4 4 -7 3.74 4.41 1
-4 -4 7 2.07 5.25 1
3 4 -7 9.16 4.23 1
-3 -4 7 4.68 4.42 1
2 4 -7 131.41 5.89 1
-2 -4 7 116.81 8.14 1
1 4 -7 10.64 3.26 1
-1 -4 7 2.59 3.14 1
0 4 -7 35.12 2.95 1
0 -4 7 34.51 4.46 1
-1 4 -7 80.59 3.65 1
1 -4 7 83.74 4.74 1
-2 4 -7 17.39 2.28 1
2 -4 7 27.56 4.56 1
-3 4 -7 2.15 3.14 1
3 -4 7 4.09 4.62 1
-4 4 -7 16.62 3.58 1
4 -4 7 39.83 4.54 1
-5 4 -7 4.46 4.93 1
5 -4 7 2.25 2.93 1
-6 4 -7 4.81 4.64 1
6 -4 7 0 5.11 1
-7 4 -7 18.67 5.22 1
7 -4 7 22.84 6.06 1
-8 4 -7 20.86 6.59 1
8 -4 7 7.64 10.94 1
9 3 -7 0 6.38 1
-9 -3 7 11.82 10.46 1
8 3 -7 20.81 6.53 1
-8 -3 7 15.29 6.82 1
7 3 -7 1.11 7.77 1
-7 -3 7 10.86 9.13 1
6 3 -7 10.27 6.95 1
-6 -3 7 6.32 8.33 1
5 3 -7 53.92 9.35 1
-5 -3 7 40.61 8.74 1
4 3 -7 17.85 5.51 1
-4 -3 7 12.79 6.24 1
3 3 -7 12.18 3.68 1
-3 -3 7 9.79 4.25 1
2 3 -7 130.14 6.28 1
-2 -3 7 107.78 4.75 1
1 3 -7 125.93 5.71 1
-1 -3 7 116.28 5.07 1
0 3 -7 11.27 2.36 1
0 -3 7 14.52 2.76 1
-1 3 -7 33.84 2.56 1
1 -3 7 39.76 4.21 1
-2 3 -7 76.66 5.08 1
2 -3 7 104.33 6.16 1
-3 3 -7 1.82 6.92 1
3 -3 7 12.37 5.34 1
-4 3 -7 17.48 8.41 1
4 -3 7 26.02 6.04 1
-5 3 -7 34.28 4.95 1
5 -3 7 36.67 3.92 1
-6 3 -7 18.12 6.41 1
6 -3 7 4.69 4.14 1
-7 3 -7 17.66 6.34 1
7 -3 7 13.94 7.19 1
-8 3 -7 32.96 7.84 1
8 -3 7 13.47 9.28 1
9 2 -7 1.5 8.76 1
-9 -2 7 24.53 6.79 1
8 2 -7 11.61 8.14 1
-8 -2 7 4.08 8.13 1
7 2 -7 23.29 7.42 1
-7 -2 7 3.93 6.8 1
6 2 -7 27.22 8.08 1
-6 -2 7 0.49 7.69 1
5 2 -7 12.51 6.2 1
-5 -2 7 6.92 7.06 1
4 2 -7 60.63 6.03 1
-4 -2 7 68.55 5.5 1
3 2 -7 14.22 4.4 1
-3 -2 7 18.93 4.16 1
2 2 -7 15.19 3.78 1
-2 -2 7 18.37 2.6 1
1 2 -7 138.52 5.89 1
-1 -2 7 133.5 4.95 1
0 2 -7 12.56 3.38 1
0 -2 7 1.07 3.82 1
-1 2 -7 16.36 11.48 1
1 -2 7 8.31 4.68 1
-2 2 -7 126.06 7.62 1
2 -2 7 147.59 8.75 1
-3 2 -7 0.57 7.51 1
3 -2 7 17.74 6.31 1
-4 2 -7 4.14 6.48 1
4 -2 7 2.17 3.71 1
-5 2 -7 34.69 5.14 1
5 -2 7 51.66 5.06 1
-6 2 -7 4.55 3.72 1
6 -2 7 1.82 3.69 1
-7 2 -7 4.79 5.93 1
7 -2 7 8.03 7.35 1
9 1 -7 0 8.62 1
-9 -1 7 16.04 7.9 1
8 1 -7 4.63 6.19 1
-8 -1 7 5.6 7.41 1
7 1 -7 33.58 6.31 1
-7 -1 7 31.43 5.59 1
6 1 -7 5.25 6.43 1
-6 -1 7 1.64 6.2 1
5 1 -7 18.86 6.11 1
-5 -1 7 4.74 7.06 1
4 1 -7 72.82 6.82 1
-4 -1 7 71.55 5.94 1
3 1 -7 11.66 4.69 1
-3 -1 7 4.08 4.72 1
2 1 -7 4.85 4.01 1
-2 -1 7 3.94 3.73 1
1 1 -7 97.89 6.26 1
-1 -1 7 104.37 6.63 1
0 1 -7 4.84 5.11 1
0 -1 7 6.86 5.14 1
-1 1 -7 10.41 5.6 1
1 -1 7 4.05 5.79 1
-2 1 -7 75.82 8.14 1
2 -1 7 95.43 9.31 1
-3 1 -7 11.12 6.72 1
3 -1 7 0.77 4.08 1
-4 1 -7 4.68 4.97 1
4 -1 7 1.66 5.24 1
-5 1 -7 21.15 5.18 1
5 -1 7 36.02 4.99 1
-6 1 -7 5.58 5.35 1
6 -1 7 7.91 7.01 1
-7 1 -7 7.24 6.48 1
7 -1 7 11.72 6.68 1
9 0 -7 2.79 6.66 1
-9 0 7 17.16 9.82 1
8 0 -7 0.83 7.14 1
-8 0 7 11.86 7.29 1
7 0 -7 11.06 5.95 1
-7 0 7 19.26 5.92 1
6 0 -7 8.16 5.88 1
-6 0 7 1.65 6.41 1
5 0 -7 9.25 6.16 1
-5 0 7 7.75 7.26 1
4 0 -7 63 7.43 1
-4 0 7 65.8 7.67 1
3 0 -7 6.45 5.36 1
-3 0 7 2.49 5.72 1
2 0 -7 15.44 4.52 1
-2 0 7 8.85 3.98 1
1 0 -7 26.06 4.47 1
-1 0 7 27.08 3.46 1
0 0 -7 19.62 7.03 1
0 0 7 19.59 2.7 1
-1 0 -7 11.09 5.47 1
1 0 7 16.64 5.39 1
-2 0 -7 27.07 5.89 1
2 0 7 25.47 4.95 1
-3 0 -7 16.41 6.95 1
3 0 7 21.62 6.69 1
-4 0 -7 1.59 5.25 1
4 0 7 8.95 5.63 1
-5 0 -7 10.69 5.77 1
5 0 7 8.5 6.08 1
-6 0 -7 9.22 7.6 1
6 0 7 9.17 7.38 1
-7 0 -7 2.86 8.17 1
7 0 7 6.08 6.72 1
9 -1 -7 36 11.73 1
-9 1 7 38.56 9.48 1
8 -1 -7 5.5 9.98 1
-8 1 7 8.36 12.22 1
7 -1 -7 11.11 9.48 1
-7 1 7 14.8 7.34 1
6 -1 -7 5.8 6.61 1
-6 1 7 4.32 8.12 1
5 -1 -7 5.36 7 1
-5 1 7 6.11 8.36 1
4 -1 -7 22.7 6.48 1
-4 1 7 29.98 9.83 1
3 -1 -7 67.47 6.74 1
-3 1 7 57.46 8.75 1
2 -1 -7 1.13 5.41 1
-2 1 7 3.03 4.75 1
1 -1 -7 5.07 7.23 1
-1 1 7 5.97 3.84 1
0 -1 -7 76.76 5.88 1
0 1 7 71.78 4.45 1
-1 -1 -7 3.64 6.22 1
1 1 7 0.33 6.41 1
-2 -1 -7 7.39 5.99 1
2 1 7 9.3 5.51 1
-3 -1 -7 5.51 5.71 1
3 1 7 5.76 7.76 1
-4 -1 -7 2.23 6.07 1
4 1 7 4.7 7.66 1
-5 -1 -7 0.21 5.09 1
5 1 7 4.26 6.84 1
-6 -1 -7 11.51 7.48 1
6 1 7 9.29 7.04 1
9 -2 -7 7.33 11.47 1
-9 2 7 31.56 19.01 1
8 -2 -7 3.99 12.65 1
-8 2 7 22.4 12.97 1
7 -2 -7 2.33 7.7 1
-7 2 7 13.11 8.74 1
6 -2 -7 5.25 6.27 1
-6 2 7 15.31 7.49 1
5 -2 -7 2.55 6.26 1
-5 2 7 6.6 7.93 1
4 -2 -7 5.48 6.63 1
-4 2 7 10.84 9.63 1
3 -2 -7 52.34 6.76 1
-3 2 7 59.1 12.66 1
2 -2 -7 1.35 7 1
-2 2 7 2.08 6.9 1
1 -2 -7 1.13 8.27 1
-1 2 7 2.3 4.43 1
0 -2 -7 63.78 6.89 1
0 2 7 48.29 4.78 1
-1 -2 -7 14.8 6.96 1
1 2 7 9.68 3.76 1
-2 -2 -7 1.02 5.65 1
2 2 7 2.32 7.41 1
-3 -2 -7 7.19 5.51 1
3 2 7 12.06 7.67 1
-4 -2 -7 5.27 6.2 1
4 2 7 2.56 8.66 1
-5 -2 -7 4.52 7.85 1
5 2 7 8.43 7.99 1
-6 -2 -7 14.21 5.93 1
6 2 7 16.31 8.57 1
9 -3 -7 16.56 8.76 1
-9 3 7 30.91 8.43 1
8 -3 -7 4.83 9.48 1
-8 3 7 10.32 9.39 1
7 -3 -7 11.49 7.48 1
-7 3 7 9.49 8.23 1
6 -3 -7 5.47 6.35 1
-6 3 7 5.61 7.75 1
5 -3 -7 9.5 7.85 1
-5 3 7 14.9 7.55 1
4 -3 -7 2.14 7.57 1
-4 3 7 15.83 11.9 1
3 -3 -7 10.81 8.35 1
-3 3 7 16.09 13.08 1
2 -3 -7 10.38 10.86 1
-2 3 7 9.27 9.07 1
1 -3 -7 4.2 6.15 1
-1 3 7 12.07 7.96 1
0 -3 -7 10.67 6.28 1
0 3 7 8.08 5.67 1
-1 -3 -7 15.32 7.12 1
1 3 7 9.21 5.16 1
-2 -3 -7 11.34 5.79 1
2 3 7 7.13 4.66 1
-3 -3 -7 5.92 6.13 1
3 3 7 2.73 5.1 1
-4 -3 -7 9.63 7.44 1
4 3 7 7.25 8.36 1
-5 -3 -7 4.12 6.44 1
5 3 7 10.33 11.42 1
8 -4 -7 20.33 8.27 1
-8 4 7 19.06 9.13 1
7 -4 -7 12.72 9.52 1
-7 4 7 16.57 11.97 1
6 -4 -7 5.51 7.55 1
-6 4 7 9.89 8.52 1
5 -4 -7 22.07 7.73 1
-5 4 7 14.64 12.73 1
4 -4 -7 5.38 6.68 1
-4 4 7 0 12.69 1
3 -4 -7 0 10.28 1
-3 4 7 5.98 10.47 1
2 -4 -7 25.01 6.68 1
-2 4 7 24.97 8.05 1
1 -4 -7 8.33 6.52 1
-1 4 7 3.76 7.73 1
0 -4 -7 3.06 5.96 1
0 4 7 3.24 7.64 1
-1 -4 -7 10.78 6.14 1
1 4 7 15.35 5.15 1
-2 -4 -7 5.08 6.2 1
2 4 7 6.23 5.92 1
-3 -4 -7 0 7.27 1
3 4 7 1.92 6.16 1
-4 -4 -7 5.64 7.44 1
4 4 7 0.28 9.09 1
7 -5 -7 10.59 8.38 1
-7 5 7 10.45 9.14 1
6 -5 -7 8.04 7.81 1
-6 5 7 1.43 8.93 1
5 -5 -7 6.3 8.88 1
-5 5 7 13.03 8.82 1
4 -5 -7 15.98 11.58 1
-4 5 7 4.91 8.2 1
3 -5 -7 5.26 9.04 1
-3 5 7 6.99 9.26 1
2 -5 -7 19.31 7.39 1
-2 5 7 8.64 7.66 1
1 -5 -7 2.32 6.62 1
-1 5 7 5.82 9.01 1
0 -5 -7 0.26 6.62 1
0 5 7 1.46 9.39 1
-1 -5 -7 13.46 7.37 1
1 5 7 15.14 7.24 1
-2 -5 -7 5.56 6.58 1
2 5 7 10.27 7.04 1
-3 -5 -7 2.98 6.8 1
3 5 7 3.41 5.71 1
6 -6 -7 5.56 9.51 1
-6 6 7 5.05 6.97 1
5 -6 -7 16.75 13.44 1
-5 6 7 9.13 8.38 1
4 -6 -7 0 9.77 1
-4 6 7 0 13.51 1
3 -6 -7 0 8.26 1
-3 6 7 6.33 10.29 1
2 -6 -7 10.23 7.4 1
-2 6 7 27.94 15.92 1
1 -6 -7 10.62 7.05 1
-1 6 7 5.48 9.02 1
0 -6 -7 3.85 6.63 1
0 6 7 6.24 7.96 1
-1 -6 -7 0.08 7.04 1
1 6 7 5.82 6.71 1
3 -7 -7 20.28 8.54 1
-3 7 7 16.91 9.53 1
2 -7 -7 7.27 7.8 1
-2 7 7 3.88 9.23 1
1 12 -8 9.29 5.1 1
-1 -12 8 7.68 8.52 1
0 12 -8 8.35 4.94 1
0 -12 8 3.42 9.27 1
-1 12 -8 5.08 4.8 1
1 -12 8 2.92 6.8 1
-2 12 -8 7.89 4.88 1
2 -12 8 8.89 7.26 1
-3 12 -8 0 10.84 1
3 -12 8 0 9.4 1
3 11 -8 12.9 4.13 1
-3 -11 8 2.75 10.45 1
2 11 -8 2.84 4.9 1
-2 -11 8 2.83 8.38 1
1 11 -8 17.13 5.58 1
-1 -11 8 11.28 8.14 1
0 11 -8 2.59 5.11 1
0 -11 8 4.19 6.63 1
-1 11 -8 1.23 3.9 1
1 -11 8 2.71 6.71 1
-2 11 -8 20.66 5.58 1
2 -11 8 10.76 9.07 1
-3 11 -8 1.84 6.61 1
3 -11 8 3.33 7.61 1
-4 11 -8 3.15 5.5 1
4 -11 8 0.32 7.9 1
-5 11 -8 16.32 6.45 1
5 -11 8 11.42 6.75 1
5 10 -8 9.19 5.93 1
-5 -10 8 6.34 10.3 1
4 10 -8 15.41 6.02 1
-4 -10 8 3.05 5.83 1
3 10 -8 12.89 8.87 1
-3 -10 8 3.29 6.71 1
2 10 -8 10.59 4 1
-2 -10 8 2.78 6.79 1
1 10 -8 9.88 2.97 1
-1 -10 8 12.37 6.54 1
0 10 -8 4.98 2.59 1
0 -10 8 11.23 6.75 1
-1 10 -8 5.18 2.7 1
1 -10 8 11.72 6.87 1
-2 10 -8 11.39 5.9 1
2 -10 8 8.2 7.67 1
-3 10 -8 14.77 5.53 1
3 -10 8 2.93 7.33 1
-4 10 -8 3.75 5.74 1
4 -10 8 1.47 6.91 1
-5 10 -8 5.01 6.21 1
5 -10 8 14.04 7.56 1
-6 10 -8 11.11 7.24 1
6 -10 8 16.4 7.81 1
6 9 -8 5.48 5.81 1
-6 -9 8 2.79 6.27 1
5 9 -8 3.99 6.01 1
-5 -9 8 3.62 5.91 1
4 9 -8 10.44 5.71 1
-4 -9 8 3.28 6.14 1
3 9 -8 27.13 5.34 1
-3 -9 8 24.52 6.7 1
2 9 -8 4.67 3.67 1
-2 -9 8 1.92 6.48 1
1 9 -8 3.28 3.29 1
-1 -9 8 7.98 6.02 1
0 9 -8 33.51 2.95 1
0 -9 8 39.89 6.09 1
-1 9 -8 3.85 3.12 1
1 -9 8 2.19 5.93 1
-2 9 -8 1.95 4.87 1
2 -9 8 1.98 6.79 1
-3 9 -8 16.86 5.8 1
3 -9 8 13.15 6.76 1
-4 9 -8 4.43 6.04 1
4 -9 8 6.19 5.88 1
-5 9 -8 2.7 6.63 1
5 -9 8 1.83 7.11 1
-6 9 -8 43.43 9.49 1
6 -9 8 28.7 7.42 1
7 8 -8 4.33 6.18 1
-7 -8 8 4.09 7.23 1
6 8 -8 22.5 6.17 1
-6 -8 8 21.69 7.24 1
5 8 -8 2.25 5.33 1
-5 -8 8 3.61 5.82 1
4 8 -8 4.66 5 1
-4 -8 8 2.81 5.7 1
3 8 -8 49.34 6.03 1
-3 -8 8 49.97 7.11 1
2 8 -8 3.06 2.68 1
-2 -8 8 8.87 6.45 1
1 8 -8 2.49 3.03 1
-1 -8 8 6.02 6.74 1
0 8 -8 47.68 3.17 1
0 -8 8 52.04 6.44 1
-1 8 -8 4.99 3.19 1
1 -8 8 4.15 6.71 1
-2 8 -8 8.08 4.04 1
2 -8 8 3.83 6.03 1
-3 8 -8 57.23 6.29 1
3 -8 8 60.26 6.68 1
-4 8 -8 2.93 5.26 1
4 -8 8 4.65 5.78 1
-5 8 -8 3.74 8.62 1
5 -8 8 3.61 6.32 1
-6 8 -8 38.61 7.4 1
6 -8 8 21.67 6.34 1
-7 8 -8 11.68 8.34 1
7 -8 8 15.04 6.4 1
7 7 -8 7.96 6.68 1
-7 -7 8 2.64 7.12 1
6 7 -8 17.77 6.11 1
-6 -7 8 25.46 6.78 1
5 7 -8 0.48 4.8 1
-5 -7 8 6.36 5.9 1
4 7 -8 5.58 5.31 1
-4 -7 8 8.12 5.9 1
3 7 -8 51.7 5.46 1
-3 -7 8 42.72 6.78 1
2 7 -8 17.04 3.35 1
-2 -7 8 8.04 6.85 1
1 7 -8 5.96 3.82 1
-1 -7 8 9.27 5.92 1
0 7 -8 23.98 3.59 1
0 -7 8 30.91 6.86 1
-1 7 -8 4.28 3.34 1
1 -7 8 6.7 9.45 1
-2 7 -8 15.63 3.97 1
2 -7 8 8.52 5.58 1
-3 7 -8 31.52 5.15 1
3 -7 8 20.1 5.07 1
-4 7 -8 12.85 8.96 1
4 -7 8 21.18 5.19 1
-5 7 -8 11.9 6.24 1
5 -7 8 4.5 4.51 1
-6 7 -8 24.03 7.06 1
6 -7 8 22.8 5.1 1
-7 7 -8 22.37 6.77 1
7 -7 8 23.64 5.5 1
8 6 -8 2.47 6.51 1
-8 -6 8 10.69 7.67 1
7 6 -8 1.9 6.38 1
-7 -6 8 0.53 7.15 1
6 6 -8 15.11 5.72 1
-6 -6 8 14.66 5.94 1
5 6 -8 11.2 5.12 1
-5 -6 8 17.59 5.98 1
4 6 -8 14.8 5.09 1
-4 -6 8 14.73 6.5 1
3 6 -8 26.6 3.79 1
-3 -6 8 20.75 6.51 1
2 6 -8 36.07 3.37 1
-2 -6 8 35.8 6.48 1
1 6 -8 5.09 2.89 1
-1 -6 8 8 4.57 1
0 6 -8 4.81 2.78 1
0 -6 8 7.65 4.87 1
-1 6 -8 35.12 3.43 1
1 -6 8 29.98 9.95 1
-2 6 -8 8.95 3.99 1
2 -6 8 13.2 8.8 1
-3 6 -8 3.49 4.54 1
3 -6 8 18.39 12.03 1
-4 6 -8 35.36 5.53 1
4 -6 8 38.96 9.11 1
-5 6 -8 5.9 5.44 1
5 -6 8 1.06 3.26 1
-6 6 -8 19.55 5.08 1
6 -6 8 7.4 4.04 1
-7 6 -8 31.62 6.91 1
7 -6 8 71.79 13.68 1
8 5 -8 8.98 6.26 1
-8 -5 8 21.7 7.84 1
7 5 -8 4.61 4.59 1
-7 -5 8 8.49 7.53 1
6 5 -8 0.61 3.99 1
-6 -5 8 6.81 5.28 1
5 5 -8 12.19 4.32 1
-5 -5 8 19.03 5.92 1
4 5 -8 18.49 5.63 1
-4 -5 8 15.04 5.25 1
3 5 -8 10.23 4.56 1
-3 -5 8 4.21 6.05 1
2 5 -8 89.68 5.04 1
-2 -5 8 80.78 6.56 1
1 5 -8 3.08 3.9 1
-1 -5 8 7.41 3.84 1
0 5 -8 7.9 3.18 1
0 -5 8 14.96 4.98 1
-1 5 -8 36 3.79 1
1 -5 8 66.05 5.32 1
-2 5 -8 3.84 2.49 1
2 -5 8 9.37 7.02 1
-3 5 -8 4.98 3.33 1
3 -5 8 5.04 7.88 1
-4 5 -8 11.85 3.47 1
4 -5 8 7.05 7.86 1
-5 5 -8 14.23 5.21 1
5 -5 8 4.72 6.65 1
-6 5 -8 7.11 4.32 1
6 -5 8 6.35 3.51 1
-7 5 -8 32.65 7.61 1
7 -5 8 20.7 5.91 1
9 4 -8 3.53 7.37 1
-9 -4 8 8.64 9.07 1
8 4 -8 3.04 8.41 1
-8 -4 8 27.16 8.56 1
7 4 -8 1.62 5.78 1
-7 -4 8 6.28 7.26 1
6 4 -8 7.08 6.15 1
-6 -4 8 5.52 7.11 1
5 4 -8 75.77 7.09 1
-5 -4 8 73.99 6.11 1
4 4 -8 21.17 5.96 1
-4 -4 8 19.87 5.26 1
3 4 -8 13.23 4.55 1
-3 -4 8 9.63 3.69 1
2 4 -8 84.02 5.58 1
-2 -4 8 74.3 6.18 1
1 4 -8 58.32 4.12 1
-1 -4 8 69.17 5.88 1
0 4 -8 27.58 2.98 1
0 -4 8 31.23 6.43 1
-1 4 -8 7.4 3.25 1
1 -4 8 8.83 3.89 1
-2 4 -8 24.34 2.61 1
2 -4 8 29.02 4.75 1
-3 4 -8 2.26 2.07 1
3 -4 8 14.46 5.66 1
-4 4 -8 5.11 3 1
4 -4 8 10.78 3.87 1
-5 4 -8 15.82 2.58 1
5 -4 8 22.28 6.59 1
-6 4 -8 10.31 3.09 1
6 -4 8 1.2 2.31 1
-7 4 -8 23.17 6.49 1
7 -4 8 3.13 6.37 1
9 3 -8 0 11.27 1
-9 -3 8 8.59 13.21 1
8 3 -8 6.19 10.35 1
-8 -3 8 20.15 26.71 1
7 3 -8 5.04 7.96 1
-7 -3 8 15.75 6.94 1
6 3 -8 24.21 7.77 1
-6 -3 8 31.1 9.49 1
5 3 -8 8.3 5.48 1
-5 -3 8 6.35 5.61 1
4 3 -8 45.71 7.04 1
-4 -3 8 63.99 5.52 1
3 3 -8 16.54 4.76 1
-3 -3 8 16.78 3.83 1
2 3 -8 21.64 4.98 1
-2 -3 8 19.84 3.7 1
1 3 -8 161.51 7.31 1
-1 -3 8 153.76 8.58 1
0 3 -8 1.56 3.93 1
0 -3 8 1.35 3.46 1
-1 3 -8 10.92 5.86 1
1 -3 8 1.64 4.39 1
-2 3 -8 88.85 8.94 1
2 -3 8 68.17 7.1 1
-3 3 -8 1.56 5.93 1
3 -3 8 8.91 6.06 1
-4 3 -8 4.58 5.81 1
4 -3 8 4.58 4.68 1
-5 3 -8 24.42 5.04 1
5 -3 8 48.4 5.94 1
-6 3 -8 8.97 5.23 1
6 -3 8 6.83 3.75 1
-7 3 -8 11.45 5.53 1
7 -3 8 0.76 6.42 1
9 2 -8 0 11.99 1
-9 -2 8 7.82 25.91 1
8 2 -8 1.06 9.59 1
-8 -2 8 2.89 22.61 1
7 2 -8 33.96 7.14 1
-7 -2 8 41.34 11.25 1
6 2 -8 6.4 5.94 1
-6 -2 8 3.83 5.32 1
5 2 -8 8.32 5.71 1
-5 -2 8 9.63 6.73 1
4 2 -8 77 7.52 1
-4 -2 8 72.31 5.88 1
3 2 -8 12.7 6.72 1
-3 -2 8 8.79 3.81 1
2 2 -8 12.61 6.87 1
-2 -2 8 3.37 3.26 1
1 2 -8 85.67 8.41 1
-1 -2 8 84.52 6.59 1
0 2 -8 16.72 4.86 1
0 -2 8 13.67 6.62 1
-1 2 -8 18.78 24.46 1
1 -2 8 2.73 7.45 1
-2 2 -8 38.12 11.97 1
2 -2 8 40.26 8.73 1
-3 2 -8 2.98 5.11 1
3 -2 8 3.39 7.58 1
-4 2 -8 0.27 4.77 1
4 -2 8 6.25 5.08 1
-5 2 -8 16.18 5.02 1
5 -2 8 29.19 3.9 1
-6 2 -8 12.57 7.06 1
6 -2 8 7.81 6.08 1
-7 2 -8 11.44 6.7 1
7 -2 8 6 6.98 1
9 1 -8 5.05 6.65 1
-9 -1 8 13.01 6.32 1
8 1 -8 3.78 5.64 1
-8 -1 8 4.03 5.21 1
7 1 -8 33.7 6.44 1
-7 -1 8 34.83 6.64 1
6 1 -8 2.38 5.22 1
-6 -1 8 3.29 5.55 1
5 1 -8 13.52 6.75 1
-5 -1 8 4.45 8.72 1
4 1 -8 107.61 12.3 1
-4 -1 8 47.08 5.86 1
3 1 -8 2.59 7.75 1
-3 -1 8 0 7.63 1
2 1 -8 16.5 7.56 1
-2 -1 8 10.55 5.73 1
1 1 -8 14.56 5.17 1
-1 -1 8 11.84 5.28 1
0 1 -8 49.97 7.54 1
0 -1 8 42.18 8.14 1
-1 1 -8 4.4 4.72 1
1 -1 8 3.15 4.86 1
-2 1 -8 21.92 6.69 1
2 -1 8 24.71 5.84 1
-3 1 -8 14.58 6 1
3 -1 8 2.65 7.85 1
-4 1 -8 4.19 5.27 1
4 -1 8 6.17 4.35 1
-5 1 -8 4.75 5.98 1
5 -1 8 19.5 6.65 1
-6 1 -8 31.86 8.83 1
6 -1 8 24.79 6.8 1
9 0 -8 6.04 6.56 1
-9 0 8 21.98 8.27 1
8 0 -8 3.64 7.82 1
-8 0 8 9.14 7.8 1
7 0 -8 3.75 5.84 1
-7 0 8 11.24 7.23 1
6 0 -8 4.41 5.82 1
-6 0 8 5.36 6.96 1
5 0 -8 4.04 6.64 1
-5 0 8 6.39 8.17 1
4 0 -8 11.64 7.74 1
-4 0 8 16.97 8.44 1
3 0 -8 12.18 5.68 1
-3 0 8 28.88 10.19 1
2 0 -8 11.86 5.18 1
-2 0 8 13.09 4.1 1
1 0 -8 4.38 4.79 1
-1 0 8 0.51 3.43 1
0 0 -8 69.83 5.42 1
0 0 8 69.34 5.12 1
-1 0 -8 4.06 6.81 1
1 0 8 7.24 5.92 1
-2 0 -8 8.81 6.55 1
2 0 8 2.09 7.67 1
-3 0 -8 23.89 10.12 1
3 0 8 10.91 7.85 1
-4 0 -8 2.88 7.23 1
4 0 8 1.29 5.74 1
-5 0 -8 12.34 11.24 1
5 0 8 5.52 7.54 1
-6 0 -8 14.88 8.55 1
6 0 8 16.87 7.03 1
9 -1 -8 7.01 10.31 1
-9 1 8 23.51 8.9 1
8 -1 -8 1.97 8.08 1
-8 1 8 8.92 7.53 1
7 -1 -8 3.94 6.47 1
-7 1 8 15.09 7.12 1
6 -1 -8 6.32 6.04 1
-6 1 8 2.3 8.51 1
5 -1 -8 4.06 5.62 1
-5 1 8 7.9 9.1 1
4 -1 -8 4.69 5.88 1
-4 1 8 0.68 13.45 1
3 -1 -8 41.19 7.07 1
-3 1 8 43.57 8.19 1
2 -1 -8 4.09 5.59 1
-2 1 8 3.55 5.36 1
1 -1 -8 0.72 8.04 1
-1 1 8 1.08 5.55 1
0 -1 -8 54.05 6.07 1
0 1 8 43.19 3.97 1
-1 -1 -8 16.2 6.49 1
1 1 8 14.41 5.88 1
-2 -1 -8 1.01 5.66 1
2 1 8 1.61 8.14 1
-3 -1 -8 7.27 8.59 1
3 1 8 2.65 7.82 1
-4 -1 -8 3.5 6.54 1
4 1 8 6.8 8.63 1
-5 -1 -8 3.76 5.71 1
5 1 8 7.6 6.33 1
8 -2 -8 5.19 8.59 1
-8 2 8 2.17 7.36 1
7 -2 -8 2.58 7.06 1
-7 2 8 3.73 8.84 1
6 -2 -8 1.22 6.17 1
-6 2 8 5.68 9.41 1
5 -2 -8 0.65 5.18 1
-5 2 8 2.39 10.78 1
4 -2 -8 7.49 6.22 1
-4 2 8 5.96 17.62 1
3 -2 -8 10.05 5.71 1
-3 2 8 26.43 10 1
2 -2 -8 7.02 10.42 1
-2 2 8 5.15 7.97 1
1 -2 -8 0.77 5.64 1
-1 2 8 2.79 4.34 1
0 -2 -8 8.52 5.44 1
0 2 8 5.94 4.65 1
-1 -2 -8 28.33 6.29 1
1 2 8 25.95 3.31 1
-2 -2 -8 2.35 6.44 1
2 2 8 1.22 8.11 1
-3 -2 -8 2.73 5.55 1
3 2 8 16.95 8.47 1
-4 -2 -8 8.46 6.14 1
4 2 8 7.96 8.8 1
-5 -2 -8 0.81 5.4 1
5 2 8 3.49 6.89 1
8 -3 -8 2.09 8.11 1
-8 3 8 6.93 8.67 1
7 -3 -8 6.45 7.93 1
-7 3 8 20.02 14.19 1
6 -3 -8 16.09 8.54 1
-6 3 8 13.29 16.74 1
5 -3 -8 11.46 7.27 1
-5 3 8 7.54 18.23 1
4 -3 -8 8.33 6.46 1
-4 3 8 12.98 13.12 1
3 -3 -8 1.22 10.74 1
-3 3 8 5.45 7.9 1
2 -3 -8 18.48 8.55 1
-2 3 8 17.55 8.1 1
1 -3 -8 1.82 6.57 1
-1 3 8 1.79 7.69 1
0 -3 -8 5.45 5.76 1
0 3 8 10.4 7.59 1
-1 -3 -8 17.39 6.9 1
1 3 8 19.28 7.03 1
-2 -3 -8 3.75 7.44 1
2 3 8 0.56 4.13 1
-3 -3 -8 3.67 7.22 1
3 3 8 0 7.98 1
-4 -3 -8 8.66 7.93 1
4 3 8 11.94 9.45 1
7 -4 -8 12.51 9.57 1
-7 4 8 0 12.95 1
6 -4 -8 5.29 6.38 1
-6 4 8 0 23.48 1
5 -4 -8 13.44 6.88 1
-5 4 8 15.81 10.94 1
4 -4 -8 3.38 6.63 1
-4 4 8 5.21 14.65 1
3 -4 -8 2.19 10.74 1
-3 4 8 9.52 8.27 1
2 -4 -8 16.25 7.46 1
-2 4 8 13.01 8.24 1
1 -4 -8 1.71 7.39 1
-1 4 8 0.73 8.8 1
0 -4 -8 0 7.29 1
0 4 8 8.75 8 1
-1 -4 -8 4.19 7.29 1
1 4 8 21.92 8.62 1
-2 -4 -8 11.73 7.39 1
2 4 8 2.92 6.91 1
6 -5 -8 6.49 7.31 1
-6 5 8 7.4 9.24 1
5 -5 -8 4.55 11.91 1
-5 5 8 7.85 9.35 1
4 -5 -8 10.19 12.42 1
-4 5 8 15.63 14.72 1
3 -5 -8 8.38 7.81 1
-3 5 8 8.08 9.26 1
2 -5 -8 8.9 7.03 1
-2 5 8 0.6 7.82 1
1 -5 -8 7.88 7.63 1
-1 5 8 4.35 10.24 1
0 -5 -8 0 8.44 1
0 5 8 6.4 8.5 1
-1 -5 -8 13.91 6.5 1
1 5 8 13.54 5.99 1
3 -6 -8 7.59 9.83 1
-3 6 8 5.48 9.09 1
2 -6 -8 10.92 7.76 1
-2 6 8 6.66 8.61 1
0 12 -9 8.4 5.39 1
0 -12 9 14.72 7.13 1
-1 12 -9 11.47 6.02 1
1 -12 9 2.6 7.5 1
-2 12 -9 20.71 6.74 1
2 -12 9 2.26 8.21 1
3 11 -9 12.44 4.21 1
-3 -11 9 0.73 8.85 1
2 11 -9 5.92 4.88 1
-2 -11 9 1 9.1 1
1 11 -9 8.02 3.5 1
-1 -11 9 15.69 9.29 1
0 11 -9 9.75 3.03 1
0 -11 9 1.2 6.76 1
-1 11 -9 3.99 4.12 1
1 -11 9 4.97 6.69 1
-2 11 -9 10.98 3.85 1
2 -11 9 1.73 7.86 1
-3 11 -9 9.11 5.34 1
3 -11 9 14.23 9.79 1
-4 11 -9 12.27 6.01 1
4 -11 9 6.7 7.41 1
4 10 -9 12.43 5.51 1
-4 -10 9 1.7 6.47 1
3 10 -9 16.23 5.5 1
-3 -10 9 13.4 7.07 1
2 10 -9 10.44 4.09 1
-2 -10 9 2.26 6.92 1
1 10 -9 4.03 3.23 1
-1 -10 9 14.11 7.02 1
0 10 -9 16.37 3.14 1
0 -10 9 25.21 7.21 1
-1 10 -9 6.82 3.82 1
1 -10 9 9.1 7.31 1
-2 10 -9 6.83 4.5 1
2 -10 9 3.33 7.61 1
-3 10 -9 10.06 5.88 1
3 -10 9 11.25 7.7 1
-4 10 -9 7.96 6.2 1
4 -10 9 0.16 7.81 1
-5 10 -9 8.07 7.18 1
5 -10 9 0 7.63 1
5 9 -9 8.57 5.35 1
-5 -9 9 5.47 6.29 1
4 9 -9 11.36 5.34 1
-4 -9 9 0.33 7.82 1
3 9 -9 36.57 5.17 1
-3 -9 9 28.03 7.42 1
2 9 -9 7.88 4.24 1
-2 -9 9 4.59 7.39 1
1 9 -9 1.54 2.98 1
-1 -9 9 7.46 7.33 1
0 9 -9 37.39 2.98 1
0 -9 9 41.83 7.09 1
-1 9 -9 3.96 3.06 1
1 -9 9 3.94 6.39 1
-2 9 -9 6.46 3.73 1
2 -9 9 2.01 6.5 1
-3 9 -9 15.04 5.89 1
3 -9 9 17.74 6.52 1
-4 9 -9 4.14 5.83 1
4 -9 9 0 7 1
-5 9 -9 8.79 7.02 1
5 -9 9 4.36 6.55 1
-6 9 -9 26.51 6.56 1
6 -9 9 8.8 5.61 1
6 8 -9 22.61 6.08 1
-6 -8 9 16.05 6.27 1
5 8 -9 4.26 5.32 1
-5 -8 9 0 8.22 1
4 8 -9 13.27 5.07 1
-4 -8 9 11.24 6.24 1
3 8 -9 21.49 4.58 1
-3 -8 9 10.88 6.46 1
2 8 -9 9.49 3.65 1
-2 -8 9 3.76 6.2 1
1 8 -9 6.43 3.17 1
-1 -8 9 2.06 6.18 1
0 8 -9 18.87 3.59 1
0 -8 9 20.06 6.18 1
-1 8 -9 17.76 2.83 1
1 -8 9 5.99 8.06 1
-2 8 -9 6.42 3.36 1
2 -8 9 4.39 8.53 1
-3 8 -9 29.05 5.75 1
3 -8 9 25.06 5.1 1
-4 8 -9 18.92 7.58 1
4 -8 9 1.61 4.52 1
-5 8 -9 13.63 6.13 1
5 -8 9 0.17 4.52 1
-6 8 -9 9.38 6.04 1
6 -8 9 0 4.81 1
7 7 -9 8.8 7.35 1
-7 -7 9 7.84 7.65 1
6 7 -9 13.58 6.07 1
-6 -7 9 2.99 6.57 1
5 7 -9 10.67 5.31 1
-5 -7 9 14.19 6.37 1
4 7 -9 6.43 5.27 1
-4 -7 9 4.89 6.24 1
3 7 -9 3.05 3.96 1
-3 -7 9 11.94 6.37 1
2 7 -9 21.56 3.47 1
-2 -7 9 25.16 6.94 1
1 7 -9 1.65 3.22 1
-1 -7 9 10.41 4.86 1
0 7 -9 8.41 3.32 1
0 -7 9 3.81 8.64 1
-1 7 -9 18.27 3.46 1
1 -7 9 22.14 8.79 1
-2 7 -9 9.23 3.81 1
2 -7 9 7.77 9.97 1
-3 7 -9 9.84 4.32 1
3 -7 9 16.3 14.87 1
-4 7 -9 22.29 6.36 1
4 -7 9 27.63 15.35 1
-5 7 -9 11.28 5.67 1
5 -7 9 6.13 8.67 1
-6 7 -9 7.62 5.93 1
6 -7 9 4.89 9.97 1
7 6 -9 0 6.1 1
-7 -6 9 7.51 7.76 1
6 6 -9 0.39 4.16 1
-6 -6 9 7.31 6.1 1
5 6 -9 14.51 5.19 1
-5 -6 9 28.67 5.3 1
4 6 -9 2.06 4.36 1
-4 -6 9 8.94 6.11 1
3 6 -9 8.37 4.17 1
-3 -6 9 0.78 5.83 1
2 6 -9 20.67 5.16 1
-2 -6 9 23.32 6.31 1
1 6 -9 4.31 4.05 1
-1 -6 9 7.3 4.28 1
0 6 -9 3.8 4.56 1
0 -6 9 6.14 5.22 1
-1 6 -9 37.9 6.08 1
1 -6 9 36.4 12.24 1
-2 6 -9 2.54 3.13 1
2 -6 9 0.32 10.89 1
-3 6 -9 2.27 2.93 1
3 -6 9 12.75 6.81 1
-4 6 -9 19.67 4.03 1
4 -6 9 28.89 8.03 1
-5 6 -9 12.35 5.43 1
5 -6 9 6.39 16.39 1
-6 6 -9 13.97 6.98 1
6 -6 9 24.08 18.02 1
8 5 -9 15.02 6.65 1
-8 -5 9 26.03 8.34 1
7 5 -9 0.95 5.95 1
-7 -5 9 10.85 7.46 1
6 5 -9 4.91 5.49 1
-6 -5 9 9.57 6.2 1
5 5 -9 20.34 5.04 1
-5 -5 9 18.66 4.91 1
4 5 -9 4.81 5.54 1
-4 -5 9 6.14 4.28 1
3 5 -9 21.88 5.26 1
-3 -5 9 23.16 6.35 1
2 5 -9 13.24 4.89 1
-2 -5 9 14.65 5.35 1
1 5 -9 14.99 4.1 1
-1 -5 9 10.86 8.45 1
0 5 -9 9.18 3.33 1
0 -5 9 16.53 5.91 1
-1 5 -9 21.22 3.84 1
1 -5 9 37.46 5.9 1
-2 5 -9 30.03 3.05 1
2 -5 9 42.05 7.02 1
-3 5 -9 7.56 2.38 1
3 -5 9 6.74 6.59 1
-4 5 -9 4.19 1.98 1
4 -5 9 5.87 7.43 1
-5 5 -9 19.52 2.42 1
5 -5 9 7.16 9.54 1
-6 5 -9 11.59 12.09 1
6 -5 9 0 24.43 1
8 4 -9 7.68 6.33 1
-8 -4 9 41.05 9.31 1
7 4 -9 4.88 6.08 1
-7 -4 9 26.55 6.31 1
6 4 -9 0.84 5.47 1
-6 -4 9 6.79 6.27 1
5 4 -9 23.89 6.22 1
-5 -4 9 29.74 5.03 1
4 4 -9 62.7 6.58 1
-4 -4 9 78.38 5.42 1
3 4 -9 11.2 5.43 1
-3 -4 9 10.15 5.57 1
2 4 -9 2.43 4.23 1
-2 -4 9 8.11 7.85 1
1 4 -9 25.83 3.9 1
-1 -4 9 29.1 7.28 1
0 4 -9 8.08 3.63 1
0 -4 9 15.18 6.67 1
-1 4 -9 1.32 3.34 1
1 -4 9 1.22 5.02 1
-2 4 -9 50.74 5.87 1
2 -4 9 65.99 8.75 1
-3 4 -9 3.05 3.43 1
3 -4 9 1.86 6.58 1
-4 4 -9 5.63 4.81 1
4 -4 9 4.39 4.58 1
-5 4 -9 34.38 5.87 1
5 -4 9 37.05 6.14 1
-6 4 -9 14.44 8.15 1
6 -4 9 3.59 5.96 1
8 3 -9 3.46 9.27 1
-8 -3 9 24.69 24.18 1
7 3 -9 24.48 6.96 1
-7 -3 9 44.62 7.47 1
6 3 -9 3.8 5.62 1
-6 -3 9 5.24 6.22 1
5 3 -9 0 5.45 1
-5 -3 9 9.62 4.58 1
4 3 -9 55.5 6.48 1
-4 -3 9 73.23 5.36 1
3 3 -9 8.48 5.37 1
-3 -3 9 2.86 3.41 1
2 3 -9 15.83 5.85 1
-2 -3 9 15.05 6.55 1
1 3 -9 17.85 7.01 1
-1 -3 9 21.83 9.94 1
0 3 -9 7.06 5.86 1
0 -3 9 1.75 4.87 1
-1 3 -9 1.42 9.62 1
1 -3 9 1.56 6.35 1
-2 3 -9 60.31 6.79 1
2 -3 9 38.11 6.49 1
-3 3 -9 1.22 4.61 1
3 -3 9 2.59 5.66 1
-4 3 -9 5.85 4.92 1
4 -3 9 1.86 4.93 1
-5 3 -9 18.39 5.45 1
5 -3 9 36.57 5.96 1
-6 3 -9 2.74 5.46 1
6 -3 9 18.23 6.12 1
8 2 -9 0.24 8.82 1
-8 -2 9 5.35 7 1
7 2 -9 43.92 7.43 1
-7 -2 9 43.29 7.02 1
6 2 -9 4.76 6.36 1
-6 -2 9 4.55 5.85 1
5 2 -9 7.95 8.03 1
-5 -2 9 13.49 6.8 1
4 2 -9 41.58 9.53 1
-4 -2 9 54.13 6.87 1
3 2 -9 10.79 11.76 1
-3 -2 9 5.2 5.61 1
2 2 -9 26.12 7.3 1
-2 -2 9 30.27 4.5 1
1 2 -9 3.04 5.63 1
-1 -2 9 3.33 6.6 1
0 2 -9 11.14 4.16 1
0 -2 9 3.27 7.63 1
-1 2 -9 6.81 8.71 1
1 -2 9 0 7.22 1
-2 2 -9 24.4 5.38 1
2 -2 9 18.46 7.96 1
-3 2 -9 8.08 5.93 1
3 -2 9 3.37 7.04 1
-4 2 -9 2.1 4.96 1
4 -2 9 2.39 9.2 1
-5 2 -9 15.91 8.61 1
5 -2 9 20.18 7.27 1
-6 2 -9 13.37 6.46 1
6 -2 9 11.43 9.58 1
8 1 -9 5.41 11.7 1
-8 -1 9 14.42 8.37 1
7 1 -9 12.25 9.57 1
-7 -1 9 33.82 8.71 1
6 1 -9 25.57 9.67 1
-6 -1 9 31.05 11.19 1
5 1 -9 0.82 9.23 1
-5 -1 9 0 15.79 1
4 1 -9 6.71 8.76 1
-4 -1 9 11.35 7.74 1
3 1 -9 24.35 9 1
-3 -1 9 12.11 7.9 1
2 1 -9 12.1 6.18 1
-2 -1 9 21.48 5.69 1
1 1 -9 5.13 4.63 1
-1 -1 9 7.84 3.63 1
0 1 -9 13.52 6.92 1
0 -1 9 10.4 7.03 1
-1 1 -9 2.27 4.2 1
1 -1 9 6.2 4.29 1
-2 1 -9 15.85 7.07 1
2 -1 9 5.06 7.64 1
-3 1 -9 11.85 9.51 1
3 -1 9 19.83 9.46 1
-4 1 -9 0 8.47 1
4 -1 9 8.71 9.24 1
-5 1 -9 0 7.37 1
5 -1 9 12.23 8.04 1
8 0 -9 6.81 11.29 1
-8 0 9 4.34 8.03 1
7 0 -9 0 8.32 1
-7 0 9 16.88 9.05 1
6 0 -9 16.47 8.2 1
-6 0 9 15.52 9.39 1
5 0 -9 2.9 6.64 1
-5 0 9 14.78 8.71 1
4 0 -9 4.07 5.97 1
-4 0 9 0.91 9.68 1
3 0 -9 27.91 5.77 1
-3 0 9 19.3 7.63 1
2 0 -9 3.22 5.26 1
-2 0 9 2.73 3.83 1
1 0 -9 9.22 7.19 1
-1 0 9 5.1 3.51 1
0 0 -9 7.58 4.45 1
0 0 9 13.08 5.01 1
-1 0 -9 6.31 6.56 1
1 0 9 4.78 8.09 1
-2 0 -9 5.5 8.09 1
2 0 9 14.09 10.62 1
-3 0 -9 19.79 10.29 1
3 0 9 10.44 8.77 1
-4 0 -9 15.36 7.55 1
4 0 9 13.58 8.56 1
-5 0 -9 1.46 5.13 1
5 0 9 11.72 6.79 1
8 -1 -9 7.33 7.54 1
-8 1 9 19.66 8.75 1
7 -1 -9 2.25 6.88 1
-7 1 9 1.61 8.93 1
6 -1 -9 11.43 7.03 1
-6 1 9 23.28 14.58 1
5 -1 -9 5.59 6.63 1
-5 1 9 11.81 14.01 1
4 -1 -9 2.53 5.49 1
-4 1 9 9.2 10.54 1
3 -1 -9 13.42 5.71 1
-3 1 9 20.48 8.1 1
2 -1 -9 5.9 5.03 1
-2 1 9 5.24 6.08 1
1 -1 -9 6.83 7.47 1
-1 1 9 0.7 4.45 1
0 -1 -9 6.92 5.06 1
0 1 9 7.49 5.56 1
-1 -1 -9 11.65 6.97 1
1 1 9 16.2 8.41 1
-2 -1 -9 5.59 6.38 1
2 1 9 12.78 8.35 1
-3 -1 -9 17.96 11.02 1
3 1 9 15.94 10.76 1
-4 -1 -9 6.3 7.62 1
4 1 9 5.26 8.69 1
7 -2 -9 7.44 8.34 1
-7 2 9 0 29.29 1
6 -2 -9 7.57 7.84 1
-6 2 9 10.39 23.43 1
5 -2 -9 30.97 7.01 1
-5 2 9 17.34 15.67 1
4 -2 -9 1.94 6.36 1
-4 2 9 5.09 11.02 1
3 -2 -9 0.61 6.07 1
-3 2 9 1.41 8.55 1
2 -2 -9 18.65 9.26 1
-2 2 9 28.3 8.3 1
1 -2 -9 0 6.66 1
-1 2 9 1.47 8.08 1
0 -2 -9 8.04 7.2 1
0 2 9 1.11 3.41 1
-1 -2 -9 5.98 6.85 1
1 2 9 6.1 8.47 1
-2 -2 -9 1.66 8.75 1
2 2 9 6.8 10.15 1
-3 -2 -9 3.33 6.63 1
3 2 9 0.57 8.3 1
7 -3 -9 4.01 7.29 1
-7 3 9 3.7 19 1
6 -3 -9 2.02 7.78 1
-6 3 9 0 15.14 1
5 -3 -9 9.95 7.72 1
-5 3 9 37.64 25.88 1
4 -3 -9 4.33 6.61 1
-4 3 9 5.92 11.02 1
3 -3 -9 11.09 11.14 1
-3 3 9 5.01 8.61 1
2 -3 -9 13.16 7.68 1
-2 3 9 29.34 9.25 1
1 -3 -9 0.88 6.22 1
-1 3 9 7.69 8.22 1
0 -3 -9 0 7.87 1
0 3 9 4.83 7.4 1
-1 -3 -9 7.41 7.63 1
1 3 9 4.21 8.48 1
-2 -3 -9 11.65 7.96 1
2 3 9 5.4 8.54 1
6 -4 -9 9.28 7.42 1
-6 4 9 7.53 14.94 1
5 -4 -9 10.25 7.9 1
-5 4 9 5.78 15.06 1
4 -4 -9 25.22 11.64 1
-4 4 9 13.33 11.73 1
3 -4 -9 2.52 8.88 1
-3 4 9 13.06 8.58 1
2 -4 -9 16.11 10.2 1
-2 4 9 0.16 8.83 1
1 -4 -9 3.46 9.03 1
-1 4 9 13.33 8.97 1
0 -4 -9 3.68 8.48 1
0 4 9 1.75 8.56 1
-1 -4 -9 3.76 7 1
1 4 9 2.21 10.32 1
2 11 -10 6.42 4.04 1
-2 -11 10 3.78 9.24 1
1 11 -10 9.27 4.16 1
-1 -11 10 1 6.76 1
0 11 -10 6.39 3.75 1
0 -11 10 12.13 9.17 1
-1 11 -10 5.55 4.19 1
1 -11 10 4.2 8.14 1
-2 11 -10 8.3 4.06 1
2 -11 10 8.17 7.63 1
-3 11 -10 19.85 5.15 1
3 -11 10 7.21 7.29 1
4 10 -10 7.96 5.24 1
-4 -10 10 0 7.32 1
3 10 -10 2.12 8.42 1
-3 -10 10 10.55 7.46 1
2 10 -10 12.88 3.89 1
-2 -10 10 6.23 8.76 1
1 10 -10 6.83 4.39 1
-1 -10 10 1.17 7.68 1
0 10 -10 15.4 4.34 1
0 -10 10 23.03 7.12 1
-1 10 -10 10.17 3.81 1
1 -10 10 4.87 8.58 1
-2 10 -10 0.91 4.89 1
2 -10 10 2.14 9.95 1
-3 10 -10 15.53 5.58 1
3 -10 10 4.05 6.21 1
-4 10 -10 16.87 6.61 1
4 -10 10 0.81 5.78 1
5 9 -10 3.1 5.31 1
-5 -9 10 6.07 7.14 1
4 9 -10 6.64 5.67 1
-4 -9 10 12.68 7.29 1
3 9 -10 18.66 6.11 1
-3 -9 10 27.48 8.2 1
2 9 -10 6.32 3.51 1
-2 -9 10 8.2 7.15 1
1 9 -10 3.41 4.09 1
-1 -9 10 2.79 6.59 1
0 9 -10 13.68 4.09 1
0 -9 10 12.51 8.64 1
-1 9 -10 6.47 4.33 1
1 -9 10 4.81 9.08 1
-2 9 -10 9.85 3.04 1
2 -9 10 7.32 9.51 1
-3 9 -10 3.6 4.83 1
3 -9 10 2.88 10.23 1
-4 9 -10 7.04 6.78 1
4 -9 10 9.84 14.12 1
-5 9 -10 9.6 6.3 1
5 -9 10 0 15.41 1
6 8 -10 0 6.18 1
-6 -8 10 8.31 6.34 1
5 8 -10 8.45 5.25 1
-5 -8 10 14.43 6.75 1
4 8 -10 6.83 5.74 1
-4 -8 10 8.06 7.12 1
3 8 -10 8.27 3.86 1
-3 -8 10 7.73 6.38 1
2 8 -10 14.37 3.33 1
-2 -8 10 14.62 6.67 1
1 8 -10 5.42 3.42 1
-1 -8 10 3.75 5.96 1
0 8 -10 8.88 3.17 1
0 -8 10 4.38 8.46 1
-1 8 -10 8.53 4.37 1
1 -8 10 19.49 8.72 1
-2 8 -10 3.64 3.56 1
2 -8 10 6.49 10.29 1
-3 8 -10 7.19 3.58 1
3 -8 10 10.83 12.13 1
-4 8 -10 22.1 4.35 1
4 -8 10 15.35 14.83 1
-5 8 -10 20.61 5.52 1
5 -8 10 16.85 15.93 1
6 7 -10 8.03 7.84 1
-6 -7 10 1.1 6.21 1
5 7 -10 19.71 5.98 1
-5 -7 10 40.16 8.12 1
4 7 -10 1.75 4.18 1
-4 -7 10 11.13 6.76 1
3 7 -10 4.09 4.18 1
-3 -7 10 6.64 5.96 1
2 7 -10 30.03 4.36 1
-2 -7 10 32.6 6.57 1
1 7 -10 1.75 3.7 1
-1 -7 10 6.62 8.34 1
0 7 -10 7.68 3.74 1
0 -7 10 10.23 6.1 1
-1 7 -10 20.61 4.66 1
1 -7 10 10.7 13.4 1
-2 7 -10 3.55 3.98 1
2 -7 10 1.95 8.47 1
-3 7 -10 8.61 2.83 1
3 -7 10 2.65 11.27 1
-4 7 -10 21.25 3.59 1
4 -7 10 17.47 27.29 1
-5 7 -10 13.71 4.51 1
5 -7 10 11.83 8.47 1
7 6 -10 1.78 7.45 1
-7 -6 10 7.75 7.9 1
6 6 -10 1.8 6.32 1
-6 -6 10 6.73 6.59 1
5 6 -10 8.17 5.96 1
-5 -6 10 36.12 7.94 1
4 6 -10 28.59 5.9 1
-4 -6 10 30.41 6.89 1
3 6 -10 0.74 4.82 1
-3 -6 10 2.1 5.65 1
2 6 -10 15.49 6.73 1
-2 -6 10 25.22 6.78 1
1 6 -10 4.57 4.01 1
-1 -6 10 25.99 10.98 1
0 6 -10 10.27 2.92 1
0 -6 10 9.61 4.81 1
-1 6 -10 15.9 3.87 1
1 -6 10 18.21 5.46 1
-2 6 -10 12.07 3.26 1
2 -6 10 21.11 11.75 1
-3 6 -10 4.79 4.19 1
3 -6 10 20.43 6.89 1
-4 6 -10 5.27 3.15 1
4 -6 10 7.58 7.49 1
-5 6 -10 18.01 3.55 1
5 -6 10 10.87 16.69 1
-6 6 -10 27.13 6.85 1
6 -6 10 11.13 16.83 1
7 5 -10 13.8 9.37 1
-7 -5 10 25.65 6.58 1
6 5 -10 0.18 6.35 1
-6 -5 10 5.5 6.39 1
5 5 -10 4.54 6.66 1
-5 -5 10 7.73 4.61 1
4 5 -10 58.08 8.73 1
-4 -5 10 57.9 6.45 1
3 5 -10 2.91 5.13 1
-3 -5 10 4.28 7 1
2 5 -10 12.88 4.36 1
-2 -5 10 19.33 8.2 1
1 5 -10 33.93 3.9 1
-1 -5 10 41.1 7.26 1
0 5 -10 6.11 3.58 1
0 -5 10 5.55 5.58 1
-1 5 -10 6.96 6.05 1
1 -5 10 3.33 7.25 1
-2 5 -10 26.07 2.62 1
2 -5 10 43.79 5.02 1
-3 5 -10 4.26 5.46 1
3 -5 10 0.61 9.82 1
-4 5 -10 7 6.84 1
4 -5 10 0.57 12.1 1
-5 5 -10 54.78 10.68 1
5 -5 10 2.15 10.04 1
8 4 -10 0.26 8.52 1
-8 -4 10 14.27 8.31 1
7 4 -10 9.49 7.67 1
-7 -4 10 29.91 8.64 1
6 4 -10 4.52 6.09 1
-6 -4 10 10.74 6.66 1
5 4 -10 2.77 5.85 1
-5 -4 10 16.35 6.41 1
4 4 -10 99.19 7.26 1
-4 -4 10 122 5.8 1
3 4 -10 11.22 5.44 1
-3 -4 10 21.95 4.06 1
2 4 -10 6.31 4.51 1
-2 -4 10 7.4 6.34 1
1 4 -10 41.05 4.26 1
-1 -4 10 43.39 9.93 1
0 4 -10 0.56 6.96 1
0 -4 10 15.82 10.76 1
-1 4 -10 1.6 8.36 1
1 -4 10 11.19 10.84 1
-2 4 -10 23.59 6.4 1
2 -4 10 41.9 11.98 1
-3 4 -10 0.87 6.38 1
3 -4 10 1.95 6.86 1
-4 4 -10 5.78 5.18 1
4 -4 10 12.88 5.03 1
-5 4 -10 16.68 5.56 1
5 -4 10 12.74 5.14 1
8 3 -10 4.42 7.52 1
-8 -3 10 7.07 7.94 1
7 3 -10 10.73 7.71 1
-7 -3 10 34.83 7.21 1
6 3 -10 2.08 6.61 1
-6 -3 10 6.78 6.16 1
5 3 -10 7.66 7.02 1
-5 -3 10 4.24 6.28 1
4 3 -10 34.56 8.07 1
-4 -3 10 46.11 4.07 1
3 3 -10 29.39 8.88 1
-3 -3 10 25.41 2.71 1
2 3 -10 11.7 7.96 1
-2 -3 10 4.68 8.47 1
1 3 -10 24.38 4.01 1
-1 -3 10 20.04 9.46 1
0 3 -10 18.46 3.73 1
0 -3 10 28.22 5.14 1
-1 3 -10 13.05 9.04 1
1 -3 10 3.21 5.98 1
-2 3 -10 11.98 8.83 1
2 -3 10 11.39 6.69 1
-3 3 -10 12.69 6.34 1
3 -3 10 7.39 7.35 1
-4 3 -10 6.32 5.68 1
4 -3 10 14.66 6.44 1
-5 3 -10 3.45 5.19 1
5 -3 10 12.01 5.7 1
8 2 -10 0 6.98 1
-8 -2 10 7.78 8.36 1
7 2 -10 10.07 10.34 1
-7 -2 10 0 11.64 1
6 2 -10 7.89 9.4 1
-6 -2 10 28.54 15.54 1
5 2 -10 8.76 8.85 1
-5 -2 10 7.3 11.14 1
4 2 -10 11.58 9.83 1
-4 -2 10 19.25 5.69 1
3 2 -10 43.68 8.8 1
-3 -2 10 48.5 6.32 1
2 2 -10 0.82 4.81 1
-2 -2 10 0.32 5.14 1
1 2 -10 3.84 5.89 1
-1 -2 10 7.42 5.77 1
0 2 -10 20.85 3.9 1
0 -2 10 34.37 6.54 1
-1 2 -10 5.6 8.38 1
1 -2 10 8.22 6.96 1
-2 2 -10 0 8.49 1
2 -2 10 3.56 7.69 1
-3 2 -10 3.79 12.16 1
3 -2 10 19.12 8.44 1
-4 2 -10 11.67 7.73 1
4 -2 10 1.24 9.15 1
-5 2 -10 4.75 5.65 1
5 -2 10 13.67 7.42 1
8 1 -10 7.74 11.17 1
-8 -1 10 26.56 23.42 1
7 1 -10 6.64 10.09 1
-7 -1 10 14.5 22.89 1
6 1 -10 12.25 10.86 1
-6 -1 10 35.77 14.78 1
5 1 -10 8.42 9.23 1
-5 -1 10 0 15.99 1
4 1 -10 5.9 6.86 1
-4 -1 10 5.99 6.26 1
3 1 -10 25.57 5.38 1
-3 -1 10 41.6 4.58 1
2 1 -10 6.25 5.29 1
-2 -1 10 7.28 2.95 1
1 1 -10 3.99 4.5 1
-1 -1 10 4.92 3.65 1
0 1 -10 13.79 7.86 1
0 -1 10 23.77 7.67 1
-1 1 -10 18.14 12.23 1
1 -1 10 5.38 7.99 1
-2 1 -10 9.69 12.23 1
2 -1 10 3.67 9.3 1
-3 1 -10 11.15 11.96 1
3 -1 10 12.07 9.6 1
-4 1 -10 3.7 6.62 1
4 -1 10 13 8.88 1
7 0 -10 4.4 8.98 1
-7 0 10 20.01 11.14 1
6 0 -10 4.63 8.72 1
-6 0 10 8.82 9.09 1
5 0 -10 8.44 6.55 1
-5 0 10 14.83 8.4 1
4 0 -10 3.62 6.43 1
-4 0 10 6.23 11.19 1
3 0 -10 11.47 6.15 1
-3 0 10 9.27 5.78 1
2 0 -10 5.46 6.51 1
-2 0 10 12.25 5.52 1
1 0 -10 11.25 9.44 1
-1 0 10 22.58 5.8 1
0 0 -10 11.36 8.65 1
0 0 10 4.25 8.09 1
-1 0 -10 7.83 6.89 1
1 0 10 0 9.22 1
-2 0 -10 8.44 11.86 1
2 0 10 16.06 8.35 1
-3 0 -10 5.47 9.25 1
3 0 10 10.88 9.02 1
-4 0 -10 10.81 6.68 1
4 0 10 10.06 10.56 1
7 -1 -10 7.49 7.41 1
-7 1 10 8.59 10.27 1
6 -1 -10 2.57 7.06 1
-6 1 10 11.56 9.89 1
5 -1 -10 9.67 6.56 1
-5 1 10 4.68 13.2 1
4 -1 -10 6.26 6.64 1
-4 1 10 3.04 10.94 1
3 -1 -10 3.7 7.54 1
-3 1 10 2.45 9.07 1
2 -1 -10 22.04 9.45 1
-2 1 10 12.26 9.29 1
1 -1 -10 0.2 6.4 1
-1 1 10 8.91 4.19 1
0 -1 -10 0 9.02 1
0 1 10 4.2 7.68 1
-1 -1 -10 21.37 7.63 1
1 1 10 6.62 8.3 1
-2 -1 -10 1.43 7.7 1
2 1 10 3.18 8.58 1
-3 -1 -10 10.38 7.93 1
3 1 10 9.02 8.87 1
6 -2 -10 5.91 6.53 1
-6 2 10 0 20.52 1
5 -2 -10 7.18 6.67 1
-5 2 10 9.35 12.74 1
4 -2 -10 2.32 6.74 1
-4 2 10 11.54 9.89 1
3 -2 -10 19.87 13.26 1
-3 2 10 9.8 8.44 1
2 -2 -10 7.74 11.92 1
-2 2 10 19.05 9.59 1
1 -2 -10 0 9.38 1
-1 2 10 4.18 7.65 1
0 -2 -10 0.9 7.09 1
0 2 10 3.07 7.75 1
-1 -2 -10 3.32 7.04 1
1 2 10 0.99 8.44 1
-2 -2 -10 9.31 7.75 1
2 2 10 6.97 9.74 1
5 -3 -10 13.36 6.83 1
-5 3 10 6.01 14.35 1
4 -3 -10 24.7 11.23 1
-4 3 10 6.79 10.18 1
3 -3 -10 11.75 9.51 1
-3 3 10 4.77 8.68 1
2 -3 -10 1.39 7.17 1
-2 3 10 1.83 9.54 1
1 -3 -10 7.76 6.91 1
-1 3 10 5.5 8.59 1
0 -3 -10 0 7.46 1
0 3 10 0 9.4 1
3 10 -11 15.58 5.64 1
-3 -10 11 12.77 8.1 1
2 10 -11 9.01 4.84 1
-2 -10 11 16.9 8.39 1
1 10 -11 0.64 4.11 1
-1 -10 11 12.33 6.99 1
0 10 -11 15.82 4.86 1
0 -10 11 16.94 10.25 1
-1 10 -11 14.37 4.97 1
1 -10 11 8.18 9.41 1
-2 10 -11 10.04 4.64 1
2 -10 11 17.09 15.87 1
-3 10 -11 8.94 4.96 1
3 -10 11 8.55 11.1 1
4 9 -11 0 12.1 1
-4 -9 11 2.53 6.97 1
3 9 -11 6.42 4.66 1
-3 -9 11 1.83 7.32 1
2 9 -11 16.13 4.38 1
-2 -9 11 16.41 7.53 1
1 9 -11 5.57 4.46 1
-1 -9 11 8.73 5.97 1
0 9 -11 10.14 4.66 1
0 -9 11 6.9 9.31 1
-1 9 -11 23.27 5.01 1
1 -9 11 21.37 10.22 1
-2 9 -11 1.79 4.47 1
2 -9 11 4.53 11.9 1
-3 9 -11 12.03 5.21 1
3 -9 11 13.46 14.73 1
5 8 -11 1.94 7.4 1
-5 -8 11 10.71 6.82 1
4 8 -11 5.26 3.8 1
-4 -8 11 8.44 6.92 1
3 8 -11 4.2 4.43 1
-3 -8 11 8.31 7.6 1
2 8 -11 15.21 4.15 1
-2 -8 11 13.28 5.95 1
1 8 -11 4.8 3.77 1
-1 -8 11 22.51 9.31 1
0 8 -11 5.37 4.14 1
0 -8 11 11.76 10.29 1
-1 8 -11 31.19 4.78 1
1 -8 11 32.47 10.64 1
-2 8 -11 6.79 4.55 1
2 -8 11 2.43 19.58 1
-3 8 -11 0.36 4.17 1
3 -8 11 0.51 12.89 1
-4 8 -11 16.09 4.24 1
4 -8 11 14.3 14.72 1
6 7 -11 0 7.82 1
-6 -7 11 15.77 7.17 1
5 7 -11 5.71 6.33 1
-5 -7 11 5.58 7.92 1
4 7 -11 1.94 5.68 1
-4 -7 11 15.66 6.91 1
3 7 -11 2.08 5.22 1
-3 -7 11 4.19 5.98 1
2 7 -11 20.35 5.36 1
-2 -7 11 29.48 10.13 1
1 7 -11 13.86 3.77 1
-1 -7 11 21.26 10.32 1
0 7 -11 9.28 3.72 1
0 -7 11 7.36 6.95 1
-1 7 -11 12.89 4.23 1
1 -7 11 4.4 8.48 1
-2 7 -11 13.98 4.15 1
2 -7 11 17.52 13.9 1
-3 7 -11 4.7 3.88 1
3 -7 11 6.51 13.25 1
-4 7 -11 2.01 6.46 1
4 -7 11 20.33 12.78 1
6 6 -11 3.36 7.54 1
-6 -6 11 6.92 6.82 1
5 6 -11 0 22.9 1
-5 -6 11 7.04 7.71 1
4 6 -11 28.11 8.91 1
-4 -6 11 19.32 8.75 1
3 6 -11 1.83 6.07 1
-3 -6 11 9.47 8.21 1
2 6 -11 9.68 4.97 1
-2 -6 11 15.15 8.77 1
1 6 -11 23.26 4.12 1
-1 -6 11 20.59 9.55 1
0 6 -11 5.85 3.53 1
0 -6 11 10.84 4.93 1
-1 6 -11 5.05 3.74 1
1 -6 11 14.49 4.6 1
-2 6 -11 20.43 3.29 1
2 -6 11 37.23 13.89 1
-3 6 -11 0 10.18 1
3 -6 11 22.58 16.63 1
-4 6 -11 5.4 9.27 1
4 -6 11 1 7.23 1
7 5 -11 6.55 7.82 1
-7 -5 11 14.31 8.12 1
6 5 -11 7.79 9.97 1
-6 -5 11 16.54 7.95 1
5 5 -11 0.83 7.52 1
-5 -5 11 8.97 8.28 1
4 5 -11 20.87 6.36 1
-4 -5 11 22.26 6.39 1
3 5 -11 3.11 6.06 1
-3 -5 11 5.51 7.99 1
2 5 -11 2.83 4.54 1
-2 -5 11 6.49 7.76 1
1 5 -11 32.13 3.92 1
-1 -5 11 39.48 11.27 1
0 5 -11 3.04 5.63 1
0 -5 11 18.53 11.41 1
-1 5 -11 1.25 4.05 1
1 -5 11 4.03 6.9 1
-2 5 -11 31.49 9.8 1
2 -5 11 47.51 5.31 1
-3 5 -11 4.87 9.67 1
3 -5 11 11.17 13.32 1
-4 5 -11 14.81 8.67 1
4 -5 11 12.62 13.37 1
7 4 -11 5.62 7.15 1
-7 -4 11 38.59 8.18 1
6 4 -11 1.01 7.83 1
-6 -4 11 3.77 6.75 1
5 4 -11 0 5.82 1
-5 -4 11 3.62 4.19 1
4 4 -11 25.43 6.19 1
-4 -4 11 21.46 4.57 1
3 4 -11 16.37 5.47 1
-3 -4 11 19.67 10.62 1
2 4 -11 2.32 5.05 1
-2 -4 11 11.45 9.32 1
1 4 -11 13.79 3.33 1
-1 -4 11 13.25 9.82 1
0 4 -11 8.11 3.84 1
0 -4 11 15.7 11.38 1
-1 4 -11 3.64 12.99 1
1 -4 11 10.25 12.25 1
-2 4 -11 20.02 7.24 1
2 -4 11 19.61 12.23 1
-3 4 -11 1.38 10.97 1
3 -4 11 6.16 6.91 1
-4 4 -11 0.02 8.36 1
4 -4 11 12.78 4.68 1
7 3 -11 3.22 8.29 1
-7 -3 11 22.63 7.19 1
6 3 -11 3.42 6.71 1
-6 -3 11 18.25 8.99 1
5 3 -11 0.75 10.44 1
-5 -3 11 17.99 8.14 1
4 3 -11 8.83 9.63 1
-4 -3 11 6.95 2.87 1
3 3 -11 11.25 6.35 1
-3 -3 11 52.11 13.17 1
2 3 -11 3.17 4.31 1
-2 -3 11 10.08 9.2 1
1 3 -11 4.96 4.01 1
-1 -3 11 11.83 9.54 1
0 3 -11 23.44 5.77 1
0 -3 11 24.87 5.3 1
-1 3 -11 0.08 8.7 1
1 -3 11 1.85 5.82 1
-2 3 -11 11.9 9.89 1
2 -3 11 1.01 6.93 1
-3 3 -11 11.18 6.64 1
3 -3 11 5.32 7.38 1
-4 3 -11 8.79 7.3 1
4 -3 11 8.55 5.54 1
7 2 -11 5.25 10.97 1
-7 -2 11 0 21.67 1
6 2 -11 21.36 20.08 1
-6 -2 11 52.79 10.9 1
5 2 -11 13.42 11.46 1
-5 -2 11 45.79 13.33 1
4 2 -11 4.57 6.49 1
-4 -2 11 25.48 4.97 1
3 2 -11 10.16 5.41 1
-3 -2 11 17.23 6.55 1
2 2 -11 3.44 4.65 1
-2 -2 11 0 12.16 1
1 2 -11 0.58 5.01 1
-1 -2 11 4.1 6.25 1
0 2 -11 8.28 12.57 1
0 -2 11 22.93 7.21 1
-1 2 -11 0 14.15 1
1 -2 11 1.72 7.5 1
-2 2 -11 3.73 10.01 1
2 -2 11 13.82 8.44 1
-3 2 -11 10.36 7.73 1
3 -2 11 18.15 8.21 1
6 1 -11 15.23 7.75 1
-6 -1 11 31.18 10.37 1
5 1 -11 8.65 6.71 1
-5 -1 11 27.7 8.41 1
4 1 -11 4.59 5.91 1
-4 -1 11 9.23 4.87 1
3 1 -11 8.19 5.69 1
-3 -1 11 12.18 4.29 1
2 1 -11 18.28 6.78 1
-2 -1 11 4.46 7.09 1
1 1 -11 3.03 8.4 1
-1 -1 11 1.8 7.17 1
0 1 -11 0 9.3 1
0 -1 11 6.7 7.84 1
-1 1 -11 11.28 11 1
1 -1 11 7.27 8.39 1
-2 1 -11 8.82 11.9 1
2 -1 11 15.44 9.81 1
-3 1 -11 6.76 7.11 1
3 -1 11 11.95 8.95 1
6 0 -11 3.04 7.93 1
-6 0 11 12.21 8.66 1
5 0 -11 5.72 8.92 1
-5 0 11 2.67 12.8 1
4 0 -11 3.47 7.47 1
-4 0 11 12.82 8.23 1
3 0 -11 8.21 9.7 1
-3 0 11 9.69 9.97 1
2 0 -11 42.09 12.78 1
-2 0 11 20.25 8.72 1
1 0 -11 3.63 5.9 1
-1 0 11 4.55 8.54 1
0 0 -11 0 8.26 1
0 0 11 1.52 12.12 1
-1 0 -11 9.08 8.31 1
1 0 11 17.31 9.92 1
-2 0 -11 5.47 7.35 1
2 0 11 20.32 8.69 1
5 -1 -11 9.7 8.26 1
-5 1 11 6.23 16.66 1
4 -1 -11 7.75 8.27 1
-4 1 11 6 9.61 1
3 -1 -11 11.21 11.09 1
-3 1 11 6.51 8.49 1
2 -1 -11 29.42 12.8 1
-2 1 11 3.55 7.84 1
1 -1 -11 19.05 10.11 1
-1 1 11 6.25 7.87 1
0 -1 -11 0 8.07 1
0 1 11 5.81 9.43 1
-1 -1 -11 19.33 7.69 1
1 1 11 5.44 8.12 1
3 -2 -11 3.25 9.44 1
-3 2 11 9.07 9.42 1
2 -2 -11 2.31 6.93 1
-2 2 11 6.37 9.24 1
3 9 -12 8.74 4.33 1
-3 -9 12 7.74 7.05 1
2 9 -12 19.6 4.7 1
-2 -9 12 10.42 9.88 1
1 9 -12 8.3 4.02 1
-1 -9 12 3.96 9.2 1
0 9 -12 2.32 4.47 1
0 -9 12 1.03 11.62 1
-1 9 -12 13.77 4.83 1
1 -9 12 27.22 11.1 1
-2 9 -12 7.66 7.48 1
2 -9 12 8.66 13.18 1
4 8 -12 13.13 4.77 1
-4 -8 12 0.3 6.78 1
3 8 -12 6.93 4.6 1
-3 -8 12 3.63 5.66 1
2 8 -12 8.91 5.25 1
-2 -8 12 4.61 9.31 1
1 8 -12 10.42 4.01 1
-1 -8 12 15.66 12.51 1
0 8 -12 3.99 5.61 1
0 -8 12 16.37 13.27 1
-1 8 -12 2.39 4.16 1
1 -8 12 4.39 9.3 1
-2 8 -12 14.43 4.28 1
2 -8 12 19.79 13.96 1
5 7 -12 2.86 7.39 1
-5 -7 12 7.08 10.27 1
4 7 -12 6.53 6.14 1
-4 -7 12 18.23 6.6 1
3 7 -12 5.3 6.02 1
-3 -7 12 0 8.69 1
2 7 -12 8.14 4.33 1
-2 -7 12 7.86 9.92 1
1 7 -12 21.74 4.36 1
-1 -7 12 17.37 10.12 1
0 7 -12 3.26 4.27 1
0 -7 12 8.1 9.35 1
-1 7 -12 1.9 3.98 1
1 -7 12 9.19 13.57 1
-2 7 -12 9.1 3.72 1
2 -7 12 31.51 13.67 1
-3 7 -12 4.31 7.67 1
3 -7 12 35.56 17.66 1
5 6 -12 3.41 8.09 1
-5 -6 12 16.94 12.5 1
4 6 -12 4.75 6.62 1
-4 -6 12 19.97 8.82 1
3 6 -12 0.01 6.76 1
-3 -6 12 10.58 8.58 1
2 6 -12 11.59 6.32 1
-2 -6 12 11.39 10.07 1
1 6 -12 19.15 5.15 1
-1 -6 12 26.19 12.46 1
0 6 -12 1.69 4.21 1
0 -6 12 3.42 12.36 1
-1 6 -12 3.31 7.69 1
1 -6 12 0.78 18.22 1
-2 6 -12 10.1 8.87 1
2 -6 12 26.41 15.32 1
-3 6 -12 11.22 9.61 1
3 -6 12 18.05 17.19 1
5 5 -12 2.64 7.53 1
-5 -5 12 12.29 6.22 1
4 5 -12 7.79 6.34 1
-4 -5 12 9.92 5.34 1
3 5 -12 2.65 5.65 1
-3 -5 12 15 8.97 1
2 5 -12 7.77 5.78 1
-2 -5 12 15.36 12.46 1
1 5 -12 29.58 8.24 1
-1 -5 12 46.4 15.81 1
0 5 -12 0.24 16.89 1
0 -5 12 37.67 15.5 1
-1 5 -12 7.57 12.24 1
1 -5 12 13.99 14.78 1
-2 5 -12 15.86 12.09 1
2 -5 12 18.79 13.78 1
-3 5 -12 9.1 7.39 1
3 -5 12 5.44 12.63 1
6 4 -12 0.33 6.93 1
-6 -4 12 12.05 6.97 1
5 4 -12 1.53 6.65 1
-5 -4 12 21.34 6.97 1
4 4 -12 5.58 7.38 1
-4 -4 12 14.09 15.76 1
3 4 -12 14.77 6.81 1
-3 -4 12 35.01 14.83 1
2 4 -12 21.53 8.33 1
-2 -4 12 16.5 11.24 1
1 4 -12 27.57 11.51 1
-1 -4 12 21.5 14 1
0 4 -12 3.31 13.48 1
0 -4 12 31.02 13.39 1
-1 4 -12 2.07 16.89 1
1 -4 12 3.7 12.13 1
-2 4 -12 4.7 7.27 1
2 -4 12 13.07 12.7 1
-3 4 -12 8.49 6.85 1
3 -4 12 18.45 12.35 1
5 3 -12 3.8 6.22 1
-5 -3 12 20.39 7.2 1
4 3 -12 10.74 9.18 1
-4 -3 12 1.63 3.46 1
3 3 -12 9.91 7.24 1
-3 -3 12 21.26 12.46 1
2 3 -12 8.47 5.37 1
-2 -3 12 15.15 12.25 1
1 3 -12 1.6 18.9 1
-1 -3 12 9.05 9.99 1
0 3 -12 11.01 11.82 1
0 -3 12 22.34 5.1 1
-1 3 -12 10.97 10.38 1
1 -3 12 17.47 6.26 1
-2 3 -12 0.88 15.01 1
2 -3 12 3.16 7.03 1
5 2 -12 2.38 8.15 1
-5 -2 12 2.47 15.68 1
4 2 -12 6.2 6.54 1
-4 -2 12 27.12 11.66 1
3 2 -12 8.29 5.65 1
-3 -2 12 27.13 12.41 1
2 2 -12 12.21 5.08 1
-2 -2 12 14.07 7.43 1
1 2 -12 0 10.65 1
-1 -2 12 27.28 6.34 1
0 2 -12 19.39 15.27 1
0 -2 12 18.43 7.03 1
-1 2 -12 8.1 11.1 1
1 -2 12 24.44 7.72 1
5 1 -12 11.64 7.07 1
-5 -1 12 36.33 5.98 1
4 1 -12 9.77 8.08 1
-4 -1 12 5.41 7.84 1
3 1 -12 13.29 7.32 1
-3 -1 12 2.6 7.27 1
2 1 -12 7.67 9.46 1
-2 -1 12 7.63 7.41 1
1 1 -12 5.32 7.72 1
-1 -1 12 2.18 7.29 1
0 1 -12 0 13.01 1
0 -1 12 15.25 7.85 1
3 0 -12 4.99 10.38 1
-3 0 12 6.76 8.97 1
2 0 -12 23.53 9.07 1
-2 0 12 13.94 10.06 1
1 0 -12 13.21 8.73 1
-1 0 12 4.14 7.68 1
2 7 -13 8.4 4.83 1
-2 -7 13 11.36 9.18 1
1 7 -13 12.62 4.49 1
-1 -7 13 26.86 13.23 1
0 7 -13 2.92 5.12 1
0 -7 13 13.72 13.35 1
3 6 -13 13.26 5.76 1
-3 -6 13 3.77 9.37 1
2 6 -13 11.67 8.96 1
-2 -6 13 13.73 14.17 1
1 6 -13 8.58 7.64 1
-1 -6 13 19.62 14.79 1
0 6 -13 20.85 9.04 1
0 -6 13 20.4 14.42 1
-1 6 -13 4.21 7.49 1
1 -6 13 5.93 14.9 1
3 5 -13 20.19 8.41 1
-3 -5 13 13.71 13.86 1
2 5 -13 31.24 12.27 1
-2 -5 13 0.92 16.41 1
1 5 -13 0 25.16 1
-1 -5 13 0 13.46 1
0 5 -13 16.37 15.7 1
0 -5 13 33.1 14.8 1
3 4 -13 16.53 6.64 1
-3 -4 13 18.91 19.11 1
2 4 -13 17.41 12.92 1
-2 -4 13 98.38 27.52 1
1 4 -13 0 12.57 1
-1 -4 13 19.25 14.87 1
0 4 -13 5.74 11.63 1
0 -4 13 7.96 12.63 1
3 3 -13 24.07 6.98 1
-3 -3 13 22.15 12.72 1
2 3 -13 3.33 5.36 1
-2 -3 13 14.69 10.36 1
1 3 -13 21.04 13.56 1
-1 -3 13 26.86 12.51 1
loop_
_smtbx_masks_void_nr
_smtbx_masks_void_average_x
_smtbx_masks_void_average_y
_smtbx_masks_void_average_z
_smtbx_masks_void_volume
_smtbx_masks_void_count_electrons
1 0.593 -0.128 -0.160 490.8 114.6
