#------------------------------------------------------------------------------
#$Date: 2017-07-25 03:03:41 +0300 (Tue, 25 Jul 2017) $
#$Revision: 198970 $
#$URL: file:///home/coder/svn-repositories/cod/cif/4/12/63/4126302.cif $
#------------------------------------------------------------------------------
#
# This file is available in the Crystallography Open Database (COD),
# http://www.crystallography.net/
#
# All data on this site have been placed in the public domain by the
# contributors.
#
data_4126302
loop_
_publ_author_name
'Sharber, Seth A.'
'Baral, Rom Nath'
'Frausto, Fanny'
'Haas, Terry E.'
'M\"uller, Peter'
'Thomas Iii, Samuel W.'
_publ_section_title
;
 Substituent Effects That Control Conjugated Oligomer Conformation through
 Non-covalent Interactions.
;
_journal_name_full               'Journal of the American Chemical Society'
_journal_paper_doi               10.1021/jacs.7b00878
_journal_year                    2017
_chemical_formula_sum            'C40 H24 F6 O6'
_chemical_formula_weight         714.59
_space_group_crystal_system      triclinic
_space_group_IT_number           2
_space_group_name_Hall           '-P 1'
_space_group_name_H-M_alt        'P -1'
_symmetry_space_group_name_Hall  '-P 1'
_symmetry_space_group_name_H-M   'P -1'
_atom_sites_solution_hydrogens   geom
_audit_creation_method           SHELXL-2014/7
_audit_update_record
;
2016-11-15 # Formatted by publCIF

;
_cell_angle_alpha                105.718(2)
_cell_angle_beta                 91.546(2)
_cell_angle_gamma                99.403(2)
_cell_formula_units_Z            1
_cell_length_a                   7.6773(6)
_cell_length_b                   9.1349(7)
_cell_length_c                   12.3066(10)
_cell_measurement_reflns_used    9557
_cell_measurement_temperature    101(2)
_cell_measurement_theta_max      29.78
_cell_measurement_theta_min      3.09
_cell_volume                     817.33(11)
_computing_structure_refinement  'SHELXL-2014/7 (Sheldrick, 2014)'
_diffrn_ambient_temperature      101(2)
_diffrn_measured_fraction_theta_full 0.998
_diffrn_measured_fraction_theta_max 0.995
_diffrn_measurement_device_type  'Bruker APEX-II CCD'
_diffrn_radiation_type           MoK\a
_diffrn_radiation_wavelength     0.71073
_diffrn_reflns_av_R_equivalents  0.0278
_diffrn_reflns_av_unetI/netI     0.0242
_diffrn_reflns_Laue_measured_fraction_full 0.998
_diffrn_reflns_Laue_measured_fraction_max 0.995
_diffrn_reflns_limit_h_max       10
_diffrn_reflns_limit_h_min       -10
_diffrn_reflns_limit_k_max       12
_diffrn_reflns_limit_k_min       -12
_diffrn_reflns_limit_l_max       17
_diffrn_reflns_limit_l_min       -17
_diffrn_reflns_number            17374
_diffrn_reflns_point_group_measured_fraction_full 0.998
_diffrn_reflns_point_group_measured_fraction_max 0.995
_diffrn_reflns_theta_full        25.242
_diffrn_reflns_theta_max         29.793
_diffrn_reflns_theta_min         3.090
_exptl_absorpt_coefficient_mu    0.120
_exptl_absorpt_correction_type   multi-scan
_exptl_absorpt_process_details   SADABS-2014/5
_exptl_crystal_colour            Colorless
_exptl_crystal_density_diffrn    1.452
_exptl_crystal_description       Plate
_exptl_crystal_F_000             366
_exptl_crystal_size_max          2.000
_exptl_crystal_size_mid          2.000
_exptl_crystal_size_min          0.400
_exptl_transmission_factor_max   0.9540
_exptl_transmission_factor_min   0.7960
_refine_diff_density_max         0.489
_refine_diff_density_min         -0.181
_refine_diff_density_rms         0.066
_refine_ls_extinction_method     none
_refine_ls_goodness_of_fit_ref   1.032
_refine_ls_hydrogen_treatment    constr
_refine_ls_matrix_type           full
_refine_ls_number_parameters     236
_refine_ls_number_reflns         4647
_refine_ls_number_restraints     0
_refine_ls_restrained_S_all      1.032
_refine_ls_R_factor_all          0.0519
_refine_ls_R_factor_gt           0.0430
_refine_ls_shift/su_max          0.001
_refine_ls_shift/su_mean         0.000
_refine_ls_structure_factor_coef Fsqd
_refine_ls_weighting_details
'w=1/[\s^2^(Fo^2^)+(0.0640P)^2^+0.2835P] where P=(Fo^2^+2Fc^2^)/3'
_refine_ls_weighting_scheme      calc
_refine_ls_wR_factor_gt          0.1113
_refine_ls_wR_factor_ref         0.1187
_reflns_Friedel_coverage         0.000
_reflns_number_gt                3899
_reflns_number_total             4647
_reflns_threshold_expression     'I > 2\s(I)'
_cod_data_source_file            ja7b00878_si_013.cif
_cod_data_source_block           OMe-F3
_cod_database_code               4126302
_shelx_shelxl_version_number     2014/7
_shelx_space_group_comment
;
The symmetry employed for this shelxl refinement is uniquely defined
by the following loop, which should always be used as a source of
symmetry information in preference to the above space-group names.
They are only intended as comments.
;
_shelx_estimated_absorpt_t_min   0.796
_shelx_estimated_absorpt_t_max   0.954
_shelx_res_file
;

    SS052316_2_0m_a.res created by SHELXL-2014/7

TITL SS052316_2_0m_a.res in P-1
CELL  0.71073   7.6773   9.1349  12.3066  105.718   91.546   99.403
ZERR    1.000   0.0006   0.0007   0.0010    0.002    0.002    0.002
LATT 1
SFAC C  H  O  F
UNIT 40  24  6  6
REM Old TITL SS052316_2_0m in P-1
REM SHELXT solution in P-1
REM R1 0.126,  Rweak 0.003,  Alpha 0.022,  Orientation as input
REM Formula found by SHELXT:  C20 O5 F
L.S. 10
ACTA
BOND $H
FMAP 2
PLAN 20
SIZE 0.40 2.00 2.00
TEMP -171.840
WGHT    0.064000    0.283500
FVAR       0.53534
F001  4    0.544748    1.151133    0.571633    11.00000    0.04088    0.02347 =
         0.02043   -0.00048    0.00676    0.00867
F002  4    0.366565    1.560549    0.837286    11.00000    0.04573    0.01471 =
         0.04789    0.00137    0.01223    0.01361
F003  4    0.346386    1.084223    0.914113    11.00000    0.05201    0.02565 =
         0.03612    0.01227    0.01815    0.00817
O004  3    0.150366   -0.529157    0.100136    11.00000    0.03384    0.01063 =
         0.01955    0.00098    0.00674    0.00882
O005  3    0.464861    0.651937    0.602327    11.00000    0.01453    0.01404 =
         0.03252    0.00247    0.00118    0.00513
O006  3    0.315127    0.847369    0.654695    11.00000    0.01291    0.01126 =
         0.03016   -0.00307   -0.00039    0.00284
C007  1    0.154134    0.603315    0.552591    11.00000    0.01326    0.01061 =
         0.01628    0.00291    0.00259    0.00268
C008  1    0.327996    0.701450    0.605259    11.00000    0.01490    0.01159 =
         0.01756    0.00254    0.00286    0.00263
C009  1    0.034822    0.196648    0.372149    11.00000    0.01277    0.01381 =
         0.01898    0.00326    0.00190    0.00361
C00A  1    0.057237    0.070645    0.319989    11.00000    0.01359    0.01376 =
         0.02056    0.00279    0.00159    0.00356
C00B  1    0.011299    0.347798    0.435701    11.00000    0.01489    0.01000 =
         0.01575    0.00275    0.00336    0.00413
C00C  1    0.075999   -0.084300    0.262504    11.00000    0.01318    0.01192 =
         0.01940    0.00032    0.00060    0.00358
C00D  1    0.162548    0.453772    0.489124    11.00000    0.01278    0.01237 =
         0.01752    0.00285    0.00319    0.00458
AFIX  43
H00D  2    0.274678    0.422359    0.481722    11.00000   -1.20000
AFIX   0
C00E  1    0.128290   -0.124281    0.151537    11.00000    0.01779    0.01211 =
         0.01957    0.00299    0.00114    0.00350
AFIX  43
H00E  2    0.148424   -0.048077    0.111710    11.00000   -1.20000
AFIX   0
C00F  1    0.150796   -0.273848    0.099585    11.00000    0.02030    0.01423 =
         0.01594    0.00087    0.00271    0.00488
AFIX  43
H00F  2    0.186349   -0.299986    0.024417    11.00000   -1.20000
AFIX   0
C00G  1    0.121255   -0.386165    0.157642    11.00000    0.01835    0.01051 =
         0.01841   -0.00067    0.00090    0.00480
C00H  1    0.446731    1.108963    0.740931    11.00000    0.01445    0.01214 =
         0.02438   -0.00112   -0.00096    0.00235
C00I  1    0.481095    1.207139    0.672756    11.00000    0.01910    0.01702 =
         0.01898   -0.00184   -0.00025    0.00387
C00J  1    0.044357   -0.198502    0.318785    11.00000    0.02179    0.01439 =
         0.01817    0.00113    0.00515    0.00567
AFIX  43
H00J  2    0.007152   -0.173082    0.393564    11.00000   -1.20000
AFIX   0
C00K  1    0.066495   -0.349094    0.266993    11.00000    0.02357    0.01242 =
         0.01924    0.00298    0.00424    0.00571
AFIX  43
H00K  2    0.044358   -0.426040    0.306056    11.00000   -1.20000
AFIX   0
C00L  1    0.382941    1.173961    0.843923    11.00000    0.02294    0.01731 =
         0.02656    0.00405    0.00554    0.00299
C00M  1    0.481166    0.947076    0.706663    11.00000    0.01359    0.01191 =
         0.03095   -0.00136   -0.00214    0.00149
AFIX  23
H00A  2    0.573832    0.937295    0.652035    11.00000   -1.20000
H00B  2    0.521801    0.917938    0.773658    11.00000   -1.20000
AFIX   0
C00N  1    0.456386    1.358722    0.701441    11.00000    0.02344    0.01661 =
         0.02623    0.00351   -0.00098    0.00485
AFIX  43
H00N  2    0.481349    1.422221    0.652111    11.00000   -1.20000
AFIX   0
C00O  1    0.123629   -0.647436    0.156793    11.00000    0.04220    0.01243 =
         0.02500    0.00432    0.00637    0.00936
AFIX 137
H00C  2    0.203560   -0.616601    0.225665    11.00000   -1.50000
H00G  2    0.148288   -0.743976    0.106645    11.00000   -1.50000
H00H  2    0.000690   -0.662904    0.176951    11.00000   -1.50000
AFIX   0
C00P  1    0.393356    1.412498    0.805887    11.00000    0.02360    0.01249 =
         0.03279   -0.00170    0.00223    0.00664
C00Q  1    0.355021    1.324792    0.879600    11.00000    0.02871    0.01933 =
         0.02784   -0.00114    0.00950    0.00599
AFIX  43
H00Q  2    0.311723    1.365439    0.951139    11.00000   -1.20000
AFIX   0
HKLF 4

REM  SS052316_2_0m_a.res in P-1
REM R1 =  0.0430 for    3899 Fo > 4sig(Fo)  and  0.0519 for all    4647 data
REM    236 parameters refined using      0 restraints

END

WGHT      0.0638      0.2825

REM Highest difference peak  0.489,  deepest hole -0.181,  1-sigma level  0.066
Q1    1   0.2373  0.6532  0.5820  11.00000  0.05    0.49
Q2    1   0.1401 -0.3267  0.1358  11.00000  0.05    0.47
Q3    1   0.0830  0.4004  0.4677  11.00000  0.05    0.45
Q4    1   0.1505  0.5294  0.5271  11.00000  0.05    0.45
Q5    1   0.1079 -0.3668  0.2150  11.00000  0.05    0.44
Q6    1   0.4647  1.1670  0.7125  11.00000  0.05    0.43
Q7    1   0.0722  0.6282  0.5617  11.00000  0.05    0.43
Q8    1   0.0705 -0.2659  0.2993  11.00000  0.05    0.43
Q9    1   0.0896 -0.1069  0.2068  11.00000  0.05    0.43
Q10   1   0.1461 -0.1951  0.1342  11.00000  0.05    0.42
Q11   1   0.0509 -0.1474  0.2889  11.00000  0.05    0.41
Q12   1   0.4720  1.2868  0.6925  11.00000  0.05    0.41
Q13   1   0.3678  1.2485  0.8612  11.00000  0.05    0.41
Q14   1   0.3774  1.3597  0.8418  11.00000  0.05    0.41
Q15   1   0.4100  1.3797  0.7476  11.00000  0.05    0.39
Q16   1   0.4128  1.1357  0.7888  11.00000  0.05    0.39
Q17   1   0.4649  1.0308  0.7265  11.00000  0.05    0.38
Q18   1   0.0222  0.2815  0.4098  11.00000  0.05    0.35
Q19   1   0.1074  0.1540  0.3659  11.00000  0.05    0.32
Q20   1   0.0552  0.1569  0.3179  11.00000  0.05    0.30
;
_shelx_res_checksum              72820
_shelx_hkl_file
;
   2   0   0 1557.34   48.80
   2   0   0 1570.94   48.70
   2   0   0 1567.54   48.60
   3   0   0   28.70    1.00
   3   0   0   28.00    1.00
   3   0   0   29.20    1.10
   4   0   0  271.47    8.40
   4   0   0  262.17    8.40
   4   0   0  269.17    8.50
   5   0   0   62.49    2.20
   5   0   0   61.59    2.10
   5   0   0   60.39    2.10
   6   0   0  165.18    5.30
   6   0   0  166.78    5.50
   6   0   0  167.38    5.30
   7   0   0   -0.40    0.40
   7   0   0    0.20    0.40
   7   0   0    0.60    0.50
  -8   0   0    1.20    0.40
   8   0   0    0.20    0.50
   8   0   0    0.70    0.50
  -9   0   0    1.30    0.40
   9   0   0    1.60    0.60
   9   0   0    1.00    0.50
 -10   0   0   43.10    1.80
 -10   0   0   45.70    1.90
  10   0   0   44.70    2.10
  10  -1   0    0.40    0.50
  10  -1   0    0.40    0.60
 -10   1   0   -0.70    0.50
   9  -1   0    8.50    1.00
   9  -1   0    9.90    0.80
  -9   1   0    9.90    0.80
   8  -1   0    8.40    0.90
   8  -1   0    9.40    0.90
  -8   1   0    8.60    0.80
   7  -1   0   88.09    2.90
   7  -1   0   86.39    3.00
   7  -1   0   81.59    2.90
   6  -1   0   13.20    0.80
   6  -1   0   13.20    0.70
   6  -1   0   12.80    0.80
   5  -1   0   49.50    1.70
   5  -1   0   49.60    1.80
   5  -1   0   48.80    1.70
   4  -1   0   90.69    3.00
   4  -1   0   90.89    2.90
   4  -1   0   91.49    3.00
   3  -1   0   94.59    3.10
   3  -1   0   98.89    3.10
   3  -1   0   96.19    3.10
   2  -1   0    1.00    0.10
   2  -1   0    0.80    0.10
   1  -1   0  463.95   15.10
  -1   1   0  499.95   15.10
  -1   1   0  498.35   15.20
  -1  -1   0    8.60    0.30
   1   1   0    8.40    0.40
   1   1   0    8.50    0.30
   1   1   0    8.50    0.30
  -2  -1   0  660.93   20.40
  -2  -1   0  639.74   20.40
   2   1   0  674.53   20.40
   2   1   0  656.33   20.40
   2   1   0  666.23   20.40
   2   1   0  652.53   20.40
   2   1   0  640.04   20.50
   3   1   0   87.19    3.20
   3   1   0  108.39    3.30
   3   1   0  104.69    3.20
   3   1   0  104.89    3.20
   3   1   0  107.89    3.30
   4   1   0  244.58    7.20
   4   1   0  226.78    7.20
   4   1   0  227.18    7.30
   4   1   0  227.88    7.30
   4   1   0  230.28    7.30
   5   1   0   58.89    2.10
   5   1   0   56.89    1.90
   5   1   0   58.09    2.00
   6   1   0  136.09    4.50
   6   1   0  136.99    4.50
   6   1   0  142.89    4.60
  -7  -1   0    4.40    0.50
   7   1   0    4.40    0.60
   7   1   0    4.20    0.50
  -8  -1   0   34.70    1.50
  -8  -1   0   35.90    1.50
   8   1   0   35.60    1.60
  -9  -1   0    0.80    0.50
  -9  -1   0    1.00    0.60
   9   1   0    1.10    0.50
 -10  -1   0    4.40    0.70
  10   1   0    2.70    0.70
  10  -2   0    2.50    0.60
  10  -2   0    3.60    0.70
 -10   2   0    3.20    0.60
   9  -2   0    0.40    0.40
   9  -2   0    0.80    0.50
   8  -2   0    0.30    0.40
   8  -2   0    0.60    0.50
  -8   2   0   -0.10    0.40
   7  -2   0    0.00    0.40
   7  -2   0   -0.10    0.40
   7  -2   0    0.00    0.30
   6  -2   0   13.60    0.80
   6  -2   0   14.40    0.70
   6  -2   0   14.10    0.80
   5  -2   0    0.80    0.20
   5  -2   0    0.70    0.30
   5  -2   0    0.50    0.30
   4  -2   0   79.19    2.60
   4  -2   0   76.89    2.50
   4  -2   0   77.39    2.60
   4  -2   0   78.09    2.50
   4  -2   0   80.29    2.50
   3  -2   0   10.30    0.40
   3  -2   0   10.30    0.40
   3  -2   0    9.10    0.50
   3  -2   0   10.20    0.40
  -3   2   0    9.80    0.50
   2  -2   0  263.57    8.00
   2  -2   0  249.97    8.00
   2  -2   0  262.57    8.10
  -2   2   0  250.77    8.00
  -2   2   0  258.47    8.10
   1  -2   0    0.20    0.20
   1  -2   0   -0.10    0.20
   1  -2   0   -0.10    0.20
  -1   2   0    0.10    0.20
   0  -2   0   12.20    0.50
   0  -2   0   11.90    0.60
   0  -2   0   12.20    0.50
   0   2   0   14.50    0.60
   0   2   0   12.90    0.60
   0   2   0   11.70    0.50
  -1  -2   0    1.10    0.20
   1   2   0    0.80    0.20
  -2  -2   0    4.90    0.40
   2   2   0    6.00    0.40
   2   2   0    6.10    0.30
   2   2   0    7.10    0.40
   2   2   0    4.80    0.30
  -3  -2   0  116.59    3.50
   3   2   0  106.99    3.60
   3   2   0  113.19    3.60
   3   2   0  112.69    3.60
   3   2   0  111.29    3.60
  -4  -2   0   90.49    2.90
   4   2   0   88.19    2.90
   4   2   0   93.59    3.00
   4   2   0   92.99    2.90
   4   2   0   84.69    2.90
  -5  -2   0    2.40    0.30
   5   2   0    2.70    0.40
   5   2   0    2.30    0.30
   5   2   0    2.80    0.30
   5   2   0    2.60    0.40
  -6  -2   0   30.80    1.20
  -6  -2   0   32.80    1.30
   6   2   0   30.80    1.10
   6   2   0   33.40    1.10
   6   2   0   33.00    1.40
  -7  -2   0    0.80    0.40
  -7  -2   0    0.20    0.30
  -8  -2   0    3.50    0.50
  -8  -2   0    2.50    0.50
   8   2   0    2.50    0.60
  -9  -2   0   17.40    1.10
   9   2   0   17.30    1.30
 -10  -2   0    1.50    0.60
  10   2   0    2.00    0.70
  10  -3   0    2.30    0.60
 -10   3   0    3.60    0.70
 -10   3   0    3.40    0.60
   9  -3   0    1.70    0.50
  -9   3   0    3.60    0.70
  -9   3   0    2.50    0.50
   8  -3   0   30.60    1.40
  -8   3   0   29.50    1.30
  -8   3   0   32.80    1.50
   7  -3   0    0.40    0.30
   7  -3   0   -0.10    0.40
  -7   3   0    0.00    0.40
   6  -3   0    3.10    0.40
   6  -3   0    3.60    0.50
  -6   3   0    3.90    0.50
   5  -3   0   20.30    0.80
   5  -3   0   21.00    0.80
   5  -3   0   21.90    0.80
   5  -3   0   20.70    0.90
  -5   3   0   19.00    0.90
   4  -3   0    0.80    0.20
   4  -3   0    0.70    0.20
   4  -3   0    0.70    0.20
   4  -3   0    0.60    0.20
  -4   3   0    0.40    0.30
   3  -3   0   22.00    0.90
   3  -3   0   23.10    0.90
   3  -3   0   23.00    0.90
   3  -3   0   22.90    0.90
  -3   3   0   26.40    1.00
   2  -3   0    1.30    0.20
   2  -3   0    1.30    0.20
  -2   3   0    1.40    0.20
   1  -3   0   87.39    3.20
   1  -3   0   95.69    3.10
   1  -3   0  111.09    3.20
   1  -3   0   96.39    3.00
  -1   3   0   98.99    3.10
  -1   3   0   92.89    3.10
   0  -3   0   10.70    0.40
   0  -3   0   10.70    0.40
   0   3   0   11.00    0.50
   0   3   0   10.30    0.50
  -1  -3   0    0.10    0.20
  -1  -3   0    0.10    0.10
  -1  -3   0    0.30    0.20
   1   3   0    0.40    0.20
   1   3   0    0.50    0.20
  -2  -3   0   66.69    2.20
  -2  -3   0   67.99    2.30
   2   3   0   70.49    2.30
   2   3   0   67.19    2.20
  -3  -3   0    0.10    0.30
  -3  -3   0    0.20    0.20
   3   3   0    0.20    0.20
   3   3   0    0.00    0.20
   3   3   0    0.00    0.20
  -4  -3   0   13.60    0.70
   4   3   0   13.00    0.60
   4   3   0   13.60    0.70
   4   3   0   13.20    0.70
  -5  -3   0    0.80    0.20
   5   3   0    0.40    0.30
   5   3   0    0.40    0.30
   5   3   0    0.90    0.20
   6   3   0    6.70    0.60
   6   3   0    8.60    0.80
  -7  -3   0   17.00    0.90
   7   3   0   15.70    1.00
   7   3   0   13.60    0.70
   7   3   0   13.70    0.70
  -8  -3   0    2.80    0.50
   8   3   0    2.40    0.60
  -9  -3   0   20.10    1.20
   9   3   0   17.80    1.40
  10  -4   0   22.40    1.40
 -10   4   0   22.80    1.60
   9  -4   0   28.20    1.40
  -9   4   0   28.40    1.30
  -9   4   0   27.50    1.60
   8  -4   0    0.30    0.40
  -8   4   0    0.30    0.50
  -8   4   0    0.30    0.40
   7  -4   0    3.90    0.40
  -7   4   0    3.20    0.60
   6  -4   0   38.40    1.30
   6  -4   0   35.70    1.30
   6  -4   0   36.10    1.50
  -6   4   0   38.00    1.60
   5  -4   0    8.20    0.60
   5  -4   0    8.00    0.50
   5  -4   0    8.00    0.50
  -5   4   0    8.50    0.70
   4  -4   0  128.99    4.20
   4  -4   0  128.79    4.30
   4  -4   0  130.69    4.20
  -4   4   0  132.99    4.30
   3  -4   0   -0.10    0.20
   3  -4   0    0.20    0.20
   3  -4   0   -0.10    0.20
  -3   4   0    0.30    0.30
   2  -4   0  824.62   25.90
   2  -4   0  826.72   25.90
   2  -4   0  825.62   25.90
  -2   4   0  850.61   26.00
   1  -4   0  140.39    4.70
   1  -4   0  146.09    4.60
   1  -4   0  145.19    4.60
  -1   4   0  149.49    4.70
  -1   4   0  147.29    4.70
   0  -4   0 1285.57   39.70
   0  -4   0 1282.17   39.80
   0  -4   0 1332.17   39.70
   0   4   0 1316.87   39.80
   0   4   0 1176.68   39.90
  -1  -4   0   25.90    0.90
  -1  -4   0   25.80    0.90
   1   4   0   25.70    1.00
   1   4   0   23.50    1.00
  -2  -4   0    0.10    0.20
  -2  -4   0   -0.20    0.30
  -2  -4   0   -0.20    0.20
   2   4   0    0.10    0.30
   2   4   0    0.00    0.20
   2   4   0    0.90    0.30
  -3  -4   0    2.40    0.30
  -3  -4   0    2.10    0.40
   3   4   0    2.10    0.30
   3   4   0    2.40    0.40
   3   4   0    2.40    0.40
  -4  -4   0   14.60    0.70
   4   4   0   13.40    0.80
   4   4   0   13.90    0.70
   4   4   0   14.60    0.80
  -5  -4   0   25.70    1.10
   5   4   0   24.70    1.10
   5   4   0   26.10    1.20
   5   4   0   27.10    1.10
  -6  -4   0    0.20    0.40
   6   4   0    0.40    0.50
   6   4   0    0.50    0.40
   6   4   0    0.50    0.30
  -7  -4   0    3.30    0.50
   7   4   0    3.10    0.50
   7   4   0    3.60    0.50
   7   4   0    3.70    0.60
  -8  -4   0    1.90    0.50
   8   4   0    2.00    0.60
  -9  -4   0   12.50    1.10
   9   4   0   10.80    1.20
  10  -5   0    4.00    0.70
 -10   5   0    6.90    1.00
   9  -5   0   41.70    1.80
  -9   5   0   40.80    2.00
   8  -5   0   26.70    1.30
  -8   5   0   23.90    1.40
   7  -5   0   37.10    1.50
   7  -5   0   35.90    1.30
   7  -5   0   38.20    1.30
  -7   5   0   35.70    1.70
   6  -5   0   67.19    2.40
   6  -5   0   70.59    2.50
   6  -5   0   72.79    2.40
  -6   5   0   70.19    2.60
   5  -5   0   55.49    1.90
   5  -5   0   53.99    2.00
  -5   5   0   54.59    2.10
   4  -5   0   15.60    0.80
   4  -5   0   14.90    0.80
   4  -5   0   15.50    0.70
  -4   5   0   13.90    0.90
   3  -5   0    0.80    0.20
   3  -5   0    0.40    0.20
  -3   5   0    0.70    0.30
  -3   5   0    1.00    0.40
   2  -5   0  162.58    5.30
   2  -5   0  156.08    5.30
   2  -5   0  176.38    5.20
   2  -5   0  161.18    5.30
  -2   5   0  168.08    5.30
  -2   5   0  166.38    5.30
   1  -5   0   45.10    1.60
   1  -5   0   44.50    1.60
   1  -5   0   45.40    1.50
  -1   5   0   46.60    1.60
  -1   5   0   45.00    1.60
   0  -5   0    3.90    0.40
   0  -5   0    4.50    0.40
   0  -5   0    5.70    0.70
   0   5   0    5.30    0.70
   0   5   0    4.00    0.50
  -1  -5   0   24.00    0.90
  -1  -5   0   24.90    1.10
  -1  -5   0   25.40    0.90
   1   5   0   26.10    1.10
   1   5   0   24.60    1.00
  -2  -5   0    0.10    0.20
  -2  -5   0    0.30    0.40
  -2  -5   0    0.40    0.20
   2   5   0    0.30    0.40
   2   5   0    0.30    0.40
   2   5   0    0.20    0.20
  -3  -5   0    3.20    0.50
  -3  -5   0    2.90    0.40
   3   5   0    2.50    0.40
  -4  -5   0   10.30    0.70
  -4  -5   0    8.00    1.00
   4   5   0    9.70    0.90
   4   5   0    8.90    0.70
   4   5   0    9.50    0.60
  -5  -5   0    2.00    0.40
   5   5   0    2.50    0.40
   5   5   0    2.30    0.60
  -6  -5   0    8.40    0.80
   6   5   0    9.20    0.90
   6   5   0    9.20    0.70
   6   5   0    7.30    1.00
  -7  -5   0    7.60    0.80
   7   5   0    6.80    0.60
   7   5   0    6.40    1.00
   7   5   0    6.70    0.90
  -8  -5   0    5.40    0.70
   8   5   0    5.80    0.80
   8   5   0    4.80    0.60
  10  -6   0   16.50    1.30
 -10   6   0   16.50    1.60
   9  -6   0   17.60    1.20
  -9   6   0   18.40    1.50
   8  -6   0    4.30    0.60
   8  -6   0    7.20    0.80
  -8   6   0    6.60    0.90
   7  -6   0    6.70    0.80
   7  -6   0    7.00    0.60
   7  -6   0    5.80    0.70
  -7   6   0    8.10    1.00
   6  -6   0   19.20    1.00
   6  -6   0   20.10    1.00
   6  -6   0   20.50    0.90
   5  -6   0    3.70    0.40
   5  -6   0    3.50    0.50
   5  -6   0    3.10    0.50
  -5   6   0    3.70    0.50
   4  -6   0  173.68    5.60
   4  -6   0  172.38    5.60
   4  -6   0  169.08    5.60
   4  -6   0  175.58    5.60
  -4   6   0  179.88    5.70
  -4   6   0  172.48    5.70
   3  -6   0    2.50    0.30
   3  -6   0    2.90    0.60
   3  -6   0    1.60    0.30
  -3   6   0    2.90    0.40
  -3   6   0    2.70    0.50
   2  -6   0   23.50    1.00
   2  -6   0   23.70    0.90
   2  -6   0   24.00    1.00
  -2   6   0   25.30    1.10
  -2   6   0   23.70    1.10
   1  -6   0    1.20    0.40
   1  -6   0    1.00    0.30
   1  -6   0    1.70    0.20
  -1   6   0    1.40    0.30
  -1   6   0    2.50    0.70
   0  -6   0   14.40    0.70
   0  -6   0   14.40    0.90
   0  -6   0   14.40    0.70
   0   6   0   13.30    0.80
   0   6   0   13.60    0.80
  -1  -6   0   18.60    0.80
  -1  -6   0   16.50    1.40
  -1  -6   0   19.60    0.80
   1   6   0   17.60    1.00
   1   6   0   22.40    1.10
  -2  -6   0  138.79    4.60
  -2  -6   0  140.59    4.70
   2   6   0  146.09    4.70
   2   6   0  139.79    4.70
  -3  -6   0    0.20    0.60
  -3  -6   0    0.30    0.30
   3   6   0    0.60    0.40
   3   6   0    1.60    0.70
   3   6   0    0.90    0.40
  -4  -6   0    0.80    0.40
  -5  -6   0    0.00    0.40
   5   6   0   -0.50    0.40
   5   6   0   -0.20    0.30
  -6  -6   0    1.70    0.50
   6   6   0    2.30    0.60
   6   6   0    2.00    0.40
  -7  -6   0    1.30    0.60
   7   6   0    2.10    0.60
   7   6   0    1.60    0.50
  -8  -6   0    1.30    0.50
   8   6   0    0.50    0.40
   8   6   0    0.80    0.70
   9  -7   0   22.90    1.30
  -9   7   0   19.00    1.60
   8  -7   0   44.30    1.70
   8  -7   0   43.00    1.80
   8  -7   0   47.00    2.00
  -8   7   0   46.30    2.10
   7  -7   0    2.60    0.40
   7  -7   0    2.10    0.50
   7  -7   0    2.10    0.50
  -7   7   0    2.40    0.60
   6  -7   0    2.40    0.60
   6  -7   0    2.30    0.40
   6  -7   0    2.60    0.50
  -6   7   0    2.60    0.60
   5  -7   0   24.90    1.50
   5  -7   0   24.60    1.20
   5  -7   0   26.20    1.10
   4  -7   0  106.09    3.70
   4  -7   0  110.69    3.70
  -4   7   0  110.39    3.80
  -4   7   0  109.19    3.80
   3  -7   0   12.00    0.80
   3  -7   0   10.70    0.70
  -3   7   0   11.10    1.10
  -3   7   0   12.40    0.80
   2  -7   0    3.00    0.40
   2  -7   0    3.20    0.50
   2  -7   0    3.40    0.40
  -2   7   0    2.90    0.90
  -2   7   0    4.20    0.50
   1  -7   0   17.30    1.00
   1  -7   0   16.10    0.70
   1  -7   0   15.90    0.90
  -1   7   0   15.40    1.00
  -1   7   0   16.60    0.90
   0  -7   0   38.90    1.40
   0  -7   0   40.10    1.60
   0  -7   0   36.70    1.40
   0   7   0   38.40    1.60
   0   7   0   37.60    1.60
  -1  -7   0  111.29    3.80
  -1  -7   0  110.69    3.60
  -1  -7   0  107.19    3.60
   1   7   0  112.99    3.80
   1   7   0  107.59    3.80
  -2  -7   0  599.54   18.90
  -2  -7   0  609.54   19.10
  -2  -7   0  599.34   19.00
   2   7   0  607.94   19.10
   2   7   0  617.64   19.20
   3   7   0    0.30    0.50
   3   7   0   -0.10    0.40
  -4  -7   0   33.40    1.40
   4   7   0   31.70    1.50
   4   7   0   32.70    1.50
  -5  -7   0   81.09    2.90
   5   7   0   83.09    2.90
   5   7   0   80.39    3.00
  -6  -7   0    3.00    0.60
   6   7   0    3.10    0.60
   6   7   0    2.40    0.50
  -7  -7   0   37.20    1.80
   7   7   0   33.40    1.70
   7   7   0   32.50    1.80
   9  -8   0    1.00    0.60
   9  -8   0    0.00    0.40
  -9   8   0    0.40    0.80
   8  -8   0    0.60    0.50
   8  -8   0    0.80    0.60
  -8   8   0    1.00    0.70
   7  -8   0    0.30    0.50
   7  -8   0    0.90    0.40
  -7   8   0    0.00    0.60
   6  -8   0   31.90    1.30
   6  -8   0   30.60    1.50
  -6   8   0   27.60    1.60
   5  -8   0   19.80    1.00
   5  -8   0   19.60    1.10
  -5   8   0   20.00    1.20
   4  -8   0    7.80    1.10
   4  -8   0    8.00    0.80
  -4   8   0    9.00    0.90
   3  -8   0  135.29    4.50
   3  -8   0  136.09    4.50
  -3   8   0  129.59    4.60
  -3   8   0  138.09    4.60
   2  -8   0   14.90    0.90
   2  -8   0   13.80    0.70
   2  -8   0   14.30    1.00
   1  -8   0   48.00    1.80
   1  -8   0   49.10    2.00
   1  -8   0   45.20    1.70
  -1   8   0   48.00    2.00
   0  -8   0   40.50    1.60
   0  -8   0   37.90    1.50
   0  -8   0   39.90    1.80
   0   8   0   37.60    1.70
  -1  -8   0  145.09    4.80
  -1  -8   0  137.29    4.60
  -1  -8   0  144.19    4.60
   1   8   0  136.89    4.80
   1   8   0  143.39    4.80
  -2  -8   0   -0.30    0.80
  -2  -8   0    0.50    0.40
   2   8   0    0.00    0.50
   2   8   0   -0.30    0.50
  -3  -8   0   47.30    1.80
   3   8   0   48.20    2.10
   3   8   0   49.10    2.00
  -4  -8   0   10.60    0.90
   4   8   0   10.10    1.00
   4   8   0    8.30    0.90
  -5  -8   0   52.29    2.00
   5   8   0   50.59    2.20
   5   8   0   50.79    2.10
  -6  -8   0   52.09    2.30
   6   8   0   51.59    2.40
   6   8   0   56.29    2.40
   8  -9   0    8.40    1.00
   8  -9   0    7.40    0.90
  -8   9   0    7.20    1.10
   7  -9   0    2.50    0.60
   7  -9   0    3.70    0.50
  -7   9   0    2.40    0.80
   6  -9   0    1.30    0.50
   6  -9   0    1.20    0.50
  -6   9   0    0.10    0.60
   5  -9   0    2.40    0.50
   5  -9   0    1.70    0.50
  -5   9   0    1.30    0.60
   4  -9   0    0.20    0.40
  -4   9   0    0.10    0.50
   3  -9   0    0.30    0.40
  -3   9   0    0.50    0.40
   2  -9   0   96.39    3.40
   2  -9   0   90.39    3.00
   2  -9   0   92.69    3.20
  -2   9   0   95.19    3.40
  -2   9   0   87.49    3.30
   1  -9   0    1.30    0.70
   1  -9   0    1.10    0.50
   1  -9   0    1.20    0.40
  -1   9   0    0.70    0.40
  -1   9   0    1.20    0.90
   0  -9   0    1.40    0.80
   0  -9   0    1.70    0.50
   0  -9   0    1.30    0.50
   0   9   0    1.80    0.50
   0   9   0    1.10    0.70
  -1  -9   0    0.00    0.80
  -1  -9   0    0.60    0.80
  -1  -9   0   -0.10    0.50
   1   9   0    0.50    0.70
   1   9   0   -0.10    0.50
  -2  -9   0    8.80    0.70
   2   9   0    7.10    1.10
   2   9   0    9.10    1.00
  -3  -9   0    7.50    0.80
   3   9   0    6.90    1.10
   3   9   0    7.70    1.00
  -4  -9   0    3.40    0.60
   4   9   0    3.20    0.70
   4   9   0    2.80    0.60
  -5  -9   0   17.60    1.20
   5   9   0   16.70    1.40
   5   9   0   16.80    1.30
   7 -10   0    1.40    0.60
   7 -10   0    1.60    0.50
  -7  10   0   -0.20    1.20
   6 -10   0   13.60    1.10
   6 -10   0   15.30    1.20
  -6  10   0   10.70    1.50
   5 -10   0   10.00    1.00
   5 -10   0    9.70    1.00
  -5  10   0    6.50    1.10
   4 -10   0    3.70    0.60
   4 -10   0    4.10    0.60
  -4  10   0    2.60    0.60
   3 -10   0    2.50    0.60
   3 -10   0    4.20    0.60
  -3  10   0    3.60    0.60
   2 -10   0    2.00    0.50
   2 -10   0    2.70    0.50
   2 -10   0    2.90    0.80
  -2  10   0    2.70    0.60
  -2  10   0    1.60    1.00
   1 -10   0    1.50    0.70
   1 -10   0    2.20    0.50
   1 -10   0    1.70    0.80
  -1  10   0    1.70    0.50
  -1  10   0    2.30    0.90
   0 -10   0   14.30    1.20
   0 -10   0   13.60    1.10
   0 -10   0   13.70    1.60
   0  10   0   13.00    1.10
   0  10   0   13.80    1.50
  -1 -10   0   13.10    1.20
  -1 -10   0   11.90    0.80
   1  10   0   12.00    1.20
   1  10   0   11.40    1.20
  -2 -10   0    2.40    0.50
   2  10   0    1.80    0.60
   2  10   0    1.50    0.70
  -3 -10   0    5.40    0.70
   3  10   0    4.60    0.80
   3  10   0    4.60    0.90
  -4 -10   0    2.20    0.60
   4  10   0    2.30    0.70
   4  10   0    1.20    0.70
   6 -11   0    7.30    1.00
   6 -11   0    5.60    0.80
  -6  11   0    4.00    1.50
   5 -11   0   38.60    1.80
   5 -11   0   37.20    1.80
  -5  11   0   34.90    1.90
   4 -11   0   24.00    1.40
   4 -11   0   22.80    1.40
  -4  11   0   20.70    1.40
   3 -11   0    1.40    0.60
   3 -11   0    0.10    0.60
  -3  11   0    0.90    0.50
   2 -11   0    4.00    0.70
   2 -11   0    5.50    0.80
  -2  11   0    3.90    0.70
   1 -11   0   13.00    1.10
   1 -11   0   12.00    1.10
   1 -11   0   15.90    1.40
  -1  11   0   13.60    1.80
  -1  11   0   12.80    1.10
   0 -11   0   30.70    1.40
   0 -11   0   41.40    2.80
   0  11   0   29.60    1.80
   0  11   0   32.80    1.80
  -1 -11   0   25.30    1.30
   1  11   0   23.90    1.80
   1  11   0   26.00    1.70
  -2 -11   0   27.70    1.40
   2  11   0   26.80    1.90
   2  11   0   29.80    1.80
   3  11   0   -0.60    0.80
   4 -12   0   11.60    1.30
   4 -12   0    9.60    1.40
  -4  12   0   11.30    1.30
   3 -12   0   33.10    1.90
   3 -12   0   35.70    1.80
  -3  12   0   32.00    1.80
   2 -12   0    0.50    0.80
   2 -12   0    1.60    0.70
  -2  12   0    1.20    0.60
   1 -12   0    1.60    0.70
   1 -12   0    2.10    0.70
  -1  12   0    1.70    0.70
   0 -12   0    0.80    0.60
   0  12   0    0.90    1.00
   1  12  -1    0.00    0.80
   0  12  -1   -0.50    0.90
   0 -12   1    3.40    0.60
  -1  12  -1   14.50    1.30
   1 -12   1   12.10    1.20
   1 -12   1   13.80    1.50
   1 -12   1   14.10    1.10
   2 -12   1    6.10    1.00
   2 -12   1    4.00    0.70
  -3  12  -1   12.70    1.30
   3 -12   1   12.90    1.20
   3 -12   1   14.80    1.40
  -4  12  -1    1.50    0.70
   4 -12   1    2.00    0.70
   4 -12   1    2.00    0.70
   3  11  -1   11.70    1.40
   3  11  -1   15.30    1.40
  -3 -11   1   16.10    1.10
   2  11  -1    2.80    0.90
   2  11  -1    5.20    1.00
  -2 -11   1    5.40    0.70
   1  11  -1    4.00    0.90
   1  11  -1    1.50    0.80
  -1 -11   1    4.20    0.60
   0  11  -1   10.60    1.40
   0  11  -1    9.90    1.10
   0 -11   1   10.30    1.40
   0 -11   1   11.80    1.30
   0 -11   1    9.30    0.80
  -1  11  -1    4.80    0.70
  -1  11  -1    6.20    1.30
   1 -11   1    6.10    0.70
  -2  11  -1   46.20    2.10
   2 -11   1   49.30    2.00
   2 -11   1   49.00    2.10
   2 -11   1   46.50    1.90
  -3  11  -1    5.20    0.70
   3 -11   1    4.60    0.70
   3 -11   1    8.30    1.00
  -4  11  -1   30.70    1.70
   4 -11   1   35.40    1.70
   4 -11   1   34.00    1.70
  -5  11  -1    0.70    0.60
   5 -11   1    2.00    0.60
   5 -11   1    2.40    0.60
  -6  11  -1    2.00    0.80
   6 -11   1    2.20    0.70
   6 -11   1    3.10    0.70
   4  10  -1    4.40    0.90
   4  10  -1    6.70    0.80
  -4 -10   1    7.50    1.00
   3  10  -1   -0.80    0.60
   3  10  -1   -1.00    0.60
  -3 -10   1    0.00    0.60
   2  10  -1   -1.10    0.60
   2  10  -1   -0.30    0.60
  -2 -10   1    0.40    0.50
   1  10  -1    2.40    0.70
   1  10  -1    1.60    0.70
  -1 -10   1    1.90    1.10
  -1 -10   1    2.50    0.50
  -1 -10   1    2.30    0.70
   0  10  -1    2.30    0.90
   0  10  -1    1.90    0.50
   0 -10   1    2.40    0.90
   0 -10   1    2.10    0.60
  -1  10  -1   24.10    1.70
  -1  10  -1   22.80    1.30
   1 -10   1   24.80    1.70
   1 -10   1   22.30    1.10
   1 -10   1   23.30    1.30
  -2  10  -1   15.10    1.60
  -2  10  -1   13.50    1.10
   2 -10   1   15.70    1.00
   2 -10   1   14.80    0.90
  -3  10  -1    0.40    0.40
   3 -10   1    0.90    0.50
   3 -10   1    0.50    0.50
  -4  10  -1   -0.10    0.50
   4 -10   1   -0.40    0.50
   4 -10   1    0.40    0.50
  -5  10  -1    2.30    0.70
  -6  10  -1   -0.70    0.60
   6 -10   1    0.30    0.50
   6 -10   1    0.20    0.50
  -7  10  -1    0.20    0.80
   7 -10   1    0.30    0.50
   7 -10   1    1.80    0.60
   6   9  -1    6.80    1.00
   5   9  -1   38.90    1.80
   5   9  -1   37.80    2.00
  -5  -9   1   38.00    1.70
   4   9  -1   -0.30    0.60
   4   9  -1    0.20    0.60
  -4  -9   1    2.30    0.60
   3   9  -1   -1.20    0.50
   3   9  -1    0.10    0.60
  -3  -9   1    0.10    0.40
   2   9  -1    2.50    0.70
   2   9  -1    2.30    0.60
  -2  -9   1    3.40    0.50
   1   9  -1    5.30    0.70
   1   9  -1    5.40    0.70
  -1  -9   1    6.50    0.90
  -1  -9   1    6.30    0.90
  -1  -9   1    6.90    0.80
   0   9  -1   20.30    1.40
   0   9  -1   18.20    1.10
   0  -9   1   20.40    1.10
   0  -9   1   20.70    1.50
   0  -9   1   18.10    1.00
  -1   9  -1   15.40    1.30
  -1   9  -1   14.90    1.00
   1  -9   1   14.50    1.20
   1  -9   1   15.20    0.90
   1  -9   1   16.60    1.10
  -2   9  -1    5.20    0.90
  -2   9  -1    5.60    0.70
   2  -9   1    5.40    0.70
   2  -9   1    6.10    0.90
   2  -9   1    4.30    0.70
  -3   9  -1   32.70    1.50
   3  -9   1   34.10    1.30
   3  -9   1   36.40    1.60
  -4   9  -1   69.19    2.70
   4  -9   1   74.19    2.70
   4  -9   1   75.09    2.70
  -5   9  -1    6.70    1.00
   5  -9   1    9.00    0.90
   5  -9   1    8.60    0.80
  -6   9  -1    4.20    0.70
   6  -9   1    4.60    0.70
   6  -9   1    6.50    0.80
  -7   9  -1    0.30    0.70
   7  -9   1    0.10    0.40
   7  -9   1    0.90    0.50
  -8   9  -1    4.70    0.90
   8  -9   1    4.70    0.60
   8  -9   1    4.10    0.70
   6   8  -1    1.60    0.60
   6   8  -1    1.90    0.70
  -6  -8   1    2.40    0.60
   5   8  -1  192.58    6.20
   5   8  -1  181.88    6.40
  -5  -8   1  187.38    6.20
   4   8  -1    5.10    0.80
   4   8  -1    6.40    0.90
  -4  -8   1    6.10    0.80
   3   8  -1    0.60    0.50
   3   8  -1    3.10    0.60
   2   8  -1    0.40    0.60
   2   8  -1    0.90    0.50
  -2  -8   1    0.60    0.80
  -2  -8   1    3.00    0.70
   1   8  -1   58.39    2.40
   1   8  -1   62.29    2.40
  -1  -8   1   61.39    2.20
  -1  -8   1   62.39    2.50
  -1  -8   1   63.79    2.20
   0   8  -1    5.50    0.70
   0   8  -1    4.20    0.70
   0  -8   1    6.20    0.70
   0  -8   1    5.80    0.60
   0  -8   1    6.00    0.70
  -1   8  -1    1.60    0.40
  -1   8  -1    1.00    0.60
   1  -8   1    2.20    0.60
   1  -8   1    0.90    0.40
   1  -8   1    2.00    0.40
  -2   8  -1    0.50    0.30
  -2   8  -1    1.20    0.60
   2  -8   1    0.80    0.40
   2  -8   1    0.30    0.50
   2  -8   1    1.30    0.30
  -3   8  -1    0.10    0.70
  -3   8  -1   -0.20    0.40
   3  -8   1    0.20    0.40
   3  -8   1    0.40    0.30
   3  -8   1    0.00    0.40
  -4   8  -1   22.70    1.20
   4  -8   1   22.50    1.30
  -5   8  -1   13.80    1.10
   5  -8   1   14.10    0.90
   5  -8   1   14.30    0.90
  -6   8  -1   11.30    1.10
   6  -8   1   10.10    0.90
   6  -8   1   12.20    0.80
  -7   8  -1   17.50    1.40
   7  -8   1   19.50    1.20
   7  -8   1   18.90    1.00
  -8   8  -1    3.60    0.80
   8  -8   1    4.50    0.60
   8  -8   1    4.50    0.60
  -9   8  -1    8.80    1.40
   9  -8   1   11.00    0.70
   9  -8   1    9.60    1.10
   7   7  -1   10.00    1.00
   7   7  -1    9.50    1.20
  -7  -7   1    8.80    1.00
   6   7  -1   13.50    1.20
   6   7  -1   11.70    0.90
  -6  -7   1   11.60    1.00
   5   7  -1    0.30    0.40
   5   7  -1    0.10    0.50
  -5  -7   1    0.60    0.40
   4   7  -1   64.49    2.50
   4   7  -1   64.79    2.40
  -4  -7   1   65.29    2.30
   3   7  -1   79.79    2.80
   3   7  -1   76.69    2.90
  -3  -7   1   75.99    3.00
   2   7  -1   37.30    1.60
   2   7  -1   41.20    1.70
  -2  -7   1   39.10    1.50
  -2  -7   1   36.30    1.80
   1   7  -1   18.90    1.10
   1   7  -1   21.50    1.10
  -1  -7   1   21.40    0.90
  -1  -7   1   21.30    1.00
  -1  -7   1   25.70    1.50
   0   7  -1  117.59    4.00
   0  -7   1  119.59    4.00
   0  -7   1  118.69    3.80
   0  -7   1  116.19    3.80
  -1   7  -1  106.89    3.60
  -1   7  -1  109.19    3.70
   1  -7   1  106.59    3.60
   1  -7   1  110.19    3.70
   1  -7   1  108.49    3.50
  -2   7  -1  117.69    4.00
   2  -7   1  123.99    3.90
   2  -7   1  120.39    4.00
   2  -7   1  119.79    4.00
  -3   7  -1   13.70    0.80
  -3   7  -1   13.00    1.10
   3  -7   1   13.20    0.60
   3  -7   1   12.90    0.80
   3  -7   1   11.60    1.10
   3  -7   1   13.20    0.80
  -4   7  -1  159.98    5.30
  -4   7  -1  159.88    5.30
   4  -7   1  161.08    5.20
   4  -7   1  162.18    5.30
  -5   7  -1    0.70    0.50
   5  -7   1    1.20    0.40
   5  -7   1    1.30    0.40
   5  -7   1    0.90    0.50
   5  -7   1    1.20    0.50
  -6   7  -1   24.10    1.40
   6  -7   1   26.30    1.10
   6  -7   1   24.80    1.20
   6  -7   1   25.60    1.30
  -7   7  -1    0.10    0.60
   7  -7   1    0.10    0.50
   7  -7   1    0.10    0.30
   7  -7   1    0.30    0.40
  -8   7  -1   12.50    1.30
   8  -7   1   12.90    0.70
   8  -7   1   12.00    0.90
   8  -7   1   15.00    1.00
  -9   7  -1    8.40    1.30
   9  -7   1    7.40    1.00
   8   6  -1    0.70    0.40
   8   6  -1    1.50    0.70
  -8  -6   1    2.00    0.60
   7   6  -1    2.60    0.50
   7   6  -1    3.40    0.70
  -7  -6   1    3.40    0.60
   6   6  -1   -0.10    0.40
   6   6  -1    0.90    0.50
  -6  -6   1    1.00    0.40
   5   6  -1   13.00    1.00
   5   6  -1   12.60    0.80
  -5  -6   1   14.10    0.90
   4   6  -1    0.00    0.30
   3   6  -1   48.70    1.80
   3   6  -1   43.50    1.90
   3   6  -1   49.30    1.90
  -3  -6   1   44.10    1.70
  -3  -6   1   44.70    1.90
   2   6  -1   27.10    1.30
   2   6  -1   23.70    1.10
  -2  -6   1   24.30    1.20
  -2  -6   1   24.70    1.00
   1   6  -1   46.10    1.70
   1   6  -1   44.10    1.70
  -1  -6   1   46.40    1.60
  -1  -6   1   41.00    1.90
  -1  -6   1   47.20    1.60
   0   6  -1  156.48    5.10
   0   6  -1  160.48    5.10
   0  -6   1  155.98    5.10
   0  -6   1  154.78    5.00
   0  -6   1  154.08    5.00
  -1   6  -1   94.89    3.10
  -1   6  -1   93.69    3.20
   1  -6   1   94.89    3.00
   1  -6   1   89.99    3.10
   1  -6   1   93.49    3.10
  -2   6  -1    8.60    0.80
  -2   6  -1    9.10    0.60
   2  -6   1    9.20    0.50
   2  -6   1    8.00    0.60
   2  -6   1    8.60    0.60
  -3   6  -1  166.48    5.40
  -3   6  -1  169.28    5.40
   3  -6   1  165.68    5.40
   3  -6   1  158.58    5.40
   3  -6   1  166.28    5.30
  -4   6  -1    0.70    0.50
  -4   6  -1    1.10    0.40
   4  -6   1    0.20    0.20
   4  -6   1   -0.10    0.40
   4  -6   1   -0.10    0.20
  -5   6  -1    1.80    0.40
   5  -6   1    1.60    0.30
   5  -6   1    1.00    0.40
   5  -6   1    1.00    0.40
   5  -6   1    1.10    0.40
  -6   6  -1   26.60    1.40
   6  -6   1   26.60    1.20
   6  -6   1   26.00    1.20
   6  -6   1   27.60    1.10
  -7   6  -1    2.30    0.60
   7  -6   1    1.70    0.40
   7  -6   1    2.10    0.50
   7  -6   1    2.20    0.30
  -8   6  -1    1.40    0.60
   8  -6   1    1.40    0.50
  -9   6  -1   13.60    1.30
   9  -6   1   13.10    1.10
 -10   6  -1   30.80    1.90
  10  -6   1   29.90    1.70
   8   5  -1    2.50    0.40
   8   5  -1    1.30    0.60
   8   5  -1    2.70    0.70
  -8  -5   1    3.80    0.70
   7   5  -1    1.50    0.60
   7   5  -1    3.00    0.40
   7   5  -1    2.20    0.60
  -7  -5   1    3.80    0.50
   6   5  -1   39.00    1.80
   6   5  -1   40.00    1.70
   6   5  -1   41.10    1.50
  -6  -5   1   41.20    1.60
   5   5  -1    6.20    0.60
   5   5  -1    6.70    0.90
  -5  -5   1    6.50    0.60
   4   5  -1    0.50    0.30
   4   5  -1    0.60    0.50
   4   5  -1    0.10    0.20
  -4  -5   1    0.40    0.30
  -4  -5   1   -1.20    0.60
   3   5  -1    2.00    0.30
   3   5  -1    2.30    0.40
  -3  -5   1    1.60    0.50
  -3  -5   1    1.90    0.30
   2   5  -1    3.10    0.50
   2   5  -1    4.30    0.60
   2   5  -1    4.80    0.50
  -2  -5   1    4.00    0.50
  -2  -5   1    4.20    0.40
   1   5  -1    6.90    0.60
   1   5  -1    7.80    0.60
  -1  -5   1    7.20    0.60
  -1  -5   1    7.90    0.50
  -1  -5   1    7.50    0.40
   0   5  -1    0.00    0.30
   0   5  -1    0.00    0.20
   0  -5   1    0.10    0.30
   0  -5   1    0.10    0.20
   0  -5   1    0.30    0.20
  -1   5  -1  231.78    7.30
  -1   5  -1  232.98    7.30
   1  -5   1  224.68    7.30
   1  -5   1  230.18    7.20
   1  -5   1  223.18    7.20
  -2   5  -1  289.87    8.80
  -2   5  -1  290.07    8.80
   2  -5   1  276.57    8.80
   2  -5   1  260.77    8.70
   2  -5   1  264.47    8.80
   2  -5   1  279.67    8.70
  -3   5  -1    2.60    0.40
  -3   5  -1    2.50    0.40
   3  -5   1    2.00    0.30
   3  -5   1    2.30    0.30
   3  -5   1    1.80    0.30
  -4   5  -1    9.70    0.70
   4  -5   1    9.40    0.60
   4  -5   1    9.20    0.60
   4  -5   1    9.20    0.50
  -5   5  -1    4.10    0.70
   5  -5   1    3.20    0.40
   5  -5   1    3.90    0.50
   5  -5   1    2.80    0.40
  -6   5  -1   21.70    1.20
   6  -5   1   20.90    0.90
   6  -5   1   21.00    1.10
   6  -5   1   21.50    0.90
  -7   5  -1  145.79    5.20
   7  -5   1  138.89    4.60
   7  -5   1  146.79    4.60
   7  -5   1  147.29    4.80
  -8   5  -1    5.80    0.70
   8  -5   1    6.30    0.80
   8  -5   1    5.50    0.80
  -9   5  -1    2.50    0.70
   9  -5   1    1.80    0.60
 -10   5  -1    2.20    0.80
  10  -5   1    2.40    0.60
   9   4  -1    5.50    0.90
  -9  -4   1    7.40    1.00
   8   4  -1   24.20    1.40
   8   4  -1   20.80    1.20
   8   4  -1   22.20    0.90
  -8  -4   1   25.00    1.30
   7   4  -1   21.00    1.10
   7   4  -1   20.30    1.20
   7   4  -1   19.60    0.90
  -7  -4   1   21.20    1.10
   6   4  -1    0.70    0.40
   6   4  -1    0.50    0.30
   6   4  -1    0.70    0.50
  -6  -4   1    0.70    0.40
   5   4  -1    5.70    0.60
   5   4  -1    5.60    0.50
   5   4  -1    5.90    0.70
  -5  -4   1    6.60    0.50
   4   4  -1   11.70    0.60
   4   4  -1   11.60    0.70
   4   4  -1   10.20    0.70
  -4  -4   1   11.60    0.60
   3   4  -1  171.78    5.50
   3   4  -1  173.78    5.40
   3   4  -1  159.78    5.40
  -3  -4   1  167.68    5.40
  -3  -4   1  168.28    5.40
   2   4  -1  128.19    4.30
   2   4  -1  132.49    4.30
   2   4  -1  140.69    4.40
  -2  -4   1  134.09    4.30
  -2  -4   1  133.89    4.30
   1   4  -1   41.80    1.60
   1   4  -1   43.40    1.50
  -1  -4   1   43.40    1.50
  -1  -4   1   43.30    1.40
  -1  -4   1   43.00    1.50
   0   4  -1   92.99    2.90
   0   4  -1   88.39    2.90
   0  -4   1   90.19    2.90
   0  -4   1   89.79    2.80
   0  -4   1   84.19    2.90
  -1   4  -1   47.10    1.60
  -1   4  -1   51.49    1.60
   1  -4   1   44.80    1.60
   1  -4   1   46.70    1.60
   1  -4   1   46.40    1.60
  -2   4  -1  722.43   22.20
  -2   4  -1  689.13   22.10
   2  -4   1  749.33   22.00
   2  -4   1  716.23   22.10
   2  -4   1  671.23   22.10
   2  -4   1  698.33   22.10
  -3   4  -1  195.98    6.30
  -3   4  -1  200.18    6.30
   3  -4   1  200.38    6.20
   3  -4   1  200.38    6.30
   3  -4   1  196.48    6.30
   3  -4   1  194.28    6.30
  -4   4  -1  794.42   23.50
   4  -4   1  786.22   23.40
   4  -4   1  640.44   23.40
   4  -4   1  769.02   23.50
   4  -4   1  767.62   23.40
   5  -4   1    6.70    0.50
   5  -4   1    6.60    0.60
   5  -4   1    7.10    0.40
   5  -4   1    7.00    0.40
   6  -4   1   11.80    0.80
   6  -4   1   11.80    0.60
  -7   4  -1    0.00    0.50
   7  -4   1    0.00    0.40
  -8   4  -1   29.30    1.50
   8  -4   1   30.40    1.40
   8  -4   1   31.60    1.30
  -9   4  -1    0.40    0.60
   9  -4   1   -0.80    0.40
 -10   4  -1    0.30    0.70
  10  -4   1   -0.20    0.60
   9   3  -1   76.99    3.00
  -9  -3   1   79.09    2.90
   8   3  -1    0.30    0.50
  -8  -3   1    0.60    0.50
   7   3  -1   50.69    1.80
   7   3  -1   51.39    1.80
   7   3  -1   53.09    2.10
  -7  -3   1   53.19    1.90
   6   3  -1   61.79    2.10
   6   3  -1   58.99    2.30
   6   3  -1   59.99    2.10
  -6  -3   1   61.79    2.20
   5   3  -1   14.30    0.80
   5   3  -1   13.40    0.70
   5   3  -1   13.30    0.70
  -5  -3   1   13.50    0.70
   4   3  -1  149.69    4.90
   4   3  -1  152.28    5.00
   4   3  -1  153.38    4.90
  -4  -3   1  153.38    4.90
   3   3  -1   21.70    0.80
   3   3  -1   21.80    0.90
   3   3  -1   21.20    0.90
  -3  -3   1   21.60    0.90
  -3  -3   1   20.90    0.90
   2   3  -1    1.00    0.20
   2   3  -1    1.50    0.30
  -2  -3   1    1.10    0.20
   1   3  -1    3.90    0.30
   1   3  -1    4.00    0.40
   1   3  -1    3.50    0.40
  -1  -3   1    3.00    0.40
  -1  -3   1    3.70    0.30
   0   3  -1    8.90    0.40
   0   3  -1    8.30    0.40
   0  -3   1    7.90    0.40
   0  -3   1    8.40    0.40
   0  -3   1    8.20    0.40
  -1   3  -1    0.10    0.20
  -1   3  -1   -0.10    0.20
   1  -3   1   -0.10    0.20
   1  -3   1   -0.10    0.20
   1  -3   1    0.00    0.10
   1  -3   1   -0.10    0.20
  -2   3  -1   14.00    0.60
   2  -3   1   12.50    0.60
   2  -3   1   11.90    0.50
   2  -3   1   13.00    0.50
   3  -3   1   -0.10    0.10
   3  -3   1   -0.30    0.20
   3  -3   1   -0.30    0.20
   3  -3   1    0.20    0.20
  -4   3  -1   35.10    1.30
   4  -3   1   33.60    1.20
   4  -3   1   36.50    1.20
   4  -3   1   35.40    1.30
   4  -3   1   37.00    1.20
  -5   3  -1    1.40    0.30
   5  -3   1    2.00    0.30
   5  -3   1    1.80    0.30
  -6   3  -1    1.00    0.40
   6  -3   1    2.10    0.30
   6  -3   1    1.70    0.40
  -7   3  -1   21.20    1.20
   7  -3   1   21.70    1.00
   7  -3   1   22.80    1.10
  -8   3  -1    0.40    0.50
   8  -3   1   -0.60    0.40
   8  -3   1    0.70    0.50
  -9   3  -1    0.90    0.50
   9  -3   1    0.00    0.40
   9  -3   1   -0.10    0.50
 -10   3  -1    8.90    1.10
 -10   3  -1    6.40    0.70
  10  -3   1    5.30    0.70
  10   2  -1    1.70    0.70
 -10  -2   1    1.70    0.60
   9   2  -1   -0.80    0.50
  -9  -2   1   -0.30    0.50
   8   2  -1   16.90    1.10
  -8  -2   1   15.30    1.00
  -8  -2   1   14.90    1.00
   7   2  -1    7.80    0.80
  -7  -2   1    7.40    0.70
  -7  -2   1    7.20    0.80
   6   2  -1   11.10    0.80
   6   2  -1   11.70    0.60
   6   2  -1   11.70    0.50
  -6  -2   1   11.50    0.70
   5   2  -1   18.20    0.70
   5   2  -1   16.20    0.80
   5   2  -1   20.60    0.90
   5   2  -1   19.60    0.70
  -5  -2   1   19.10    0.80
   4   2  -1   22.50    0.80
   4   2  -1   22.70    0.80
   4   2  -1   22.50    1.00
   4   2  -1   21.90    0.90
  -4  -2   1   23.00    0.90
   3   2  -1  119.09    3.80
   3   2  -1  121.19    3.90
   3   2  -1  118.29    3.80
  -3  -2   1  117.89    3.80
   2   2  -1  305.37    9.20
   2   2  -1  303.97    9.10
   2   2  -1  255.97    9.10
  -2  -2   1  303.07    9.10
  -2  -2   1  290.37    9.10
   1   2  -1   31.00    1.10
   1   2  -1   31.40    1.10
   1   2  -1   35.80    1.10
  -1  -2   1   29.60    1.10
  -1  -2   1   31.00    1.10
   0   2  -1    0.00    0.10
   0   2  -1    0.20    0.20
   0   2  -1   -0.10    0.10
   0   2  -1   -0.20    0.10
   0  -2   1    0.00    0.10
   0  -2   1   -0.20    0.10
   0  -2   1   -0.10    0.10
   0  -2   1   -0.10    0.10
  -1   2  -1    3.00    0.30
  -1   2  -1    2.70    0.20
   1  -2   1    3.00    0.20
   1  -2   1    2.40    0.20
   1  -2   1    2.40    0.20
  -2   2  -1  125.39    4.10
  -2   2  -1  146.99    4.20
   2  -2   1  130.29    4.10
   2  -2   1  128.99    4.20
   2  -2   1  128.09    4.10
   2  -2   1  131.09    4.10
  -3   2  -1  354.86   11.10
   3  -2   1  358.26   11.00
   3  -2   1  349.17   11.00
   3  -2   1  354.26   11.10
   3  -2   1  346.47   11.00
   4  -2   1   74.89    2.40
   4  -2   1   77.19    2.50
   4  -2   1   75.19    2.50
   5  -2   1    7.00    0.50
   5  -2   1    7.40    0.50
   5  -2   1    6.80    0.60
   6  -2   1   27.10    1.20
   6  -2   1   28.90    1.20
   6  -2   1   27.70    1.10
   7  -2   1    4.90    0.60
   7  -2   1    5.40    0.70
   7  -2   1    4.90    0.60
   8  -2   1    1.10    0.50
   9  -2   1    2.10    0.60
   9  -2   1    1.80    0.50
   9  -2   1    2.70    0.50
 -10   2  -1   10.60    1.00
  10  -2   1   10.70    1.00
  10  -2   1   12.10    1.20
  10   1  -1   -0.20    0.70
 -10  -1   1    0.70    0.50
   9   1  -1    6.00    0.90
  -9  -1   1    5.30    0.60
   8   1  -1   10.50    0.90
   8   1  -1    8.70    0.90
  -8  -1   1   10.20    0.80
   7   1  -1    0.20    0.40
   7   1  -1    0.00    0.50
  -7  -1   1    0.40    0.40
   6   1  -1  237.68    7.60
   6   1  -1  242.58    7.80
  -6  -1   1  243.28    7.70
   5   1  -1   37.20    1.20
   5   1  -1   35.80    1.30
   5   1  -1   37.50    1.40
   5   1  -1   35.40    1.20
  -5  -1   1   36.70    1.30
   4   1  -1   38.80    1.50
   4   1  -1   43.80    1.40
   4   1  -1   43.50    1.50
   4   1  -1   44.80    1.40
  -4  -1   1   43.20    1.50
   3   1  -1  126.09    4.00
   3   1  -1  123.79    3.90
   3   1  -1  127.69    3.90
   3   1  -1  122.19    3.90
  -3  -1   1  126.09    4.00
   2   1  -1    5.40    0.40
   2   1  -1    4.80    0.20
   2   1  -1    5.30    0.30
   2   1  -1    5.00    0.30
  -2  -1   1    4.90    0.30
   1   1  -1   23.20    0.80
   1   1  -1   23.20    0.80
  -1  -1   1   23.30    0.80
  -1  -1   1   23.00    0.80
  -1   1  -1  467.85   14.60
  -1   1  -1  472.75   14.60
  -1   1  -1  479.95   14.60
   1  -1   1  467.35   14.60
   1  -1   1  467.35   14.60
   2  -1   1 1188.18   36.70
   2  -1   1 1177.98   36.70
   2  -1   1 1178.58   36.80
   3  -1   1    7.70    0.40
   3  -1   1    7.80    0.40
   3  -1   1    7.60    0.40
   4  -1   1   32.70    1.20
   4  -1   1   31.80    1.10
   4  -1   1   33.10    1.20
   5  -1   1   17.30    0.70
   5  -1   1   17.80    0.80
   5  -1   1   17.50    0.80
   6  -1   1    0.10    0.30
   6  -1   1    0.10    0.30
   6  -1   1    0.00    0.30
   7  -1   1   46.80    1.80
   7  -1   1   47.00    1.90
   7  -1   1   47.30    1.70
   8  -1   1   26.40    1.50
   8  -1   1   27.70    1.30
   8  -1   1   28.10    1.30
  -9   1  -1    0.10    0.40
   9  -1   1    0.30    0.40
   9  -1   1    0.40    0.50
 -10   1  -1    2.10    0.50
  10  -1   1    1.50    0.60
  10  -1   1    2.30    0.70
  10   0  -1   15.80    1.30
  10   0  -1   16.00    1.10
 -10   0   1   18.20    1.10
   9   0  -1    1.50    0.60
   9   0  -1    0.70    0.60
  -9   0   1    1.30    0.50
   8   0  -1  199.78    6.60
   8   0  -1  205.78    6.40
  -8   0   1  187.58    6.60
   7   0  -1   29.40    1.20
   7   0  -1   29.20    1.40
  -7   0   1   28.40    1.20
   6   0  -1    0.20    0.30
   6   0  -1   -0.20    0.30
  -6   0   1    0.10    0.30
   5   0  -1   78.69    2.70
   5   0  -1   78.49    2.60
  -5   0   1   76.89    2.60
   4   0  -1  233.18    7.40
   4   0  -1  238.38    7.40
   4   0  -1  237.28    7.50
   3   0  -1  115.49    3.80
   3   0  -1  116.39    3.70
   3   0  -1  115.79    3.70
   3   0  -1  123.49    3.70
   3   0  -1  115.09    3.70
   2   0  -1 1927.71   61.49
   2   0  -1 2014.20   61.29
   2   0  -1 1962.60   61.29
   2   0  -1 1917.21   61.39
  -2   0   1 2034.60   61.39
  -2   0   1 1988.60   61.39
   1   0  -1    3.40    0.20
   1   0  -1    3.40    0.20
  -1   0   1    4.00    0.20
  -1   0   1    3.90    0.20
  -1   0   1    4.00    0.20
   1   0   1   47.90    1.60
   2   0   1 9789.72  306.97
   2   0   1 9999.00  306.97
   3   0   1    3.60    0.30
   3   0   1    3.60    0.40
   3   0   1    3.80    0.30
   4   0   1 1341.27   40.90
   4   0   1 1287.67   40.90
   4   0   1 1320.57   41.00
   5   0   1    5.20    0.40
   5   0   1    4.70    0.50
   5   0   1    5.00    0.50
   6   0   1   36.30    1.50
   6   0   1   35.60    1.30
   6   0   1   32.40    1.30
   7   0   1    3.40    0.50
   7   0   1    3.00    0.50
   7   0   1    3.60    0.60
   8   0   1   -0.20    0.50
   8   0   1    0.20    0.40
   8   0   1    0.50    0.40
  -9   0  -1    1.30    0.40
  -9   0  -1    0.50    0.90
   9   0   1    0.90    0.60
 -10   0  -1    1.00    0.50
 -10   0  -1    3.10    0.60
  10   0   1    2.30    0.70
  10  -1  -1   21.30    1.40
  10  -1  -1   21.90    1.20
 -10   1   1   22.50    1.20
   9  -1  -1    5.50    0.80
   9  -1  -1    6.90    1.00
  -9   1   1    7.00    0.70
   8  -1  -1    7.10    0.90
   8  -1  -1    6.30    0.80
  -8   1   1    6.40    0.80
   7  -1  -1    1.80    0.50
   7  -1  -1    1.60    0.40
  -7   1   1    2.40    0.40
   6  -1  -1    2.40    0.40
   6  -1  -1    3.80    0.60
  -6   1   1    3.20    0.40
   5  -1  -1   24.70    1.00
   5  -1  -1   26.80    1.10
   5  -1  -1   25.50    1.00
   4  -1  -1    2.40    0.20
   4  -1  -1    2.10    0.30
   4  -1  -1    2.20    0.20
   4  -1  -1    2.10    0.30
   4  -1  -1    2.20    0.20
   3  -1  -1   23.10    0.80
   3  -1  -1   23.10    0.80
   3  -1  -1   23.80    0.80
   3  -1  -1   22.90    0.90
   3  -1  -1   22.20    0.80
   2  -1  -1  369.06   11.30
   2  -1  -1  374.16   11.40
   2  -1  -1  341.67   11.50
   2  -1  -1  360.36   11.40
  -2   1   1  362.86   11.30
  -2   1   1  362.96   11.30
  -2   1   1  380.36   11.30
   1  -1  -1   76.29    2.30
   1  -1  -1   73.89    2.30
  -1   1   1   74.19    2.30
  -1   1   1   69.29    2.30
   0  -1  -1  227.08    7.60
   0  -1  -1  246.28    7.70
   0  -1  -1  263.47    7.70
   0  -1  -1  254.97    7.70
   0  -1  -1  218.48    7.70
   0   1   1  250.37    7.70
   0   1   1  250.27    7.60
   0   1   1  254.07    7.70
  -1  -1  -1  273.67    8.90
  -1  -1  -1  295.77    8.90
   1   1   1  285.37    8.90
   1   1   1  283.87    8.90
   1   1   1  279.67    8.90
  -2  -1  -1 1127.89   34.20
  -2  -1  -1 1108.19   34.20
   2   1   1 1115.29   34.20
   2   1   1 1092.69   34.10
   2   1   1 1066.09   34.10
   2   1   1 1090.69   34.20
  -3  -1  -1  391.26   12.00
   3   1   1  375.16   12.00
   3   1   1  382.06   12.00
   3   1   1  393.26   12.10
   3   1   1  386.86   12.10
  -4  -1  -1   39.30    1.30
   4   1   1   39.60    1.40
   4   1   1   36.90    1.30
   4   1   1   39.40    1.40
   4   1   1   39.60    1.30
   5   1   1    0.40    0.30
   5   1   1    0.10    0.30
  -6  -1  -1   23.90    1.00
   6   1   1   23.20    1.10
   6   1   1   23.60    1.00
  -7  -1  -1    1.50    0.40
   7   1   1    0.80    0.60
   7   1   1    1.80    0.50
  -8  -1  -1   20.60    1.10
   8   1   1   20.70    1.20
  -9  -1  -1   -0.60    0.50
  -9  -1  -1   -0.70    0.60
   9   1   1    0.40    0.60
 -10  -1  -1    0.40    0.60
  10   1   1   -0.60    0.60
  10  -2  -1    1.50    0.60
  10  -2  -1    0.30    0.50
 -10   2   1    1.90    0.50
   9  -2  -1    2.30    0.60
  -9   2   1    3.30    0.60
   8  -2  -1    1.70    0.50
   8  -2  -1    1.80    0.50
  -8   2   1    1.50    0.50
   7  -2  -1    1.20    0.40
   7  -2  -1    2.00    0.50
  -7   2   1    2.40    0.40
   6  -2  -1    1.50    0.40
   6  -2  -1    1.10    0.30
  -6   2   1    1.50    0.30
   5  -2  -1   -0.10    0.20
   5  -2  -1    0.00    0.30
   5  -2  -1   -0.10    0.20
   5  -2  -1   -0.30    0.20
   5  -2  -1    0.00    0.10
   4  -2  -1    1.30    0.20
   4  -2  -1    1.10    0.20
   4  -2  -1    0.80    0.20
   4  -2  -1    1.00    0.20
   4  -2  -1    1.00    0.30
   3  -2  -1    0.50    0.20
   3  -2  -1    0.50    0.20
   3  -2  -1    0.80    0.20
  -3   2   1    0.20    0.20
   2  -2  -1    6.20    0.30
   2  -2  -1    7.20    0.40
  -2   2   1    5.40    0.40
  -2   2   1    6.20    0.40
   1  -2  -1   36.20    1.20
   1  -2  -1   35.90    1.30
   1  -2  -1   36.40    1.20
  -1   2   1   41.20    1.30
  -1   2   1   36.70    1.30
   0  -2  -1  661.33   20.20
   0  -2  -1  646.34   20.10
   0   2   1  648.74   20.20
   0   2   1  594.94   20.20
   0   2   1  673.63   20.20
   0   2   1  653.23   20.10
  -1  -2  -1  175.18    5.40
  -1  -2  -1  191.68    5.40
   1   2   1  153.78    5.50
   1   2   1  184.28    5.40
   1   2   1  158.18    5.50
   1   2   1  159.48    5.40
  -2  -2  -1  386.96   12.50
  -2  -2  -1  413.46   12.40
   2   2   1  393.26   12.50
   2   2   1  410.76   12.50
   2   2   1  385.16   12.50
   2   2   1  408.76   12.50
  -3  -2  -1   25.00    0.90
   3   2   1   24.90    0.90
   3   2   1   24.00    0.90
   3   2   1   23.30    0.90
   3   2   1   24.30    0.90
  -4  -2  -1   10.40    0.50
   4   2   1    9.40    0.60
   4   2   1    9.80    0.50
   4   2   1    9.40    0.60
   4   2   1   10.40    0.50
  -5  -2  -1    2.10    0.30
   5   2   1    2.30    0.40
   5   2   1    2.60    0.40
   5   2   1    2.50    0.40
   5   2   1    2.30    0.30
  -6  -2  -1   15.40    0.80
   6   2   1   13.80    0.80
   6   2   1   15.40    0.90
   6   2   1   14.80    0.60
  -7  -2  -1    0.20    0.40
   7   2   1    0.50    0.40
   7   2   1   -0.30    0.60
  -8  -2  -1   13.30    1.00
  -8  -2  -1   14.20    1.00
   8   2   1   15.10    1.10
  -9  -2  -1   58.79    2.20
   9   2   1   54.39    2.40
 -10  -2  -1   -0.30    0.60
  10  -3  -1   -0.10    0.50
 -10   3   1    1.70    0.60
   9  -3  -1    0.40    0.40
  -9   3   1    2.50    0.60
  -9   3   1    1.50    0.60
   8  -3  -1    9.60    0.80
  -8   3   1    7.70    0.90
  -8   3   1    8.30    0.80
   7  -3  -1    0.20    0.40
  -7   3   1    0.20    0.30
  -7   3   1    1.10    0.40
   6  -3  -1   45.20    1.50
   6  -3  -1   42.40    1.50
   6  -3  -1   45.00    1.70
  -6   3   1   42.80    1.70
  -6   3   1   43.30    1.50
   5  -3  -1   79.89    2.70
   5  -3  -1   82.89    2.60
   5  -3  -1   77.99    2.60
  -5   3   1   74.69    2.70
   4  -3  -1    0.30    0.20
   4  -3  -1    0.10    0.20
   4  -3  -1    0.40    0.20
  -4   3   1    0.20    0.20
   3  -3  -1    7.10    0.50
   3  -3  -1    7.20    0.50
   3  -3  -1    7.20    0.40
  -3   3   1    4.90    0.60
  -3   3   1    7.00    0.50
   2  -3  -1    3.00    0.30
   2  -3  -1    2.70    0.30
  -2   3   1    2.50    0.40
  -2   3   1    2.40    0.40
   1  -3  -1   84.99    2.70
   1  -3  -1   77.79    2.80
   1  -3  -1   83.19    2.60
   1  -3  -1   81.49    2.80
  -1   3   1   88.39    2.80
  -1   3   1   85.79    2.70
   0  -3  -1    6.10    0.40
   0   3   1    5.60    0.40
   0   3   1    7.00    0.40
  -1  -3  -1   34.00    1.20
  -1  -3  -1   35.30    1.20
   1   3   1   34.80    1.20
   1   3   1   33.90    1.20
   1   3   1   33.40    1.20
   1   3   1   35.20    1.20
  -2  -3  -1    0.20    0.20
   2   3   1    0.30    0.20
   2   3   1    0.20    0.20
  -3  -3  -1    9.30    0.70
  -3  -3  -1    9.80    0.40
   3   3   1    8.50    0.50
   3   3   1    8.50    0.60
   3   3   1    8.80    0.60
   3   3   1    8.80    0.50
  -4  -3  -1   28.20    1.00
   4   3   1   29.40    1.20
   4   3   1   28.50    1.10
   4   3   1   28.00    1.10
   4   3   1   28.80    1.10
  -5  -3  -1    5.80    0.50
   5   3   1    6.10    0.50
   5   3   1    5.10    0.50
   5   3   1    5.20    0.60
   5   3   1    5.80    0.60
  -6  -3  -1   22.20    1.00
   6   3   1   22.00    1.10
   6   3   1   23.90    1.20
   6   3   1   22.20    1.00
   6   3   1   21.30    1.20
  -7  -3  -1    8.30    0.80
  -7  -3  -1    9.90    0.80
   7   3   1    8.40    0.60
   7   3   1    9.60    0.90
   7   3   1    8.90    0.50
  -8  -3  -1   20.60    1.20
   8   3   1   19.80    1.30
  -9  -3  -1   17.50    1.20
   9   3   1   18.10    1.30
  10  -4  -1   25.70    1.50
 -10   4   1   26.00    1.70
   9  -4  -1   15.50    1.10
  -9   4   1   14.90    1.30
   8  -4  -1   63.49    2.30
  -8   4   1   60.99    2.40
   7  -4  -1  100.09    3.20
  -7   4   1   99.69    4.10
   6  -4  -1   21.40    0.80
   6  -4  -1   21.10    0.90
   6  -4  -1   20.70    1.00
  -6   4   1   22.20    1.20
   5  -4  -1   10.40    0.60
   5  -4  -1   10.10    0.70
   5  -4  -1    9.70    0.60
  -5   4   1    9.10    0.70
   4  -4  -1   27.70    1.10
   4  -4  -1   29.50    1.10
   4  -4  -1   27.90    1.10
  -4   4   1   29.10    1.20
   3  -4  -1    3.00    0.30
   3  -4  -1    2.30    0.30
  -3   4   1    2.80    0.40
   2  -4  -1  962.30   30.90
   2  -4  -1 1045.50   30.90
   2  -4  -1  993.80   30.90
   2  -4  -1  960.20   30.90
  -2   4   1 1005.00   31.00
  -2   4   1  988.80   30.90
   1  -4  -1  126.79    4.10
   1  -4  -1  128.99    4.20
   1  -4  -1  128.39    4.20
  -1   4   1  127.09    4.20
  -1   4   1  143.59    4.30
   0  -4  -1   81.69    2.70
   0  -4  -1   81.19    2.70
   0  -4  -1   85.29    2.70
   0   4   1   81.09    2.70
   0   4   1   83.29    2.70
  -1  -4  -1   20.40    0.80
  -1  -4  -1   19.20    0.80
   1   4   1   19.30    0.80
   1   4   1   18.30    0.80
  -2  -4  -1  166.68    5.40
   2   4   1  162.28    5.40
   2   4   1  168.78    5.40
   2   4   1  170.68    5.40
  -3  -4  -1    3.20    0.50
   3   4   1    3.20    0.40
   3   4   1    3.00    0.40
   3   4   1    4.30    0.50
   3   4   1    2.60    0.40
   4   4   1    0.00    0.30
   4   4   1    0.10    0.20
   4   4   1    0.50    0.40
   4   4   1    0.40    0.30
  -5  -4  -1   12.40    0.80
   5   4   1   11.70    0.70
   5   4   1   11.40    0.80
   5   4   1   10.90    0.80
  -6  -4  -1    2.90    0.40
   6   4   1    2.60    0.50
   6   4   1    3.50    0.50
  -7  -4  -1    2.60    0.50
   7   4   1    2.20    0.30
   7   4   1    1.80    0.50
   7   4   1    1.80    0.50
  -8  -4  -1    4.10    0.60
   8   4   1    3.90    0.50
   8   4   1    4.50    0.70
  -9  -4  -1   -0.20    0.60
   9   4   1    0.10    0.70
  10  -5  -1  183.98    6.20
 -10   5   1  183.38    6.40
   9  -5  -1   18.60    1.20
  -9   5   1   17.50    1.40
   8  -5  -1    1.50    0.50
  -8   5   1    1.50    0.60
   7  -5  -1    4.40    0.50
   7  -5  -1    5.40    0.70
   7  -5  -1    4.40    0.60
  -7   5   1    3.80    0.60
   6  -5  -1    0.10    0.40
   6  -5  -1   -0.10    0.30
  -6   5   1    0.20    0.50
   5  -5  -1    0.20    0.20
   5  -5  -1    0.00    0.30
   5  -5  -1    0.30    0.30
  -5   5   1    1.00    0.40
   4  -5  -1  143.59    4.60
   4  -5  -1  145.29    4.60
   4  -5  -1  144.19    4.70
  -4   5   1  143.09    4.70
  -4   5   1  138.09    4.60
   3  -5  -1    2.50    0.40
   3  -5  -1    2.10    0.40
   3  -5  -1    2.10    0.30
  -3   5   1    2.50    0.40
  -3   5   1    3.40    0.50
   2  -5  -1    8.60    0.50
   2  -5  -1    8.90    0.60
  -2   5   1    9.30    0.60
  -2   5   1    9.80    0.70
   1  -5  -1   83.29    2.70
   1  -5  -1   80.69    2.60
   1  -5  -1   80.09    2.70
  -1   5   1   74.79    2.80
  -1   5   1   82.99    2.70
   0  -5  -1  333.17   10.90
   0  -5  -1  336.17   11.00
   0  -5  -1  339.37   11.00
   0   5   1  402.26   11.10
   0   5   1  339.07   11.10
  -1  -5  -1   71.09    2.40
  -1  -5  -1   74.89    2.40
   1   5   1   72.89    2.50
   1   5   1   70.99    2.50
  -2  -5  -1   66.29    2.20
  -2  -5  -1   64.39    2.30
  -2  -5  -1   66.29    2.20
   2   5   1   66.99    2.30
   2   5   1   59.59    2.30
   2   5   1   67.09    2.30
  -3  -5  -1  117.19    3.90
  -3  -5  -1  122.39    3.90
  -3  -5  -1  119.69    4.00
   3   5   1  125.09    4.10
   3   5   1  119.79    4.00
  -4  -5  -1    6.20    0.60
   4   5   1    6.50    0.70
   4   5   1    6.30    0.60
   4   5   1    7.00    0.90
  -5  -5  -1    3.00    0.40
   5   5   1    3.30    1.00
   5   5   1    2.90    0.40
  -6  -5  -1   11.30    0.80
   6   5   1   10.20    0.70
   6   5   1    9.70    1.00
   6   5   1   11.40    0.90
  -7  -5  -1    0.50    0.50
   7   5   1    0.50    0.80
   7   5   1    1.10    0.50
   7   5   1    0.40    0.40
  -8  -5  -1    1.70    0.50
   8   5   1    1.30    0.40
   8   5   1    1.30    0.60
   8   5   1    1.20    0.50
  10  -6  -1    2.10    0.60
 -10   6   1    1.70    0.90
   9  -6  -1    1.30    0.50
  -9   6   1    1.40    0.70
   8  -6  -1   18.60    1.00
   8  -6  -1   20.30    1.20
   8  -6  -1   20.50    0.90
  -8   6   1   20.30    1.40
   7  -6  -1   37.60    1.60
   7  -6  -1   40.10    1.70
   7  -6  -1   40.10    1.50
  -7   6   1   39.90    1.80
   6  -6  -1    0.30    0.40
   6  -6  -1    1.00    0.50
   6  -6  -1    0.30    0.30
  -6   6   1    1.10    0.50
   5  -6  -1   16.20    1.00
   5  -6  -1   17.30    0.80
   5  -6  -1   15.40    0.90
  -5   6   1   17.30    1.00
   4  -6  -1  190.58    6.10
   4  -6  -1  187.58    6.10
  -4   6   1  187.28    6.10
  -4   6   1  191.38    6.20
   3  -6  -1   13.60    0.70
   3  -6  -1   13.10    1.00
   3  -6  -1   13.70    0.80
  -3   6   1   13.30    0.90
  -3   6   1   14.50    0.90
   2  -6  -1   36.30    1.40
   2  -6  -1   37.30    1.40
  -2   6   1   36.90    1.50
  -2   6   1   36.40    1.50
   1  -6  -1   37.90    1.30
   1  -6  -1   38.20    1.40
  -1   6   1   39.50    1.50
  -1   6   1   38.00    1.50
   0  -6  -1   34.00    1.40
   0  -6  -1   36.70    1.30
   0  -6  -1   34.10    1.30
   0   6   1   35.60    1.40
   0   6   1   34.80    1.40
  -1  -6  -1   14.50    0.70
  -1  -6  -1   14.30    1.10
  -1  -6  -1   13.00    0.70
   1   6   1   14.00    0.80
   1   6   1   12.60    0.80
  -2  -6  -1   88.29    2.90
  -2  -6  -1   86.59    3.10
  -2  -6  -1   86.89    2.90
   2   6   1   86.89    3.00
   2   6   1   90.59    3.10
  -3  -6  -1   -0.40    0.60
  -3  -6  -1   -0.50    0.30
  -3  -6  -1    0.10    0.30
   3   6   1    0.40    0.40
   3   6   1    0.40    0.30
  -4  -6  -1    0.40    0.40
   4   6   1    0.60    0.40
  -5  -6  -1    4.60    0.60
   5   6   1    5.00    0.80
   5   6   1    5.40    0.70
  -6  -6  -1    3.00    0.50
   6   6   1    3.60    0.50
   6   6   1    2.80    0.60
  -7  -6  -1    0.80    0.50
   7   6   1   -0.10    0.60
   7   6   1    0.70    0.50
  -8  -6  -1   13.00    1.20
   8   6   1   14.50    1.30
   8   6   1   11.40    0.90
   9  -7  -1    0.10    0.30
   9  -7  -1    0.10    0.60
   9  -7  -1    0.20    0.30
  -9   7   1   -0.30    0.80
   8  -7  -1   17.90    0.90
   8  -7  -1   16.70    1.20
  -8   7   1   16.80    1.40
   7  -7  -1    8.40    0.70
   7  -7  -1    8.40    0.90
  -7   7   1    6.70    1.00
   6  -7  -1  202.48    6.70
   6  -7  -1  205.38    6.60
  -6   7   1  205.18    6.80
   5  -7  -1   52.19    2.00
   5  -7  -1   52.19    1.90
  -5   7   1   53.29    2.10
   4  -7  -1   20.20    1.00
   4  -7  -1   19.20    1.00
  -4   7   1   20.20    1.20
  -4   7   1   21.00    1.50
   3  -7  -1    0.00    0.30
   3  -7  -1    0.00    0.40
  -3   7   1    0.80    0.40
  -3   7   1    0.30    0.60
   2  -7  -1    7.60    0.80
   2  -7  -1    7.00    0.50
   2  -7  -1    6.20    0.70
  -2   7   1    8.10    1.00
  -2   7   1    7.50    0.70
   1  -7  -1    0.50    0.30
   1  -7  -1    0.50    0.40
   1  -7  -1    0.60    0.50
  -1   7   1    0.40    0.50
  -1   7   1   -0.20    0.30
   0  -7  -1   73.09    2.50
   0  -7  -1   72.39    2.40
   0  -7  -1   72.29    2.60
   0   7   1   73.89    2.60
   0   7   1   71.19    2.60
  -1  -7  -1   39.50    1.50
  -1  -7  -1   41.00    1.80
  -1  -7  -1   40.90    1.50
   1   7   1   42.00    1.70
   1   7   1   40.20    1.70
  -2  -7  -1   61.09    2.40
  -2  -7  -1   57.69    2.10
  -2  -7  -1   60.09    2.10
   2   7   1   58.99    2.50
   2   7   1   58.49    2.20
  -3  -7  -1   10.00    0.80
   3   7   1   10.60    1.00
  -4  -7  -1  175.78    5.90
   4   7   1  181.88    6.00
   4   7   1  181.58    5.90
  -5  -7  -1   21.00    1.10
   5   7   1   19.60    1.20
   5   7   1   20.00    1.20
  -6  -7  -1   39.70    1.70
   6   7   1   39.40    1.70
   6   7   1   37.90    1.90
  -7  -7  -1    4.60    0.70
   7   7   1    3.70    0.80
   7   7   1    4.20    0.60
   9  -8  -1    0.90    0.60
   9  -8  -1    0.50    0.40
  -9   8   1   -0.10    0.80
   8  -8  -1   14.70    1.30
   8  -8  -1   17.20    1.00
  -8   8   1   15.20    1.40
   7  -8  -1   19.40    1.20
   7  -8  -1   19.50    1.00
  -7   8   1   18.80    1.40
   6  -8  -1   -0.40    0.40
   6  -8  -1   -0.90    0.40
  -6   8   1    0.10    0.60
   5  -8  -1   15.00    0.90
   5  -8  -1   15.50    1.00
  -5   8   1   14.50    1.20
   4  -8  -1   10.40    0.80
   4  -8  -1    9.30    0.80
  -4   8   1    9.30    1.00
   3  -8  -1   40.40    1.70
   3  -8  -1   36.10    1.70
  -3   8   1   36.40    1.70
  -3   8   1   38.10    2.10
   2  -8  -1   26.00    1.30
   2  -8  -1   24.70    1.00
   2  -8  -1   25.80    1.20
  -2   8   1   26.30    1.30
  -2   8   1   26.30    1.50
   1  -8  -1  148.49    4.90
   1  -8  -1  144.49    4.80
   1  -8  -1  142.59    4.70
  -1   8   1  141.19    4.90
  -1   8   1  149.79    4.90
   0  -8  -1    0.30    0.40
   0  -8  -1    0.20    0.60
   0  -8  -1    0.20    0.40
   0   8   1    0.20    0.40
   0   8   1   -0.10    0.60
  -1  -8  -1   11.00    1.30
  -1  -8  -1   12.30    0.90
  -1  -8  -1   11.90    0.80
   1   8   1   10.20    0.90
   1   8   1    9.40    1.10
  -2  -8  -1   26.60    2.00
  -2  -8  -1   27.80    1.30
   2   8   1   28.60    1.80
   2   8   1   35.00    1.60
  -3  -8  -1   26.90    1.20
   3   8   1   25.20    1.50
   3   8   1   27.20    1.40
  -4  -8  -1    0.80    0.50
   4   8   1    0.70    0.50
   4   8   1    0.30    0.60
  -5  -8  -1   54.89    2.20
   5   8   1   50.29    2.10
   5   8   1   50.99    2.20
  -6  -8  -1    3.10    0.60
   6   8   1    1.90    0.70
   6   8   1    2.60    0.60
   8  -9  -1    1.70    0.60
   8  -9  -1    2.50    0.50
  -8   9   1    0.70    0.80
   7  -9  -1    0.30    0.50
   7  -9  -1    1.20    0.50
  -7   9   1    0.30    0.80
   6  -9  -1   11.60    1.00
   6  -9  -1   10.90    0.90
  -6   9   1    8.30    1.20
   5  -9  -1    3.00    0.50
   5  -9  -1    3.20    0.60
  -5   9   1    2.40    0.70
   4  -9  -1    0.90    0.40
   4  -9  -1   -0.10    0.40
  -4   9   1   -0.30    0.50
   3  -9  -1    0.60    0.50
   3  -9  -1    1.60    0.50
  -3   9   1    1.50    0.50
   2  -9  -1    8.00    1.10
   2  -9  -1    7.00    0.70
  -2   9   1    8.00    0.80
  -2   9   1    6.50    0.90
   1  -9  -1    5.70    0.50
   1  -9  -1    6.80    1.00
   1  -9  -1    6.70    0.80
  -1   9   1    6.00    0.90
  -1   9   1    4.80    0.80
   0  -9  -1    9.40    1.40
   0  -9  -1    9.10    1.00
   0  -9  -1    9.40    0.80
   0   9   1    8.70    1.30
   0   9   1    8.50    0.90
  -1  -9  -1   -0.10    0.60
  -1  -9  -1   -0.30    1.00
   1   9   1   -0.60    0.70
   1   9   1    0.00    0.50
  -2  -9  -1   15.80    1.20
  -2  -9  -1   13.80    0.90
   2   9   1   13.50    1.10
   2   9   1   14.90    1.30
  -3  -9  -1    5.70    0.60
   3   9   1    4.10    0.80
   3   9   1    4.90    0.70
  -4  -9  -1    1.90    0.60
   4   9   1    2.30    0.70
   4   9   1    1.00    0.70
  -5  -9  -1    8.80    1.10
   5   9   1    9.00    1.10
   5   9   1   10.50    1.20
   7 -10  -1   22.50    1.40
   7 -10  -1   21.40    1.30
  -7  10   1   16.50    2.30
   6 -10  -1    4.80    0.70
   6 -10  -1    4.20    0.70
  -6  10   1    4.30    0.80
   5 -10  -1   10.10    1.00
   5 -10  -1    9.10    1.00
  -5  10   1    8.80    1.20
   4 -10  -1   36.60    1.70
   4 -10  -1   35.30    1.70
  -4  10   1   34.60    1.70
   3 -10  -1   12.00    1.00
   3 -10  -1   10.10    1.10
  -3  10   1   10.20    1.00
   2 -10  -1    7.90    0.90
   2 -10  -1    7.00    1.00
  -2  10   1    6.90    0.90
  -2  10   1    6.00    1.10
   1 -10  -1   12.90    1.00
   1 -10  -1   16.40    1.00
   1 -10  -1   14.00    1.60
  -1  10   1   13.40    1.60
  -1  10   1   14.70    1.10
   0 -10  -1    7.80    0.80
   0 -10  -1    7.90    1.20
   0 -10  -1    8.30    1.10
   0  10   1    7.90    1.00
   0  10   1    7.90    1.00
  -1 -10  -1    0.80    0.70
  -1 -10  -1    0.60    0.50
   1  10   1    1.40    0.70
   1  10   1    0.30    0.60
  -2 -10  -1    6.40    0.80
   2  10   1    5.00    0.90
   2  10   1    5.00    0.80
  -3 -10  -1    1.60    0.50
   3  10   1    1.70    0.70
   3  10   1    0.50    0.80
  -4 -10  -1    0.10    0.60
   4  10   1   -0.90    0.70
   4  10   1    0.30    0.80
   6 -11  -1   41.20    2.00
   6 -11  -1   40.90    1.90
  -6  11   1   35.20    2.00
   5 -11  -1   41.00    2.00
   5 -11  -1   40.80    1.90
  -5  11   1   41.50    2.10
   4 -11  -1    6.10    0.80
   4 -11  -1    6.80    0.90
  -4  11   1    8.80    1.10
   3 -11  -1    4.10    0.80
   3 -11  -1    3.60    0.70
  -3  11   1    6.50    1.00
   2 -11  -1   37.50    1.70
   2 -11  -1   38.80    1.90
  -2  11   1   34.60    1.80
   1 -11  -1    0.10    0.70
   1 -11  -1    0.20    0.80
   1 -11  -1    0.50    0.60
  -1  11   1   -0.70    1.00
  -1  11   1    0.30    0.70
   0 -11  -1   25.50    1.20
   0 -11  -1   26.30    1.40
   0  11   1   26.10    1.60
   0  11   1   24.30    1.70
  -1 -11  -1   17.40    1.10
   1  11   1   15.80    1.50
   1  11   1   15.30    1.50
  -2 -11  -1   11.70    1.10
   2  11   1   14.80    1.40
   2  11   1   11.00    1.40
   2 -12  -1    4.00    0.90
   2 -12  -1    1.30    0.80
  -2  12   1    1.30    0.70
   1 -12  -1   59.49    2.40
  -1  12   1   56.89    2.60
   1  12  -2   46.90    2.40
   1  12  -2   56.39    2.50
  -1 -12   2   48.10    2.00
   0  12  -2    3.90    1.00
   0  12  -2    1.90    0.90
   0 -12   2    4.50    0.60
  -1  12  -2    3.20    0.70
   1 -12   2    2.00    0.60
   1 -12   2    3.40    0.60
  -2  12  -2    2.00    0.70
   2 -12   2    2.20    0.60
   2 -12   2    1.40    0.60
  -3  12  -2   34.70    1.80
   3 -12   2   36.10    1.70
   3 -12   2   32.30    1.80
  -4  12  -2    4.60    0.90
   4 -12   2    2.80    0.60
   4 -12   2    4.20    0.70
  -5  12  -2   58.89    2.60
   3  11  -2   -0.40    0.70
   3  11  -2   -0.90    0.70
  -3 -11   2    0.60    0.50
   2  11  -2    0.10    0.70
   2  11  -2   -0.40    0.70
  -2 -11   2    1.30    0.50
   1  11  -2    6.40    0.90
   1  11  -2    6.80    1.20
  -1 -11   2    7.40    0.80
   0  11  -2    0.00    0.60
   0 -11   2    0.80    0.50
   0 -11   2   -0.50    1.00
   0 -11   2    0.50    0.70
  -1  11  -2   17.80    1.90
  -1  11  -2   11.70    1.10
   1 -11   2   12.30    1.00
   1 -11   2   12.60    1.30
  -2  11  -2    0.50    0.50
   2 -11   2    0.60    0.60
   2 -11   2    0.60    0.60
   2 -11   2    1.20    0.50
  -3  11  -2    0.20    0.60
   3 -11   2    0.40    0.50
   3 -11   2   -0.30    0.60
  -4  11  -2   59.29    2.50
   4 -11   2   62.89    2.40
   4 -11   2   60.09    2.50
  -5  11  -2    6.50    1.10
   5 -11   2    6.80    1.00
   5 -11   2    4.10    0.70
  -6  11  -2   59.59    2.60
   6 -11   2   62.99    2.80
   6 -11   2   60.19    2.40
   5  10  -2   18.10    1.40
   4  10  -2    5.40    0.80
   4  10  -2    3.50    0.80
  -4 -10   2    4.40    0.60
   3  10  -2    3.40    0.90
   3  10  -2    5.90    0.70
  -3 -10   2    5.90    0.70
   2  10  -2    4.60    0.70
   2  10  -2    4.50    0.80
  -2 -10   2    4.90    0.60
   1  10  -2    1.30    0.70
  -1 -10   2    1.00    0.40
  -1 -10   2    1.30    0.90
   0  10  -2    1.50    0.90
   0  10  -2    0.90    0.50
   0 -10   2    0.60    0.60
   0 -10   2    1.00    0.90
  -1  10  -2    1.80    0.90
  -1  10  -2    2.60    0.50
   1 -10   2    1.60    0.80
   1 -10   2    2.20    0.50
   1 -10   2    2.50    0.60
  -2  10  -2    2.10    0.60
  -2  10  -2    1.70    1.00
   2 -10   2    2.50    0.50
  -3  10  -2   15.70    1.10
   3 -10   2   15.00    1.00
   3 -10   2   14.50    1.00
   3 -10   2   17.40    1.10
  -4  10  -2    0.80    0.50
   4 -10   2    0.10    0.50
   4 -10   2    0.20    0.50
  -5  10  -2   -0.10    0.50
   5 -10   2    0.50    0.50
   5 -10   2    1.10    0.50
  -6  10  -2    0.10    0.60
   6 -10   2    0.80    0.50
   6 -10   2    1.10    0.50
  -7  10  -2    3.70    0.80
   7 -10   2    4.30    0.70
   7 -10   2    4.20    0.70
   6   9  -2    1.30    0.70
   6   9  -2    0.20    0.60
  -6  -9   2    0.60    0.70
   5   9  -2   61.09    2.40
   5   9  -2   55.99    2.50
  -5  -9   2   57.29    2.30
   4   9  -2   24.20    1.30
   4   9  -2   19.50    1.40
  -4  -9   2   22.60    1.20
   3   9  -2   12.30    1.20
   3   9  -2   14.90    1.10
  -3  -9   2   14.60    0.90
   2   9  -2    6.90    1.10
   2   9  -2    6.40    0.80
  -2  -9   2    9.30    0.70
   1   9  -2   16.20    1.20
   1   9  -2   18.90    1.40
  -1  -9   2   16.10    1.00
  -1  -9   2   17.30    1.40
   0   9  -2   14.00    1.30
   0   9  -2   12.40    1.00
   0  -9   2   14.50    1.00
   0  -9   2   13.20    0.90
   0  -9   2   13.80    1.30
  -1   9  -2   35.70    1.80
  -1   9  -2   33.40    1.50
   1  -9   2   33.80    1.30
   1  -9   2   33.90    1.50
   1  -9   2   34.40    1.70
  -2   9  -2    1.00    0.80
  -2   9  -2    0.90    0.40
   2  -9   2    0.30    0.60
   2  -9   2    0.70    0.50
   2  -9   2    0.90    0.40
  -3   9  -2    0.30    0.40
   3  -9   2    0.10    0.40
  -4   9  -2   -0.10    0.40
   4  -9   2    0.70    0.40
   4  -9   2    0.00    0.40
  -5   9  -2   46.70    2.00
   5  -9   2   49.60    1.90
   5  -9   2   51.19    2.00
  -6   9  -2   16.90    1.30
   6  -9   2   18.50    1.20
   6  -9   2   18.20    1.00
  -7   9  -2   -0.10    0.60
   7  -9   2    0.60    0.50
   7  -9   2    0.50    0.40
  -8   9  -2   20.80    1.60
   8  -9   2   21.40    1.20
   8  -9   2   22.20    1.40
   7   8  -2   18.90    1.20
   7   8  -2   19.70    1.60
  -7  -8   2   22.70    1.30
   6   8  -2   14.30    1.20
   6   8  -2   13.40    1.30
  -6  -8   2   10.80    1.00
   5   8  -2    2.40    0.60
   5   8  -2    2.30    0.60
  -5  -8   2    2.90    0.60
   4   8  -2   98.49    3.60
   4   8  -2  100.59    3.50
  -4  -8   2   96.89    3.40
   3   8  -2  198.58    6.80
   3   8  -2  215.58    6.70
  -3  -8   2  198.98    6.60
   2   8  -2  146.59    5.10
   2   8  -2  158.08    5.10
  -2  -8   2  149.39    5.10
   1   8  -2   77.69    2.80
  -1  -8   2   75.19    2.80
  -1  -8   2   74.49    2.60
  -1  -8   2   77.29    2.60
   0   8  -2   14.90    1.10
   0   8  -2   13.70    0.90
   0  -8   2   11.80    0.90
   0  -8   2   14.90    1.10
   0  -8   2   14.50    0.80
  -1   8  -2  274.67    8.70
  -1   8  -2  271.07    8.70
   1  -8   2  268.77    8.60
   1  -8   2  271.27    8.50
   1  -8   2  266.07    8.70
  -2   8  -2   11.60    1.10
  -2   8  -2   10.10    0.80
   2  -8   2   12.50    0.90
   2  -8   2    9.60    0.80
   2  -8   2   11.90    0.70
  -3   8  -2   32.80    1.70
  -3   8  -2   33.40    1.40
   3  -8   2   30.90    1.40
   3  -8   2   33.70    1.50
   3  -8   2   35.30    1.30
  -4   8  -2   21.70    1.40
  -5   8  -2   88.39    3.20
   5  -8   2   87.19    3.10
   5  -8   2   88.79    3.00
  -6   8  -2   83.19    3.10
   6  -8   2   81.79    2.90
   6  -8   2   83.29    3.00
  -7   8  -2   20.90    1.40
   7  -8   2   21.00    1.20
   7  -8   2   21.60    1.00
  -8   8  -2   31.70    1.80
   8  -8   2   34.80    1.70
   8  -8   2   34.70    1.30
  -9   8  -2   16.80    1.50
   9  -8   2   16.00    1.30
   7   7  -2    0.90    0.60
   7   7  -2   -0.80    0.60
  -7  -7   2    0.20    0.80
   6   7  -2    7.80    0.80
   6   7  -2    9.30    1.00
  -6  -7   2    6.50    0.80
   5   7  -2   43.60    1.90
   5   7  -2   45.50    1.80
   4   7  -2   98.79    3.40
   4   7  -2   96.19    3.50
  -4  -7   2   94.89    3.30
   3   7  -2  255.77    8.10
   3   7  -2  252.07    7.90
  -3  -7   2  228.88    8.10
  -3  -7   2  243.88    8.00
   2   7  -2   34.80    1.50
   2   7  -2   35.40    1.60
  -2  -7   2   33.40    1.30
  -2  -7   2   33.90    1.60
   1   7  -2   56.19    2.10
   1   7  -2   58.29    2.20
  -1  -7   2   55.99    2.00
  -1  -7   2   58.09    2.00
  -1  -7   2   56.69    2.20
   0   7  -2   99.69    3.40
   0   7  -2  101.09    3.40
   0  -7   2  100.49    3.30
   0  -7   2   99.29    3.30
   0  -7   2  100.59    3.40
  -1   7  -2   83.09    2.90
  -1   7  -2   86.49    3.00
   1  -7   2   83.89    2.90
   1  -7   2   87.09    2.80
   1  -7   2   86.19    3.00
  -2   7  -2    5.30    0.50
  -2   7  -2    5.00    0.70
   2  -7   2    4.40    0.50
   2  -7   2    4.30    0.50
   2  -7   2    6.50    0.50
  -3   7  -2   75.49    2.70
  -3   7  -2   76.99    2.70
   3  -7   2   74.29    2.60
   3  -7   2   75.09    2.60
   3  -7   2   79.89    2.50
   3  -7   2   69.79    2.70
  -4   7  -2  414.76   13.10
  -4   7  -2  413.16   13.10
   4  -7   2  420.66   13.10
   4  -7   2  419.06   12.90
   4  -7   2  422.16   13.00
   4  -7   2  384.26   13.00
  -5   7  -2   12.00    1.00
   5  -7   2   12.20    1.00
   5  -7   2   13.00    0.90
   5  -7   2   12.90    1.10
   6  -7   2   54.09    2.10
   6  -7   2   53.89    2.00
   6  -7   2   55.59    2.10
  -7   7  -2    1.50    0.60
   7  -7   2    2.30    0.50
   7  -7   2    1.60    0.50
   7  -7   2    1.60    0.30
  -8   7  -2    7.40    1.10
   8  -7   2    6.20    0.50
   8  -7   2    6.20    0.70
   8  -7   2    6.30    0.90
  -9   7  -2   -0.20    0.70
   9  -7   2   -0.30    0.60
   8   6  -2    3.50    0.80
   8   6  -2    3.00    0.60
  -8  -6   2    2.90    0.60
   7   6  -2    0.20    0.40
   7   6  -2    0.20    0.60
  -7  -6   2   -0.70    0.50
   6   6  -2    8.10    0.90
   6   6  -2    7.40    0.70
  -6  -6   2    7.00    0.80
   5   6  -2   61.79    2.20
   5   6  -2   59.09    2.30
  -5  -6   2   59.69    2.20
   4   6  -2    5.10    0.60
   3   6  -2   -0.20    0.30
   3   6  -2    0.00    0.60
   3   6  -2    0.00    0.40
  -3  -6   2    0.40    0.30
  -3  -6   2   -0.40    0.60
   2   6  -2    2.20    0.40
  -2  -6   2    1.90    0.30
  -2  -6   2    1.50    0.40
   1   6  -2   42.30    1.70
   1   6  -2   43.60    1.70
  -1  -6   2   42.80    1.70
  -1  -6   2   42.70    1.50
  -1  -6   2   45.50    1.50
   0   6  -2   -0.10    0.30
   0   6  -2   -0.20    0.20
   0  -6   2   -0.50    0.30
   0  -6   2    0.00    0.20
   0  -6   2   -0.30    0.60
  -1   6  -2  167.38    5.40
  -1   6  -2  149.99    5.50
   1  -6   2  165.98    5.30
   1  -6   2  169.98    5.30
   1  -6   2  169.48    5.20
  -2   6  -2   41.70    1.60
  -2   6  -2   41.00    1.50
   2  -6   2   41.40    1.40
   2  -6   2   39.50    1.50
   2  -6   2   38.80    1.50
  -3   6  -2    0.60    0.30
  -3   6  -2    0.40    0.50
   3  -6   2    0.50    0.20
   3  -6   2    0.60    0.20
   3  -6   2    0.10    0.20
   3  -6   2    0.40    0.50
  -4   6  -2    2.10    0.60
  -4   6  -2    1.90    0.40
   4  -6   2    1.90    0.30
   4  -6   2    1.70    0.30
   4  -6   2    1.50    0.30
   4  -6   2    1.50    0.40
  -5   6  -2   19.70    1.10
   5  -6   2   19.10    1.00
   5  -6   2   18.40    1.20
   5  -6   2   19.40    0.90
   5  -6   2   18.60    0.80
  -6   6  -2    1.00    0.50
   6  -6   2    0.80    0.40
   6  -6   2    0.90    0.30
   6  -6   2    0.70    0.30
   6  -6   2    0.40    0.30
  -7   6  -2    4.70    0.90
   7  -6   2    5.10    0.60
   7  -6   2    5.30    0.80
   7  -6   2    5.00    0.50
   7  -6   2    5.00    0.40
  -8   6  -2    0.10    0.60
   8  -6   2    0.20    0.50
   8  -6   2    0.10    0.40
  -9   6  -2   14.00    1.30
   9  -6   2   10.00    1.10
 -10   6  -2   13.70    1.40
  10  -6   2   13.10    1.20
   9   5  -2    0.10    0.60
  -9  -5   2    0.60    0.60
   8   5  -2    1.90    0.70
   8   5  -2    2.60    0.70
   8   5  -2    1.90    0.40
  -8  -5   2    1.80    0.60
   7   5  -2    0.60    0.30
   7   5  -2    1.30    0.60
   7   5  -2    1.60    0.60
  -7  -5   2    1.20    0.50
   6   5  -2    3.30    0.60
   6   5  -2    3.20    0.60
   6   5  -2    4.00    0.50
  -6  -5   2    5.50    0.70
   5   5  -2    1.00    0.50
   5   5  -2    0.90    0.50
  -5  -5   2    1.50    0.40
   4   5  -2   34.50    1.30
   4   5  -2   35.20    1.50
   4   5  -2   34.00    1.50
  -4  -5   2   33.80    1.60
  -4  -5   2   33.10    1.30
   3   5  -2    9.70    0.70
   3   5  -2    9.60    0.60
   3   5  -2    9.90    1.10
  -3  -5   2    9.60    0.60
  -3  -5   2    8.70    0.80
   2   5  -2   -0.20    0.50
   2   5  -2    0.30    0.30
   2   5  -2   -0.10    0.30
  -2  -5   2   -0.20    0.40
  -2  -5   2    0.20    0.20
   1   5  -2   27.10    1.10
   1   5  -2   28.10    1.10
  -1  -5   2   28.30    1.10
  -1  -5   2   28.30    1.00
  -1  -5   2   27.50    1.00
   0   5  -2   23.00    1.00
   0   5  -2   23.20    0.90
   0  -5   2   23.30    0.90
   0  -5   2   23.00    1.00
   0  -5   2   22.50    0.90
  -1   5  -2  109.79    3.50
  -1   5  -2  108.69    3.50
   1  -5   2  107.39    3.50
   1  -5   2  105.79    3.40
   1  -5   2  102.79    3.40
  -2   5  -2   26.80    1.10
  -2   5  -2   27.40    1.00
   2  -5   2   26.60    0.90
   2  -5   2   25.80    1.00
   2  -5   2   24.30    1.10
   2  -5   2   26.60    1.00
  -3   5  -2  101.49    3.40
  -3   5  -2  106.49    3.40
   3  -5   2   96.29    3.40
   3  -5   2  109.79    3.30
   3  -5   2  101.99    3.40
   3  -5   2  104.89    3.40
  -4   5  -2  157.78    5.10
   4  -5   2  158.58    5.10
   4  -5   2  154.48    5.00
   4  -5   2  156.18    5.00
   4  -5   2  152.58    4.90
   5  -5   2    4.10    0.40
   5  -5   2    2.90    0.40
   5  -5   2    2.70    0.30
   5  -5   2    3.00    0.40
  -6   5  -2   -0.20    0.50
   6  -5   2    0.00    0.30
   6  -5   2    0.00    0.30
   6  -5   2    0.00    0.20
   6  -5   2   -0.30    0.30
  -7   5  -2   20.40    1.30
   7  -5   2   20.40    0.90
   7  -5   2   20.80    1.10
  -8   5  -2    3.20    0.60
   8  -5   2    3.40    0.50
   8  -5   2    2.00    0.50
  -9   5  -2   30.30    1.70
   9  -5   2   30.10    1.50
   9  -5   2   30.40    1.40
 -10   5  -2    1.60    0.80
  10  -5   2    1.00    0.60
   9   4  -2    2.00    0.70
  -9  -4   2    1.50    0.60
   8   4  -2    0.20    0.50
   8   4  -2    0.00    0.40
   8   4  -2    0.30    0.30
  -8  -4   2    0.60    0.50
   7   4  -2   34.00    1.40
   7   4  -2   34.30    1.60
   7   4  -2   33.20    1.30
  -7  -4   2   33.40    1.40
   6   4  -2   16.40    1.00
   6   4  -2   16.50    1.00
   6   4  -2   16.00    0.80
  -6  -4   2   16.60    0.90
   5   4  -2    6.80    0.50
   5   4  -2    6.20    0.80
   5   4  -2    7.40    0.70
  -5  -4   2    6.90    0.50
   4   4  -2   40.30    1.40
   4   4  -2   39.90    1.50
   4   4  -2   39.90    1.60
  -4  -4   2   38.90    1.40
   3   4  -2   28.50    1.10
   3   4  -2   28.70    1.20
  -3  -4   2   27.20    1.20
  -3  -4   2   28.60    1.10
   2   4  -2   48.00    1.80
   2   4  -2   54.89    1.80
   2   4  -2   49.10    1.80
  -2  -4   2   51.69    1.80
   1   4  -2  300.87    9.40
   1   4  -2  304.07    9.40
  -1  -4   2  298.17    9.40
  -1  -4   2  291.67    9.40
   0   4  -2  177.68    5.70
   0   4  -2  189.38    5.80
   0  -4   2  174.78    5.70
   0  -4   2  177.88    5.70
   0  -4   2  180.78    5.70
  -1   4  -2  155.18    5.00
  -1   4  -2  165.18    5.00
   1  -4   2  153.48    5.00
   1  -4   2  155.38    5.00
   1  -4   2  157.88    5.00
   1  -4   2  159.88    5.10
  -2   4  -2   20.50    0.90
   2  -4   2   20.20    0.80
   2  -4   2   18.70    0.80
   2  -4   2   21.80    0.70
  -3   4  -2    0.20    0.30
   3  -4   2   -0.30    0.20
   3  -4   2    0.10    0.20
   3  -4   2    0.00    0.20
  -4   4  -2   17.30    0.80
   4  -4   2   14.90    0.70
   4  -4   2   16.50    0.80
   4  -4   2   14.70    0.70
   4  -4   2   16.80    0.60
  -5   4  -2   17.30    0.90
   5  -4   2   15.90    0.80
   5  -4   2   14.80    0.70
   5  -4   2   16.50    0.70
   5  -4   2   16.80    0.70
  -6   4  -2  266.57    8.60
   6  -4   2  273.57    8.60
   6  -4   2  265.87    8.50
  -7   4  -2    2.90    0.60
   7  -4   2    3.50    0.40
   7  -4   2    3.30    0.60
  -8   4  -2   36.60    1.90
   8  -4   2   41.90    1.60
   8  -4   2   39.20    1.70
  -9   4  -2   -0.50    0.60
   9  -4   2    0.30    0.60
   9  -4   2   -0.10    0.50
 -10   4  -2    4.70    0.90
  10  -4   2    3.70    0.70
   9   3  -2   21.70    1.40
  -9  -3   2   22.20    1.30
   8   3  -2    2.00    0.50
  -8  -3   2    1.70    0.50
   7   3  -2   11.50    0.90
   7   3  -2   10.70    0.70
   7   3  -2   10.30    0.60
  -7  -3   2   10.90    0.80
   6   3  -2    1.10    0.40
   6   3  -2    0.70    0.40
   6   3  -2    1.50    0.30
  -6  -3   2    2.20    0.40
   5   3  -2  273.07    8.40
   5   3  -2  264.77    8.60
   5   3  -2  260.87    8.40
  -5  -3   2  266.77    8.50
   4   3  -2  125.69    4.20
   4   3  -2  130.69    4.30
   4   3  -2  133.49    4.20
  -4  -3   2  130.59    4.20
   3   3  -2  437.86   13.50
   3   3  -2  433.16   13.60
   3   3  -2  430.66   13.50
  -3  -3   2  430.46   13.50
  -3  -3   2  429.26   13.50
   2   3  -2  151.88    4.80
   2   3  -2  152.48    4.90
  -2  -3   2  149.19    4.80
  -2  -3   2  152.48    4.80
   1   3  -2   35.40    1.30
   1   3  -2   42.10    1.30
   1   3  -2   37.40    1.30
  -1  -3   2   37.90    1.30
  -1  -3   2   37.30    1.30
   0   3  -2   82.09    2.70
   0   3  -2   86.29    2.70
   0  -3   2   80.99    2.70
   0  -3   2   81.89    2.70
   0  -3   2   84.19    2.70
  -1   3  -2    4.70    0.40
  -1   3  -2    3.10    0.40
   1  -3   2    4.10    0.30
   1  -3   2    4.60    0.30
   1  -3   2    4.40    0.30
   1  -3   2    4.10    0.30
  -2   3  -2    0.10    0.20
  -2   3  -2    0.00    0.20
   2  -3   2    0.10    0.10
   2  -3   2    0.00    0.10
   2  -3   2    0.00    0.20
   2  -3   2   -0.10    0.10
  -3   3  -2    4.70    0.50
   3  -3   2    5.20    0.40
   3  -3   2    5.60    0.30
   3  -3   2    5.60    0.40
   3  -3   2    5.80    0.30
  -4   3  -2  187.58    6.10
   4  -3   2  188.98    6.00
   4  -3   2  197.68    6.00
   4  -3   2  190.98    6.10
   4  -3   2  193.58    6.00
  -5   3  -2   55.49    2.00
   5  -3   2   57.89    2.00
   5  -3   2   57.19    1.90
  -6   3  -2   15.00    0.90
   6  -3   2   17.10    0.80
   6  -3   2   17.40    0.90
  -7   3  -2    2.00    0.50
   7  -3   2    1.10    0.40
   7  -3   2    1.90    0.40
   8  -3   2   -0.20    0.40
   8  -3   2    0.20    0.50
  -9   3  -2    2.20    0.60
   9  -3   2    1.50    0.50
   9  -3   2    0.90    0.50
 -10   3  -2    1.90    0.60
  10  -3   2    0.50    0.50
  10  -3   2    0.80    0.50
  10   2  -2    0.80    0.60
 -10  -2   2    0.10    0.60
   9   2  -2    2.00    0.60
  -9  -2   2    3.50    0.60
   8   2  -2   13.40    1.10
  -8  -2   2   15.10    0.90
   7   2  -2    8.90    0.60
   7   2  -2    8.10    0.70
   7   2  -2    8.50    0.80
   6   2  -2   28.50    1.10
   6   2  -2   32.30    1.10
   6   2  -2   31.40    1.40
   6   2  -2   30.90    1.10
  -6  -2   2   31.10    1.20
   5   2  -2   93.59    2.90
   5   2  -2   88.29    3.10
   5   2  -2   88.09    2.90
  -5  -2   2   89.79    3.00
   4   2  -2    8.80    0.60
   4   2  -2    8.50    0.50
   4   2  -2    8.30    0.50
  -4  -2   2    8.40    0.50
   3   2  -2   89.69    3.00
   3   2  -2   91.69    2.90
   3   2  -2   93.39    2.90
  -3  -2   2   89.19    3.00
  -3  -2   2   90.99    2.90
   2   2  -2  237.18    7.50
   2   2  -2  240.58    7.50
  -2  -2   2  236.48    7.50
  -2  -2   2  240.68    7.50
   1   2  -2  113.69    3.70
   1   2  -2  118.89    3.80
   1   2  -2  121.79    3.80
  -1  -2   2  118.59    3.80
   0   2  -2   45.00    1.50
   0   2  -2   48.30    1.50
   0  -2   2   44.70    1.50
   0  -2   2   42.20    1.50
   0  -2   2   45.20    1.50
   0  -2   2   44.80    1.50
  -1   2  -2  158.68    4.60
  -1   2  -2  142.39    4.60
   1  -2   2  144.39    4.60
   1  -2   2  143.39    4.60
   1  -2   2  139.79    4.60
  -2   2  -2   36.60    1.30
  -2   2  -2   40.90    1.30
   2  -2   2   40.70    1.30
   2  -2   2   39.40    1.30
   2  -2   2   40.30    1.30
   2  -2   2   40.00    1.30
  -3   2  -2  339.57   10.70
   3  -2   2  334.87   10.60
   3  -2   2  336.37   10.60
   3  -2   2  344.37   10.60
   3  -2   2  347.77   10.70
   4  -2   2  138.99    4.50
   4  -2   2  147.79    4.60
   4  -2   2  141.39    4.60
   5  -2   2   40.50    1.50
   5  -2   2   40.80    1.40
   5  -2   2   42.10    1.50
   6  -2   2    1.80    0.40
   6  -2   2    1.40    0.30
   6  -2   2    1.50    0.40
   7  -2   2   16.50    0.90
   7  -2   2   15.90    0.90
   7  -2   2   15.50    1.00
   8  -2   2   16.60    1.00
   8  -2   2   15.80    1.20
   8  -2   2   16.20    1.20
   9  -2   2    3.30    0.60
   9  -2   2    3.10    0.50
   9  -2   2    3.80    0.50
  10  -2   2    7.20    1.00
  10  -2   2    7.10    1.00
  10   1  -2    1.30    0.70
 -10  -1   2    2.30    0.60
   9   1  -2    0.50    0.50
   9   1  -2    0.70    0.60
  -9  -1   2    1.00    0.50
   8   1  -2    0.10    0.50
   8   1  -2    0.20    0.50
  -8  -1   2    1.10    0.40
   7   1  -2   25.60    1.10
  -7  -1   2   25.50    1.20
   6   1  -2  142.29    4.40
   6   1  -2  133.19    4.40
   6   1  -2  137.79    4.60
  -6  -1   2  136.79    4.50
   5   1  -2   12.00    0.50
   5   1  -2   11.60    0.70
   5   1  -2   10.90    0.50
   5   1  -2   10.20    0.60
  -5  -1   2   11.20    0.60
   4   1  -2   22.20    0.90
   4   1  -2   19.70    0.90
   4   1  -2   24.00    0.80
   4   1  -2   21.80    0.90
  -4  -1   2   22.50    0.80
   3   1  -2   74.69    2.50
   3   1  -2   75.69    2.60
   3   1  -2   78.39    2.50
   3   1  -2   77.29    2.50
  -3  -1   2   78.49    2.50
   2   1  -2  280.77    8.70
   2   1  -2  280.07    8.60
   2   1  -2  284.37    8.60
   2   1  -2  273.87    8.60
  -2  -1   2  254.67    8.70
  -2  -1   2  285.57    8.60
   1   1  -2  453.45   14.40
   1   1  -2  446.66   14.40
   1   1  -2  476.55   14.40
   1   1  -2  486.35   14.40
  -1  -1   2  456.25   14.40
  -1  -1   2  459.35   14.40
  -1  -1   2  459.75   14.40
   0   1  -2 2231.48   67.69
   0   1  -2 2237.98   67.79
   0   1  -2 2142.89   67.69
   0   1  -2 1931.11   67.69
   0  -1   2 2299.67   67.89
   0  -1   2 2287.57   67.79
   0  -1   2 2364.26   67.79
   0  -1   2 2110.19   67.69
   0  -1   2 1992.50   67.69
  -1   1  -2   17.10    0.60
   1  -1   2   18.00    0.70
   1  -1   2   17.60    0.60
   1  -1   2   17.90    0.60
   2  -1   2  904.81   28.80
   2  -1   2  920.91   28.80
   2  -1   2  934.41   28.70
   2  -1   2  947.91   28.80
   2  -1   2  919.81   28.70
   3  -1   2    7.90    0.40
   3  -1   2    7.40    0.40
   3  -1   2    8.00    0.40
   4  -1   2  262.07    8.10
   4  -1   2  251.77    8.10
   4  -1   2  254.67    8.10
   5  -1   2   12.00    0.60
   5  -1   2   12.00    0.60
   5  -1   2   11.80    0.70
   6  -1   2   76.09    2.60
   6  -1   2   74.89    2.50
   6  -1   2   75.49    2.60
   7  -1   2    2.50    0.40
   7  -1   2    2.90    0.40
   7  -1   2    3.00    0.50
   8  -1   2    6.80    0.90
   8  -1   2    6.30    0.90
   8  -1   2    5.00    0.60
   9  -1   2    0.90    0.50
   9  -1   2    1.70    0.50
   9  -1   2    0.90    0.40
 -10   1  -2    8.20    1.00
 -10   1  -2    8.90    1.00
  10  -1   2    9.40    1.10
  10   0  -2    2.30    0.60
  10   0  -2    1.40    0.70
 -10   0   2    0.50    0.60
   9   0  -2    3.40    0.70
   9   0  -2    3.40    0.60
  -9   0   2    5.60    0.70
   8   0  -2   -0.60    0.50
   8   0  -2    0.00    0.40
  -8   0   2    0.70    0.50
   7   0  -2  101.69    3.40
   7   0  -2  101.19    3.60
  -7   0   2  100.49    3.40
   6   0  -2  214.38    6.90
   6   0  -2  213.98    6.80
  -6   0   2  207.68    6.70
   5   0  -2    4.40    0.50
   5   0  -2    4.00    0.30
   5   0  -2    4.00    0.30
   5   0  -2    3.40    0.30
  -5   0   2    3.90    0.40
   4   0  -2  212.98    6.40
   4   0  -2  192.48    6.40
   4   0  -2  205.78    6.50
   4   0  -2  206.08    6.50
  -4   0   2  205.18    6.40
   3   0  -2  175.88    6.10
   3   0  -2  200.68    6.00
   3   0  -2  194.58    6.10
   3   0  -2  192.88    6.00
  -3   0   2  196.28    6.00
   2   0  -2   84.49    2.90
   2   0  -2   88.89    2.90
   2   0  -2   87.99    2.90
   2   0  -2   92.59    2.90
  -2   0   2   97.39    2.90
  -2   0   2   87.99    2.90
   1   0  -2  232.98    7.40
   1   0  -2  230.68    7.40
   1   0  -2  234.48    7.40
   1   0  -2  252.57    7.40
  -1   0   2  232.18    7.40
  -1   0   2  237.68    7.40
   0   0  -2  617.64   20.10
   0   0  -2  670.73   20.10
   0   0  -2  644.04   20.10
   0   0   2  659.73   20.10
   0   0   2  628.84   20.10
  -1   0  -2   14.60    0.50
  -1   0  -2   13.40    0.50
  -1   0  -2   15.20    0.50
   1   0   2   13.50    0.50
   1   0   2   13.90    0.50
  -2   0  -2 2908.11   89.29
   2   0   2 2808.12   89.09
   2   0   2 2831.92   88.99
   2   0   2 2878.61   88.99
   2   0   2 2904.71   89.09
   3   0   2    7.40    0.30
   3   0   2    7.00    0.40
   3   0   2    7.80    0.40
   3   0   2    7.90    0.40
   3   0   2    6.80    0.30
   4   0   2  129.89    4.20
   4   0   2  129.19    4.20
   4   0   2  131.49    4.20
   5   0   2  186.28    6.10
   5   0   2  189.78    6.10
   5   0   2  194.58    6.10
   6   0   2  958.70   30.30
   6   0   2  991.60   30.40
   6   0   2  963.90   30.30
   7   0   2   14.40    0.90
   7   0   2   14.40    1.00
  -8   0  -2   20.80    1.20
   8   0   2   22.30    1.10
  -9   0  -2    0.10    0.40
   9   0   2   -0.20    0.50
   9   0   2    0.90    0.50
 -10   0  -2    7.70    0.90
 -10   0  -2    5.80    0.70
  10   0   2    5.50    0.80
  10  -1  -2    3.70    0.70
  10  -1  -2    2.80    0.60
 -10   1   2    3.10    0.60
   9  -1  -2    0.20    0.50
   9  -1  -2   -0.90    0.40
   8  -1  -2   13.10    1.00
   8  -1  -2   13.30    1.00
  -8   1   2   13.40    0.90
   7  -1  -2   23.00    1.10
   7  -1  -2   25.30    1.20
  -7   1   2   24.70    1.10
   6  -1  -2  166.18    5.50
   6  -1  -2  168.08    5.40
  -6   1   2  165.28    5.30
   5  -1  -2    5.10    0.50
   5  -1  -2    5.80    0.50
   5  -1  -2    5.20    0.30
   5  -1  -2    5.30    0.30
  -5   1   2    5.60    0.40
   4  -1  -2   37.50    1.30
   4  -1  -2   39.60    1.30
   4  -1  -2   38.80    1.50
   4  -1  -2   39.90    1.40
  -4   1   2   40.90    1.30
   3  -1  -2  148.49    4.80
   3  -1  -2  150.78    4.80
   3  -1  -2  151.28    4.80
   3  -1  -2  152.38    4.80
  -3   1   2  153.18    4.70
   2  -1  -2  338.77   10.60
   2  -1  -2  341.27   10.60
   2  -1  -2  338.17   10.60
  -2   1   2  334.47   10.50
   1  -1  -2  322.07   10.10
   1  -1  -2  342.37   10.10
   1  -1  -2  327.47   10.10
  -1   1   2  307.77   10.20
  -1   1   2  326.27   10.10
   0  -1  -2  208.08    6.10
   0  -1  -2  189.38    6.10
   0   1   2  192.68    6.10
   0   1   2  192.18    6.10
   0   1   2  180.98    6.10
   0   1   2  200.68    6.10
  -1  -1  -2    0.80    0.10
  -1  -1  -2    0.50    0.20
   1   1   2    0.60    0.10
   1   1   2    0.60    0.10
  -2  -1  -2   57.29    2.00
  -2  -1  -2   63.79    2.00
   2   1   2   61.79    2.00
   2   1   2   64.29    2.00
   2   1   2   60.69    2.00
   2   1   2   61.09    2.00
  -3  -1  -2 1069.09   32.40
   3   1   2 1042.90   32.40
   3   1   2 1032.70   32.40
   3   1   2 1013.70   32.40
   3   1   2 1051.29   32.40
  -4  -1  -2  847.22   25.90
   4   1   2  840.52   25.80
   4   1   2  804.22   25.80
   4   1   2  844.82   25.90
   4   1   2  818.42   25.90
  -5  -1  -2   40.70    1.50
   5   1   2   40.50    1.50
   5   1   2   42.40    1.50
  -6  -1  -2   22.70    1.00
   6   1   2   21.60    1.10
   6   1   2   21.70    1.00
  -7  -1  -2   15.00    0.90
   7   1   2   14.50    0.90
   7   1   2   15.50    1.10
  -8  -1  -2    4.40    0.60
   8   1   2    4.20    0.50
   8   1   2    4.30    0.60
  -9  -1  -2   38.60    1.80
   9   1   2   41.20    1.80
 -10  -1  -2   -0.20    0.60
  10   1   2   -0.70    0.70
  10  -2  -2    0.50    0.60
  10  -2  -2   -0.60    0.50
 -10   2   2    0.00    0.50
   9  -2  -2    0.90    0.50
   9  -2  -2    1.40    0.50
  -9   2   2    2.30    0.60
   8  -2  -2    3.40    0.60
   8  -2  -2    3.50    0.70
  -8   2   2    3.30    0.50
   7  -2  -2    1.30    0.40
   7  -2  -2    1.70    0.50
  -7   2   2    1.60    0.40
   6  -2  -2   11.90    0.50
   6  -2  -2   11.10    0.80
   6  -2  -2   10.90    0.60
   6  -2  -2   13.30    0.80
  -6   2   2   12.00    0.60
   5  -2  -2    4.60    0.50
   5  -2  -2    3.60    0.50
   5  -2  -2    3.80    0.30
   5  -2  -2    4.20    0.40
  -5   2   2    3.60    0.40
   4  -2  -2  153.18    4.90
   4  -2  -2  156.78    4.80
   4  -2  -2  150.58    4.90
   4  -2  -2  148.99    4.80
   3  -2  -2   56.79    1.80
   3  -2  -2   56.69    1.90
   3  -2  -2   55.09    1.80
  -3   2   2   55.89    1.80
  -3   2   2   49.70    1.90
   2  -2  -2   29.50    1.10
   2  -2  -2   31.10    1.10
  -2   2   2   29.80    1.10
   1  -2  -2   85.79    2.70
   1  -2  -2   79.29    2.70
  -1   2   2   84.69    2.70
  -1   2   2   84.29    2.70
  -1   2   2   85.79    2.70
   0  -2  -2   13.10    0.60
   0  -2  -2   11.20    0.50
   0   2   2   12.80    0.60
   0   2   2   11.50    0.50
   0   2   2   11.20    0.50
  -1  -2  -2  204.68    6.40
  -1  -2  -2  203.18    6.50
   1   2   2  214.48    6.50
   1   2   2  206.78    6.40
   1   2   2  199.18    6.50
   1   2   2  205.08    6.50
  -2  -2  -2  631.54   19.30
  -2  -2  -2  617.34   19.40
   2   2   2  642.14   19.30
   2   2   2  629.34   19.30
   2   2   2  633.14   19.30
   2   2   2  565.74   19.30
  -3  -2  -2   91.69    2.90
   3   2   2   88.09    2.90
   3   2   2   89.49    2.90
   3   2   2   86.69    2.90
   3   2   2   91.09    2.90
  -4  -2  -2   68.39    2.20
   4   2   2   66.59    2.20
   4   2   2   67.99    2.30
   4   2   2   69.19    2.30
   4   2   2   66.79    2.20
  -5  -2  -2    0.00    0.30
   5   2   2    0.30    0.30
   5   2   2    0.10    0.20
   5   2   2   -0.20    0.30
   5   2   2    0.00    0.20
  -6  -2  -2    0.40    0.30
   6   2   2    0.40    0.30
   6   2   2    0.40    0.40
  -7  -2  -2    1.00    0.40
   7   2   2    1.00    0.50
   7   2   2    1.80    0.40
  -8  -2  -2    9.60    1.00
   8   2   2   10.80    0.90
   8   2   2   10.90    1.00
  -9  -2  -2   13.20    1.10
   9   2   2   13.10    1.20
  10  -3  -2   -0.10    0.50
 -10   3   2    1.20    0.60
   9  -3  -2   18.50    1.10
  -9   3   2   16.50    1.10
  -9   3   2   18.10    1.30
   8  -3  -2    1.20    0.40
  -8   3   2    1.10    0.50
  -8   3   2    1.30    0.50
   7  -3  -2    2.40    0.50
  -7   3   2    2.10    0.40
  -7   3   2    2.10    0.80
   6  -3  -2    2.00    0.40
   6  -3  -2    2.10    0.30
   6  -3  -2    2.30    0.30
  -6   3   2    1.10    0.40
   5  -3  -2    0.00    0.30
   5  -3  -2    0.30    0.20
   5  -3  -2   -0.10    0.20
   4  -3  -2    3.00    0.30
   4  -3  -2    2.90    0.40
   4  -3  -2    3.10    0.30
  -4   3   2    3.40    0.50
   3  -3  -2  420.96   12.80
   3  -3  -2  344.77   12.80
   3  -3  -2  437.16   12.80
  -3   3   2  428.46   12.80
  -3   3   2  410.46   12.90
   2  -3  -2    1.60    0.20
   2  -3  -2    1.20    0.30
  -2   3   2    1.40    0.30
   1  -3  -2   83.29    2.70
   1  -3  -2   83.29    2.70
  -1   3   2   84.19    2.80
  -1   3   2   83.79    2.70
  -1   3   2   84.49    2.60
   0  -3  -2   29.60    1.10
   0  -3  -2   30.50    1.00
   0   3   2   26.40    1.10
   0   3   2   30.20    1.10
   0   3   2   25.40    1.20
  -1  -3  -2   69.49    2.30
   1   3   2   72.59    2.30
   1   3   2   70.09    2.30
   1   3   2   71.49    2.30
   1   3   2   65.59    2.30
  -2  -3  -2    0.20    0.30
   2   3   2    0.20    0.20
   2   3   2    0.30    0.20
   2   3   2    0.00    0.20
  -3  -3  -2    2.20    0.40
   3   3   2    2.10    0.30
   3   3   2    2.00    0.30
   3   3   2    1.90    0.20
   3   3   2    2.20    0.30
  -4  -3  -2    4.40    0.50
   4   3   2    3.90    0.50
   4   3   2    4.50    0.60
   4   3   2    4.50    0.50
   4   3   2    3.90    0.40
  -5  -3  -2    4.10    0.40
   5   3   2    4.80    0.70
   5   3   2    4.20    0.60
   5   3   2    4.60    0.50
   5   3   2    5.10    0.60
  -6  -3  -2    4.50    0.50
   6   3   2    4.40    0.60
   6   3   2    5.60    0.80
   6   3   2    4.70    0.50
   6   3   2    3.90    0.50
  -7  -3  -2    1.30    0.50
   7   3   2    1.70    0.50
   7   3   2    1.30    0.40
   7   3   2    1.30    0.30
  -8  -3  -2   23.50    1.20
   8   3   2   22.20    1.30
  -9  -3  -2    4.30    0.70
   9   3   2    4.40    0.80
  10  -4  -2   74.79    2.80
 -10   4   2   72.39    3.00
   9  -4  -2    0.10    0.40
  -9   4   2    0.50    0.70
   8  -4  -2   10.80    0.90
  -8   4   2    9.70    1.10
   7  -4  -2   31.60    1.20
   7  -4  -2   31.50    1.20
   7  -4  -2   31.80    1.40
  -7   4   2   37.50    1.60
   6  -4  -2   87.59    3.00
   6  -4  -2   92.79    3.10
   6  -4  -2   95.19    3.00
  -6   4   2   91.89    3.20
   5  -4  -2    5.50    0.60
   5  -4  -2    4.80    0.60
   5  -4  -2    5.00    0.40
  -5   4   2    4.10    0.70
   4  -4  -2   67.29    2.20
   4  -4  -2   64.69    2.20
   4  -4  -2   64.99    2.30
  -4   4   2   66.19    2.30
  -4   4   2   65.69    2.30
   3  -4  -2    0.20    0.20
   3  -4  -2    0.50    0.20
  -3   4   2    0.00    0.30
  -3   4   2    0.50    0.30
   2  -4  -2    8.30    0.50
   2  -4  -2    8.00    0.50
   2  -4  -2    8.40    0.70
  -2   4   2    8.20    0.60
  -2   4   2   10.30    0.70
   1  -4  -2   78.99    2.60
   1  -4  -2   77.79    2.50
  -1   4   2   79.09    2.70
  -1   4   2   82.39    2.70
   0  -4  -2  850.41   27.00
   0  -4  -2  879.71   26.90
   0   4   2  864.31   26.90
   0   4   2  864.21   27.00
   0   4   2  866.81   27.00
  -1  -4  -2    7.40    0.50
  -1  -4  -2    5.90    0.60
   1   4   2    6.10    0.50
   1   4   2    6.50    0.50
   1   4   2    6.80    0.40
  -2  -4  -2  142.69    4.70
  -2  -4  -2  149.79    4.60
   2   4   2  147.99    4.70
   2   4   2  143.69    4.70
   2   4   2  146.39    4.60
   2   4   2  138.99    4.70
  -3  -4  -2   14.20    0.70
  -3  -4  -2   13.30    0.90
   3   4   2   13.90    0.80
   3   4   2   13.30    0.70
   3   4   2   13.10    0.70
   3   4   2   13.60    0.80
  -4  -4  -2    6.70    0.60
   4   4   2    8.70    0.70
   4   4   2    7.90    0.70
   4   4   2    8.20    0.50
   4   4   2    8.20    0.60
  -5  -4  -2   19.70    0.90
   5   4   2   18.30    1.00
   5   4   2   20.40    1.10
  -6  -4  -2   11.60    0.80
   6   4   2   10.40    0.90
   6   4   2   10.20    0.70
   6   4   2   11.90    0.80
  -7  -4  -2    0.60    0.40
   7   4   2    0.90    0.40
   7   4   2    1.00    0.50
   7   4   2    1.10    0.30
  -8  -4  -2    1.40    0.60
   8   4   2    1.60    0.60
  -9  -4  -2    2.70    0.70
   9   4   2    2.10    0.80
  10  -5  -2   62.79    2.50
 -10   5   2   62.89    2.80
   9  -5  -2    1.20    0.50
  -9   5   2    1.40    0.70
   8  -5  -2  172.78    5.40
   8  -5  -2  168.58    5.60
   8  -5  -2  162.08    5.40
  -8   5   2  170.28    5.80
   7  -5  -2    5.70    0.70
   7  -5  -2    5.70    0.50
   7  -5  -2    5.20    0.70
  -7   5   2    4.90    0.70
   6  -5  -2  211.98    6.70
   6  -5  -2  202.08    6.60
   5  -5  -2   10.30    0.60
   5  -5  -2   10.50    0.80
   5  -5  -2   11.40    0.80
  -5   5   2   12.40    1.00
   4  -5  -2    6.10    0.60
   4  -5  -2    8.00    0.50
   4  -5  -2    7.50    0.70
  -4   5   2    9.10    0.80
  -4   5   2    7.80    0.90
   3  -5  -2   75.19    2.50
   3  -5  -2   68.49    2.50
   3  -5  -2   75.09    2.50
  -3   5   2   73.49    2.60
  -3   5   2   75.29    2.60
   2  -5  -2    0.20    0.20
   2  -5  -2    0.20    0.30
  -2   5   2    0.50    0.40
  -2   5   2    0.40    0.30
   1  -5  -2   50.99    1.70
   1  -5  -2   51.09    1.90
   1  -5  -2   51.79    1.80
  -1   5   2   52.79    1.90
  -1   5   2   52.39    1.90
   0  -5  -2  125.19    4.20
   0  -5  -2  128.59    4.30
   0  -5  -2  129.59    4.30
   0   5   2  152.38    4.40
   0   5   2  126.19    4.30
  -1  -5  -2   10.80    0.60
  -1  -5  -2   10.00    0.80
  -1  -5  -2   11.00    0.60
   1   5   2   10.30    0.70
   1   5   2   10.40    0.70
  -2  -5  -2   76.69    2.70
  -2  -5  -2   79.99    2.50
   2   5   2   76.29    2.80
   2   5   2   72.39    2.70
   2   5   2   76.29    2.60
  -3  -5  -2   76.99    2.50
  -3  -5  -2   74.09    2.70
   3   5   2   77.49    2.70
   3   5   2   73.59    2.60
   3   5   2   75.39    2.60
  -4  -5  -2  122.59    3.80
   4   5   2  112.79    4.00
   4   5   2  119.89    4.00
   4   5   2  116.39    3.90
  -5  -5  -2    2.80    0.40
   5   5   2    2.20    0.40
   5   5   2    2.40    0.90
  -6  -5  -2    0.30    0.40
   6   5   2    1.00    0.50
   6   5   2   -0.60    0.30
  -7  -5  -2    1.40    0.50
   7   5   2    0.90    0.40
   7   5   2    1.20    0.60
  -8  -5  -2    0.60    0.60
   8   5   2    0.70    0.60
   8   5   2    0.30    0.40
   9  -6  -2   13.10    1.10
  -9   6   2   10.30    1.30
   8  -6  -2    5.40    0.60
   8  -6  -2    7.80    0.90
   8  -6  -2    5.50    0.60
  -8   6   2    7.30    1.20
   7  -6  -2    0.90    0.30
   7  -6  -2    1.10    0.50
   7  -6  -2    0.90    0.50
  -7   6   2    1.60    0.60
   6  -6  -2   19.00    0.90
   6  -6  -2   21.50    1.10
   6  -6  -2   19.10    1.20
  -6   6   2   21.70    1.30
   5  -6  -2   80.89    2.90
   5  -6  -2   87.09    2.90
   4  -6  -2   62.99    2.20
  -4   6   2   63.09    2.40
  -4   6   2   62.29    2.40
   3  -6  -2    2.40    0.30
   3  -6  -2    1.70    0.40
  -3   6   2    2.50    0.40
  -3   6   2    1.40    0.50
   2  -6  -2   18.70    0.90
   2  -6  -2   17.30    1.00
  -2   6   2   20.70    1.00
  -2   6   2   18.60    1.30
   1  -6  -2    2.40    0.30
   1  -6  -2    2.30    0.40
   1  -6  -2    2.10    0.40
  -1   6   2    2.20    0.40
  -1   6   2    2.30    0.50
   0  -6  -2   48.60    1.70
   0  -6  -2   47.50    1.80
   0  -6  -2   46.90    1.60
   0   6   2   48.30    1.80
   0   6   2   46.70    1.80
  -1  -6  -2   12.20    0.70
  -1  -6  -2   12.40    0.90
  -1  -6  -2   12.60    0.70
   1   6   2   11.70    0.80
   1   6   2   11.50    0.80
  -2  -6  -2  216.18    6.90
  -2  -6  -2  218.08    6.80
  -2  -6  -2  211.78    6.80
   2   6   2  204.78    6.90
   2   6   2  212.18    6.90
  -3  -6  -2    6.40    0.60
  -3  -6  -2    5.30    0.70
  -3  -6  -2    6.00    0.90
   3   6   2    5.30    0.70
   3   6   2    5.00    0.80
  -4  -6  -2    2.50    0.40
   4   6   2    1.90    0.60
   4   6   2    1.40    0.40
  -5  -6  -2    0.70    0.40
   5   6   2    0.10    0.40
   5   6   2    0.00    0.40
  -6  -6  -2    3.10    0.50
   6   6   2    2.00    0.50
   6   6   2    3.50    0.60
  -7  -6  -2    2.10    0.60
   7   6   2    2.30    0.70
   7   6   2    2.80    0.50
   9  -7  -2    4.50    0.70
  -9   7   2    5.30    1.00
   8  -7  -2    0.80    0.40
   8  -7  -2    2.00    0.60
  -8   7   2    1.00    0.70
   7  -7  -2    0.00    0.40
   7  -7  -2    0.20    0.30
  -7   7   2    0.40    0.60
   6  -7  -2    5.30    0.60
   6  -7  -2    5.70    0.70
  -6   7   2    4.20    0.70
   5  -7  -2   52.29    1.90
   5  -7  -2   50.69    2.00
  -5   7   2   52.39    2.10
   4  -7  -2  269.97    8.50
  -4   7   2  260.47    8.60
   3  -7  -2    6.10    0.60
   3  -7  -2    5.10    0.80
  -3   7   2    6.40    0.80
  -3   7   2    5.50    0.80
   2  -7  -2  123.59    4.10
   2  -7  -2  123.69    4.20
  -2   7   2  122.39    4.20
  -2   7   2  125.09    4.20
   1  -7  -2    8.00    0.90
   1  -7  -2    8.00    0.50
   1  -7  -2    7.50    0.70
  -1   7   2    7.20    0.90
  -1   7   2    6.00    0.70
   0  -7  -2    3.70    0.40
   0  -7  -2    4.70    0.70
   0  -7  -2    3.40    0.60
   0   7   2    3.30    0.60
   0   7   2    3.60    0.50
  -1  -7  -2   47.30    2.00
  -1  -7  -2   47.40    1.70
  -1  -7  -2   44.90    1.70
   1   7   2   46.30    1.90
   1   7   2   44.70    1.80
  -2  -7  -2    4.30    0.80
  -2  -7  -2    5.20    0.70
  -2  -7  -2    4.40    0.50
   2   7   2    4.70    0.60
  -3  -7  -2    4.90    0.50
  -3  -7  -2    3.70    0.50
   3   7   2    4.10    0.60
   3   7   2    4.70    0.60
  -4  -7  -2   -0.10    0.40
   4   7   2    0.40    0.40
   4   7   2   -0.70    0.50
  -5  -7  -2   -0.20    0.50
   5   7   2    0.70    0.50
   5   7   2    0.20    0.40
  -6  -7  -2   13.70    1.00
   6   7   2   11.00    1.00
   6   7   2   13.70    1.20
  -7  -7  -2   97.29    3.50
   7   7   2   94.69    3.70
   7   7   2   96.89    3.40
   8  -8  -2    0.00    0.40
   8  -8  -2    1.30    0.50
  -8   8   2   -0.60    0.70
   7  -8  -2    1.80    0.50
   7  -8  -2    1.20    0.50
  -7   8   2    1.60    0.70
   6  -8  -2   -0.30    0.40
   6  -8  -2    1.00    0.50
  -6   8   2   -0.40    0.60
   5  -8  -2    8.30    0.80
   5  -8  -2    9.10    0.90
  -5   8   2    9.10    1.00
   4  -8  -2   17.80    1.10
   4  -8  -2   19.20    1.10
  -4   8   2   18.10    1.20
   3  -8  -2    8.90    0.80
   3  -8  -2    7.40    1.00
  -3   8   2    6.80    0.90
  -3   8   2    7.50    0.90
   2  -8  -2   10.90    1.10
   2  -8  -2   11.90    0.90
  -2   8   2   11.20    0.90
  -2   8   2   12.50    1.30
   1  -8  -2   35.20    1.40
   1  -8  -2   35.40    1.50
   1  -8  -2   37.30    1.70
  -1   8   2   34.20    1.50
  -1   8   2   38.00    1.80
   0  -8  -2   47.60    1.90
   0  -8  -2   48.80    1.80
   0  -8  -2   50.79    2.10
   0   8   2   47.20    1.90
   0   8   2   49.50    2.10
  -1  -8  -2    0.80    0.50
  -1  -8  -2    1.20    0.80
  -1  -8  -2    1.20    0.50
   1   8   2    0.30    0.40
   1   8   2    0.60    0.60
  -2  -8  -2    0.80    0.40
  -2  -8  -2    0.30    0.50
   2   8   2    0.10    0.60
   2   8   2    0.40    0.50
  -3  -8  -2   24.10    1.30
  -3  -8  -2   22.30    1.10
   3   8   2   23.70    1.30
   3   8   2   21.60    1.40
  -4  -8  -2   14.80    1.00
   4   8   2   15.00    1.10
   4   8   2   13.10    1.20
  -5  -8  -2   10.70    1.00
   5   8   2   11.20    1.10
   5   8   2    9.70    1.00
  -6  -8  -2   11.10    1.10
   6   8   2    7.80    1.20
   6   8   2    9.70    1.20
   8  -9  -2   19.60    1.40
   8  -9  -2   19.40    1.10
  -8   9   2   13.90    1.60
   7  -9  -2    4.00    0.70
   7  -9  -2    2.30    0.60
  -7   9   2    2.20    0.80
   6  -9  -2    1.40    0.60
   6  -9  -2    0.90    0.50
  -6   9   2    0.50    0.70
   5  -9  -2    4.30    0.70
   5  -9  -2    3.70    0.60
  -5   9   2    3.20    0.80
   4  -9  -2    7.00    0.90
   4  -9  -2    5.80    0.70
  -4   9   2    5.80    0.70
   3  -9  -2   -0.90    0.50
   3  -9  -2   -0.10    0.40
  -3   9   2   -0.10    0.50
   2  -9  -2    3.20    0.80
   2  -9  -2    3.50    0.50
  -2   9   2    3.20    0.50
  -2   9   2    3.70    0.80
   1  -9  -2    2.60    0.50
   1  -9  -2    2.90    0.80
   1  -9  -2    3.70    0.90
  -1   9   2    3.20    0.50
  -1   9   2    3.00    0.90
   0  -9  -2   21.80    1.10
   0  -9  -2   23.40    1.30
   0  -9  -2   25.90    1.70
   0   9   2   23.80    1.30
  -1  -9  -2    8.30    1.10
  -1  -9  -2    8.60    1.00
  -1  -9  -2    7.20    0.80
   1   9   2    7.20    0.90
   1   9   2    7.30    1.00
  -2  -9  -2   -0.20    0.50
  -2  -9  -2    0.80    0.60
   2   9   2   -0.20    0.60
   2   9   2    0.30    0.70
  -3  -9  -2    0.90    0.50
   3   9   2    0.60    0.60
   3   9   2    0.10    0.70
  -4  -9  -2   42.30    1.80
   4   9   2   42.00    2.10
   4   9   2   44.50    2.00
  -5  -9  -2    8.80    1.00
   5   9   2    7.70    1.00
   5   9   2    7.90    1.20
   7 -10  -2    5.20    0.70
   7 -10  -2    6.60    1.30
  -7  10   2    4.70    0.90
   6 -10  -2    3.40    0.70
   6 -10  -2    2.90    0.70
  -6  10   2    2.60    0.80
   5 -10  -2   35.80    1.70
   5 -10  -2   32.80    1.60
  -5  10   2   31.70    1.80
   4 -10  -2    7.30    1.00
   4 -10  -2    5.10    0.70
  -4  10   2    6.20    1.00
   3 -10  -2    4.90    0.70
   3 -10  -2    4.30    0.70
  -3  10   2    5.50    0.90
   2 -10  -2    9.60    1.00
   2 -10  -2   11.80    1.20
  -2  10   2   13.40    1.10
   1 -10  -2   -0.10    0.50
   1 -10  -2    0.90    0.90
   1 -10  -2    0.20    0.50
  -1  10   2    0.90    0.50
  -1  10   2    0.40    1.00
   0 -10  -2    8.70    1.00
   0 -10  -2    8.40    1.20
   0  10   2    7.10    1.10
   0  10   2    8.00    1.00
  -1 -10  -2    0.70    0.50
  -1 -10  -2    0.80    0.80
   1  10   2    0.10    0.50
   1  10   2   -0.50    0.70
  -2 -10  -2    4.70    0.60
   2  10   2    5.30    0.70
   2  10   2    4.80    0.90
  -3 -10  -2   -0.40    0.60
   3  10   2    0.30    0.70
   3  10   2   -0.30    0.70
   5 -11  -2    1.40    0.70
   5 -11  -2   -0.20    0.60
  -5  11   2    1.20    0.70
   4 -11  -2   74.09    3.00
   4 -11  -2   76.49    2.90
  -4  11   2   76.89    3.40
   3 -11  -2    2.50    0.70
   3 -11  -2    2.30    0.70
  -3  11   2    1.50    0.60
   2 -11  -2    1.70    0.80
   2 -11  -2    2.70    0.60
  -2  11   2    0.60    0.60
   1 -11  -2    1.60    0.60
   1 -11  -2    0.50    0.80
  -1  11   2   -0.10    0.80
  -1  11   2    0.90    0.60
   0 -11  -2    3.10    0.70
   0 -11  -2    3.10    0.60
   0  11   2    1.90    0.90
   0  11   2    1.70    0.60
  -1 -11  -2    6.70    0.70
   1  11   2    5.80    0.90
   1  11   2    5.50    1.00
   1  12  -3    0.30    0.90
   1  12  -3    0.00    0.80
  -1 -12   3    1.10    0.60
   0  12  -3   10.40    1.60
   0  12  -3    9.40    1.40
   0 -12   3    9.30    0.90
  -1  12  -3   26.00    1.60
   1 -12   3   22.30    1.20
   1 -12   3   25.20    1.40
   1 -12   3   23.90    1.70
  -2  12  -3    1.00    0.70
   2 -12   3   -0.10    0.60
   2 -12   3    0.70    0.50
   2 -12   3    0.40    0.50
  -3  12  -3    0.70    0.60
   3 -12   3    0.30    0.60
   3 -12   3   -0.20    0.80
  -4  12  -3    4.90    0.90
   4 -12   3    5.60    0.80
   4 -12   3    5.60    0.90
  -5  12  -3   13.30    1.30
   5 -12   3   12.10    1.30
   5 -12   3   12.30    1.30
   3  11  -3    6.00    1.00
   3  11  -3    9.50    1.30
  -3 -11   3    8.80    1.00
   2  11  -3    1.30    0.90
   2  11  -3    0.80    0.70
  -2 -11   3    0.70    0.60
   1  11  -3   10.80    1.30
   1  11  -3   12.50    1.30
  -1 -11   3   10.40    0.90
   0  11  -3    3.60    0.80
   0  11  -3    6.20    1.10
   0 -11   3    5.10    0.60
   0 -11   3    5.00    0.80
   0 -11   3    4.40    1.20
  -1  11  -3    1.00    0.50
  -1  11  -3    1.30    1.00
   1 -11   3    0.00    0.40
   1 -11   3   -0.40    0.70
   1 -11   3   -0.10    0.80
  -2  11  -3    0.30    0.50
   2 -11   3    0.10    0.50
   2 -11   3    1.10    0.60
   2 -11   3    0.60    0.50
  -3  11  -3    8.90    1.00
   3 -11   3    8.70    1.00
   3 -11   3    9.60    1.00
   3 -11   3   10.10    1.00
  -4  11  -3    0.60    0.60
   4 -11   3    0.00    0.60
   4 -11   3   -0.10    0.50
  -5  11  -3    5.60    0.80
   5 -11   3    4.90    0.70
   5 -11   3    5.50    0.70
  -6  11  -3   18.20    1.40
   6 -11   3   16.40    1.20
   6 -11   3   16.30    1.50
   5  10  -3   51.39    2.60
   5  10  -3   55.39    2.30
  -5 -10   3   51.99    2.30
   4  10  -3    1.90    0.70
   4  10  -3    2.90    0.70
  -4 -10   3    2.90    0.60
   3  10  -3    4.40    0.70
   3  10  -3    2.70    0.70
  -3 -10   3    5.50    0.70
   2  10  -3    2.20    0.70
   2  10  -3    3.10    0.70
  -2 -10   3    3.50    0.50
   1  10  -3    8.10    1.10
   1  10  -3    5.50    0.80
  -1 -10   3    7.20    0.70
   0  10  -3    4.40    0.60
   0  10  -3    5.00    0.90
   0 -10   3    5.00    0.70
   0 -10   3    5.60    0.90
   0 -10   3    6.50    1.00
  -1  10  -3   16.30    1.60
  -1  10  -3   16.10    1.10
   1 -10   3   14.20    1.10
   1 -10   3   15.00    0.90
   1 -10   3   15.30    1.30
  -2  10  -3    3.20    1.00
  -2  10  -3    2.70    0.60
   2 -10   3    1.80    0.70
   2 -10   3    2.30    0.50
  -3  10  -3    2.90    0.60
   3 -10   3    2.60    0.50
   3 -10   3    3.20    0.50
   3 -10   3    1.50    0.40
  -4  10  -3    1.40    0.50
   4 -10   3    1.10    0.40
   4 -10   3    0.90    0.50
   4 -10   3    0.60    0.50
  -5  10  -3    4.00    0.70
   5 -10   3    4.40    0.60
   5 -10   3    4.60    0.60
  -6  10  -3   -1.00    0.50
   6 -10   3    0.90    0.60
   6 -10   3    0.00    0.50
  -7  10  -3   -0.30    0.70
   7 -10   3   -0.10    0.60
   7 -10   3    0.40    0.50
   6   9  -3    0.70    0.60
   6   9  -3    2.30    0.80
  -6  -9   3    0.60    0.60
   5   9  -3    0.40    0.50
   5   9  -3    0.00    0.70
  -5  -9   3   -0.20    0.50
   4   9  -3    3.80    0.60
   4   9  -3    1.80    0.60
  -4  -9   3    1.90    0.50
   3   9  -3   20.80    1.30
   3   9  -3   17.40    1.30
  -3  -9   3   18.50    1.00
   2   9  -3   20.30    1.30
  -2  -9   3   21.70    1.70
  -2  -9   3   22.20    1.10
   1   9  -3    0.00    0.60
   1   9  -3    0.20    0.70
  -1  -9   3   -0.10    0.80
  -1  -9   3    0.40    0.50
   0   9  -3    0.90    0.70
   0   9  -3   -0.10    0.40
   0  -9   3    1.10    0.40
   0  -9   3    0.80    0.50
   0  -9   3    1.50    0.70
  -1   9  -3    1.80    0.50
  -1   9  -3    2.50    0.80
   1  -9   3    1.70    0.40
   1  -9   3    1.70    0.60
   1  -9   3    1.30    0.50
   2  -9   3    3.80    0.60
   2  -9   3    6.10    0.60
   2  -9   3    3.90    0.70
  -3   9  -3    2.60    0.50
   3  -9   3    1.30    0.60
   3  -9   3    2.30    0.40
  -4   9  -3    1.10    0.40
   4  -9   3   -0.30    0.40
   4  -9   3    0.10    0.40
   4  -9   3    0.60    0.40
  -5   9  -3    6.60    0.90
   5  -9   3    6.20    0.80
   5  -9   3    7.00    0.80
  -6   9  -3    0.00    0.50
   6  -9   3   -0.20    0.40
   6  -9   3    0.20    0.50
  -7   9  -3    0.40    0.70
   7  -9   3    0.50    0.50
   7  -9   3    1.50    0.50
  -8   9  -3    0.00    0.80
   8  -9   3    0.50    0.60
   8  -9   3    0.80    0.40
   7   8  -3    0.40    0.60
   7   8  -3    1.80    0.70
  -7  -8   3    1.50    0.60
   6   8  -3    1.10    0.50
   6   8  -3    2.00    0.60
  -6  -8   3    2.40    0.70
   5   8  -3   26.50    1.50
   5   8  -3   28.00    1.40
  -5  -8   3   27.90    1.30
   4   8  -3   11.10    1.00
   4   8  -3   10.20    1.00
  -4  -8   3   11.00    0.80
   3   8  -3  110.89    3.90
   3   8  -3  111.49    3.90
  -3  -8   3  108.79    3.70
   2   8  -3  594.64   18.40
   2   8  -3  584.14   18.50
  -2  -8   3  571.94   18.40
   1   8  -3   67.39    2.50
  -1  -8   3   60.39    2.20
  -1  -8   3   61.99    2.50
  -1  -8   3   64.99    2.20
   0   8  -3  163.48    5.30
   0   8  -3  157.58    5.30
   0  -8   3  157.18    5.10
   0  -8   3  160.58    5.30
   0  -8   3  156.48    5.10
  -1   8  -3  210.18    6.80
  -1   8  -3  202.78    6.80
   1  -8   3  210.88    6.70
   1  -8   3  205.98    6.60
  -2   8  -3    6.40    0.70
  -2   8  -3    6.60    0.80
   2  -8   3    6.90    0.60
   2  -8   3    5.60    0.70
   2  -8   3    5.90    0.80
  -3   8  -3  125.79    4.30
  -3   8  -3  122.89    4.20
   3  -8   3  124.89    4.20
   3  -8   3  130.09    4.00
   3  -8   3  122.29    4.20
  -4   8  -3  117.79    4.00
   4  -8   3  117.99    3.80
   5  -8   3   25.40    1.10
   5  -8   3   24.10    1.00
   5  -8   3   24.60    1.20
  -6   8  -3   -0.60    0.50
   6  -8   3    0.20    0.40
   6  -8   3    0.20    0.40
  -7   8  -3   18.80    1.30
   7  -8   3   19.60    1.00
   7  -8   3   18.10    1.20
  -8   8  -3   20.20    1.50
   8  -8   3   22.20    1.00
   8  -8   3   20.20    1.40
   8  -8   3   19.10    1.20
  -9   8  -3    1.60    0.90
   9  -8   3    2.90    0.70
   7   7  -3   11.70    1.40
   7   7  -3   13.50    1.20
  -7  -7   3   14.10    1.20
   6   7  -3    0.10    0.50
   6   7  -3    0.80    0.50
  -6  -7   3   -0.10    0.40
   5   7  -3   13.90    1.10
   5   7  -3   14.50    1.00
  -5  -7   3   13.40    0.90
   4   7  -3    8.60    0.80
   4   7  -3   10.30    0.90
  -4  -7   3    9.20    0.80
   3   7  -3  129.59    4.80
   3   7  -3  139.69    4.50
  -3  -7   3  132.19    4.50
   2   7  -3   31.90    1.40
   2   7  -3   32.80    1.40
  -2  -7   3   31.50    1.30
   1   7  -3  317.57   10.30
   1   7  -3  326.47   10.30
  -1  -7   3  316.77   10.20
  -1  -7   3  340.27   10.10
  -1  -7   3  316.07   10.30
   0   7  -3   61.09    2.20
   0   7  -3   55.19    2.10
   0  -7   3   59.89    2.00
   0  -7   3   58.79    2.00
   0  -7   3   59.19    2.20
  -1   7  -3    4.90    0.70
  -1   7  -3    4.70    0.60
   1  -7   3    4.10    0.50
   1  -7   3    5.10    0.50
   1  -7   3    3.30    0.40
  -2   7  -3  280.77    8.90
  -2   7  -3  276.07    8.90
   2  -7   3  280.07    8.90
   2  -7   3  278.07    8.90
   2  -7   3  282.97    8.80
  -3   7  -3   23.30    1.30
  -3   7  -3   23.90    1.10
   3  -7   3   23.30    1.10
   3  -7   3   23.70    1.10
   3  -7   3   22.70    1.30
   3  -7   3   25.60    1.00
  -4   7  -3    0.40    0.40
  -4   7  -3   -0.40    0.80
   4  -7   3   -0.10    0.50
   4  -7   3    0.30    0.30
   4  -7   3    0.10    0.30
   4  -7   3   -0.10    0.30
  -5   7  -3    0.30    0.50
   5  -7   3    0.70    0.30
   5  -7   3   -0.40    0.50
   5  -7   3    0.80    0.40
   5  -7   3    0.30    0.30
  -6   7  -3   89.49    3.20
   6  -7   3   85.89    2.90
   6  -7   3   86.69    2.90
   6  -7   3   88.59    3.10
   6  -7   3   84.59    3.00
  -7   7  -3   13.50    1.10
   7  -7   3   15.30    0.90
   7  -7   3   13.50    0.70
   7  -7   3   14.00    1.00
   7  -7   3   13.90    0.90
  -8   7  -3    1.30    0.60
   8  -7   3    1.60    0.40
   8  -7   3    0.00    0.50
  -9   7  -3   11.00    1.30
   9  -7   3   10.80    1.10
   8   6  -3    0.10    0.40
   8   6  -3    0.70    0.70
  -8  -6   3    0.00    0.60
   7   6  -3   -0.40    0.40
   7   6  -3   -0.70    0.60
  -7  -6   3   -0.60    0.50
   6   6  -3    9.90    1.00
   6   6  -3   10.30    0.80
  -6  -6   3   10.10    0.90
   5   6  -3    0.20    0.40
   5   6  -3    0.80    0.40
  -5  -6   3    0.10    0.40
   4   6  -3    5.90    0.60
   3   6  -3   12.40    0.80
   3   6  -3   13.10    0.80
   3   6  -3   11.10    1.20
  -3  -6   3   12.90    0.70
  -3  -6   3   12.50    1.10
   2   6  -3    5.10    0.70
  -2  -6   3    6.20    0.80
  -2  -6   3    6.10    0.50
   1   6  -3    1.40    0.40
   1   6  -3    1.80    0.60
  -1  -6   3    0.90    0.20
  -1  -6   3    1.30    0.40
   0   6  -3   54.59    1.90
   0   6  -3   52.39    1.90
   0  -6   3   51.89    1.80
   0  -6   3   52.19    1.90
   0  -6   3   52.69    1.80
  -1   6  -3    2.90    0.50
  -1   6  -3    3.30    0.40
   1  -6   3    3.30    0.40
   1  -6   3    3.20    0.40
   1  -6   3    2.40    0.40
  -2   6  -3   14.20    0.70
  -2   6  -3   13.50    0.90
   2  -6   3   13.50    0.60
   2  -6   3   13.80    0.70
   2  -6   3   12.80    0.70
  -3   6  -3    7.20    0.80
  -3   6  -3    6.90    0.60
   3  -6   3    7.30    0.50
   3  -6   3    7.00    0.50
   3  -6   3    6.60    0.50
  -4   6  -3    0.60    0.40
   4  -6   3    0.60    0.20
   4  -6   3    0.40    0.20
   4  -6   3    0.30    0.40
   4  -6   3    0.20    0.20
  -5   6  -3    1.10    0.50
   5  -6   3    0.90    0.30
   5  -6   3    0.80    0.30
   5  -6   3    0.70    0.30
   5  -6   3    0.70    0.40
  -6   6  -3    3.10    0.60
   6  -6   3    3.30    0.40
   6  -6   3    3.90    0.50
   6  -6   3    3.50    0.50
   6  -6   3    4.40    0.40
  -7   6  -3   33.40    1.70
   7  -6   3   35.20    1.30
   7  -6   3   32.70    1.50
   7  -6   3   34.50    1.20
   7  -6   3   31.10    1.30
  -8   6  -3    0.50    0.60
   8  -6   3    0.00    0.50
   8  -6   3    0.20    0.50
  -9   6  -3    1.90    0.70
   9  -6   3    1.20    0.60
 -10   6  -3    3.30    0.90
  10  -6   3    3.50    0.70
   9   5  -3    0.40    0.70
   9   5  -3    1.50    0.40
  -9  -5   3    1.10    0.60
   8   5  -3    4.70    0.60
   8   5  -3    5.10    0.80
  -8  -5   3    5.10    0.70
   7   5  -3    0.90    0.60
   7   5  -3    0.50    0.30
  -7  -5   3   -0.30    0.40
   6   5  -3    1.00    0.50
   6   5  -3    0.90    0.40
   6   5  -3    0.60    0.60
  -6  -5   3    0.90    0.40
   5   5  -3    3.00    0.70
   5   5  -3    2.50    0.60
  -5  -5   3    2.80    0.50
   4   5  -3    5.10    0.60
   4   5  -3    5.50    0.70
   4   5  -3    5.40    0.50
  -4  -5   3    5.90    0.60
  -4  -5   3    5.80    0.70
   3   5  -3    9.20    0.60
   3   5  -3   10.10    0.70
   3   5  -3    9.50    0.90
  -3  -5   3    9.60    0.60
  -3  -5   3   10.20    0.90
   2   5  -3    6.20    0.50
   2   5  -3    4.80    0.50
  -2  -5   3    5.50    0.50
   1   5  -3    0.50    0.30
   1   5  -3   -0.20    0.30
  -1  -5   3    0.00    0.20
  -1  -5   3    0.00    0.30
  -1  -5   3   -0.20    0.20
   0   5  -3   43.30    1.60
   0   5  -3   43.10    1.60
   0  -5   3   44.80    1.50
   0  -5   3   43.40    1.50
  -1   5  -3   57.19    2.00
  -1   5  -3   58.89    2.00
   1  -5   3   57.89    2.00
   1  -5   3   58.29    1.90
  -2   5  -3    1.10    0.30
  -2   5  -3    1.00    0.30
   2  -5   3    0.90    0.20
   2  -5   3    0.80    0.20
   2  -5   3    0.90    0.30
  -3   5  -3   10.20    0.60
  -3   5  -3   10.20    0.80
   3  -5   3   10.00    0.70
   3  -5   3   10.80    0.60
   3  -5   3   11.50    0.50
   3  -5   3   10.40    0.50
  -4   5  -3    0.30    0.30
   4  -5   3   -0.10    0.20
   4  -5   3   -0.30    0.30
   4  -5   3    0.00    0.20
   4  -5   3   -0.30    0.20
  -5   5  -3    9.50    0.80
   5  -5   3    7.30    0.60
   5  -5   3    8.20    0.70
   5  -5   3    7.70    0.50
   5  -5   3    7.80    0.50
  -6   5  -3    1.50    0.50
   6  -5   3    1.80    0.40
   6  -5   3    2.10    0.40
   6  -5   3    1.70    0.30
   6  -5   3    2.20    0.30
  -7   5  -3    0.10    0.60
   7  -5   3    0.00    0.40
   7  -5   3    0.20    0.40
  -8   5  -3    7.80    1.00
   8  -5   3    7.20    0.80
   8  -5   3    7.40    0.80
  -9   5  -3   -0.40    0.60
   9  -5   3   -0.30    0.50
   9  -5   3    0.30    0.60
 -10   5  -3    0.40    0.80
  10  -5   3    0.50    0.50
   9   4  -3   48.10    2.30
  -9  -4   3   48.50    2.00
   8   4  -3    0.90    0.30
   8   4  -3    0.70    0.50
   8   4  -3    0.30    0.50
  -8  -4   3    0.40    0.50
   7   4  -3    3.30    0.50
   7   4  -3    4.30    0.60
   7   4  -3    5.80    0.90
  -7  -4   3    4.70    0.60
   6   4  -3   30.40    1.40
   6   4  -3   31.30    1.20
   6   4  -3   29.00    1.30
  -6  -4   3   30.80    1.30
   5   4  -3   60.49    2.10
   5   4  -3   56.89    2.10
   5   4  -3   58.69    2.20
  -5  -4   3   59.39    2.10
   4   4  -3   14.80    0.70
   4   4  -3   14.40    0.90
   4   4  -3   14.50    0.80
  -4  -4   3   14.00    0.70
  -4  -4   3   14.60    1.00
   3   4  -3    5.90    0.40
   3   4  -3    6.30    0.50
  -3  -4   3    6.50    0.70
  -3  -4   3    6.80    0.50
   2   4  -3  240.88    8.00
   2   4  -3  252.97    8.00
   2   4  -3  258.57    8.00
  -2  -4   3  248.98    7.90
  -2  -4   3  258.67    8.00
   1   4  -3  127.09    4.10
   1   4  -3  130.89    4.10
  -1  -4   3  123.49    4.10
  -1  -4   3  129.99    4.00
  -1  -4   3  127.39    4.10
   0   4  -3    0.60    0.20
   0   4  -3    1.40    0.30
   0  -4   3    1.30    0.20
   0  -4   3    1.40    0.20
  -1   4  -3   27.70    1.00
  -1   4  -3   27.30    1.10
   1  -4   3   24.70    1.10
   1  -4   3   27.70    1.00
   1  -4   3   28.90    1.00
   1  -4   3   26.90    1.00
  -2   4  -3   45.90    1.70
  -2   4  -3   51.89    1.70
   2  -4   3   48.80    1.60
   2  -4   3   46.30    1.60
   2  -4   3   47.80    1.70
  -3   4  -3   38.20    1.40
  -3   4  -3   41.90    1.40
   3  -4   3   38.10    1.30
   3  -4   3   37.50    1.40
   3  -4   3   37.30    1.40
   3  -4   3   38.10    1.30
  -4   4  -3   -0.10    0.30
   4  -4   3    0.20    0.20
   4  -4   3    0.10    0.20
   4  -4   3    0.20    0.20
   4  -4   3   -0.10    0.20
  -5   4  -3   26.50    1.20
   5  -4   3   26.80    1.00
   5  -4   3   27.50    1.00
   5  -4   3   28.00    1.20
   5  -4   3   27.40    1.00
  -6   4  -3   29.60    1.40
   6  -4   3   33.00    1.20
   6  -4   3   33.90    1.40
  -7   4  -3   -0.70    0.50
   7  -4   3    0.10    0.40
   7  -4   3    0.20    0.30
  -8   4  -3   45.10    2.10
   8  -4   3   49.00    1.90
   8  -4   3   47.80    1.80
  -9   4  -3   -0.30    0.60
   9  -4   3   -0.20    0.40
   9  -4   3    0.20    0.40
 -10   4  -3   27.90    1.70
  10  -4   3   27.80    1.50
  10  -4   3   25.90    1.30
   9   3  -3   23.60    1.50
  -9  -3   3   23.80    1.30
   8   3  -3    4.60    0.70
   8   3  -3    2.50    0.60
  -8  -3   3    3.50    0.60
   7   3  -3    0.40    0.50
   7   3  -3    0.00    0.40
   7   3  -3    0.30    0.20
  -7  -3   3   -0.20    0.40
   6   3  -3    7.00    0.70
   6   3  -3    6.90    1.00
  -6  -3   3    7.60    0.70
   5   3  -3   11.90    0.90
   5   3  -3   13.40    0.70
   5   3  -3   14.60    0.90
  -5  -3   3   14.80    0.70
   4   3  -3   47.50    1.60
   4   3  -3   47.10    1.70
   4   3  -3   45.80    1.70
  -4  -3   3   46.40    1.60
   3   3  -3  987.90   30.30
   3   3  -3  953.50   30.40
  -3  -3   3  988.10   30.30
  -3  -3   3  966.00   30.30
   2   3  -3   14.40    0.60
   2   3  -3   12.80    0.60
   2   3  -3   13.00    0.70
  -2  -3   3   13.70    0.70
  -2  -3   3   13.10    0.60
   1   3  -3  328.77   10.40
   1   3  -3  377.06   10.60
   1   3  -3  326.07   10.50
  -1  -3   3  329.97   10.50
  -1  -3   3  315.47   10.50
   0   3  -3   25.70    1.00
   0   3  -3   27.20    1.00
   0  -3   3   24.90    0.90
   0  -3   3   25.40    0.90
   0  -3   3   25.80    0.90
  -1   3  -3  146.59    4.70
  -1   3  -3  155.18    4.70
   1  -3   3  146.49    4.70
   1  -3   3  150.98    4.70
   1  -3   3  151.38    4.70
   1  -3   3  144.39    4.70
  -2   3  -3    3.80    0.40
  -2   3  -3    2.60    0.30
   2  -3   3    2.50    0.30
   2  -3   3    3.90    0.30
   2  -3   3    3.00    0.30
   2  -3   3    3.70    0.30
  -3   3  -3   19.60    0.80
   3  -3   3   18.70    0.70
   3  -3   3   18.90    0.70
   3  -3   3   19.30    0.70
   3  -3   3   19.60    0.80
  -4   3  -3   50.49    1.80
   4  -3   3   51.99    1.70
   4  -3   3   52.59    1.70
   4  -3   3   53.79    1.80
   4  -3   3   50.89    1.70
  -5   3  -3   41.70    1.50
   5  -3   3   40.90    1.50
   5  -3   3   43.20    1.60
  -6   3  -3   47.40    1.70
   6  -3   3   44.20    1.70
   6  -3   3   44.10    1.60
  -7   3  -3   38.40    1.60
   7  -3   3   37.10    1.40
   7  -3   3   36.00    1.50
  -8   3  -3   14.50    1.20
   8  -3   3   13.90    0.90
   8  -3   3   13.30    0.90
  10  -3   3    4.30    0.60
  10  -3   3    4.20    0.70
  10   2  -3    2.10    0.70
 -10  -2   3    1.80    0.70
   9   2  -3    0.80    0.60
  -9  -2   3    0.90    0.50
   8   2  -3    8.10    0.90
   8   2  -3    8.00    0.90
  -8  -2   3    7.10    0.80
   7   2  -3    2.10    0.40
   7   2  -3    2.40    0.30
   7   2  -3    2.40    0.50
   7   2  -3    2.20    0.40
  -7  -2   3    2.20    0.70
   6   2  -3  114.39    3.90
   6   2  -3  115.69    3.70
   6   2  -3  110.89    3.70
   6   2  -3  117.29    3.70
  -6  -2   3  111.99    3.80
   5   2  -3   18.10    0.80
   5   2  -3   19.80    0.90
   5   2  -3   20.50    0.80
   5   2  -3   19.40    1.00
  -5  -2   3   21.30    0.90
   4   2  -3    4.80    0.40
   4   2  -3    4.70    0.50
   4   2  -3    4.40    0.50
  -4  -2   3    5.30    0.40
   3   2  -3    2.00    0.30
   3   2  -3    2.80    0.40
   3   2  -3    2.30    0.30
  -3  -2   3    2.40    0.30
  -3  -2   3    2.40    0.30
   2   2  -3  539.85   17.30
   2   2  -3  552.64   17.30
  -2  -2   3  564.34   17.30
  -2  -2   3  559.64   17.30
   1   2  -3  192.68    6.50
   1   2  -3  217.88    6.40
  -1  -2   3  208.08    6.50
  -1  -2   3  202.78    6.40
   0   2  -3 2426.56   74.69
   0   2  -3 2440.06   74.79
   0   2  -3 2352.06   74.69
   0  -2   3 2401.66   74.79
  -1   2  -3   54.49    1.60
  -1   2  -3   49.90    1.60
   1  -2   3   46.00    1.70
   1  -2   3   46.10    1.70
   1  -2   3   46.50    1.70
  -2   2  -3   28.00    1.00
  -2   2  -3   29.90    1.00
   2  -2   3   29.00    1.00
   2  -2   3   29.50    1.00
   2  -2   3   30.00    1.00
   2  -2   3   28.30    1.00
  -3   2  -3   96.99    2.90
   3  -2   3   89.59    2.90
   3  -2   3   90.69    3.00
   3  -2   3   88.59    2.90
   3  -2   3   89.29    2.90
   4  -2   3    1.10    0.10
   4  -2   3    1.10    0.30
   4  -2   3    1.30    0.20
   4  -2   3    1.00    0.20
   4  -2   3    1.10    0.10
   5  -2   3   33.50    1.30
   5  -2   3   34.00    1.30
   5  -2   3   32.90    1.20
   6  -2   3   47.30    1.80
   6  -2   3   47.60    1.70
   6  -2   3   47.50    1.70
   7  -2   3    7.50    0.70
   7  -2   3    6.50    0.70
   7  -2   3    7.20    0.80
   8  -2   3    5.40    0.70
   8  -2   3    4.90    0.70
   8  -2   3    5.20    0.70
   9  -2   3    3.90    0.60
   9  -2   3    3.90    0.60
   9  -2   3    3.80    0.50
 -10   2  -3    3.80    0.70
  10  -2   3    5.00    0.60
  10   1  -3    2.80    0.70
 -10  -1   3    2.30    0.70
   9   1  -3    9.30    1.00
   9   1  -3    8.60    1.00
  -9  -1   3    9.30    0.90
   8   1  -3   22.80    1.20
   8   1  -3   23.10    1.30
  -8  -1   3   21.90    1.10
   7   1  -3    9.90    0.80
   7   1  -3   10.80    0.90
  -7  -1   3   10.50    0.80
   6   1  -3    4.90    0.60
   6   1  -3    6.50    0.70
   6   1  -3    6.50    0.50
   6   1  -3    6.40    0.40
  -6  -1   3    6.40    0.60
   5   1  -3   14.30    0.60
   5   1  -3   13.80    0.70
   5   1  -3   14.20    0.70
   5   1  -3   13.90    0.80
  -5  -1   3   13.40    0.70
   4   1  -3    3.30    0.50
   4   1  -3    2.80    0.30
   4   1  -3    2.90    0.40
   4   1  -3    3.50    0.40
  -4  -1   3    2.90    0.40
   3   1  -3   30.70    1.00
   3   1  -3   29.90    1.10
   3   1  -3   30.00    1.10
   3   1  -3   29.80    1.10
  -3  -1   3   31.50    1.10
  -3  -1   3   29.20    1.10
   2   1  -3    9.70    0.40
   2   1  -3    8.70    0.50
   2   1  -3    9.50    0.40
  -2  -1   3    9.20    0.40
  -2  -1   3    8.30    0.40
   1   1  -3  308.87   10.00
   1   1  -3  315.57   10.00
   1   1  -3  308.17   10.00
   1   1  -3  345.97   10.00
  -1  -1   3  327.77   10.00
   0   1  -3 2514.35   75.29
   0   1  -3 2423.86   75.19
   0   1  -3 2406.06   75.09
   0  -1   3 2276.07   75.09
   0  -1   3 2564.94   75.19
   0  -1   3 2331.27   75.09
  -1   1  -3  185.18    5.90
  -1   1  -3  189.68    5.90
   1  -1   3  187.28    5.90
   1  -1   3  185.58    5.90
  -2   1  -3  662.83   21.50
  -2   1  -3  663.93   21.50
   2  -1   3  725.43   21.50
   2  -1   3  692.83   21.50
   2  -1   3  695.13   21.50
   2  -1   3  707.33   21.50
   3  -1   3   51.89    1.70
   3  -1   3   53.39    1.80
   3  -1   3   51.99    1.70
   3  -1   3   52.59    1.70
   3  -1   3   53.59    1.80
   4  -1   3    1.20    0.20
   4  -1   3    1.30    0.30
   4  -1   3    1.20    0.20
   5  -1   3   30.70    1.20
   5  -1   3   30.10    1.20
   5  -1   3   30.00    1.10
   6  -1   3   14.70    0.90
   6  -1   3   12.10    0.80
   6  -1   3   14.00    0.80
   7  -1   3   14.50    1.00
   7  -1   3   12.10    0.80
   7  -1   3   13.60    0.90
   8  -1   3    0.40    0.40
   8  -1   3    0.40    0.60
  -9   1  -3    1.80    0.50
   9  -1   3    1.30    0.50
   9  -1   3    1.30    0.60
 -10   1  -3    0.10    0.60
  10  -1   3    1.30    0.70
  10  -1   3    1.30    0.60
  10   0  -3    3.10    0.80
  10   0  -3    3.10    0.60
 -10   0   3    3.50    0.60
   9   0  -3   14.00    1.10
   9   0  -3   14.50    1.20
  -9   0   3   13.00    0.90
   8   0  -3   21.50    1.30
   8   0  -3   22.70    1.20
  -8   0   3   23.90    1.20
   7   0  -3   29.70    1.30
   7   0  -3   29.50    1.60
  -7   0   3   28.90    1.20
   6   0  -3   70.49    2.30
   6   0  -3   70.49    2.50
   6   0  -3   68.99    2.40
   6   0  -3   69.09    2.30
  -6   0   3   69.99    2.30
   5   0  -3   22.90    1.00
   5   0  -3   24.00    1.10
   5   0  -3   24.70    0.90
   5   0  -3   23.50    0.90
  -5   0   3   23.80    0.90
   4   0  -3   56.29    1.90
   4   0  -3   55.49    2.00
   4   0  -3   57.49    1.90
  -4   0   3   57.59    1.90
   3   0  -3  113.39    3.60
   3   0  -3  112.49    3.60
   3   0  -3  111.49    3.70
   3   0  -3  112.59    3.60
  -3   0   3  109.79    3.60
  -3   0   3  114.59    3.60
   2   0  -3 1055.69   33.60
   2   0  -3 1078.99   33.40
   2   0  -3 1060.89   33.50
  -2   0   3 1102.29   33.40
  -2   0   3 1080.69   33.40
   1   0  -3  140.29    4.70
   1   0  -3  135.49    4.70
   1   0  -3  139.79    4.70
   1   0  -3  163.08    4.70
  -1   0   3  146.29    4.70
  -1   0   3  165.88    4.70
   0   0  -3   65.29    2.00
   0   0   3   67.29    2.00
   0   0   3   59.19    2.00
   0   0   3   59.69    2.00
   0   0   3   64.99    2.00
   0   0   3   62.09    2.00
  -1   0  -3    3.10    0.30
   1   0   3    3.00    0.30
  -2   0  -3   53.09    1.80
  -2   0  -3   57.49    1.80
   2   0   3   53.89    1.80
   2   0   3   55.09    1.80
   2   0   3   54.69    1.80
   2   0   3   55.09    1.80
  -3   0  -3   13.70    0.60
   3   0   3   13.40    0.60
   3   0   3   14.10    0.60
   3   0   3   13.50    0.50
   3   0   3   12.90    0.50
  -4   0  -3 2048.90   63.19
   4   0   3 1952.50   63.09
   4   0   3 2121.59   63.09
   4   0   3 2015.20   63.19
   4   0   3 2022.80   63.09
  -5   0  -3  155.68    5.00
   5   0   3  156.78    5.00
   5   0   3  154.28    5.00
  -6   0  -3   36.10    1.40
   6   0   3   36.80    1.50
   6   0   3   36.60    1.40
  -7   0  -3   40.10    1.60
   7   0   3   40.80    1.70
  -8   0  -3  184.08    6.10
   8   0   3  192.28    6.30
   8   0   3  184.28    6.10
  -9   0  -3   12.40    0.90
   9   0   3   11.90    0.90
   9   0   3   11.50    1.10
 -10   0  -3    6.90    1.00
  10   0   3    4.70    0.80
  10   0   3    5.60    0.70
  10  -1  -3    1.50    0.70
 -10   1   3    2.00    0.60
   9  -1  -3   -0.10    0.50
   9  -1  -3   -0.30    0.40
  -9   1   3    0.30    0.70
   8  -1  -3    0.60    0.50
   8  -1  -3    1.10    0.50
  -8   1   3    1.40    0.50
   7  -1  -3    2.10    0.40
  -7   1   3    2.20    0.40
   6  -1  -3   13.50    0.80
   6  -1  -3   12.70    0.80
   6  -1  -3   12.20    0.60
   6  -1  -3   12.40    0.60
  -6   1   3   13.40    0.70
   5  -1  -3  153.08    5.00
   5  -1  -3  155.98    4.90
   5  -1  -3  151.28    5.00
   5  -1  -3  155.48    4.90
  -5   1   3  154.48    4.90
   4  -1  -3  839.42   26.10
   4  -1  -3  814.92   26.10
   4  -1  -3  844.42   26.30
   4  -1  -3  828.62   26.20
  -4   1   3  873.61   26.10
   3  -1  -3   13.90    0.60
   3  -1  -3   13.80    0.60
   3  -1  -3   14.20    0.70
   3  -1  -3   13.40    0.60
  -3   1   3   12.60    0.60
  -3   1   3   13.30    0.50
   2  -1  -3   54.59    1.80
   2  -1  -3   51.79    1.70
   2  -1  -3   52.29    1.80
  -2   1   3   51.09    1.70
  -2   1   3   53.59    1.70
   1  -1  -3  281.87    8.70
   1  -1  -3  300.07    8.70
   1  -1  -3  264.47    8.70
  -1   1   3  259.97    8.70
  -1   1   3  278.57    8.60
  -1   1   3  274.77    8.70
   0  -1  -3  378.26   11.60
   0  -1  -3  370.76   11.50
   0   1   3  374.86   11.50
   0   1   3  366.16   11.50
   0   1   3  358.36   11.60
  -1  -1  -3   89.59    2.80
  -1  -1  -3   84.49    2.80
   1   1   3   85.09    2.80
   1   1   3   85.69    2.80
   1   1   3   92.89    2.80
  -2  -1  -3  153.08    5.00
  -2  -1  -3  165.18    5.00
   2   1   3  160.18    5.00
   2   1   3  156.08    5.00
   2   1   3  152.48    5.00
   2   1   3  155.68    5.00
  -3  -1  -3   14.90    0.60
   3   1   3   13.80    0.60
   3   1   3   14.70    0.60
   3   1   3   15.30    0.60
   3   1   3   15.40    0.70
  -4  -1  -3    2.30    0.30
   4   1   3    2.40    0.30
   4   1   3    2.10    0.20
   4   1   3    2.00    0.20
   4   1   3    2.10    0.30
  -5  -1  -3   65.89    2.20
   5   1   3   64.29    2.10
   5   1   3   67.99    2.10
   5   1   3   65.99    2.30
   5   1   3   65.59    2.30
  -6  -1  -3  118.79    4.00
   6   1   3  123.39    4.00
   6   1   3  123.29    4.10
  -7  -1  -3   10.70    0.80
   7   1   3   11.00    1.00
   7   1   3   10.70    0.80
  -8  -1  -3   26.90    1.40
   8   1   3   27.40    1.40
   8   1   3   26.40    1.30
  -9  -1  -3   68.39    2.60
   9   1   3   70.29    2.60
   9   1   3   69.59    2.70
  10  -2  -3    0.10    0.60
  10  -2  -3   -0.10    0.50
   9  -2  -3    7.90    1.00
   9  -2  -3    7.30    0.80
  -9   2   3    6.80    0.70
   8  -2  -3    3.10    0.60
  -8   2   3    3.90    0.50
   7  -2  -3    1.40    0.50
   7  -2  -3    1.80    0.40
   7  -2  -3    1.70    0.30
  -7   2   3    1.50    0.40
   6  -2  -3    0.80    0.40
   6  -2  -3    0.20    0.30
   6  -2  -3    0.30    0.40
   6  -2  -3    0.50    0.20
  -6   2   3    0.30    0.30
   5  -2  -3    0.20    0.20
   5  -2  -3    0.40    0.30
   5  -2  -3    0.00    0.30
   5  -2  -3    0.30    0.20
  -5   2   3    0.30    0.20
   4  -2  -3    4.40    0.50
   4  -2  -3    6.20    0.50
   4  -2  -3    4.90    0.40
   4  -2  -3    5.00    0.50
   3  -2  -3   10.00    0.50
   3  -2  -3    8.40    0.50
   3  -2  -3    9.60    0.50
  -3   2   3    9.60    0.60
   2  -2  -3  402.26   12.60
   2  -2  -3  406.86   12.60
   2  -2  -3  399.16   12.60
  -2   2   3  395.36   12.70
  -2   2   3  410.96   12.60
   1  -2  -3   64.69    2.10
  -1   2   3   60.59    2.10
  -1   2   3   59.69    2.10
  -1   2   3   61.79    2.00
   0  -2  -3  172.58    5.10
   0  -2  -3  158.58    5.10
   0   2   3  159.38    5.10
   0   2   3  158.18    5.10
   0   2   3  156.78    5.10
  -1  -2  -3   80.79    2.50
  -1  -2  -3   77.09    2.60
   1   2   3   78.39    2.50
   1   2   3   78.29    2.60
   1   2   3   75.19    2.60
   1   2   3   81.69    2.60
  -2  -2  -3   11.30    0.50
  -2  -2  -3   10.60    0.60
   2   2   3   10.90    0.50
   2   2   3   10.90    0.50
  -3  -2  -3   59.09    1.90
   3   2   3   60.49    2.00
   3   2   3   57.09    2.00
   3   2   3   57.89    1.90
   3   2   3   57.39    2.00
  -4  -2  -3   30.10    1.10
   4   2   3   26.80    1.30
   4   2   3   30.10    1.10
   4   2   3   29.50    1.10
   4   2   3   30.50    1.20
  -5  -2  -3    3.70    0.50
   5   2   3    3.10    0.40
   5   2   3    3.40    0.40
   5   2   3    3.20    0.40
   5   2   3    2.70    0.40
  -6  -2  -3    2.80    0.40
   6   2   3    1.80    0.50
   6   2   3    2.70    0.50
   6   2   3    2.30    0.30
  -7  -2  -3    0.00    0.40
   7   2   3    0.30    0.50
   7   2   3   -0.40    0.40
  -8  -2  -3    8.10    1.00
   8   2   3    9.30    1.00
   8   2   3    8.80    0.90
   9   2   3    0.40    0.50
   9   2   3   -0.10    0.60
  10  -3  -3   12.30    1.10
 -10   3   3   16.70    1.40
   9  -3  -3    0.40    0.40
  -9   3   3    0.90    0.50
   8  -3  -3    9.30    0.80
  -8   3   3    8.10    0.80
  -8   3   3    8.70    1.00
   7  -3  -3  134.19    4.40
   7  -3  -3  133.39    4.20
   7  -3  -3  131.29    4.20
  -7   3   3  130.09    4.50
   6  -3  -3   28.80    1.20
   6  -3  -3   28.40    1.10
   6  -3  -3   27.60    1.10
  -6   3   3   24.40    1.20
   5  -3  -3   12.30    0.60
   5  -3  -3   11.00    0.70
   5  -3  -3   11.50    0.70
   4  -3  -3   58.39    1.90
   4  -3  -3   58.49    2.00
  -4   3   3   57.59    2.10
  -4   3   3   56.39    2.10
   3  -3  -3    1.60    0.30
   3  -3  -3    2.20    0.30
  -3   3   3    2.10    0.40
  -3   3   3    2.00    0.30
   2  -3  -3   -0.30    0.30
   2  -3  -3   -0.30    0.20
   2  -3  -3    0.30    0.20
  -2   3   3    0.50    0.40
   1  -3  -3  608.54   18.90
  -1   3   3  606.64   18.90
  -1   3   3  603.84   18.80
  -1   3   3  598.94   18.90
   0  -3  -3   61.09    1.90
   0  -3  -3   53.89    1.80
   0   3   3   51.09    1.80
   0   3   3   53.49    1.90
   0   3   3   50.99    1.80
  -1  -3  -3  127.79    3.70
  -1  -3  -3  115.29    3.70
   1   3   3  115.49    3.70
   1   3   3  110.69    3.60
   1   3   3  104.09    3.70
   1   3   3  111.49    3.70
  -2  -3  -3    6.20    0.60
  -2  -3  -3    8.10    0.40
   2   3   3    6.70    0.50
   2   3   3    5.90    0.40
   2   3   3    6.10    0.50
  -3  -3  -3   11.90    0.80
  -3  -3  -3   14.00    0.60
   3   3   3   13.20    0.70
   3   3   3   13.40    0.70
   3   3   3   13.10    0.60
   3   3   3   13.20    0.60
  -4  -3  -3   22.40    0.90
   4   3   3   22.60    1.00
   4   3   3   21.70    0.90
   4   3   3   21.80    1.00
   4   3   3   21.30    0.90
  -5  -3  -3   11.70    0.70
   5   3   3   13.20    0.90
   5   3   3   13.50    0.70
   5   3   3   14.20    0.80
   5   3   3   12.90    0.80
  -6  -3  -3    6.90    0.70
   6   3   3    7.20    0.80
   6   3   3    6.20    0.70
   6   3   3    5.80    0.60
   6   3   3    5.80    0.50
  -7  -3  -3    0.40    0.50
   7   3   3    0.80    0.50
   7   3   3    0.50    0.40
   7   3   3    0.20    0.20
   7   3   3    0.60    0.30
   8   3   3    0.60    0.50
   8   3   3    0.30    0.60
  -9  -3  -3    1.50    0.70
   9   3   3    1.10    0.70
  10  -4  -3   13.10    1.10
 -10   4   3   13.80    1.50
   9  -4  -3   40.80    1.80
  -9   4   3   39.60    2.00
   8  -4  -3  270.27    8.70
   8  -4  -3  272.07    8.50
   8  -4  -3  266.97    8.50
  -8   4   3  266.27    8.80
   7  -4  -3    4.40    0.70
   7  -4  -3    4.70    0.50
   7  -4  -3    5.30    0.70
  -7   4   3    4.10    0.70
   6  -4  -3   68.49    2.50
   6  -4  -3   68.69    2.40
   6  -4  -3   72.59    2.50
  -6   4   3   67.99    2.60
   5  -4  -3    7.20    0.50
   5  -4  -3    7.00    0.70
   5  -4  -3    5.70    0.60
  -5   4   3    7.90    0.80
   4  -4  -3   60.09    2.00
   4  -4  -3   58.09    2.10
   4  -4  -3   58.69    2.10
  -4   4   3   58.49    2.10
  -4   4   3   60.99    2.20
   3  -4  -3   12.80    0.60
   3  -4  -3   11.00    0.70
   3  -4  -3   12.00    0.70
  -3   4   3   12.10    0.80
  -3   4   3   11.60    0.80
   2  -4  -3   61.39    2.10
   2  -4  -3   61.69    2.10
  -2   4   3   59.99    2.20
  -2   4   3   62.89    2.20
   1  -4  -3  248.28    7.60
   1  -4  -3  244.88    7.60
  -1   4   3  240.88    7.60
  -1   4   3  215.58    7.80
  -1   4   3  246.78    7.50
   0  -4  -3   71.89    2.30
   0  -4  -3   64.49    2.60
   0   4   3   70.09    2.30
   0   4   3   70.99    2.40
   0   4   3   71.89    2.40
  -1  -4  -3    1.20    0.40
  -1  -4  -3    0.50    0.30
   1   4   3    0.60    0.20
   1   4   3    0.90    0.30
   1   4   3    0.80    0.30
  -2  -4  -3  197.68    6.10
  -2  -4  -3  189.58    6.20
   2   4   3  195.28    6.20
   2   4   3  198.68    6.20
   2   4   3  180.58    6.20
   2   4   3  193.58    6.10
  -3  -4  -3    1.40    0.40
  -3  -4  -3    2.50    0.60
   3   4   3    1.80    0.30
   3   4   3    1.80    0.30
   3   4   3    2.90    0.50
   3   4   3    1.80    0.40
  -4  -4  -3  128.49    4.30
   4   4   3  129.89    4.40
   4   4   3  135.89    4.40
   4   4   3  132.79    4.30
   4   4   3  134.89    4.30
  -5  -4  -3   29.30    1.20
   5   4   3   29.90    1.30
   5   4   3   28.80    1.30
   5   4   3   31.10    1.40
   5   4   3   29.80    1.20
  -6  -4  -3    0.40    0.50
   6   4   3    0.50    0.30
   6   4   3   -0.10    0.40
   6   4   3   -0.60    0.40
   7   4   3    0.50    0.50
   7   4   3    0.50    0.50
   7   4   3    0.20    0.50
   7   4   3    0.60    0.30
  -8  -4  -3    5.80    0.70
   8   4   3    5.40    0.80
  10  -5  -3    0.50    0.50
 -10   5   3    0.80    0.80
   9  -5  -3    2.70    0.60
  -9   5   3    3.10    0.80
   8  -5  -3   37.60    1.50
   8  -5  -3   38.20    1.70
   8  -5  -3   38.00    1.40
  -8   5   3   39.30    1.90
   7  -5  -3    0.60    0.40
   7  -5  -3    0.40    0.50
   7  -5  -3    0.90    0.30
  -7   5   3    0.90    0.60
   6  -5  -3  225.78    7.60
   6  -5  -3  254.37    7.50
   6  -5  -3  222.58    7.50
  -6   5   3  230.58    7.70
   5  -5  -3   19.90    1.00
   5  -5  -3   21.70    0.90
   5  -5  -3   21.00    1.10
  -5   5   3   21.50    1.20
   4  -5  -3  938.91   28.90
  -4   5   3  932.51   28.90
  -4   5   3  906.21   29.00
   3  -5  -3   19.60    0.90
   3  -5  -3   18.20    0.90
   3  -5  -3   17.80    1.10
  -3   5   3   21.60    1.10
  -3   5   3   19.30    1.10
   2  -5  -3   59.99    2.10
   2  -5  -3   60.99    2.20
  -2   5   3   63.79    2.20
  -2   5   3   64.09    2.30
   1  -5  -3   83.99    2.80
   1  -5  -3   79.29    2.60
   1  -5  -3   81.99    2.80
  -1   5   3   81.69    2.80
  -1   5   3   82.89    2.80
   0  -5  -3   14.50    0.90
   0  -5  -3   14.10    0.70
   0   5   3   14.30    0.90
   0   5   3   13.90    0.60
   0   5   3   13.40    0.70
  -1  -5  -3   13.10    0.70
  -1  -5  -3   11.60    0.90
   1   5   3   11.40    0.60
   1   5   3   12.10    0.70
   1   5   3   13.10    0.80
  -2  -5  -3  445.96   13.70
  -2  -5  -3  455.15   13.60
   2   5   3  441.96   13.70
   2   5   3  443.56   13.80
   2   5   3  387.36   13.80
   2   5   3  435.76   13.70
  -3  -5  -3    6.00    0.70
  -3  -5  -3    5.10    0.70
   3   5   3    5.30    0.60
   3   5   3    5.90    0.60
   3   5   3    6.20    0.80
  -4  -5  -3   15.00    0.90
   4   5   3   14.70    1.10
   4   5   3   16.00    1.20
   4   5   3   16.70    1.00
  -5  -5  -3    6.20    0.60
   5   5   3    6.30    0.70
   5   5   3    6.30    0.70
  -6  -5  -3    6.30    0.80
   6   5   3    5.80    0.70
   6   5   3    8.50    0.90
  -7  -5  -3   -0.40    0.50
   7   5   3    0.70    0.60
   7   5   3    0.10    0.40
   8   5   3    9.00    1.20
   8   5   3    7.40    0.70
   9  -6  -3   -0.70    0.40
   9  -6  -3   -0.60    0.30
   9  -6  -3    0.60    0.50
  -9   6   3   -1.30    0.70
   8  -6  -3    0.60    0.50
  -8   6   3    0.40    0.70
   7  -6  -3   32.10    1.30
   7  -6  -3   31.40    1.50
  -7   6   3   32.50    1.60
   6  -6  -3    1.10    0.40
   6  -6  -3    0.20    0.40
  -6   6   3    0.70    0.60
   5  -6  -3    6.00    0.80
   5  -6  -3    8.10    0.70
  -5   6   3    9.00    0.90
   4  -6  -3    8.80    0.70
   4  -6  -3    6.20    0.70
  -4   6   3    9.40    1.00
  -4   6   3    7.50    1.10
   3  -6  -3    0.60    0.30
   3  -6  -3    0.40    0.40
  -3   6   3    1.20    0.60
  -3   6   3    1.30    0.50
   2  -6  -3   10.40    0.80
   2  -6  -3   11.70    0.70
   1  -6  -3    4.00    0.60
   1  -6  -3    3.50    0.50
   1  -6  -3    4.20    0.60
  -1   6   3    4.30    0.60
  -1   6   3    3.90    0.60
   0  -6  -3    1.70    0.40
   0  -6  -3    1.20    0.50
   0  -6  -3    1.40    0.30
   0   6   3    2.10    0.70
   0   6   3    1.30    0.40
  -1  -6  -3   50.89    1.80
  -1  -6  -3   52.19    2.00
  -1  -6  -3   51.69    1.80
   1   6   3   49.90    1.90
   1   6   3   52.39    2.00
  -2  -6  -3  110.29    3.90
  -2  -6  -3  108.59    3.70
  -2  -6  -3  116.19    3.70
   2   6   3  111.49    3.80
   2   6   3  115.19    3.80
  -3  -6  -3    4.50    0.50
  -3  -6  -3    4.00    0.50
   3   6   3    4.60    0.70
   3   6   3    4.20    0.60
  -4  -6  -3    9.60    0.80
  -4  -6  -3    9.70    0.90
   4   6   3   10.00    0.80
   4   6   3    9.00    0.90
  -5  -6  -3    1.20    0.50
   5   6   3    2.00    0.50
   5   6   3    2.00    0.40
  -6  -6  -3    4.80    0.60
   6   6   3    5.60    0.70
   6   6   3    5.40    0.70
  -7  -6  -3    5.60    0.70
   7   6   3    3.90    0.80
   7   6   3    4.30    0.80
   9  -7  -3    5.80    0.70
   9  -7  -3    4.60    0.70
  -9   7   3    3.10    0.90
   8  -7  -3   13.70    0.90
   8  -7  -3   15.30    1.10
  -8   7   3   14.00    1.40
   7  -7  -3    0.60    0.40
   7  -7  -3    0.10    0.40
  -7   7   3    0.00    0.60
   6  -7  -3    1.20    0.50
   6  -7  -3    1.30    0.40
  -6   7   3    1.50    0.60
   5  -7  -3   28.10    1.30
   5  -7  -3   29.50    1.30
  -5   7   3   28.10    1.50
   4  -7  -3   -0.10    0.50
   4  -7  -3    0.30    0.40
  -4   7   3    0.70    0.50
   3  -7  -3   14.10    1.00
   3  -7  -3   13.80    0.90
  -3   7   3   12.40    1.20
  -3   7   3   13.30    1.50
   2  -7  -3  101.79    3.60
   2  -7  -3  102.09    3.50
  -2   7   3  104.69    3.60
  -2   7   3  101.19    3.60
   1  -7  -3   21.60    1.40
   1  -7  -3   20.70    1.10
   1  -7  -3   19.60    0.90
  -1   7   3   19.30    1.10
  -1   7   3   19.50    1.30
   0  -7  -3  100.59    3.40
   0  -7  -3  102.39    3.60
   0  -7  -3  100.89    3.40
   0   7   3  101.39    3.50
   0   7   3  106.39    3.60
  -1  -7  -3    1.80    0.70
  -1  -7  -3    1.70    0.40
  -1  -7  -3    1.40    0.50
   1   7   3    1.70    0.70
   1   7   3    1.00    0.50
  -2  -7  -3    4.10    1.20
  -2  -7  -3    6.00    0.80
  -2  -7  -3    4.50    0.50
   2   7   3    4.30    0.70
   2   7   3    5.50    0.80
  -3  -7  -3    0.50    0.50
  -3  -7  -3    1.00    0.40
   3   7   3    0.70    0.40
   3   7   3    0.60    0.50
  -4  -7  -3    0.40    0.60
  -4  -7  -3    0.80    0.40
   4   7   3    0.60    0.50
   4   7   3    0.50    0.60
  -5  -7  -3   38.20    1.70
   5   7   3   37.90    1.70
   5   7   3   37.80    1.70
  -6  -7  -3   12.80    1.10
   6   7   3   13.90    1.20
   6   7   3   13.70    1.00
   8  -8  -3    2.10    0.50
   8  -8  -3    2.20    0.60
  -8   8   3    2.10    0.90
   7  -8  -3    1.40    0.60
   7  -8  -3    0.60    0.40
  -7   8   3    0.90    0.70
   6  -8  -3    9.40    1.00
   6  -8  -3   11.20    0.90
  -6   8   3    9.10    1.20
   5  -8  -3   -0.60    0.40
   5  -8  -3   -0.70    0.40
  -5   8   3    0.20    0.60
   4  -8  -3    0.70    0.40
   4  -8  -3    0.80    0.40
  -4   8   3   -0.10    0.50
   3  -8  -3   -0.10    0.40
   3  -8  -3   -0.70    0.60
  -3   8   3    0.20    0.50
  -3   8   3   -0.20    0.80
   2  -8  -3  105.99    3.60
  -2   8   3   97.89    3.60
  -2   8   3  102.69    3.70
   1  -8  -3    2.30    0.40
   1  -8  -3    2.30    0.50
   1  -8  -3    1.90    0.70
  -1   8   3    2.40    0.50
  -1   8   3    2.00    0.70
   0  -8  -3   31.70    1.40
   0  -8  -3   30.20    1.30
   0  -8  -3   31.40    1.70
   0   8   3   30.00    1.40
   0   8   3   32.10    1.70
  -1  -8  -3   58.29    2.10
  -1  -8  -3   57.19    2.50
  -1  -8  -3   55.19    2.10
   1   8   3   54.19    2.20
   1   8   3   57.19    2.30
  -2  -8  -3    2.30    0.50
  -2  -8  -3    2.30    0.60
   2   8   3    1.70    0.60
   2   8   3    2.80    0.60
  -3  -8  -3   27.50    1.40
  -3  -8  -3   26.80    1.30
   3   8   3   26.90    1.50
   3   8   3   28.70    1.40
  -4  -8  -3    3.00    0.50
   4   8   3    2.40    0.70
   4   8   3    3.10    0.60
  -5  -8  -3   33.10    1.50
   5   8   3   30.50    1.60
   5   8   3   31.00    1.70
   7  -9  -3    3.00    0.80
   7  -9  -3    4.30    0.70
  -7   9   3    5.20    1.00
   6  -9  -3   13.90    1.10
   6  -9  -3   15.60    1.10
  -6   9   3   12.00    1.30
   5  -9  -3    0.30    0.50
   5  -9  -3   -0.30    0.50
  -5   9   3    0.30    0.60
   4  -9  -3    0.70    0.50
   4  -9  -3    1.00    0.50
  -4   9   3    0.40    0.60
   3  -9  -3    9.40    1.00
   3  -9  -3   12.10    0.90
  -3   9   3   10.30    1.00
   2  -9  -3   -0.20    0.80
   2  -9  -3    0.10    0.50
  -2   9   3    0.80    0.40
  -2   9   3    0.80    0.90
   1  -9  -3    2.10    0.90
   1  -9  -3    2.00    0.50
   1  -9  -3    1.80    0.50
  -1   9   3    3.30    1.40
  -1   9   3    2.10    0.50
   0  -9  -3   14.80    1.00
   0  -9  -3   13.70    1.70
   0   9   3   15.70    1.50
   0   9   3   15.40    1.10
  -1  -9  -3    0.90    0.70
  -1  -9  -3    0.70    0.50
   1   9   3    1.20    0.50
   1   9   3    1.10    0.60
  -2  -9  -3   11.80    1.30
  -2  -9  -3   13.10    0.90
   2   9   3   12.00    1.20
   2   9   3   11.50    1.30
  -3  -9  -3    2.40    0.60
   3   9   3    1.50    0.70
   3   9   3    1.80    0.70
  -4  -9  -3    1.00    0.60
   4   9   3    0.00    0.60
   4   9   3   -0.20    0.70
   6 -10  -3    4.40    0.70
   6 -10  -3    5.30    0.70
  -6  10   3    4.60    0.90
   5 -10  -3    8.90    1.10
   5 -10  -3    5.70    0.70
  -5  10   3    4.80    1.00
   4 -10  -3    2.40    0.70
   4 -10  -3    2.20    0.70
  -4  10   3    2.20    0.70
   3 -10  -3   -1.10    0.60
   3 -10  -3   -0.40    0.60
  -3  10   3    0.80    0.70
   2 -10  -3    0.00    0.60
   2 -10  -3    0.50    0.50
  -2  10   3    1.50    0.60
   1 -10  -3   16.40    2.20
   1 -10  -3   17.60    1.20
  -1  10   3   14.90    1.20
  -1  10   3   15.10    1.90
   0 -10  -3    2.50    1.30
   0 -10  -3    4.00    0.60
   0  10   3    3.50    0.80
   0  10   3    3.40    0.70
  -1 -10  -3   33.20    1.50
  -1 -10  -3   37.70    1.60
   1  10   3   34.70    1.80
   1  10   3   36.40    1.90
  -2 -10  -3    2.90    0.70
   2  10   3    4.30    0.80
   2  10   3    1.80    0.80
  -3 -10  -3    0.20    0.60
   3  10   3    0.00    0.80
   3  10   3    0.20    0.70
   4 -11  -3    1.00    0.70
   4 -11  -3   -0.40    0.70
  -4  11   3    1.00    0.60
   3 -11  -3    3.80    0.70
   3 -11  -3    2.20    0.80
  -3  11   3    3.10    0.70
   2 -11  -3   44.10    2.20
   2 -11  -3   42.30    2.00
  -2  11   3   40.90    2.20
   1 -11  -3   35.80    2.00
   1 -11  -3   33.90    1.80
  -1  11   3   34.50    1.80
   0 -11  -3    8.30    0.90
   0  11   3    8.90    1.10
   0  11   3   11.20    1.20
   1  11   3    0.90    0.90
   1  11   3   -1.10    0.90
   1  12  -4   11.60    1.90
   1  12  -4   14.50    1.60
  -1 -12   4   12.30    1.00
   0  12  -4   62.59    2.70
   0  12  -4   54.29    2.60
   0 -12   4   55.89    2.20
   0 -12   4   59.49    2.60
  -1  12  -4   21.50    1.50
   1 -12   4   19.00    1.20
   1 -12   4   18.50    1.10
   1 -12   4   20.80    1.60
  -2  12  -4   34.10    1.70
   2 -12   4   31.60    1.80
   2 -12   4   29.30    1.60
   2 -12   4   30.00    1.40
  -3  12  -4    3.50    0.70
   3 -12   4    2.60    0.70
   3 -12   4    1.60    0.70
  -4  12  -4   20.80    1.50
   4 -12   4   18.20    1.40
   4 -12   4   20.20    1.40
  -5  12  -4    8.30    1.20
   5 -12   4    5.70    0.90
   5 -12   4    7.00    0.90
   3  11  -4    2.00    0.80
   3  11  -4    0.50    0.70
  -3 -11   4    0.60    0.60
   2  11  -4    1.10    0.70
   2  11  -4    3.40    0.80
  -2 -11   4    2.30    0.60
   1  11  -4    4.80    0.90
   1  11  -4    4.50    0.80
  -1 -11   4    5.70    0.70
   0  11  -4    1.30    0.70
   0  11  -4   -0.20    1.20
   0 -11   4    0.50    0.70
   0 -11   4    1.10    0.90
   0 -11   4    1.20    0.40
  -1  11  -4   21.10    1.40
  -1  11  -4   21.40    2.00
   1 -11   4   19.70    1.10
   1 -11   4   22.60    1.40
   1 -11   4   21.20    1.40
  -2  11  -4    1.30    0.60
   2 -11   4    0.00    0.50
   2 -11   4    0.40    0.50
  -3  11  -4    3.80    0.70
   3 -11   4    4.00    0.60
   3 -11   4    3.00    0.60
   3 -11   4    3.30    0.60
  -4  11  -4    3.90    0.70
   4 -11   4    2.60    0.60
   4 -11   4    3.40    0.60
  -5  11  -4    3.70    0.70
   5 -11   4    2.90    0.70
   5 -11   4    3.00    0.70
  -6  11  -4    3.90    0.70
   6 -11   4    2.00    0.70
   6 -11   4    2.30    0.60
   5  10  -4   -0.10    0.70
   5  10  -4    1.40    0.70
  -5 -10   4    2.00    0.70
   4  10  -4    5.30    1.00
   4  10  -4    3.50    0.70
  -4 -10   4    4.20    0.60
   3  10  -4    8.50    1.20
   3  10  -4   11.50    1.20
  -3 -10   4    9.70    0.90
   2  10  -4    2.00    0.70
   2  10  -4    0.80    0.60
  -2 -10   4    0.90    0.50
   1  10  -4    7.00    1.10
   1  10  -4    8.50    1.00
  -1 -10   4    7.70    1.00
  -1 -10   4    6.70    0.70
   0  10  -4    1.10    0.80
   0  10  -4    1.40    0.70
   0 -10   4    0.70    0.40
   0 -10   4    1.40    0.60
   0 -10   4    0.90    0.70
  -1  10  -4   17.80    1.70
  -1  10  -4   19.00    1.20
   1 -10   4   15.80    1.20
   1 -10   4   16.80    1.00
   1 -10   4   18.00    1.40
  -2  10  -4    5.20    1.50
  -2  10  -4    5.00    0.70
   2 -10   4    5.10    0.70
   2 -10   4    5.00    0.80
   2 -10   4    4.40    0.60
  -3  10  -4   -0.40    0.50
   3 -10   4    0.30    0.50
   3 -10   4    0.10    0.50
   3 -10   4    0.40    0.50
  -4  10  -4    1.40    0.50
   4 -10   4    0.70    0.50
   4 -10   4    0.80    0.50
   4 -10   4    0.60    0.50
  -5  10  -4    1.50    0.50
   5 -10   4   -0.30    0.50
   5 -10   4    0.00    0.50
  -6  10  -4   -0.50    0.60
   6 -10   4   -0.20    0.50
   6 -10   4    0.20    0.40
  -7  10  -4    0.50    0.70
   7 -10   4    1.10    0.50
   7 -10   4   -0.10    0.60
   6   9  -4    1.70    0.70
   6   9  -4    0.40    0.70
  -6  -9   4    1.10    0.60
   5   9  -4    4.20    0.70
   5   9  -4    3.50    0.80
  -5  -9   4    3.50    0.60
   4   9  -4    3.00    0.60
   4   9  -4    3.10    0.70
  -4  -9   4    3.40    0.50
   3   9  -4    9.00    1.00
   3   9  -4    7.70    1.00
  -3  -9   4    8.70    0.80
   2   9  -4   33.90    1.90
   2   9  -4   32.40    1.60
  -2  -9   4   33.30    1.40
  -2  -9   4   32.50    1.90
   1   9  -4    3.20    0.70
   1   9  -4    3.30    0.70
  -1  -9   4    3.20    0.80
  -1  -9   4    3.50    0.50
  -1  -9   4    4.90    0.60
   0   9  -4   20.40    1.30
   0   9  -4   23.50    1.50
   0  -9   4   22.10    1.10
   0  -9   4   22.90    1.10
   0  -9   4   22.20    1.40
  -1   9  -4    9.90    0.90
  -1   9  -4   10.10    1.30
   1  -9   4    9.90    0.90
   1  -9   4   10.00    0.80
   1  -9   4    9.90    1.10
  -2   9  -4    1.40    0.80
  -2   9  -4    2.20    0.50
   2  -9   4    1.30    0.50
   2  -9   4    1.50    0.40
   2  -9   4    1.90    0.60
  -3   9  -4    3.10    0.50
   3  -9   4    2.80    0.50
   3  -9   4    1.90    0.70
   3  -9   4    2.40    0.70
  -4   9  -4   12.40    0.90
   4  -9   4   11.10    0.90
   4  -9   4   10.20    0.90
   4  -9   4   11.20    0.80
  -5   9  -4    8.00    0.90
   5  -9   4    7.10    0.80
   5  -9   4    6.00    0.80
   5  -9   4    8.20    0.80
  -6   9  -4   11.60    1.10
   6  -9   4   11.70    1.00
   6  -9   4   13.30    0.90
  -7   9  -4   11.80    1.20
   7  -9   4   12.20    1.10
   7  -9   4   14.40    0.90
  -8   9  -4   -0.40    0.80
   8  -9   4    0.70    0.60
   8  -9   4    1.40    0.50
   7   8  -4    4.30    0.70
   7   8  -4    6.10    0.90
  -7  -8   4    5.30    0.70
   6   8  -4    4.40    0.90
   6   8  -4    3.80    0.70
  -6  -8   4    3.10    0.60
   5   8  -4   10.00    1.00
   5   8  -4   11.10    1.20
  -5  -8   4    9.70    0.90
   4   8  -4   33.80    1.60
   4   8  -4   33.20    1.50
  -4  -8   4   32.60    1.40
   3   8  -4    6.40    0.90
   3   8  -4    8.30    0.90
  -3  -8   4    9.10    0.70
   2   8  -4   33.20    1.50
   2   8  -4   31.10    1.60
  -2  -8   4   30.20    1.50
   1   8  -4  423.86   13.10
   1   8  -4  390.86   13.40
  -1  -8   4  411.56   13.00
  -1  -8   4  422.16   13.10
  -1  -8   4  416.16   12.90
   0   8  -4  236.88    7.60
   0   8  -4  235.08    7.60
   0  -8   4  238.88    7.40
   0  -8   4  232.38    7.60
   0  -8   4  226.48    7.40
  -1   8  -4    1.50    0.60
   1  -8   4    1.20    0.40
   1  -8   4    1.00    0.50
  -2   8  -4  155.48    5.10
  -2   8  -4  140.89    5.50
   2  -8   4  158.28    5.00
   2  -8   4  157.88    4.90
  -3   8  -4  390.86   12.40
  -3   8  -4  380.46   12.40
   3  -8   4  393.36   12.40
   3  -8   4  386.76   12.40
   3  -8   4  402.76   12.30
  -4   8  -4  219.38    7.00
   4  -8   4  220.18    6.80
   4  -8   4  202.08    7.00
  -5   8  -4    0.70    0.60
   5  -8   4    1.20    0.40
   5  -8   4    0.00    0.40
   5  -8   4    0.40    0.30
  -6   8  -4    9.70    1.00
   6  -8   4   10.80    0.80
   6  -8   4   10.80    0.70
   6  -8   4    8.90    0.90
  -7   8  -4   30.60    1.60
   7  -8   4   30.40    1.20
   7  -8   4   28.70    1.50
   7  -8   4   28.10    1.40
  -8   8  -4    0.20    0.70
   8  -8   4   -0.60    0.60
   8  -8   4    0.30    0.30
   8  -8   4   -0.20    0.50
  -9   8  -4    1.20    0.90
   9  -8   4    1.60    0.70
   7   7  -4    1.60    0.50
   7   7  -4    0.60    0.60
  -7  -7   4    1.80    0.60
   6   7  -4    1.70    0.60
   6   7  -4    2.10    0.50
  -6  -7   4    2.20    0.50
   5   7  -4    6.10    0.90
   5   7  -4    4.70    0.60
  -5  -7   4    6.00    0.70
   4   7  -4    6.10    0.80
   4   7  -4    5.30    0.70
  -4  -7   4    5.70    0.70
   3   7  -4    1.00    0.60
   3   7  -4   -0.60    0.50
  -3  -7   4   -0.10    0.70
   2   7  -4    6.20    0.80
   2   7  -4    6.80    0.70
  -2  -7   4    7.90    1.00
  -2  -7   4    7.20    0.60
   1   7  -4    3.00    0.50
  -1  -7   4    4.80    0.50
  -1  -7   4    3.80    0.40
  -1  -7   4    3.70    0.60
   0   7  -4    0.00    0.50
   0   7  -4   -0.60    0.30
   0  -7   4    0.40    0.30
   0  -7   4    0.40    0.30
   0  -7   4    0.30    0.40
  -1   7  -4   53.59    2.10
  -1   7  -4   54.69    2.00
   1  -7   4   53.29    1.90
   1  -7   4   53.39    1.90
  -2   7  -4    6.80    0.70
  -2   7  -4    6.60    0.70
   2  -7   4    6.20    0.60
   2  -7   4    5.80    0.70
   2  -7   4    7.20    0.50
  -3   7  -4  132.69    4.40
  -3   7  -4  132.59    4.40
   3  -7   4  134.29    4.40
   3  -7   4  137.99    4.30
   3  -7   4  130.59    4.40
   3  -7   4  126.99    4.40
  -4   7  -4   50.99    1.90
   4  -7   4   47.80    2.00
   4  -7   4   50.89    1.90
   4  -7   4   50.39    1.80
   4  -7   4   50.29    1.70
  -5   7  -4   71.29    2.60
   5  -7   4   68.49    2.30
   5  -7   4   66.99    2.50
   5  -7   4   69.59    2.50
   5  -7   4   70.79    2.40
  -6   7  -4   11.70    1.10
   6  -7   4   12.00    0.80
   6  -7   4   10.30    0.90
   6  -7   4   11.40    0.70
   6  -7   4   10.70    0.90
  -7   7  -4   37.10    2.20
   7  -7   4   38.40    1.70
   7  -7   4   38.70    1.60
   7  -7   4   39.80    1.50
   7  -7   4   39.70    1.40
  -8   7  -4    0.00    0.60
   8  -7   4    0.20    0.60
   8  -7   4    0.30    0.30
   8  -7   4    0.10    0.60
  -9   7  -4   57.19    2.50
   9  -7   4   61.29    2.40
   8   6  -4   -0.40    0.40
   8   6  -4   -0.20    0.60
  -8  -6   4    0.40    0.50
   7   6  -4   -0.10    0.50
   7   6  -4    0.00    0.40
  -7  -6   4    0.50    0.50
   6   6  -4    2.00    0.50
   6   6  -4    2.10    0.50
  -6  -6   4    2.80    0.50
   5   6  -4    0.50    0.40
  -5  -6   4    0.40    0.40
   4   6  -4    1.10    0.40
  -4  -6   4    0.70    0.50
   3   6  -4   20.80    1.10
   3   6  -4   22.50    1.10
   3   6  -4   20.00    1.50
  -3  -6   4   22.00    1.00
  -3  -6   4   21.30    1.20
   2   6  -4   68.69    2.50
   2   6  -4   71.89    2.50
  -2  -6   4   69.79    2.50
  -2  -6   4   67.09    2.30
   1   6  -4   15.20    0.80
   1   6  -4   12.10    0.80
  -1  -6   4   12.80    0.60
  -1  -6   4   12.90    0.90
  -1  -6   4   10.40    0.80
   0   6  -4  236.18    7.70
   0   6  -4  245.48    7.70
   0  -6   4  238.38    7.60
   0  -6   4  244.88    7.60
  -1   6  -4    4.50    0.50
  -1   6  -4    4.40    0.50
   1  -6   4    4.60    0.60
   1  -6   4    4.90    0.50
   1  -6   4    4.70    0.40
  -2   6  -4   34.90    1.40
  -2   6  -4   34.50    1.30
   2  -6   4   34.00    1.30
   2  -6   4   34.90    1.20
   2  -6   4   32.70    1.60
   2  -6   4   33.20    1.30
  -3   6  -4   43.40    1.60
  -3   6  -4   42.60    1.70
   3  -6   4   43.10    1.50
   3  -6   4   42.50    1.60
   3  -6   4   44.70    1.60
  -4   6  -4   63.79    2.20
   4  -6   4   61.69    2.20
   4  -6   4   61.39    2.10
   4  -6   4   59.59    2.20
   4  -6   4   61.09    2.10
  -5   6  -4   29.00    1.30
   5  -6   4   30.20    1.30
   5  -6   4   28.00    1.10
   5  -6   4   26.50    1.10
   5  -6   4   27.20    1.20
  -6   6  -4    7.40    1.00
   6  -6   4    6.30    0.70
   6  -6   4    9.00    0.50
   6  -6   4    5.70    0.70
   6  -6   4    7.30    0.60
  -7   6  -4   34.80    1.70
   7  -6   4   34.80    1.30
   7  -6   4   36.20    1.40
   7  -6   4   34.80    1.60
   7  -6   4   34.20    1.30
  -8   6  -4    6.40    0.80
   8  -6   4    6.80    0.90
   8  -6   4    6.40    0.90
  -9   6  -4    7.00    0.90
   9  -6   4    8.50    1.00
   9   5  -4    1.90    0.80
   9   5  -4    1.60    0.50
  -9  -5   4    2.30    0.60
   8   5  -4    0.90    0.60
   8   5  -4    0.40    0.40
  -8  -5   4    0.80    0.60
   7   5  -4    4.70    0.60
   7   5  -4    6.00    1.00
  -7  -5   4    6.30    0.80
   6   5  -4    2.20    0.60
   6   5  -4    2.80    0.40
  -6  -5   4    2.70    0.50
   5   5  -4    2.40    0.50
   5   5  -4    2.50    0.60
   5   5  -4    2.70    0.50
  -5  -5   4    3.00    0.50
   4   5  -4    0.20    0.50
   4   5  -4   -0.40    0.30
   4   5  -4    0.40    0.30
  -4  -5   4    0.20    0.60
  -4  -5   4    0.30    0.30
   3   5  -4   -0.30    0.50
   3   5  -4   -0.10    0.20
   3   5  -4    0.20    0.30
  -3  -5   4   -0.20    0.50
  -3  -5   4    0.20    0.30
   2   5  -4   74.89    2.50
   2   5  -4   72.59    2.50
  -2  -5   4   73.89    2.50
   1   5  -4   85.79    3.00
   1   5  -4   84.59    3.00
  -1  -5   4  102.19    3.20
  -1  -5   4   82.99    2.90
   0   5  -4    0.30    0.20
   0   5  -4    0.80    0.30
   0  -5   4    0.40    0.20
   0  -5   4    0.40    0.20
   0  -5   4    0.40    0.30
  -1   5  -4    7.80    0.50
  -1   5  -4    8.10    0.60
   1  -5   4    8.80    0.50
   1  -5   4    8.20    0.50
   1  -5   4    8.50    0.50
  -2   5  -4   57.49    1.90
  -2   5  -4   55.89    2.00
   2  -5   4   55.99    1.90
   2  -5   4   54.59    1.90
   2  -5   4   56.49    1.90
   2  -5   4   54.59    2.00
  -3   5  -4   50.49    1.80
  -3   5  -4   48.90    1.80
   3  -5   4   52.49    1.80
   3  -5   4   52.59    1.70
   3  -5   4   51.19    1.80
   3  -5   4   50.89    1.80
  -4   5  -4   13.90    0.80
   4  -5   4   12.80    0.70
   4  -5   4   12.80    0.70
   4  -5   4   12.90    0.60
   4  -5   4   12.80    0.60
  -5   5  -4    7.40    0.80
   5  -5   4    7.20    0.70
   5  -5   4    7.00    0.60
   5  -5   4    7.50    0.60
   5  -5   4    6.60    0.50
  -6   5  -4   39.90    1.70
   6  -5   4   40.70    1.40
   6  -5   4   42.00    1.50
   6  -5   4   39.00    1.50
  -7   5  -4    0.10    0.60
   7  -5   4    0.60    0.40
   7  -5   4    0.90    0.40
  -8   5  -4    2.20    0.80
   8  -5   4    3.60    0.60
   8  -5   4    2.60    0.50
  -9   5  -4   -0.30    0.60
   9  -5   4    1.20    0.50
   9  -5   4    1.70    0.50
 -10   5  -4    2.10    0.80
  10  -5   4    3.30    0.60
  10  -5   4    2.60    0.70
   9   4  -4    9.80    1.20
  -9  -4   4   10.60    1.10
   8   4  -4    0.10    0.50
   8   4  -4    0.20    0.30
   8   4  -4   -0.10    0.50
  -8  -4   4   -0.50    0.40
   7   4  -4    7.00    0.60
   7   4  -4    5.80    0.70
   7   4  -4    7.20    0.90
  -7  -4   4    5.50    0.70
   6   4  -4    0.90    0.50
   6   4  -4    0.90    0.40
   6   4  -4    0.30    0.30
  -6  -4   4    0.90    0.40
   5   4  -4   58.89    2.20
   5   4  -4   60.09    2.20
   5   4  -4   61.49    2.10
  -5  -4   4   58.69    2.10
   4   4  -4   69.79    2.50
   4   4  -4   72.49    2.40
   4   4  -4   71.89    2.50
  -4  -4   4   70.99    2.50
  -4  -4   4   70.49    2.40
   3   4  -4   10.90    0.60
   3   4  -4   10.90    0.60
   3   4  -4    9.40    0.90
  -3  -4   4   11.30    0.60
  -3  -4   4   10.50    0.80
   2   4  -4    0.20    0.20
   2   4  -4    0.30    0.20
   2   4  -4    0.20    0.30
  -2  -4   4    0.50    0.20
  -2  -4   4    0.30    0.30
   1   4  -4  272.37    8.20
   1   4  -4  256.67    8.10
  -1  -4   4  249.88    8.10
  -1  -4   4  256.17    8.20
   0   4  -4   76.49    2.60
   0  -4   4   79.29    2.60
   0  -4   4   77.09    2.50
   0  -4   4   79.59    2.50
  -1   4  -4  264.67    8.40
  -1   4  -4  278.47    8.30
   1  -4   4  263.27    8.30
   1  -4   4  262.97    8.40
   1  -4   4  258.27    8.40
   1  -4   4  262.97    8.30
  -2   4  -4    3.70    0.40
  -2   4  -4    3.40    0.40
   2  -4   4    2.70    0.30
   2  -4   4    3.30    0.30
   2  -4   4    2.80    0.30
  -3   4  -4   54.59    1.80
  -3   4  -4   53.09    1.90
   3  -4   4   51.99    1.80
   3  -4   4   52.89    1.80
   3  -4   4   52.89    1.80
   3  -4   4   52.79    1.80
  -4   4  -4   13.20    0.70
   4  -4   4   14.20    0.70
   4  -4   4   14.00    0.60
   4  -4   4   13.30    0.70
   4  -4   4   13.70    0.60
  -5   4  -4    0.90    0.40
   5  -4   4    2.10    0.30
   5  -4   4    1.60    0.30
   5  -4   4    2.00    0.30
   5  -4   4    2.20    0.30
  -6   4  -4   19.20    1.10
   6  -4   4   21.10    1.00
   6  -4   4   19.60    0.90
   6  -4   4   21.20    0.80
  -7   4  -4    6.90    1.00
   7  -4   4   10.00    0.80
   7  -4   4   10.50    0.80
  -8   4  -4   27.50    1.60
   8  -4   4   31.00    1.40
   8  -4   4   31.10    1.40
  -9   4  -4    2.50    0.60
   9  -4   4    2.10    0.50
   9  -4   4    1.50    0.50
 -10   4  -4    2.50    0.80
  10  -4   4    4.00    0.70
  10  -4   4    2.60    0.60
   9   3  -4   58.29    2.70
  -9  -3   4   56.89    2.20
   8   3  -4    8.30    1.00
   8   3  -4    5.90    0.80
   8   3  -4    7.40    0.60
  -8  -3   4    6.30    0.80
   7   3  -4    6.30    0.80
   7   3  -4    6.60    0.50
   7   3  -4    6.90    0.80
  -7  -3   4    5.10    0.50
   6   3  -4   35.60    1.40
   6   3  -4   34.80    1.50
  -6  -3   4   35.50    1.40
   5   3  -4    6.30    0.70
   5   3  -4    5.30    0.50
   5   3  -4    5.30    0.70
  -5  -3   4    5.60    0.50
   4   3  -4   61.39    2.00
   4   3  -4   57.99    2.10
   4   3  -4   60.79    2.10
  -4  -3   4   59.29    2.20
  -4  -3   4   60.29    2.00
   3   3  -4   22.80    0.90
   3   3  -4   24.00    1.00
  -3  -3   4   22.00    1.00
  -3  -3   4   23.30    0.90
   2   3  -4   86.99    2.90
   2   3  -4   82.99    2.90
   2   3  -4   88.19    2.80
  -2  -3   4   88.89    2.90
  -2  -3   4   86.79    2.80
   1   3  -4   91.99    2.90
   1   3  -4   89.89    3.00
   1   3  -4   90.59    3.00
  -1  -3   4   90.89    2.90
  -1  -3   4   90.39    3.00
   0   3  -4   66.19    2.20
   0   3  -4   65.09    2.20
   0   3  -4   67.29    2.20
   0  -3   4   65.09    2.20
   0  -3   4   68.39    2.20
  -1   3  -4   95.99    2.90
  -1   3  -4   88.19    2.90
   1  -3   4   88.59    2.90
   1  -3   4   90.99    2.90
   1  -3   4   90.59    2.90
   1  -3   4   84.79    2.90
  -2   3  -4   73.49    2.40
  -2   3  -4   80.89    2.40
   2  -3   4   73.49    2.40
   2  -3   4   73.99    2.40
   2  -3   4   69.99    2.40
  -3   3  -4    3.90    0.50
   3  -3   4    3.20    0.30
   3  -3   4    3.40    0.40
   3  -3   4    3.20    0.40
   3  -3   4    3.20    0.30
  -4   3  -4   -0.50    0.20
   4  -3   4    0.20    0.20
   4  -3   4    0.20    0.20
   4  -3   4    0.20    0.20
   4  -3   4    0.00    0.20
  -5   3  -4    9.40    0.70
   5  -3   4   11.20    0.70
   5  -3   4   11.20    0.60
   6  -3   4    1.90    0.40
   6  -3   4    1.40    0.30
  -7   3  -4   22.80    1.20
   7  -3   4   19.20    1.00
  -8   3  -4   12.00    1.10
   8  -3   4    9.20    0.80
   8  -3   4    7.90    0.80
   9  -3   4   -0.10    0.40
   9  -3   4    0.60    0.50
 -10   3  -4   17.00    1.30
 -10   3  -4   15.70    1.20
  10  -3   4   14.80    1.10
  10   2  -4   30.60    2.20
 -10  -2   4   31.00    1.60
   9   2  -4    2.00    0.70
  -9  -2   4    2.50    0.60
   8   2  -4    8.20    0.50
   8   2  -4    7.90    1.00
  -8  -2   4    6.50    0.80
   7   2  -4    7.50    0.50
   7   2  -4    7.50    0.70
   7   2  -4    7.80    0.70
   7   2  -4    6.50    0.80
  -7  -2   4    6.70    0.80
   6   2  -4   87.09    3.10
   6   2  -4   86.39    2.80
   6   2  -4   82.89    2.80
   6   2  -4   84.59    2.80
  -6  -2   4   85.99    2.90
   5   2  -4    2.10    0.30
   5   2  -4    2.10    0.30
   5   2  -4    2.30    0.50
   5   2  -4    1.90    0.40
  -5  -2   4    2.50    0.30
   4   2  -4    9.90    0.50
   4   2  -4   10.00    0.60
   4   2  -4   10.50    0.60
   4   2  -4   10.60    0.50
  -4  -2   4   11.20    0.60
   3   2  -4    1.90    0.40
   3   2  -4    2.10    0.30
   3   2  -4    1.50    0.30
   3   2  -4    2.30    0.30
  -3  -2   4    2.50    0.30
  -3  -2   4    2.30    0.40
   2   2  -4   65.59    2.20
   2   2  -4   63.99    2.20
   2   2  -4   62.69    2.20
   2   2  -4   70.09    2.10
  -2  -2   4   64.79    2.20
  -2  -2   4   67.19    2.10
   1   2  -4    0.60    0.20
   1   2  -4    0.60    0.20
   1   2  -4    0.90    0.20
  -1  -2   4    0.60    0.20
  -1  -2   4    0.70    0.20
   0   2  -4 2229.98   70.29
   0  -2   4 2255.47   70.39
   0  -2   4 2304.47   70.39
  -1   2  -4   72.19    2.30
  -1   2  -4   67.79    2.30
   1  -2   4   69.69    2.20
   1  -2   4   65.79    2.20
   1  -2   4   69.79    2.20
  -2   2  -4  443.76   13.80
   2  -2   4  462.75   13.90
   2  -2   4  431.46   13.80
   2  -2   4  435.66   13.80
   2  -2   4  444.46   13.80
  -3   2  -4  113.99    3.40
   3  -2   4  107.19    3.50
   3  -2   4  103.19    3.40
   3  -2   4  104.89    3.40
   3  -2   4  105.39    3.40
  -4   2  -4   63.69    2.00
   4  -2   4   59.29    2.00
   4  -2   4   59.39    2.10
   4  -2   4   62.09    2.00
   4  -2   4   58.39    2.00
   5  -2   4   28.10    1.10
   5  -2   4   29.20    1.10
   5  -2   4   27.60    1.10
   6  -2   4   22.60    1.10
   6  -2   4   22.70    1.10
   6  -2   4   23.30    1.00
   7  -2   4    6.80    0.90
   7  -2   4    6.90    0.80
   7  -2   4    7.70    0.70
   8  -2   4    2.80    0.40
   8  -2   4    1.70    0.60
   8  -2   4    2.00    0.50
  -9   2  -4    0.20    0.50
   9  -2   4   -0.30    0.50
   9  -2   4    0.60    0.50
 -10   2  -4   -0.60    0.50
  10  -2   4   -1.00    0.50
  10   1  -4   -0.20    0.60
 -10  -1   4    1.50    0.60
   9   1  -4   -0.30    0.50
   9   1  -4    0.30    0.70
  -9  -1   4    0.00    0.50
   8   1  -4   15.40    1.00
   8   1  -4   13.60    1.00
  -8  -1   4   14.10    0.90
   7   1  -4   27.20    1.00
   7   1  -4   24.80    1.30
   7   1  -4   25.90    1.20
   7   1  -4   26.20    1.10
  -7  -1   4   26.40    1.20
   6   1  -4   34.70    1.30
   6   1  -4   34.50    1.30
   6   1  -4   35.80    1.50
   6   1  -4   35.40    1.30
  -6  -1   4   34.50    1.30
   5   1  -4   29.20    1.20
   5   1  -4   31.30    1.30
   5   1  -4   29.60    1.10
   5   1  -4   30.50    1.10
  -5  -1   4   30.80    1.10
   4   1  -4   53.19    1.80
   4   1  -4   51.79    1.70
   4   1  -4   51.69    1.90
   4   1  -4   52.09    1.80
  -4  -1   4   51.79    1.80
   3   1  -4   59.49    1.90
   3   1  -4   58.09    2.00
   3   1  -4   59.89    1.90
   3   1  -4   54.79    1.90
  -3  -1   4   57.79    2.00
  -3  -1   4   60.59    1.90
   2   1  -4  363.76   11.00
   2   1  -4  357.96   11.10
   2   1  -4  322.27   11.10
   2   1  -4  344.57   11.00
  -2  -1   4  376.16   11.00
  -2  -1   4  350.16   11.00
   1   1  -4  907.91   29.20
   1   1  -4  900.01   29.30
   1   1  -4  957.50   29.20
   1   1  -4  932.21   29.20
  -1  -1   4  980.40   29.20
  -1  -1   4  952.60   29.20
   0   1  -4  115.59    3.70
   0   1  -4  116.79    3.70
   0   1  -4  117.39    3.70
   0  -1   4  118.99    3.70
   0  -1   4  115.29    3.70
  -1   1  -4   44.90    1.40
  -1   1  -4   39.30    1.40
   1  -1   4   41.90    1.40
   1  -1   4   41.80    1.40
  -2   1  -4  339.47   10.80
  -2   1  -4  353.46   10.80
   2  -1   4  339.07   10.80
   2  -1   4  359.76   10.80
   2  -1   4  337.27   10.80
  -3   1  -4   22.10    0.90
   3  -1   4   22.70    0.80
   3  -1   4   21.40    0.80
   3  -1   4   22.10    0.80
   3  -1   4   22.10    0.80
  -4   1  -4  263.07    8.30
   4  -1   4  266.47    8.20
   4  -1   4  264.57    8.20
   4  -1   4  253.07    8.20
   4  -1   4  260.17    8.20
  -5   1  -4  104.09    3.40
   5  -1   4  102.99    3.40
   5  -1   4  103.59    3.40
  -6   1  -4  316.37   10.10
   6  -1   4  319.47   10.10
   6  -1   4  317.97   10.10
  -7   1  -4   17.60    1.00
   7  -1   4   18.50    1.10
  -8   1  -4    2.30    0.50
   8  -1   4    3.10    0.70
   8  -1   4    1.80    0.50
  -9   1  -4   13.20    1.00
   9  -1   4   12.70    0.90
   9  -1   4   12.80    1.10
 -10   1  -4    7.30    1.00
  10  -1   4    8.10    1.00
  10  -1   4    7.80    1.20
  10   0  -4    3.90    0.80
 -10   0   4    4.80    0.70
   9   0  -4   19.20    1.30
   9   0  -4   18.70    1.20
  -9   0   4   19.60    1.10
   8   0  -4    1.50    0.50
   8   0  -4    1.80    0.50
  -8   0   4    1.70    0.50
   7   0  -4   17.80    1.00
   7   0  -4   17.60    1.10
   7   0  -4   17.20    0.80
   7   0  -4   18.00    0.70
  -7   0   4   18.10    0.90
   6   0  -4    7.60    0.60
   6   0  -4    7.30    0.50
   6   0  -4    6.60    0.60
   6   0  -4    7.70    0.70
  -6   0   4    7.50    0.60
   5   0  -4    0.70    0.30
   5   0  -4    0.40    0.30
   5   0  -4    0.50    0.20
   5   0  -4    0.50    0.30
  -5   0   4    0.00    0.20
   4   0  -4  256.87    8.00
   4   0  -4  252.17    8.00
   4   0  -4  249.08    8.10
   4   0  -4  251.67    8.00
  -4   0   4  256.87    8.00
   3   0  -4   15.50    0.70
   3   0  -4   15.80    0.70
   3   0  -4   17.30    0.70
   3   0  -4   17.40    0.70
  -3   0   4   16.20    0.70
  -3   0   4   17.30    0.60
   2   0  -4  182.88    5.30
   2   0  -4  163.88    5.30
   2   0  -4  169.88    5.30
   2   0  -4  171.68    5.40
  -2   0   4  152.78    5.30
  -2   0   4  169.68    5.30
   1   0  -4   66.19    2.20
   1   0  -4   68.59    2.20
   1   0  -4   70.19    2.20
  -1   0   4   68.79    2.20
   0   0  -4 1288.47   38.90
   0   0  -4 1293.57   39.00
   0   0   4 1200.48   38.90
   0   0   4 1250.87   38.90
   0   0   4 1227.68   38.90
  -1   0  -4    7.70    0.40
  -1   0  -4    7.70    0.40
   1   0   4    7.50    0.40
   1   0   4    7.30    0.40
   1   0   4    7.40    0.50
  -2   0  -4   19.70    0.80
  -2   0  -4   20.50    0.80
   2   0   4   19.80    0.70
   2   0   4   19.30    0.70
   2   0   4   19.60    0.80
  -3   0  -4  131.99    4.10
   3   0   4  123.79    4.00
   3   0   4  126.59    4.10
   3   0   4  128.09    4.00
   3   0   4  126.99    4.00
  -4   0  -4   33.70    1.20
   4   0   4   32.40    1.10
   4   0   4   31.80    1.10
   4   0   4   33.40    1.20
   4   0   4   32.00    1.10
   4   0   4   32.30    1.20
  -5   0  -4   27.50    1.10
   5   0   4   28.50    1.10
   5   0   4   29.40    1.00
   5   0   4   28.20    1.20
   5   0   4   27.10    1.00
  -6   0  -4  385.06   12.40
   6   0   4  396.96   12.50
   6   0   4  401.46   12.50
  -7   0  -4    1.10    0.50
   7   0   4    1.40    0.40
   7   0   4    1.50    0.50
   8   0   4   96.89    3.40
   8   0   4   99.79    3.50
  -9   0  -4    2.20    0.50
   9   0   4    2.20    0.60
   9   0   4    1.00    0.50
 -10   0  -4    6.10    0.80
  10   0   4    9.00    1.10
  10   0   4    7.70    1.20
  10  -1  -4    1.10    0.60
  10  -1  -4    0.00    0.50
 -10   1   4    0.40    0.50
   9  -1  -4   -0.30    0.50
   9  -1  -4    0.20    0.40
  -9   1   4   -1.00    0.60
   8  -1  -4    3.80    0.60
   8  -1  -4    3.40    0.60
  -8   1   4    3.70    0.50
   7  -1  -4    0.30    0.30
   7  -1  -4    0.80    0.40
   7  -1  -4    0.60    0.20
   7  -1  -4    0.00    0.40
  -7   1   4    0.10    0.40
   6  -1  -4    6.50    0.50
   6  -1  -4    6.30    0.80
   6  -1  -4    7.60    0.70
   6  -1  -4    6.20    0.60
  -6   1   4    6.30    0.60
   5  -1  -4    9.00    0.80
   5  -1  -4   10.80    0.70
   5  -1  -4    9.80    0.50
   5  -1  -4   10.10    0.60
  -5   1   4    9.90    0.50
   4  -1  -4   -0.30    0.20
   4  -1  -4    0.30    0.20
   4  -1  -4   -0.30    0.30
   4  -1  -4   -0.10    0.20
  -4   1   4    0.50    0.20
   3  -1  -4  161.28    5.20
   3  -1  -4  161.58    5.10
   3  -1  -4  156.58    5.10
  -3   1   4  165.68    5.10
  -3   1   4  159.58    5.10
   2  -1  -4  470.35   14.90
   2  -1  -4  472.55   14.90
   2  -1  -4  465.05   14.90
   2  -1  -4  483.85   14.90
  -2   1   4  479.95   14.90
  -2   1   4  489.65   14.80
   1  -1  -4   67.69    2.30
   1  -1  -4   75.19    2.30
  -1   1   4   69.79    2.30
  -1   1   4   69.09    2.30
  -1   1   4   69.39    2.20
   0  -1  -4  317.37    9.70
   0   1   4  313.97    9.70
   0   1   4  296.57    9.70
   0   1   4  310.97    9.70
  -1  -1  -4   77.39    2.50
  -1  -1  -4   74.59    2.50
   1   1   4   78.69    2.40
   1   1   4   72.69    2.50
   1   1   4   74.39    2.50
   1   1   4   76.79    2.40
  -2  -1  -4    6.20    0.40
  -2  -1  -4    5.70    0.50
   2   1   4    5.70    0.40
   2   1   4    5.40    0.40
   2   1   4    5.10    0.40
  -3  -1  -4    0.20    0.20
   3   1   4    0.20    0.20
   3   1   4   -0.30    0.20
   3   1   4   -0.10    0.20
   3   1   4   -0.20    0.20
   3   1   4    0.10    0.20
  -4  -1  -4    9.10    0.60
   4   1   4    9.20    0.60
   4   1   4    8.80    0.50
   4   1   4    9.20    0.60
   4   1   4    8.40    0.50
  -5  -1  -4   25.20    1.10
   5   1   4   25.80    0.90
   5   1   4   25.30    1.10
   5   1   4   24.90    1.10
   5   1   4   25.70    1.00
  -6  -1  -4   63.69    2.30
   6   1   4   65.89    2.30
  -7  -1  -4    3.90    0.60
   7   1   4    3.50    0.50
   7   1   4    4.30    0.60
  -8  -1  -4    1.30    0.60
   8   1   4    0.50    0.40
  -9  -1  -4   15.50    1.10
   9   1   4   15.60    1.20
   9   1   4   16.30    1.10
  10  -2  -4   10.10    1.20
  10  -2  -4    9.30    1.00
   9  -2  -4   12.50    1.10
   9  -2  -4   12.80    1.00
  -9   2   4   10.50    1.00
   8  -2  -4    1.30    0.50
   8  -2  -4    1.10    0.40
  -8   2   4    0.40    0.50
   7  -2  -4   17.90    0.90
   7  -2  -4   17.60    0.80
   7  -2  -4   17.70    1.00
   7  -2  -4   18.20    1.10
  -7   2   4   16.50    0.90
   6  -2  -4   19.80    1.00
   6  -2  -4   19.10    0.80
   6  -2  -4   19.20    1.10
   6  -2  -4   17.20    0.90
  -6   2   4   18.80    0.80
   5  -2  -4    1.00    0.40
   5  -2  -4    0.70    0.30
   5  -2  -4    1.00    0.30
   5  -2  -4    0.90    0.20
   4  -2  -4    9.40    0.60
   4  -2  -4    9.00    0.50
   4  -2  -4    8.00    0.50
   4  -2  -4    7.60    0.60
  -4   2   4    7.70    0.70
   3  -2  -4   19.00    0.80
   3  -2  -4   19.70    0.80
  -3   2   4   19.00    0.90
   2  -2  -4    1.10    0.30
   2  -2  -4    1.70    0.30
   2  -2  -4    2.00    0.30
  -2   2   4    1.80    0.30
   1  -2  -4   13.60    0.60
   1  -2  -4   10.20    0.60
  -1   2   4   10.10    0.50
  -1   2   4   13.20    0.70
   0  -2  -4  165.78    4.90
   0  -2  -4  145.09    4.90
   0   2   4  142.49    4.90
   0   2   4  148.99    4.80
   0   2   4  158.88    4.90
  -1  -2  -4    0.20    0.30
   1   2   4    0.30    0.30
   1   2   4    0.30    0.20
   1   2   4    0.20    0.20
   1   2   4    0.30    0.20
  -2  -2  -4   45.50    1.50
  -2  -2  -4   40.60    1.60
   2   2   4   44.70    1.50
   2   2   4   45.40    1.50
  -3  -2  -4    8.60    0.50
   3   2   4    8.40    0.50
   3   2   4    7.50    0.50
   3   2   4    8.10    0.50
   3   2   4    8.10    0.60
  -4  -2  -4    0.10    0.30
   4   2   4   -0.30    0.20
   4   2   4    0.00    0.30
   4   2   4   -0.10    0.30
   4   2   4    0.00    0.30
  -5  -2  -4    1.50    0.40
   5   2   4    1.50    0.30
   5   2   4    1.70    0.40
   5   2   4    1.50    0.30
   5   2   4    1.50    0.30
  -6  -2  -4    4.60    0.50
   6   2   4    4.70    0.60
   6   2   4    3.10    0.40
   6   2   4    3.70    0.50
   6   2   4    3.70    0.40
  -7  -2  -4    1.00    0.50
   7   2   4    1.30    0.60
   7   2   4    1.50    0.50
  -8  -2  -4    1.10    0.60
   8   2   4    1.20    0.50
   8   2   4    0.00    0.50
   9   2   4    0.80    0.60
   9   2   4   -0.70    0.60
  10  -3  -4    0.90    0.50
 -10   3   4    2.70    0.60
   9  -3  -4    1.30    0.50
  -9   3   4    1.20    0.60
   8  -3  -4    6.40    0.80
   8  -3  -4    7.40    0.70
   8  -3  -4    7.80    0.50
  -8   3   4    7.70    0.90
   7  -3  -4    4.60    0.50
   7  -3  -4    5.40    0.70
  -7   3   4    5.00    0.80
   6  -3  -4   38.70    1.40
   6  -3  -4   37.90    1.50
   6  -3  -4   39.40    1.60
  -6   3   4   37.70    1.60
   5  -3  -4   62.59    2.10
   5  -3  -4   62.09    2.10
   5  -3  -4   63.49    2.20
  -5   3   4   57.19    2.20
   4  -3  -4   99.59    3.30
   4  -3  -4  100.59    3.30
   4  -3  -4  101.39    3.30
  -4   3   4   96.49    3.30
  -4   3   4   96.99    3.30
   3  -3  -4   99.79    3.40
   3  -3  -4  100.69    3.30
   3  -3  -4  101.79    3.30
  -3   3   4  105.29    3.40
  -3   3   4   99.99    3.40
   2  -3  -4  172.08    5.60
   2  -3  -4  170.58    5.50
  -2   3   4  173.68    5.60
  -2   3   4  178.28    5.60
   1  -3  -4   14.70    0.70
   1  -3  -4   14.40    0.70
  -1   3   4   18.20    0.80
  -1   3   4   14.90    0.60
  -1   3   4   15.50    0.80
  -1   3   4   14.10    0.80
   0   3   4    7.20    0.50
   0   3   4    8.60    0.40
   0   3   4    8.60    0.60
  -1  -3  -4   -0.60    0.20
  -1  -3  -4   -0.50    0.30
   1   3   4    0.00    0.20
   1   3   4   -0.20    0.20
   1   3   4   -0.10    0.20
  -2  -3  -4   17.00    0.70
  -2  -3  -4   16.10    0.90
   2   3   4   15.50    0.70
   2   3   4   14.70    0.80
   2   3   4   14.60    0.70
   2   3   4   17.10    0.80
  -3  -3  -4   55.19    1.90
  -3  -3  -4   53.19    2.00
   3   3   4   54.19    1.90
   3   3   4   53.99    1.90
   3   3   4   56.89    1.90
   3   3   4   54.49    1.90
  -4  -3  -4   20.30    0.90
   4   3   4   19.30    0.90
   4   3   4   18.50    1.00
   4   3   4   18.20    0.80
   4   3   4   18.70    0.90
  -5  -3  -4    0.00    0.40
   5   3   4    0.80    0.40
   5   3   4   -0.20    0.40
  -6  -3  -4   27.70    1.20
   6   3   4   26.90    1.10
   6   3   4   27.70    1.30
   6   3   4   25.40    1.20
   6   3   4   26.00    1.20
  -7  -3  -4    6.40    0.90
   7   3   4    6.60    0.80
   7   3   4    7.00    0.70
   7   3   4    6.20    0.50
   7   3   4    7.90    0.90
   8   3   4    0.10    0.50
   8   3   4    0.00    0.60
  -9  -3  -4    0.40    0.60
   9   3   4    0.80    0.70
  10  -4  -4  103.09    3.70
 -10   4   4  100.79    3.90
   9  -4  -4  111.59    3.90
  -9   4   4  109.89    4.10
   8  -4  -4   22.40    1.00
   8  -4  -4   20.70    1.20
   8  -4  -4   20.70    1.10
  -8   4   4   24.30    1.50
   7  -4  -4   71.09    2.60
   7  -4  -4   69.59    2.50
   7  -4  -4   73.39    2.40
  -7   4   4   70.89    2.70
   6  -4  -4   30.10    1.30
   6  -4  -4   30.60    1.20
  -6   4   4   31.60    1.50
   5  -4  -4    0.80    0.30
   5  -4  -4    0.30    0.40
   5  -4  -4    0.50    0.30
  -5   4   4    0.50    0.50
   4  -4  -4  118.59    3.80
  -4   4   4  117.19    4.00
  -4   4   4  114.69    3.90
   3  -4  -4   23.90    1.20
   3  -4  -4   27.10    1.10
   3  -4  -4   25.50    1.10
  -3   4   4   25.10    1.20
  -3   4   4   25.10    1.10
   2  -4  -4    1.90    0.30
   2  -4  -4    1.40    0.30
  -2   4   4    1.20    0.30
  -2   4   4    1.60    0.30
   1  -4  -4   25.80    1.00
   1  -4  -4   23.90    1.10
  -1   4   4   25.50    0.90
  -1   4   4   30.20    1.20
  -1   4   4   24.70    1.10
   0  -4  -4   59.99    2.10
   0  -4  -4   60.59    2.00
   0   4   4   59.69    2.10
   0   4   4   58.59    2.00
   0   4   4   57.79    2.10
  -1  -4  -4   85.79    2.90
  -1  -4  -4   84.99    2.80
   1   4   4   83.49    2.90
   1   4   4   84.69    2.80
   1   4   4   82.19    2.80
  -2  -4  -4   35.10    1.30
  -2  -4  -4   36.30    1.50
   2   4   4   34.60    1.50
   2   4   4   36.10    1.40
   2   4   4   33.70    1.30
   2   4   4   34.30    1.40
  -3  -4  -4    4.00    0.60
  -3  -4  -4    3.70    0.50
   3   4   4    4.40    0.50
   3   4   4    3.60    0.40
   3   4   4    5.10    0.70
   3   4   4    2.70    0.50
  -4  -4  -4    1.60    0.40
   4   4   4    1.80    0.50
   4   4   4    1.80    0.30
   4   4   4    1.30    0.30
   4   4   4    1.40    0.50
  -5  -4  -4    1.60    0.50
   5   4   4    1.10    0.50
   5   4   4    1.00    0.40
   5   4   4    1.20    0.30
   5   4   4    1.70    0.50
  -6  -4  -4   43.30    1.70
   6   4   4   44.20    1.60
   6   4   4   43.90    1.70
   7   4   4    0.60    0.50
   7   4   4    0.70    0.50
   7   4   4    1.10    0.50
   7   4   4    0.10    0.40
   8   4   4    4.00    0.70
   9  -5  -4    6.50    0.60
   9  -5  -4    6.70    1.00
   9  -5  -4    8.00    1.00
  -9   5   4    8.40    1.30
   8  -5  -4   49.30    2.00
   8  -5  -4   46.90    1.90
   8  -5  -4   50.79    1.80
  -8   5   4   49.80    2.20
   7  -5  -4   14.30    1.20
   7  -5  -4   17.40    1.00
   7  -5  -4   18.10    0.90
  -7   5   4   16.90    1.30
   6  -5  -4  311.67   10.10
   6  -5  -4  310.07   10.10
   6  -5  -4  323.17   10.00
  -6   5   4  317.37   10.20
   5  -5  -4   67.09    2.50
   5  -5  -4   69.39    2.40
   4  -5  -4   71.49    2.50
   4  -5  -4   69.59    2.60
   4  -5  -4   68.19    2.60
  -4   5   4   83.19    2.70
  -4   5   4   71.79    2.70
   3  -5  -4   42.90    1.60
   3  -5  -4   44.90    1.70
  -3   5   4   43.90    1.80
  -3   5   4   43.20    1.80
   2  -5  -4  323.37   10.20
   2  -5  -4  319.77   10.10
  -2   5   4  321.67   10.20
  -2   5   4  313.67   10.20
   1  -5  -4   27.60    1.20
   1  -5  -4   26.50    1.10
  -1   5   4   26.40    1.00
  -1   5   4   27.10    1.20
  -1   5   4   26.40    1.20
   0  -5  -4    0.00    0.30
   0  -5  -4    0.50    0.60
   0   5   4    0.40    0.40
   0   5   4    0.20    0.30
   0   5   4    0.40    0.30
  -1  -5  -4   73.89    2.50
  -1  -5  -4   75.39    2.70
   1   5   4   72.89    2.60
   1   5   4   74.39    2.50
   1   5   4   73.49    2.60
  -2  -5  -4  104.19    3.30
  -2  -5  -4   93.59    3.50
   2   5   4  101.89    3.30
   2   5   4  101.19    3.40
   2   5   4   99.99    3.40
  -3  -5  -4    2.30    0.50
   3   5   4    2.40    0.40
   3   5   4    1.60    0.50
   3   5   4    2.00    0.40
  -4  -5  -4   81.69    2.80
   4   5   4   79.69    2.80
   4   5   4   83.79    2.90
   4   5   4   82.09    2.90
  -5  -5  -4   19.50    1.20
   5   5   4   19.30    1.00
   5   5   4   17.80    1.00
  -6  -5  -4   15.60    1.70
   6   5   4   17.70    1.10
   6   5   4   18.20    1.10
   6   5   4   16.80    1.00
  -7  -5  -4   19.40    1.30
   7   5   4   16.40    1.10
   7   5   4   18.00    1.20
   9  -6  -4    0.40    0.40
   9  -6  -4    0.70    0.60
  -9   6   4    0.00    0.80
   8  -6  -4   10.00    1.00
   8  -6  -4    9.80    0.80
  -8   6   4   10.10    1.30
   7  -6  -4    4.60    0.60
   7  -6  -4    4.10    0.60
  -7   6   4    3.40    0.70
   6  -6  -4    0.40    0.40
   6  -6  -4    0.60    0.40
  -6   6   4    0.70    0.50
   5  -6  -4   -0.10    0.30
   5  -6  -4    0.10    0.30
  -5   6   4   -0.10    0.50
   4  -6  -4    4.90    0.70
  -4   6   4    5.20    0.80
   3  -6  -4  103.99    3.50
   3  -6  -4  101.99    3.50
  -3   6   4  102.49    3.60
  -3   6   4  104.19    3.60
   2  -6  -4   10.50    0.70
   2  -6  -4    9.30    0.90
  -2   6   4   10.60    1.10
  -2   6   4   12.80    0.90
   1  -6  -4   12.60    0.70
   1  -6  -4   14.90    0.90
   1  -6  -4   14.50    1.00
  -1   6   4   13.90    0.90
  -1   6   4   14.40    1.10
   0  -6  -4    8.80    0.70
   0  -6  -4    7.50    0.80
   0   6   4    8.00    0.70
   0   6   4    7.60    0.90
  -1  -6  -4  144.19    4.60
  -1  -6  -4  142.39    4.70
   1   6   4  136.89    4.60
   1   6   4  134.69    4.70
   1   6   4  137.69    4.50
  -2  -6  -4    0.30    0.60
  -2  -6  -4    1.40    0.40
   2   6   4    0.70    0.50
   2   6   4    0.50    0.40
   2   6   4    1.00    0.40
  -3  -6  -4    6.10    0.80
   3   6   4    6.40    0.80
   3   6   4    6.20    0.70
   3   6   4    6.00    0.90
  -4  -6  -4   10.20    1.00
   4   6   4   10.10    0.80
   4   6   4    8.50    0.90
   4   6   4   10.80    0.80
  -5  -6  -4    0.20    0.60
  -5  -6  -4   -0.40    0.40
   5   6   4   -0.10    0.40
   5   6   4    0.40    0.50
  -6  -6  -4    0.40    0.50
   6   6   4   -0.20    0.50
   6   6   4    0.60    0.60
  -7  -6  -4   37.20    1.70
   7   6   4   33.90    1.60
   7   6   4   36.40    1.90
   9  -7  -4    0.50    0.40
   9  -7  -4    0.10    0.60
  -9   7   4   -1.10    0.80
   8  -7  -4    3.80    0.70
   8  -7  -4    3.70    0.50
  -8   7   4    3.40    0.90
   7  -7  -4    0.40    0.40
   7  -7  -4    0.50    0.50
  -7   7   4   -0.30    0.60
   6  -7  -4    0.70    0.40
   6  -7  -4   -0.30    0.40
  -6   7   4   -0.30    0.60
   5  -7  -4   11.00    0.90
   5  -7  -4    9.10    0.90
  -5   7   4    9.50    1.10
   4  -7  -4    2.20    0.60
   4  -7  -4    3.60    0.50
  -4   7   4    3.70    0.60
   3  -7  -4   11.70    1.00
   3  -7  -4   11.20    0.80
  -3   7   4   11.30    1.00
  -3   7   4   12.40    1.30
   2  -7  -4    8.60    0.80
   2  -7  -4    8.40    1.00
  -2   7   4    7.90    0.80
  -2   7   4   12.70    1.50
   1  -7  -4   12.10    1.40
   1  -7  -4    7.40    0.70
   1  -7  -4    7.50    0.80
  -1   7   4    9.20    1.10
   0  -7  -4    7.80    0.70
   0  -7  -4    8.10    1.20
   0  -7  -4    8.20    0.80
   0   7   4    8.40    1.10
  -1  -7  -4    5.00    0.60
  -1  -7  -4    3.30    0.70
  -1  -7  -4    5.30    0.50
   1   7   4    7.00    1.00
   1   7   4    4.10    0.60
  -2  -7  -4   57.49    2.10
   2   7   4   51.79    2.40
   2   7   4   55.19    2.20
  -3  -7  -4   11.60    1.00
  -3  -7  -4   10.30    0.80
   3   7   4   11.90    1.00
   3   7   4    9.40    1.00
  -4  -7  -4    9.30    1.10
  -4  -7  -4    9.70    0.90
   4   7   4   10.80    1.10
   4   7   4   11.10    1.00
  -5  -7  -4   38.90    1.70
   5   7   4   39.70    1.80
   5   7   4   40.90    1.80
  -6  -7  -4    1.20    0.60
   6   7   4    1.20    0.70
   6   7   4    0.50    0.50
   8  -8  -4    4.60    0.80
   8  -8  -4    5.00    0.60
  -8   8   4    6.10    1.00
   7  -8  -4    0.20    0.50
   7  -8  -4    0.40    0.50
  -7   8   4   -0.70    0.70
   6  -8  -4    1.40    0.50
   6  -8  -4    0.30    0.50
  -6   8   4    0.20    0.70
   5  -8  -4    0.00    0.50
   5  -8  -4    0.70    0.50
  -5   8   4    0.20    0.60
   4  -8  -4    3.30    0.60
   4  -8  -4    2.20    0.50
  -4   8   4    1.40    0.60
   3  -8  -4    2.70    0.50
  -3   8   4    3.40    1.10
  -3   8   4    2.60    0.60
   2  -8  -4    2.40    0.50
   2  -8  -4    2.50    0.70
  -2   8   4    2.70    0.50
  -2   8   4    4.10    0.90
   1  -8  -4   15.50    0.90
   1  -8  -4   15.50    1.10
   1  -8  -4   14.20    1.30
  -1   8   4   16.70    1.40
  -1   8   4   15.00    1.00
   0  -8  -4   61.49    2.30
   0  -8  -4   56.69    2.10
   0  -8  -4   61.89    2.50
   0   8   4   57.29    2.30
   0   8   4   59.79    2.50
  -1  -8  -4    0.30    0.90
  -1  -8  -4   -0.20    0.60
  -1  -8  -4    0.60    0.50
   1   8   4    0.10    0.50
  -2  -8  -4   56.19    2.10
  -2  -8  -4   57.79    2.20
   2   8   4   54.79    2.40
   2   8   4   59.39    2.30
  -3  -8  -4   36.20    1.70
  -3  -8  -4   35.10    1.50
   3   8   4   33.10    1.80
   3   8   4   37.10    1.70
  -4  -8  -4   17.70    1.20
   4   8   4   18.20    1.20
   4   8   4   18.00    1.40
  -5  -8  -4   34.40    1.60
   5   8   4   32.70    1.80
   5   8   4   34.50    1.70
   7  -9  -4   32.60    1.70
   7  -9  -4   32.50    1.60
  -7   9   4   31.80    1.90
   6  -9  -4   23.70    1.50
   6  -9  -4   24.90    1.40
  -6   9   4   22.80    1.70
   5  -9  -4   51.69    2.20
   5  -9  -4   51.19    2.20
  -5   9   4   51.19    2.30
   4  -9  -4    2.50    0.60
   4  -9  -4    3.40    0.60
  -4   9   4    2.80    0.70
   3  -9  -4    1.10    0.60
   3  -9  -4    1.30    0.50
  -3   9   4    0.70    0.60
   2  -9  -4   11.90    1.00
  -2   9   4   11.90    1.60
  -2   9   4   11.80    1.00
   1  -9  -4   12.20    1.60
   1  -9  -4   10.20    0.90
   1  -9  -4   10.10    0.90
  -1   9   4   10.80    1.00
  -1   9   4   12.50    1.60
   0  -9  -4    0.20    0.60
   0  -9  -4   -0.10    0.50
   0  -9  -4   -0.10    1.00
   0   9   4    0.20    0.50
  -1  -9  -4    5.90    0.70
  -1  -9  -4    4.00    0.60
   1   9   4    4.80    0.80
   1   9   4    4.80    0.70
  -2  -9  -4   15.10    1.60
  -2  -9  -4   17.70    1.00
   2   9   4   15.50    1.40
   2   9   4   18.10    1.30
  -3  -9  -4    1.30    0.60
   3   9   4    1.30    0.70
   3   9   4   -0.10    0.70
  -4  -9  -4    4.10    0.70
   4   9   4    1.90    0.80
   4   9   4    3.00    0.70
   6 -10  -4    4.20    0.80
   6 -10  -4    5.00    0.70
  -6  10   4    4.30    1.00
   5 -10  -4    2.20    0.70
   5 -10  -4    1.80    0.60
  -5  10   4    1.30    0.80
   4 -10  -4   -0.50    0.60
   4 -10  -4    0.30    0.60
  -4  10   4    0.40    0.60
   3 -10  -4   13.70    1.30
   3 -10  -4   15.60    1.20
  -3  10   4   15.40    1.20
   2 -10  -4    3.10    0.60
   2 -10  -4    1.90    0.80
  -2  10   4    3.60    0.70
   1 -10  -4    0.40    0.80
   1 -10  -4    0.50    0.60
  -1  10   4    0.50    0.60
   0 -10  -4    0.80    0.60
   0 -10  -4    1.10    0.50
   0  10   4    1.00    0.80
   0  10   4    1.20    0.60
  -1 -10  -4   33.90    1.60
  -1 -10  -4   37.30    1.70
   1  10   4   41.10    2.00
   1  10   4   37.20    1.80
  -2 -10  -4   -0.60    0.60
   2  10   4   -1.50    0.70
   2  10   4    0.10    0.80
   3 -11  -4   13.40    1.50
   3 -11  -4   10.10    1.30
  -3  11   4   14.50    1.30
   2 -11  -4    6.60    0.80
   2 -11  -4    5.70    1.00
  -2  11   4    5.00    0.80
   1 -11  -4    1.40    0.70
  -1  11   4    1.80    0.80
   1  12  -5    2.90    0.90
   1  12  -5    2.90    1.00
  -1 -12   5    4.00    0.60
   0  12  -5   -0.60    0.80
   0  12  -5    0.60    0.90
   0 -12   5   -0.20    0.80
   0 -12   5    0.10    0.50
  -1  12  -5    4.70    0.90
   1 -12   5    6.40    0.70
   1 -12   5    5.90    0.90
   1 -12   5    7.30    1.10
  -2  12  -5   30.30    1.60
   2 -12   5   26.40    1.50
   2 -12   5   26.10    1.30
   2 -12   5   28.00    1.70
  -3  12  -5   26.20    1.60
   3 -12   5   23.00    1.50
   3 -12   5   22.50    1.20
   3 -12   5   24.50    1.40
  -4  12  -5   45.50    2.10
   4 -12   5   42.70    2.00
   4 -12   5   45.80    2.10
  -5  12  -5   -0.50    0.70
   5 -12   5   -0.60    0.60
   5 -12   5    0.10    0.60
   3  11  -5    0.40    0.90
   3  11  -5    0.60    0.70
  -3 -11   5    1.30    0.60
   2  11  -5   14.20    1.40
   2  11  -5   12.10    1.40
  -2 -11   5   14.30    1.00
   1  11  -5    3.60    0.90
   1  11  -5    7.00    1.20
  -1 -11   5    3.90    0.60
   0  11  -5    4.40    1.00
   0  11  -5    2.90    0.80
   0 -11   5    3.50    0.80
   0 -11   5    3.50    0.50
  -1  11  -5    0.80    1.30
  -1  11  -5    1.70    0.60
   1 -11   5    0.70    0.90
   1 -11   5    1.50    0.40
   1 -11   5    1.40    0.70
  -2  11  -5    9.40    1.10
   2 -11   5    6.20    0.90
   2 -11   5    8.70    0.80
   2 -11   5    7.60    1.10
  -3  11  -5    1.00    0.60
   3 -11   5   -0.40    0.60
   3 -11   5   -0.10    0.50
  -4  11  -5   -0.50    0.60
   4 -11   5   -0.30    0.60
   4 -11   5    0.50    0.50
  -5  11  -5    3.00    0.70
   5 -11   5    2.10    0.60
   5 -11   5    1.30    0.60
  -6  11  -5    1.90    0.70
   6 -11   5    0.50    0.50
   6 -11   5   -0.10    0.60
   5  10  -5    3.80    0.90
   5  10  -5    4.70    0.80
  -5 -10   5    5.00    0.70
   4  10  -5    5.20    0.80
   4  10  -5    4.40    0.80
  -4 -10   5    4.60    0.60
   3  10  -5    9.10    1.10
   3  10  -5   10.20    1.20
  -3 -10   5   10.90    1.00
   2  10  -5    2.60    0.70
   2  10  -5    0.30    0.60
  -2 -10   5    1.70    0.50
   1  10  -5    1.30    0.70
   1  10  -5    2.90    1.00
  -1 -10   5    2.70    0.50
  -1 -10   5    2.90    0.90
   0  10  -5    5.80    0.90
   0  10  -5    8.50    1.10
   0 -10   5    8.40    0.70
   0 -10   5    6.60    0.90
   0 -10   5    5.70    0.70
  -1  10  -5   92.39    3.50
  -1  10  -5   90.09    3.30
   1 -10   5   92.29    3.10
   1 -10   5   80.39    3.10
   1 -10   5   91.79    3.40
  -2  10  -5    5.90    0.90
   2 -10   5    5.20    0.60
   2 -10   5    4.40    0.70
   2 -10   5    4.60    0.70
  -3  10  -5   16.30    1.10
   3 -10   5   16.00    1.00
   3 -10   5   13.80    1.10
   3 -10   5   13.40    1.00
  -4  10  -5    0.60    0.50
   4 -10   5    0.40    0.50
   4 -10   5    0.10    0.50
  -5  10  -5    6.50    0.90
   5 -10   5    6.70    0.80
   5 -10   5    5.10    0.60
   5 -10   5    3.90    0.60
  -6  10  -5    6.70    1.00
   6 -10   5    3.70    0.70
   6 -10   5    4.50    0.60
  -7  10  -5   11.90    1.30
   7 -10   5   12.50    1.10
   7 -10   5   12.30    1.30
   6   9  -5    0.00    1.00
   6   9  -5    0.50    0.70
  -6  -9   5    0.90    0.60
   5   9  -5    2.90    0.60
   5   9  -5    3.20    0.80
  -5  -9   5    3.40    0.50
   4   9  -5    2.00    0.60
   4   9  -5    1.60    0.60
  -4  -9   5    2.80    0.50
   3   9  -5   20.60    1.30
   3   9  -5   20.40    1.20
  -3  -9   5   20.00    1.10
   2   9  -5   57.39    2.40
   2   9  -5   60.09    2.50
  -2  -9   5   57.39    2.10
  -2  -9   5   59.89    2.60
   1   9  -5   22.30    1.30
   1   9  -5   23.10    1.50
  -1  -9   5   21.50    1.00
  -1  -9   5   23.80    1.50
   0   9  -5    0.00    0.80
   0  -9   5   -0.10    0.50
   0  -9   5    0.10    0.40
   0  -9   5    0.50    0.50
  -1   9  -5   10.40    1.30
  -1   9  -5    8.90    0.90
   1  -9   5    8.40    0.90
   1  -9   5   10.10    1.10
   1  -9   5    9.00    0.70
  -2   9  -5    9.50    1.40
   2  -9   5   10.70    0.80
   2  -9   5   10.80    0.90
   2  -9   5   12.00    1.10
   3  -9   5    8.10    0.70
   3  -9   5    7.90    0.80
  -4   9  -5   41.60    1.90
   4  -9   5   40.80    1.70
   4  -9   5   43.20    1.70
   4  -9   5   41.40    1.60
  -5   9  -5    1.00    0.50
   5  -9   5    0.10    0.40
   5  -9   5   -0.80    0.40
   5  -9   5    0.40    0.40
  -6   9  -5    0.00    0.60
   6  -9   5   -0.40    0.50
   6  -9   5   -0.80    0.40
   6  -9   5    0.50    0.40
  -7   9  -5    1.60    0.70
   7  -9   5    1.20    0.60
   7  -9   5    2.60    0.50
  -8   9  -5    0.00    0.80
   8  -9   5    0.70    0.70
   8  -9   5    1.60    0.40
   7   8  -5    1.30    0.80
   7   8  -5    2.00    0.60
  -7  -8   5    2.40    0.60
   6   8  -5    4.70    0.70
   6   8  -5    4.30    0.80
  -6  -8   5    5.30    0.70
   5   8  -5   30.90    1.60
   5   8  -5   31.30    1.50
  -5  -8   5   30.80    1.40
   4   8  -5   14.80    1.10
   4   8  -5   14.70    1.10
  -4  -8   5   14.20    0.90
   3   8  -5   81.19    3.00
   3   8  -5   81.19    3.40
  -3  -8   5   80.89    2.80
   2   8  -5   19.20    1.20
   2   8  -5   18.50    1.30
  -2  -8   5   18.40    1.00
  -2  -8   5   18.60    1.40
   1   8  -5   26.80    1.40
   1   8  -5   24.90    1.40
  -1  -8   5   25.70    1.10
  -1  -8   5   25.50    1.40
   0   8  -5   31.10    1.50
   0   8  -5   31.90    1.60
   0  -8   5   32.50    1.50
   0  -8   5   30.10    1.30
   0  -8   5   32.00    1.30
  -1   8  -5  286.17    9.00
  -1   8  -5  272.37    8.90
   1  -8   5  280.87    8.80
   1  -8   5  277.87    9.00
   1  -8   5  274.47    8.80
  -2   8  -5    0.50    0.40
  -2   8  -5   -0.40    0.70
   2  -8   5   -0.20    0.40
   2  -8   5    0.20    0.30
   2  -8   5    0.40    0.40
  -3   8  -5    1.90    0.80
  -3   8  -5    3.30    0.50
   3  -8   5    3.30    0.50
   3  -8   5    4.00    0.50
   3  -8   5    3.60    0.50
  -4   8  -5  194.58    6.40
   4  -8   5  200.48    6.40
   4  -8   5  194.98    6.60
   4  -8   5  198.88    6.30
  -5   8  -5  156.68    5.20
   5  -8   5  153.78    5.20
   5  -8   5  154.48    5.10
   5  -8   5  154.68    5.00
   6  -8   5   98.39    3.50
   6  -8   5   98.59    3.30
   6  -8   5   99.19    3.40
  -7   8  -5   22.30    1.40
   7  -8   5   23.70    1.00
   7  -8   5   23.00    1.30
   7  -8   5   23.30    1.20
  -8   8  -5   -0.30    0.70
   8  -8   5    0.50    0.30
   8  -8   5    1.10    0.90
   8  -8   5    0.90    0.50
  -9   8  -5    0.00    0.80
   9  -8   5    0.60    0.60
   7   7  -5   19.00    1.20
   7   7  -5   19.40    1.40
  -7  -7   5   21.30    1.30
   6   7  -5    8.00    1.00
   6   7  -5    6.70    0.80
  -6  -7   5    7.30    0.80
   5   7  -5   27.70    1.30
   5   7  -5   26.30    1.40
  -5  -7   5   24.90    1.20
   4   7  -5    0.50    0.50
   4   7  -5    1.00    0.50
  -4  -7   5    0.70    0.40
   3   7  -5   58.69    2.20
   3   7  -5   58.79    2.30
  -3  -7   5   56.99    2.30
  -3  -7   5   55.59    2.10
   2   7  -5   -0.70    0.40
   2   7  -5    0.00    0.40
  -2  -7   5    0.10    0.30
  -2  -7   5    0.10    0.60
   1   7  -5   -0.10    0.40
   1   7  -5   -0.40    0.40
  -1  -7   5   -0.30    0.60
  -1  -7   5    0.30    0.30
   0   7  -5   41.70    1.60
   0   7  -5   40.50    1.70
   0  -7   5   38.50    1.50
   0  -7   5   39.30    1.50
   0  -7   5   40.10    1.60
  -1   7  -5  431.26   13.50
  -1   7  -5  434.16   13.50
   1  -7   5  418.16   13.40
   1  -7   5  424.46   13.40
   1  -7   5  418.96   13.30
  -2   7  -5  110.99    3.70
   2  -7   5  106.89    3.70
   2  -7   5  110.69    3.70
   2  -7   5  112.99    3.60
  -3   7  -5   17.80    1.20
  -3   7  -5   17.10    0.90
   3  -7   5   16.30    1.20
   3  -7   5   15.80    0.90
   3  -7   5   17.10    0.80
   3  -7   5   16.90    0.90
  -4   7  -5   16.00    1.00
   4  -7   5   16.80    0.90
   4  -7   5   16.40    0.80
   4  -7   5   16.30    0.80
   4  -7   5   14.80    1.10
  -5   7  -5   67.09    2.50
   5  -7   5   63.99    2.40
   5  -7   5   66.89    2.30
   5  -7   5   68.89    2.30
   5  -7   5   66.29    2.40
  -6   7  -5    2.10    0.60
   6  -7   5    2.00    0.40
   6  -7   5    2.00    0.50
   6  -7   5    2.10    0.40
   6  -7   5    1.30    0.40
  -7   7  -5   88.89    3.20
   7  -7   5   87.39    3.00
   7  -7   5   89.79    3.20
   7  -7   5   83.39    3.00
   7  -7   5   89.89    2.90
  -8   7  -5   18.60    1.40
   8  -7   5   20.70    1.20
   8  -7   5   21.10    1.30
   9  -7   5    4.90    0.70
   8   6  -5    4.70    0.90
   8   6  -5    4.60    0.60
  -8  -6   5    4.30    0.70
   7   6  -5    1.10    0.60
   7   6  -5    0.20    0.40
  -7  -6   5   -0.20    0.50
   6   6  -5   -0.10    0.50
   6   6  -5    0.50    0.40
  -6  -6   5   -0.20    0.50
   5   6  -5    0.50    0.50
   5   6  -5   -0.10    0.40
  -5  -6   5    0.10    0.40
   4   6  -5    0.90    0.40
   4   6  -5    1.70    0.60
  -4  -6   5    1.40    0.30
   3   6  -5   -0.40    0.40
   3   6  -5   -0.20    0.30
  -3  -6   5    0.00    0.60
  -3  -6   5   -0.20    0.30
   2   6  -5    0.00    0.30
   2   6  -5   -0.10    0.40
  -2  -6   5    0.50    0.30
  -2  -6   5    0.30    0.50
   1   6  -5   81.49    2.80
   1   6  -5   82.29    2.70
  -1  -6   5   80.69    2.70
  -1  -6   5   83.49    2.80
   0   6  -5  218.18    7.00
   0   6  -5  218.98    7.00
   0  -6   5  216.48    7.00
   0  -6   5  217.88    7.00
   0  -6   5  224.98    6.90
  -1   6  -5   51.49    1.90
  -1   6  -5   51.89    1.90
   1  -6   5   51.39    1.80
   1  -6   5   52.09    1.90
   1  -6   5   51.79    1.80
  -2   6  -5  153.48    4.90
   2  -6   5  145.09    5.00
   2  -6   5  148.89    4.90
   2  -6   5  152.58    4.80
   2  -6   5  154.08    4.90
  -3   6  -5    0.40    0.50
  -3   6  -5    0.80    0.30
   3  -6   5    0.50    0.20
   3  -6   5    0.80    0.30
   3  -6   5    0.70    0.30
  -4   6  -5   50.49    1.90
   4  -6   5   51.29    1.80
   4  -6   5   50.59    1.80
   4  -6   5   47.90    1.90
   4  -6   5   49.30    1.70
  -5   6  -5   28.70    1.30
   5  -6   5   28.20    1.30
   5  -6   5   26.10    1.20
   5  -6   5   26.70    1.10
   5  -6   5   25.00    1.20
  -6   6  -5   82.99    3.00
   6  -6   5   80.19    2.80
   6  -6   5   82.89    3.00
   6  -6   5   88.49    2.80
   6  -6   5   83.09    2.80
  -7   6  -5    1.40    0.70
   7  -6   5    1.30    0.30
   7  -6   5    1.10    0.40
   7  -6   5    0.90    0.50
   7  -6   5    1.40    0.40
   8  -6   5    1.60    0.70
   8  -6   5    0.60    0.50
  -9   6  -5    1.90    0.70
   9  -6   5    3.80    0.50
   9  -6   5    3.60    0.60
   8   5  -5    1.10    0.70
   8   5  -5    1.50    0.50
  -8  -5   5    0.30    0.50
   7   5  -5   -0.20    0.30
   7   5  -5    0.40    0.50
  -7  -5   5    0.10    0.40
   6   5  -5   12.10    0.80
   6   5  -5   12.10    1.00
  -6  -5   5   12.70    0.90
   5   5  -5   48.20    1.90
   5   5  -5   49.40    1.80
   5   5  -5   44.40    2.30
  -5  -5   5   48.30    1.80
  -4  -5   5    0.30    0.60
  -4  -5   5    0.40    0.30
   3   5  -5   47.30    2.00
   3   5  -5   53.19    1.90
   3   5  -5   50.99    1.90
  -3  -5   5   50.49    1.80
  -3  -5   5   53.19    2.00
   2   5  -5   15.00    0.80
   2   5  -5   14.60    0.80
  -2  -5   5   16.50    0.90
  -2  -5   5   15.60    0.70
   1   5  -5    2.70    0.40
   1   5  -5    2.10    0.40
   1   5  -5    3.20    0.40
  -1  -5   5    2.40    0.40
  -1  -5   5    2.80    0.30
   0   5  -5   99.89    3.40
   0   5  -5  102.19    3.40
   0  -5   5  103.59    3.40
   0  -5   5  101.79    3.30
  -1   5  -5   31.80    1.20
  -1   5  -5   30.10    1.20
   1  -5   5   30.70    1.10
   1  -5   5   30.80    1.10
   1  -5   5   30.10    1.20
  -2   5  -5    4.90    0.60
  -2   5  -5    5.80    0.50
   2  -5   5    5.00    0.60
   2  -5   5    5.20    0.40
   2  -5   5    4.80    0.40
   2  -5   5    4.60    0.40
  -3   5  -5    8.60    0.60
  -3   5  -5    6.60    0.80
   3  -5   5    8.40    0.50
   3  -5   5    7.20    0.50
   3  -5   5    8.40    0.50
   3  -5   5    7.00    0.70
  -4   5  -5   42.10    1.50
   4  -5   5   38.90    1.50
   4  -5   5   38.60    1.50
   4  -5   5   39.80    1.40
   4  -5   5   38.90    1.40
  -5   5  -5   14.80    0.90
   5  -5   5   15.70    0.70
   5  -5   5   14.90    0.90
   5  -5   5   15.10    0.80
   5  -5   5   14.90    0.80
  -6   5  -5   20.00    1.20
   6  -5   5   22.10    1.10
   6  -5   5   20.50    0.90
   6  -5   5   22.00    1.00
   6  -5   5   20.70    0.90
  -7   5  -5   21.50    1.30
   7  -5   5   23.70    1.10
   7  -5   5   23.80    1.20
  -8   5  -5   31.20    1.70
   8  -5   5   29.00    1.50
   8  -5   5   33.50    1.50
  -9   5  -5    0.20    0.60
   9  -5   5    0.60    0.50
   9  -5   5    1.80    0.50
 -10   5  -5    4.60    0.90
  10  -5   5    4.30    0.70
  10  -5   5    4.60    0.70
   9   4  -5   41.30    1.70
   9   4  -5   42.90    2.10
   9   4  -5   43.80    1.60
  -9  -4   5   43.30    1.90
   8   4  -5    5.20    0.80
   8   4  -5    5.40    0.60
  -8  -4   5    4.40    0.60
   7   4  -5    7.30    0.90
   7   4  -5    7.40    0.60
   7   4  -5    6.80    1.00
  -7  -4   5    7.90    0.80
   6   4  -5    0.50    0.30
   6   4  -5    0.60    0.60
   6   4  -5    0.60    0.50
  -6  -4   5    0.40    0.40
   5   4  -5    5.80    0.50
   5   4  -5    4.40    0.60
   5   4  -5    4.40    0.70
  -5  -4   5    4.60    0.50
   4   4  -5   44.30    1.50
   4   4  -5   42.90    1.60
   4   4  -5   39.50    1.60
  -4  -4   5   44.10    1.50
  -4  -4   5   38.70    1.70
   3   4  -5  417.66   13.50
   3   4  -5  409.36   13.50
   3   4  -5  445.86   13.50
  -3  -4   5  427.16   13.50
  -3  -4   5  445.86   13.50
   2   4  -5   86.99    2.90
   2   4  -5   85.59    2.90
  -2  -4   5   86.89    2.90
  -2  -4   5   89.89    2.90
   1   4  -5    4.60    0.40
   1   4  -5    7.00    0.70
   1   4  -5    4.90    0.40
  -1  -4   5    4.60    0.40
  -1  -4   5    4.90    0.50
   0   4  -5  252.17    7.90
   0   4  -5  253.37    7.80
   0   4  -5  237.68    7.90
   0  -4   5  246.48    7.90
   0  -4   5  253.07    7.80
  -1   4  -5  195.68    6.20
  -1   4  -5  200.08    6.20
   1  -4   5  197.38    6.20
   1  -4   5  194.98    6.20
   1  -4   5  186.68    6.20
  -2   4  -5    4.90    0.40
  -2   4  -5    4.70    0.60
   2  -4   5    4.70    0.40
   2  -4   5    4.50    0.40
   2  -4   5    4.40    0.40
  -3   4  -5  197.58    6.00
  -3   4  -5  182.98    6.00
   3  -4   5  186.18    6.00
   3  -4   5  185.88    6.00
   3  -4   5  189.48    6.00
   3  -4   5  185.68    6.00
  -4   4  -5    0.30    0.30
   4  -4   5    0.60    0.20
   4  -4   5    0.00    0.20
   4  -4   5    0.50    0.30
   4  -4   5    0.90    0.30
  -5   4  -5   17.20    0.90
   5  -4   5   18.90    0.80
   5  -4   5   18.90    0.90
   5  -4   5   19.40    0.90
   5  -4   5   18.90    0.80
  -6   4  -5   -0.40    0.50
   6  -4   5    0.30    0.30
   6  -4   5    0.70    0.40
   6  -4   5    0.40    0.20
  -7   4  -5   -1.10    0.50
   7  -4   5    0.70    0.40
   7  -4   5    0.90    0.40
  -8   4  -5   -1.00    0.70
   8  -4   5    1.50    0.50
   8  -4   5    1.30    0.40
  -9   4  -5    4.50    0.80
   9  -4   5    6.20    0.90
   9  -4   5    6.60    0.80
 -10   4  -5    3.90    0.90
 -10   4  -5    7.50    1.10
  10  -4   5    5.80    0.70
   9   3  -5   14.30    0.80
   9   3  -5   14.50    1.30
  -9  -3   5   13.80    1.10
   8   3  -5   47.30    2.10
   8   3  -5   48.90    1.70
   8   3  -5   47.00    1.80
  -8  -3   5   46.00    1.90
   7   3  -5  140.79    4.60
   7   3  -5  138.49    4.80
   7   3  -5  141.09    4.60
  -7  -3   5  140.29    4.60
   6   3  -5  120.59    4.10
   6   3  -5  116.99    3.90
   6   3  -5  114.49    3.90
  -6  -3   5  120.79    3.90
   5   3  -5    2.90    0.50
   5   3  -5    3.10    0.40
   5   3  -5    3.50    0.50
  -5  -3   5    3.10    0.40
   4   3  -5    8.70    0.70
   4   3  -5    8.00    0.50
   4   3  -5    8.20    0.60
  -4  -3   5    8.20    0.50
  -4  -3   5    8.00    0.80
   3   3  -5   55.79    1.90
   3   3  -5   56.39    2.00
   3   3  -5   57.59    2.10
  -3  -3   5   58.49    1.90
  -3  -3   5   56.39    2.00
   2   3  -5    6.80    0.50
   2   3  -5    6.30    0.60
   2   3  -5    6.50    0.50
  -2  -3   5    7.20    0.40
  -2  -3   5    7.40    0.60
   1   3  -5  296.37    9.30
   1   3  -5  294.37    9.30
   1   3  -5  297.87    9.20
  -1  -3   5  295.37    9.30
  -1  -3   5  291.87    9.30
   0   3  -5   28.80    1.00
   0   3  -5   26.60    1.00
   0   3  -5   25.90    1.00
   0  -3   5   26.70    1.00
   0  -3   5   26.40    1.00
  -1   3  -5  207.48    6.50
  -1   3  -5  206.58    6.50
  -1   3  -5  208.58    6.50
   1  -3   5  206.48    6.50
   1  -3   5  203.88    6.50
  -2   3  -5  458.75   15.00
  -2   3  -5  495.05   14.90
   2  -3   5  479.35   15.00
   2  -3   5  483.95   15.00
   2  -3   5  478.15   15.00
  -3   3  -5  241.48    7.50
   3  -3   5  237.08    7.50
   3  -3   5  238.78    7.50
   3  -3   5  235.78    7.50
   3  -3   5  235.38    7.50
  -4   3  -5    9.80    0.60
   4  -3   5   11.70    0.60
   4  -3   5   12.20    0.50
   4  -3   5   11.60    0.60
   4  -3   5   11.50    0.70
  -5   3  -5    5.20    0.60
   5  -3   5    5.90    0.40
   5  -3   5    5.60    0.40
   5  -3   5    5.50    0.60
   5  -3   5    5.70    0.50
  -6   3  -5    5.60    0.80
   6  -3   5    5.60    0.60
   6  -3   5    5.30    0.60
  -7   3  -5   12.50    1.00
   7  -3   5   13.20    0.90
   7  -3   5   13.40    0.90
  -8   3  -5   -0.60    0.60
   8  -3   5    0.10    0.40
   8  -3   5    0.10    0.40
  -9   3  -5    6.60    0.90
   9  -3   5    7.50    0.90
 -10   3  -5    1.00    0.80
 -10   3  -5   -0.20    0.60
  10  -3   5   -0.10    0.60
   9   2  -5   24.70    1.50
  -9  -2   5   24.30    1.30
   8   2  -5   74.19    2.50
   8   2  -5   73.89    2.60
   8   2  -5   75.29    2.90
  -8  -2   5   74.99    2.60
   7   2  -5   70.09    2.50
   7   2  -5   70.59    2.70
   7   2  -5   70.09    2.40
   7   2  -5   71.69    2.40
   6   2  -5    0.00    0.40
   6   2  -5    0.30    0.70
   6   2  -5    0.00    0.30
  -6  -2   5    0.00    0.40
   5   2  -5    5.50    0.60
   5   2  -5    5.20    0.70
   5   2  -5    5.20    0.50
   5   2  -5    5.50    0.50
  -5  -2   5    5.10    0.50
   4   2  -5    0.20    0.30
   4   2  -5    0.20    0.20
   4   2  -5   -0.30    0.20
   4   2  -5   -0.10    0.20
  -4  -2   5    0.00    0.20
  -4  -2   5   -0.20    0.40
   3   2  -5   -0.20    0.20
   3   2  -5    0.30    0.20
   3   2  -5    0.00    0.20
  -3  -2   5   -0.20    0.30
  -3  -2   5    0.40    0.20
   2   2  -5    0.10    0.20
   2   2  -5    0.20    0.30
   2   2  -5    0.30    0.20
  -2  -2   5    0.50    0.20
   1   2  -5   44.00    1.40
   1   2  -5   41.30    1.50
  -1  -2   5   41.30    1.50
  -1  -2   5   43.90    1.40
   0   2  -5  679.83   21.30
   0   2  -5  713.73   21.30
   0  -2   5  718.03   21.30
   0  -2   5  624.54   21.40
  -1   2  -5   16.80    0.70
  -1   2  -5   16.10    0.70
   1  -2   5   16.10    0.70
   1  -2   5   17.10    0.70
   1  -2   5   16.00    0.70
  -2   2  -5   43.30    1.40
  -2   2  -5   41.20    1.40
   2  -2   5   34.70    1.40
   2  -2   5   41.90    1.40
   2  -2   5   41.90    1.40
  -3   2  -5    0.20    0.20
   3  -2   5   -0.10    0.20
   3  -2   5    0.40    0.20
   3  -2   5    0.00    0.20
  -4   2  -5   73.49    2.50
  -4   2  -5   75.29    2.40
   4  -2   5   73.59    2.40
   4  -2   5   71.59    2.40
   4  -2   5   72.99    2.40
  -5   2  -5    6.30    0.50
   5  -2   5    6.30    0.40
   5  -2   5    6.50    0.50
   5  -2   5    5.60    0.40
  -6   2  -5  135.99    4.50
   6  -2   5  139.89    4.50
   6  -2   5  132.79    4.40
  -7   2  -5    1.40    0.50
   7  -2   5    1.40    0.50
   7  -2   5    1.60    0.70
  -8   2  -5    3.30    0.50
   8  -2   5    4.10    0.50
   8  -2   5    3.60    0.70
  -9   2  -5   -0.20    0.50
   9  -2   5   -1.00    0.40
 -10   2  -5    0.90    0.60
  10  -2   5   -0.10    0.60
  10   1  -5    1.10    0.70
 -10  -1   5    2.00    0.60
   9   1  -5    6.60    1.00
  -9  -1   5    6.70    0.80
   8   1  -5   -0.30    0.50
   8   1  -5    0.30    0.40
   8   1  -5    0.00    0.40
   8   1  -5    0.00    0.20
  -8  -1   5    0.30    0.40
   7   1  -5   73.69    2.50
   7   1  -5   73.69    2.60
   7   1  -5   73.49    2.50
   7   1  -5   75.79    2.80
  -7  -1   5   74.89    2.60
   6   1  -5   56.79    2.00
   6   1  -5   58.69    2.00
   6   1  -5   57.89    2.20
   6   1  -5   56.79    2.00
  -6  -1   5   56.29    2.00
   5   1  -5   15.10    0.80
   5   1  -5   15.80    0.90
   5   1  -5   15.60    0.70
   5   1  -5   15.70    0.80
  -5  -1   5   14.50    0.70
   4   1  -5   90.99    2.90
   4   1  -5   87.69    2.90
   4   1  -5   88.39    3.00
   4   1  -5   87.29    2.90
  -4  -1   5   84.79    2.90
  -4  -1   5   88.19    2.90
   3   1  -5  267.97    8.70
   3   1  -5  276.67    8.60
   3   1  -5  281.27    8.60
  -3  -1   5  276.97    8.60
  -3  -1   5  267.77    8.60
   2   1  -5  207.28    6.50
   2   1  -5  201.98    6.60
   2   1  -5  191.28    6.50
   2   1  -5  226.28    6.50
  -2  -1   5  211.78    6.50
  -2  -1   5  201.58    6.50
   1   1  -5  299.17   10.20
   1   1  -5  312.77   10.20
   1   1  -5  342.17   10.10
  -1  -1   5  341.17   10.10
   0   1  -5  213.58    6.70
   0   1  -5  215.48    6.60
   0  -1   5  206.38    6.70
  -1   1  -5   68.19    2.20
  -1   1  -5   67.19    2.20
   1  -1   5   67.09    2.20
   1  -1   5   64.39    2.20
   1  -1   5   67.19    2.20
  -2   1  -5    0.10    0.30
  -2   1  -5    0.10    0.20
   2  -1   5   -0.30    0.20
   2  -1   5    0.40    0.20
   2  -1   5    0.10    0.20
  -3   1  -5  174.58    5.50
   3  -1   5  172.58    5.50
   3  -1   5  170.48    5.50
   3  -1   5  173.48    5.50
  -4   1  -5    6.00    0.50
   4  -1   5    5.80    0.60
   4  -1   5    5.90    0.50
   4  -1   5    5.70    0.40
   4  -1   5    5.80    0.40
  -5   1  -5   45.60    1.70
   5  -1   5   45.40    1.50
   5  -1   5   45.50    1.60
   5  -1   5   43.80    1.50
   5  -1   5   45.30    1.60
  -6   1  -5  191.38    6.20
   6  -1   5  191.08    6.20
   6  -1   5  193.58    6.20
  -7   1  -5   12.60    1.00
   7  -1   5   12.20    0.80
   7  -1   5   14.10    1.00
  -8   1  -5  147.49    5.00
   8  -1   5  154.18    5.00
   8  -1   5  146.89    5.00
  -9   1  -5    0.10    0.50
   9  -1   5    1.10    0.60
   9  -1   5    0.40    0.50
  10   0  -5   -0.30    0.70
 -10   0   5    0.90    0.60
   9   0  -5    1.00    0.60
   9   0  -5    0.70    0.80
  -9   0   5    1.70    0.50
   8   0  -5    3.10    0.40
   8   0  -5    3.50    0.40
   8   0  -5    2.30    0.50
   8   0  -5    2.90    0.60
  -8   0   5    2.80    0.60
   7   0  -5    9.80    0.80
   7   0  -5    9.20    0.60
   7   0  -5   11.20    0.80
   7   0  -5    8.70    0.90
  -7   0   5   10.10    0.80
   6   0  -5    0.60    0.40
   6   0  -5    0.70    0.40
   6   0  -5    0.60    0.30
   6   0  -5    0.80    0.40
  -6   0   5    0.40    0.30
   5   0  -5   31.40    1.20
   5   0  -5   32.80    1.20
   5   0  -5   28.50    1.20
   5   0  -5   31.60    1.30
  -5   0   5   31.80    1.20
   4   0  -5   76.19    2.50
   4   0  -5   75.79    2.60
   4   0  -5   73.69    2.50
   4   0  -5   76.29    2.50
  -4   0   5   75.89    2.40
  -4   0   5   70.59    2.50
   3   0  -5   47.30    1.70
   3   0  -5   50.29    1.60
   3   0  -5   47.40    1.60
  -3   0   5   48.30    1.60
  -3   0   5   45.60    1.70
   2   0  -5  385.36   11.40
   2   0  -5  368.66   11.40
   2   0  -5  332.17   11.40
   2   0  -5  362.86   11.40
  -2   0   5  374.46   11.30
  -2   0   5  352.16   11.40
   1   0  -5   42.20    1.40
   1   0  -5   40.70    1.50
   1   0  -5   41.40    1.40
  -1   0   5   41.80    1.40
   0   0  -5  257.67    8.00
   0   0  -5  258.47    8.00
   0   0   5  252.37    7.90
   0   0   5  252.87    7.90
   0   0   5  247.48    8.00
  -1   0  -5  192.08    5.90
  -1   0  -5  191.58    5.90
   1   0   5  186.98    5.90
   1   0   5  190.48    5.90
   1   0   5  174.08    5.90
  -2   0  -5  500.05   15.40
  -2   0  -5  498.95   15.40
   2   0   5  484.85   15.40
   2   0   5  490.45   15.40
  -3   0  -5   57.19    1.90
   3   0   5   55.49    1.80
   3   0   5   55.79    1.90
   3   0   5   54.29    1.90
   3   0   5   56.99    1.90
  -4   0  -5    0.00    0.30
   4   0   5    0.40    0.20
   4   0   5    0.20    0.20
   4   0   5    0.20    0.20
   4   0   5    0.10    0.30
  -5   0  -5    7.50    0.60
   5   0   5    7.50    0.40
   5   0   5    6.50    0.60
   5   0   5    7.30    0.60
   5   0   5    7.10    0.50
  -6   0  -5   51.89    1.90
   6   0   5   52.99    1.90
   6   0   5   49.80    2.20
  -7   0  -5   -0.10    0.50
   7   0   5    0.80    0.40
   7   0   5    0.50    0.50
  -8   0  -5   22.60    1.20
   8   0   5   23.30    1.20
   8   0   5   25.50    1.50
  -9   0  -5   55.19    2.20
   9   0   5   56.39    2.20
   9   0   5   58.09    2.30
  10  -1  -5    3.90    0.60
  10  -1  -5    3.60    0.80
   9  -1  -5    5.00    0.60
   9  -1  -5    5.30    0.70
  -9   1   5    5.40    0.80
   8  -1  -5    0.70    0.30
   8  -1  -5    0.90    0.40
   8  -1  -5    0.80    0.50
   8  -1  -5    0.10    0.50
  -8   1   5    0.50    0.50
   7  -1  -5    1.20    0.30
   7  -1  -5    1.20    0.50
   7  -1  -5    0.80    0.40
   7  -1  -5    1.70    0.50
  -7   1   5    0.40    0.40
   6  -1  -5    1.50    0.40
   6  -1  -5    1.70    0.50
   6  -1  -5    1.50    0.30
   6  -1  -5    1.60    0.40
  -6   1   5    1.80    0.40
   5  -1  -5    4.00    0.50
   5  -1  -5    4.10    0.40
   5  -1  -5    4.10    0.40
   5  -1  -5    4.60    0.60
  -5   1   5    4.40    0.50
   4  -1  -5   17.60    0.70
   4  -1  -5   17.70    0.80
   4  -1  -5   17.90    0.80
   4  -1  -5   17.70    0.80
  -4   1   5   16.80    0.90
  -4   1   5   18.30    0.70
   3  -1  -5  110.39    3.70
   3  -1  -5  105.89    3.60
   3  -1  -5  111.09    3.60
   3  -1  -5  123.59    3.80
  -3   1   5  110.59    3.50
  -3   1   5  107.69    3.60
   2  -1  -5  248.58    7.80
   2  -1  -5  259.47    7.80
   2  -1  -5  237.78    7.90
  -2   1   5  249.78    7.80
  -2   1   5  243.98    7.90
   1  -1  -5    6.20    0.50
  -1   1   5    6.50    0.50
  -1   1   5    6.20    0.40
   0  -1  -5    2.40    0.30
   0  -1  -5    3.50    0.40
   0   1   5    3.60    0.30
   0   1   5    3.50    0.40
  -1  -1  -5  115.29    3.70
  -1  -1  -5  115.59    3.70
   1   1   5  107.29    3.70
   1   1   5  114.89    3.70
   1   1   5  111.29    3.70
   1   1   5  121.09    3.60
  -2  -1  -5  470.85   14.70
  -2  -1  -5  468.65   14.60
   2   1   5  455.95   14.60
   2   1   5  480.55   14.60
   2   1   5  464.05   14.60
  -3  -1  -5    0.60    0.20
   3   1   5    0.50    0.20
   3   1   5    0.30    0.30
   3   1   5    0.40    0.20
   3   1   5    0.30    0.20
  -4  -1  -5   13.70    0.70
   4   1   5   13.80    0.70
   4   1   5   12.10    0.80
   4   1   5   13.40    0.70
   4   1   5   13.70    0.60
  -5  -1  -5    0.20    0.30
   5   1   5    0.60    0.20
   5   1   5    0.10    0.30
   5   1   5    0.00    0.30
   5   1   5    0.10    0.30
  -6  -1  -5    6.40    0.70
   6   1   5    6.80    0.80
   6   1   5    8.20    0.70
   6   1   5    6.20    0.50
   6   1   5    6.80    0.50
  -7  -1  -5   50.19    2.00
   7   1   5   52.89    2.10
   7   1   5   51.49    2.00
  -8  -1  -5  134.09    4.60
   8   1   5  141.09    4.80
   8   1   5  137.69    4.60
  -9  -1  -5    7.50    1.00
   9   1   5   11.00    1.10
   9   1   5    7.80    0.80
  10  -2  -5    1.00    0.60
 -10   2   5    2.80    0.70
   9  -2  -5   21.10    1.20
   9  -2  -5   18.20    1.30
   8  -2  -5    4.90    0.50
   8  -2  -5    6.10    0.90
   8  -2  -5    6.20    0.70
   8  -2  -5    5.90    0.80
  -8   2   5    5.80    0.60
   7  -2  -5   22.60    1.20
   7  -2  -5   22.10    1.10
   7  -2  -5   21.20    0.90
   7  -2  -5   21.80    1.20
  -7   2   5   22.00    1.00
   6  -2  -5    0.10    0.40
   6  -2  -5    0.70    0.40
   6  -2  -5    0.90    0.50
   6  -2  -5    0.40    0.30
   5  -2  -5    0.30    0.30
   5  -2  -5    0.20    0.40
   5  -2  -5    0.00    0.20
   5  -2  -5    0.10    0.30
   4  -2  -5    9.20    0.50
   4  -2  -5    9.90    0.70
   4  -2  -5    9.00    0.60
  -4   2   5    6.60    0.70
  -4   2   5    8.20    0.80
   3  -2  -5   11.60    0.60
   3  -2  -5   11.70    0.80
   3  -2  -5   11.10    0.60
  -3   2   5   10.50    0.70
  -3   2   5   12.40    0.70
   2  -2  -5   65.89    2.20
   2  -2  -5   66.19    2.20
  -2   2   5   65.19    2.10
  -2   2   5   64.89    2.30
  -2   2   5   64.49    2.20
   1  -2  -5    2.50    0.30
  -1   2   5    2.70    0.40
  -1   2   5    3.50    0.30
  -1   2   5    2.50    0.40
   0  -2  -5   10.30    0.70
   0   2   5    8.80    0.50
   0   2   5   10.60    0.60
   0   2   5    8.60    0.60
  -1  -2  -5    7.60    0.60
  -1  -2  -5    8.00    0.50
   1   2   5    8.50    0.50
   1   2   5    8.40    0.50
   1   2   5    7.30    0.70
   1   2   5    9.10    0.50
  -2  -2  -5    8.40    0.50
  -2  -2  -5    6.50    0.60
   2   2   5    8.90    0.50
   2   2   5    7.00    0.40
   2   2   5    6.10    0.50
  -3  -2  -5    9.80    0.80
  -3  -2  -5   11.30    0.70
   3   2   5   13.30    0.60
   3   2   5   13.70    0.70
   3   2   5   13.00    0.60
   3   2   5   12.40    0.80
  -4  -2  -5    2.90    0.40
   4   2   5    2.10    0.40
   4   2   5    2.80    0.30
   4   2   5    2.90    0.40
   4   2   5    1.90    0.30
  -5  -2  -5    1.20    0.40
   5   2   5    0.60    0.50
   5   2   5    0.80    0.40
   5   2   5    0.70    0.30
   5   2   5    0.50    0.40
  -6  -2  -5    0.40    0.40
   6   2   5    0.00    0.40
   6   2   5    0.40    0.30
   6   2   5   -0.10    0.40
   6   2   5    0.20    0.40
  -7  -2  -5    0.50    0.60
   7   2   5    0.20    0.40
   7   2   5    0.10    0.60
   7   2   5    0.30    0.30
  -8  -2  -5    2.20    0.60
   8   2   5    2.40    0.50
   8   2   5    2.60    0.60
   9   2   5    0.20    0.50
   9   2   5   -0.70    0.70
  10  -3  -5    0.00    0.60
 -10   3   5    3.40    0.80
   9  -3  -5    4.10    0.60
   9  -3  -5    4.10    0.50
   9  -3  -5    4.50    0.50
  -9   3   5    4.10    0.70
   8  -3  -5   23.30    1.20
   8  -3  -5   22.50    1.00
   8  -3  -5   24.10    1.20
  -8   3   5   25.50    1.40
   7  -3  -5   34.50    1.50
   7  -3  -5   34.00    1.40
   7  -3  -5   33.50    1.30
  -7   3   5   34.40    1.60
   6  -3  -5   38.20    1.50
   6  -3  -5   37.00    1.50
   6  -3  -5   38.80    1.60
  -6   3   5   35.70    1.70
   5  -3  -5   27.20    1.10
   5  -3  -5   26.70    1.20
   5  -3  -5   25.30    1.00
  -5   3   5   21.20    1.30
   4  -3  -5   15.40    0.70
   4  -3  -5   15.70    0.80
  -4   3   5   14.30    0.90
  -4   3   5   15.70    1.00
   3  -3  -5    0.30    0.40
   3  -3  -5    0.10    0.20
   3  -3  -5   -0.20    0.20
  -3   3   5   -0.10    0.40
  -3   3   5    0.40    0.40
   2  -3  -5   12.30    0.60
   2  -3  -5   12.30    0.70
  -2   3   5   11.90    0.80
  -2   3   5   12.00    0.70
   1  -3  -5  335.47   10.60
   1  -3  -5  332.37   10.60
  -1   3   5  336.17   10.60
  -1   3   5  335.57   10.60
  -1   3   5  334.47   10.50
   0  -3  -5  112.79    3.60
   0   3   5  108.09    3.60
   0   3   5  109.19    3.50
   0   3   5  110.29    3.60
   0   3   5  108.09    3.60
  -1  -3  -5   68.09    2.30
   1   3   5   69.59    2.30
   1   3   5   68.89    2.40
   1   3   5   68.09    2.30
  -2  -3  -5   -0.20    0.30
  -2  -3  -5   -0.40    0.20
   2   3   5   -0.30    0.20
   2   3   5   -0.40    0.30
   2   3   5    0.10    0.40
   2   3   5    0.00    0.20
  -3  -3  -5   47.00    1.70
  -3  -3  -5   45.50    1.80
   3   3   5   46.10    1.70
   3   3   5   45.80    1.80
   3   3   5   47.10    1.70
   3   3   5   46.20    1.70
  -4  -3  -5    7.80    0.70
   4   3   5    5.70    0.50
   4   3   5    5.30    0.60
   4   3   5    6.30    0.50
   4   3   5    6.60    0.70
  -5  -3  -5   39.10    1.50
   5   3   5   38.00    1.60
   5   3   5   38.30    1.50
   5   3   5   39.30    1.50
   5   3   5   36.70    1.50
  -6  -3  -5   15.60    1.00
   6   3   5   15.20    0.80
   6   3   5   15.10    0.90
   6   3   5   15.30    1.00
   6   3   5   15.20    1.10
  -7  -3  -5    0.10    0.60
   7   3   5    1.00    0.60
   7   3   5   -0.10    0.30
   7   3   5   -0.70    0.50
   7   3   5    0.20    0.40
   8   3   5    4.20    0.70
   8   3   5    4.20    0.60
   9  -4  -5    3.70    0.70
   9  -4  -5    4.00    0.60
  -9   4   5    4.30    0.80
   8  -4  -5    4.20    0.60
   8  -4  -5    5.20    0.60
   8  -4  -5    4.80    0.60
  -8   4   5    4.10    0.70
   7  -4  -5   92.19    3.20
   7  -4  -5   93.49    3.30
   7  -4  -5   93.89    3.20
  -7   4   5   94.49    3.40
   6  -4  -5  318.97    9.90
   6  -4  -5  306.37    9.90
   6  -4  -5  309.97    9.90
  -6   4   5  306.77   10.00
   5  -4  -5  134.59    4.60
   5  -4  -5  142.19    4.60
   5  -4  -5  137.99    4.60
  -5   4   5  141.79    4.70
   4  -4  -5  221.78    7.00
   4  -4  -5  213.58    7.00
   4  -4  -5  212.98    7.00
  -4   4   5  215.38    7.10
  -4   4   5  223.38    7.00
   3  -4  -5   12.80    0.70
   3  -4  -5   12.30    0.80
  -3   4   5   12.70    0.90
  -3   4   5   12.70    0.90
   2  -4  -5  257.57    7.90
   2  -4  -5  252.27    7.90
  -2   4   5  261.17    8.00
  -2   4   5  220.98    8.10
   1  -4  -5   25.30    1.20
   1  -4  -5   27.20    1.10
  -1   4   5   26.40    1.00
  -1   4   5   27.40    1.10
   0  -4  -5   15.60    0.80
   0  -4  -5   16.30    0.90
   0   4   5   17.20    0.80
   0   4   5   16.50    0.70
   0   4   5   16.00    0.90
  -1  -4  -5   10.40    0.90
  -1  -4  -5   10.30    0.70
   1   4   5   10.80    0.60
   1   4   5   11.20    0.70
   1   4   5   10.20    0.70
  -2  -4  -5  197.38    6.30
  -2  -4  -5  200.08    6.20
   2   4   5  196.08    6.30
   2   4   5  178.88    6.30
   2   4   5  197.68    6.30
   2   4   5  193.38    6.20
  -3  -4  -5    9.00    1.10
  -3  -4  -5    7.40    0.80
   3   4   5    8.70    0.60
   3   4   5    8.30    0.80
   3   4   5    9.30    0.60
  -4  -4  -5   71.79    2.50
   4   4   5   71.79    2.50
   4   4   5   72.99    2.60
   4   4   5   69.79    2.60
   4   4   5   69.49    2.60
  -5  -4  -5   12.80    0.90
   5   4   5   13.80    1.00
   5   4   5   13.40    0.80
   5   4   5   13.80    0.90
  -6  -4  -5   10.40    1.00
   6   4   5    9.00    0.80
   6   4   5   10.80    0.70
  -7  -4  -5    1.10    0.70
   7   4   5    1.40    0.50
   7   4   5    1.60    0.60
   7   4   5    1.00    0.40
   8   4   5   17.50    0.90
   8   4   5   14.70    0.90
   8   4   5   19.30    1.20
   8   4   5   17.40    1.30
   9  -5  -5   -0.70    0.50
   9  -5  -5    0.90    0.40
  -9   5   5   -0.60    0.80
   8  -5  -5    0.80    0.50
   8  -5  -5    0.00    0.40
  -8   5   5   -0.40    0.60
   7  -5  -5   -0.20    0.30
   7  -5  -5    0.60    0.50
  -7   5   5    0.50    0.50
   6  -5  -5   41.90    1.70
   6  -5  -5   41.60    1.60
  -6   5   5   40.60    1.90
   5  -5  -5  211.38    7.00
   5  -5  -5  213.18    7.30
  -5   5   5  221.88    7.10
   4  -5  -5  474.75   14.90
   4  -5  -5  460.45   14.90
  -4   5   5  478.65   14.90
  -4   5   5  471.95   15.00
   3  -5  -5   68.79    2.50
   3  -5  -5   65.19    2.40
  -3   5   5   70.59    2.50
  -3   5   5   70.09    2.50
   2  -5  -5  245.98    7.90
   2  -5  -5  240.48    7.80
  -2   5   5  243.48    7.90
  -2   5   5  247.48    7.90
   1  -5  -5    2.90    0.40
   1  -5  -5    3.10    0.50
  -1   5   5    2.30    0.40
  -1   5   5    3.30    0.50
  -1   5   5    3.60    0.30
   0  -5  -5   42.90    1.60
   0  -5  -5   40.70    1.70
   0   5   5   41.80    1.50
   0   5   5   41.40    1.70
   0   5   5   40.60    1.60
  -1  -5  -5   49.99    1.80
  -1  -5  -5   45.40    2.20
   1   5   5   49.50    1.80
   1   5   5   49.99    1.90
   1   5   5   49.99    1.90
  -2  -5  -5  120.49    4.20
  -2  -5  -5  127.39    4.10
   2   5   5  123.99    4.00
   2   5   5  122.09    4.10
   2   5   5  122.69    4.10
  -3  -5  -5    1.90    0.50
   3   5   5    1.20    0.50
   3   5   5    2.20    0.40
  -4  -5  -5   -0.50    0.60
   4   5   5    0.50    0.40
   4   5   5   -0.60    0.50
   4   5   5    0.10    0.40
  -5  -5  -5    1.50    0.70
   5   5   5    1.30    0.60
   5   5   5    0.80    0.40
   5   5   5    1.00    0.50
  -6  -5  -5   17.50    1.40
   6   5   5   18.90    1.10
   6   5   5   17.80    1.00
   6   5   5   19.30    1.20
   7   5   5    0.40    0.40
   7   5   5    0.80    0.60
   7   5   5    1.20    0.60
   9  -6  -5    2.70    0.50
   9  -6  -5    2.40    0.60
  -9   6   5    2.60    0.90
   8  -6  -5    0.20    0.50
   8  -6  -5    0.20    0.40
  -8   6   5    0.60    0.70
   7  -6  -5   34.90    1.70
   7  -6  -5   40.70    1.60
  -7   6   5   36.20    1.90
   6  -6  -5    0.70    0.40
   6  -6  -5    0.50    0.40
  -6   6   5    0.20    0.60
   5  -6  -5   26.40    1.20
   5  -6  -5   24.50    1.30
  -5   6   5   25.60    1.40
   4  -6  -5   17.10    1.10
   4  -6  -5   16.40    1.00
  -4   6   5   17.20    1.20
   3  -6  -5    3.00    0.50
  -3   6   5    2.30    0.70
   2  -6  -5    2.70    0.70
   2  -6  -5    2.10    0.40
  -2   6   5    2.20    0.60
  -2   6   5    2.10    0.50
   1  -6  -5  219.38    7.00
   1  -6  -5  214.98    6.90
  -1   6   5  210.38    7.00
   0  -6  -5    2.10    0.60
   0  -6  -5    3.10    0.50
   0   6   5    2.90    0.40
   0   6   5    2.90    0.60
   0   6   5    2.90    0.50
  -1  -6  -5    4.70    0.70
  -1  -6  -5    6.30    0.80
   1   6   5    5.90    0.80
   1   6   5    5.50    0.50
   1   6   5    4.70    0.60
  -2  -6  -5   16.70    1.70
  -2  -6  -5   14.90    1.00
   2   6   5   14.40    0.90
   2   6   5   15.30    1.00
   2   6   5   12.80    1.00
  -3  -6  -5   15.10    1.10
   3   6   5   15.70    0.90
   3   6   5   15.20    1.00
  -4  -6  -5    0.20    0.60
   4   6   5    0.20    0.50
   4   6   5   -0.60    0.50
   4   6   5   -0.40    0.40
  -5  -6  -5    0.40    0.70
   5   6   5    1.40    0.50
   5   6   5    1.20    0.50
   5   6   5    1.40    0.50
  -6  -6  -5    0.60    0.60
   6   6   5    1.10    0.60
   6   6   5    1.50    0.50
   8  -7  -5    1.20    0.50
   8  -7  -5    2.20    0.50
  -8   7   5    0.60    0.80
   7  -7  -5    0.20    0.50
   7  -7  -5    1.60    0.50
  -7   7   5    1.00    0.70
   6  -7  -5    2.10    0.50
   6  -7  -5    1.90    0.50
  -6   7   5    2.60    0.70
   5  -7  -5    1.90    0.50
   5  -7  -5    2.50    0.50
  -5   7   5    2.30    0.60
   4  -7  -5    0.10    0.40
   4  -7  -5    0.10    0.40
  -4   7   5    0.90    0.60
   3  -7  -5    2.90    0.60
   3  -7  -5    1.50    0.50
  -3   7   5    3.00    0.60
  -3   7   5    3.10    0.90
   2  -7  -5   17.20    1.00
   2  -7  -5   17.00    1.20
  -2   7   5   20.30    1.70
  -2   7   5   15.20    1.10
   1  -7  -5    0.20    0.40
   1  -7  -5   -0.50    0.60
  -1   7   5    0.20    0.40
  -1   7   5   -0.10    0.70
   0  -7  -5   68.69    2.50
   0  -7  -5   69.49    2.70
   0  -7  -5   63.19    2.30
   0   7   5   63.89    2.50
   0   7   5   69.09    2.60
  -1  -7  -5    0.50    0.50
  -1  -7  -5    1.00    0.50
  -1  -7  -5    0.40    0.90
   1   7   5    1.70    0.70
   1   7   5    1.00    0.40
  -2  -7  -5   23.50    1.30
  -2  -7  -5   22.00    1.10
   2   7   5   23.20    1.20
   2   7   5   23.40    1.30
  -3  -7  -5   -0.30    0.60
  -3  -7  -5    0.10    0.40
   3   7   5   -0.40    0.40
   3   7   5   -0.50    0.50
  -4  -7  -5   31.80    1.70
  -4  -7  -5   33.70    1.50
   4   7   5   30.60    1.60
   4   7   5   33.00    1.60
  -5  -7  -5   37.50    1.70
   5   7   5   37.10    1.70
   5   7   5   38.30    1.80
  -6  -7  -5    1.00    0.70
   6   7   5   -0.20    0.60
   6   7   5    1.20    0.70
   7  -8  -5   22.40    1.30
   7  -8  -5   21.60    1.50
  -7   8   5   21.70    1.70
   6  -8  -5   27.20    1.50
   6  -8  -5   29.00    1.40
  -6   8   5   25.30    1.70
   5  -8  -5    1.80    0.50
   5  -8  -5    1.50    0.50
  -5   8   5    1.20    0.60
   4  -8  -5   15.50    1.10
   4  -8  -5   16.10    1.20
  -4   8   5   13.40    1.20
   3  -8  -5    0.90    0.60
   3  -8  -5    1.00    0.50
  -3   8   5    0.20    0.50
   2  -8  -5   -0.40    0.50
   2  -8  -5    0.90    0.80
  -2   8   5    0.00    0.50
  -2   8   5    0.40    0.90
   1  -8  -5    6.30    0.80
   1  -8  -5    7.30    0.80
   1  -8  -5    6.80    1.00
  -1   8   5    6.70    1.00
  -1   8   5    8.40    0.90
   0  -8  -5    0.60    0.40
   0  -8  -5   -0.20    0.50
   0  -8  -5    0.30    0.90
   0   8   5   -0.60    0.40
   0   8   5    0.00    0.80
  -1  -8  -5    4.30    0.60
   1   8   5    4.80    0.70
   1   8   5    4.20    0.60
  -2  -8  -5    4.70    0.60
   2   8   5    3.30    0.80
   2   8   5    3.80    0.70
  -3  -8  -5    1.30    0.80
  -3  -8  -5    2.10    0.60
   3   8   5    2.10    0.60
   3   8   5    1.20    0.70
  -4  -8  -5   51.39    2.10
   4   8   5   50.39    2.30
   4   8   5   52.09    2.20
   6  -9  -5   22.00    1.30
   6  -9  -5   19.80    1.60
  -6   9   5   19.40    1.60
   5  -9  -5   56.49    2.40
   5  -9  -5   61.79    2.40
  -5   9   5   54.99    2.70
   4  -9  -5   66.09    2.60
   4  -9  -5   62.69    2.50
  -4   9   5   63.59    2.70
   3  -9  -5   29.90    1.60
   3  -9  -5   28.80    1.50
  -3   9   5   27.40    1.60
   2  -9  -5    1.50    0.60
   2  -9  -5    0.80    0.50
  -2   9   5    2.10    0.60
  -2   9   5    1.30    1.00
   1  -9  -5    7.10    1.10
   1  -9  -5    6.80    1.00
  -1   9   5    7.60    1.00
  -1   9   5    7.80    1.10
   0  -9  -5    0.60    0.60
   0  -9  -5    0.80    1.40
   0  -9  -5    0.10    0.60
   0   9   5    0.90    0.70
   0   9   5    1.00    0.60
  -1  -9  -5    9.10    1.10
  -1  -9  -5   10.90    0.90
   1   9   5   10.10    1.00
   1   9   5   11.00    1.30
  -2  -9  -5    0.00    0.50
  -2  -9  -5   -0.80    0.60
   2   9   5    0.40    0.70
   2   9   5   -0.50    0.70
  -3  -9  -5   -0.50    0.60
   3   9   5    1.10    0.70
   3   9   5   -1.40    0.80
   5 -10  -5    2.90    0.90
   5 -10  -5    3.10    0.80
  -5  10   5    2.60    1.00
   4 -10  -5   16.00    1.40
   4 -10  -5   17.30    1.30
  -4  10   5   17.10    1.40
   3 -10  -5    8.10    1.00
   3 -10  -5    9.30    1.10
  -3  10   5   10.10    1.10
   2 -10  -5    0.90    0.80
   2 -10  -5    0.90    0.60
  -2  10   5    1.60    0.60
   1 -10  -5   19.30    1.70
   1 -10  -5   21.60    1.40
  -1  10   5   21.70    1.70
  -1  10   5   20.20    1.40
   0 -10  -5   -0.60    0.60
   0  10   5    1.60    0.90
   0  10   5    0.70    0.60
  -1 -10  -5    2.40    0.70
  -1 -10  -5    2.90    0.60
   1  10   5    3.80    0.90
   1  10   5    3.20    0.70
   1  12  -6    4.30    1.00
   1  12  -6    2.60    0.90
  -1 -12   6    3.20    0.60
   0  12  -6   -0.90    1.00
   0  12  -6   -0.90    0.80
   0 -12   6   -0.60    0.50
   0 -12   6    1.50    0.80
  -1  12  -6    0.90    0.80
   1 -12   6    0.30    0.50
   1 -12   6    1.10    0.80
  -2  12  -6   10.70    1.30
   2 -12   6   12.80    1.30
   2 -12   6    9.40    0.90
   2 -12   6   12.00    1.10
  -3  12  -6    1.80    0.70
   3 -12   6    1.00    0.60
   3 -12   6    1.00    0.70
  -4  12  -6    1.60    0.80
   4 -12   6   -0.80    0.60
   4 -12   6   -0.10    0.60
   3  11  -6   42.70    2.20
   3  11  -6   45.70    2.20
  -3 -11   6   40.40    1.80
   2  11  -6   11.80    1.40
   2  11  -6    8.50    1.30
  -2 -11   6   11.20    1.00
   1  11  -6    1.50    0.80
   1  11  -6    1.90    0.80
  -1 -11   6    2.60    0.50
   0  11  -6    0.50    1.00
   0  11  -6    0.70    0.70
   0 -11   6    0.20    0.50
   0 -11   6   -0.20    1.00
  -1  11  -6    1.50    0.80
   1 -11   6    1.40    0.40
   1 -11   6   -0.10    0.70
   1 -11   6    1.20    0.60
  -2  11  -6    1.60    0.60
   2 -11   6    1.80    0.60
   2 -11   6    0.80    0.50
   2 -11   6    0.80    0.50
  -3  11  -6   12.50    1.20
   3 -11   6   14.20    1.10
   3 -11   6   11.30    0.90
   3 -11   6   12.30    1.00
  -4  11  -6   11.40    1.10
   4 -11   6    9.20    1.00
   4 -11   6    9.90    0.80
   4 -11   6    7.80    1.00
  -5  11  -6    9.70    1.20
   5 -11   6    8.40    1.00
   5 -11   6    8.70    1.00
   6 -11   6    3.90    0.70
   6 -11   6    4.00    0.60
   5  10  -6    1.30    0.70
   5  10  -6    0.60    0.70
  -5 -10   6    0.00    0.80
   4  10  -6   12.90    1.30
   4  10  -6   14.30    1.60
  -4 -10   6   12.60    1.10
   3  10  -6    0.10    0.60
   3  10  -6    1.30    0.70
  -3 -10   6    1.10    0.50
   2  10  -6   82.29    3.30
   2  10  -6   87.39    3.20
  -2 -10   6   80.49    2.90
   1  10  -6   23.20    1.50
   1  10  -6   24.60    1.70
  -1 -10   6   24.40    1.20
  -1 -10   6   24.20    1.80
   0  10  -6    0.50    0.60
   0  10  -6    0.20    0.80
   0 -10   6    1.20    1.00
   0 -10   6    0.50    0.60
   0 -10   6    0.60    0.40
  -1  10  -6   -0.10    0.60
  -1  10  -6   -0.70    1.10
   1 -10   6    0.30    0.40
   1 -10   6   -0.50    0.50
   1 -10   6    0.20    0.70
  -2  10  -6    1.60    0.60
   2 -10   6    0.60    0.50
   2 -10   6    1.70    0.50
  -3  10  -6   49.10    2.00
   3 -10   6   51.69    2.10
   3 -10   6   48.20    1.90
   3 -10   6   50.49    1.90
  -4  10  -6   24.10    1.30
   4 -10   6   24.60    1.30
   4 -10   6   23.60    1.20
   4 -10   6   23.80    1.30
  -5  10  -6    2.10    0.60
   5 -10   6    0.80    0.50
   5 -10   6    2.50    0.50
   5 -10   6    2.50    0.60
  -6  10  -6    2.80    0.70
   6 -10   6    2.00    0.70
   6 -10   6    1.50    0.50
   6 -10   6    1.40    0.70
  -7  10  -6    7.20    1.10
   7 -10   6    6.30    0.80
   7 -10   6    5.70    0.80
   6   9  -6    0.20    0.80
   6   9  -6    0.70    0.60
  -6  -9   6    1.90    0.60
   5   9  -6    4.10    0.80
   5   9  -6    4.00    0.70
  -5  -9   6    3.90    0.70
   4   9  -6    1.10    0.60
   4   9  -6    1.30    0.60
  -4  -9   6    1.30    0.50
   3   9  -6   56.99    2.30
   3   9  -6   54.99    2.30
  -3  -9   6   52.49    2.10
   2   9  -6    8.50    1.10
   2   9  -6    7.50    1.00
  -2  -9   6    9.10    0.80
  -2  -9   6   10.00    1.10
   1   9  -6    6.70    1.00
   1   9  -6    7.50    0.80
   1   9  -6    7.40    0.90
  -1  -9   6    9.80    1.30
  -1  -9   6    7.60    0.70
   0   9  -6   -0.10    0.50
   0   9  -6    0.30    1.00
   0  -9   6   -0.10    0.30
   0  -9   6    0.10    0.50
   0  -9   6    0.60    0.80
  -1   9  -6   27.50    1.70
   1  -9   6   26.40    1.50
   1  -9   6   26.80    1.30
   1  -9   6   25.40    1.20
  -2   9  -6    0.80    0.80
  -2   9  -6    0.90    0.60
   2  -9   6    0.30    0.50
   2  -9   6    1.20    0.50
   2  -9   6    1.00    0.40
  -3   9  -6   31.50    1.50
   3  -9   6   31.70    1.40
   3  -9   6   30.10    1.30
   3  -9   6   29.00    1.50
  -4   9  -6   40.30    2.10
   4  -9   6   42.30    1.60
   4  -9   6   43.50    1.70
   4  -9   6   42.50    1.70
  -5   9  -6    4.60    0.70
   5  -9   6    3.90    0.50
   5  -9   6    3.50    0.60
   5  -9   6    3.50    0.50
  -6   9  -6    0.60    0.50
   6  -9   6    0.30    0.50
   6  -9   6    0.60    0.40
   6  -9   6   -0.40    0.50
  -7   9  -6    5.90    0.80
   7  -9   6    6.40    0.90
   7  -9   6    7.80    0.70
   7  -9   6    6.10    0.70
  -8   9  -6   -0.50    0.80
   8  -9   6    0.40    0.40
   8  -9   6    0.40    0.70
   7   8  -6   10.40    1.20
   7   8  -6   11.90    1.40
  -7  -8   6   11.30    1.20
   6   8  -6    0.00    0.60
   6   8  -6    0.10    0.50
  -6  -8   6   -0.10    0.60
   5   8  -6   -0.20    0.50
   5   8  -6    0.40    0.50
  -5  -8   6    0.40    0.50
   4   8  -6    0.50    0.50
   4   8  -6    0.10    0.50
  -4  -8   6    0.60    0.40
   3   8  -6    0.30    0.40
   3   8  -6    0.30    0.50
  -3  -8   6   -0.10    0.40
   2   8  -6    7.20    1.00
   2   8  -6    6.20    0.90
  -2  -8   6    7.50    0.90
  -2  -8   6    6.70    0.70
   1   8  -6    5.00    0.70
   1   8  -6    5.10    0.70
   1   8  -6    5.10    0.70
  -1  -8   6    5.90    0.80
   0   8  -6   40.50    1.80
   0   8  -6   41.40    1.80
   0  -8   6   40.60    1.80
   0  -8   6   41.60    1.60
   0  -8   6   42.20    1.60
  -1   8  -6   54.89    2.10
  -1   8  -6   55.79    2.20
   1  -8   6   54.49    2.10
   1  -8   6   52.89    2.00
   1  -8   6   53.79    1.90
  -2   8  -6  159.18    5.70
  -2   8  -6  170.58    5.50
   2  -8   6  172.18    5.40
   2  -8   6  166.98    5.50
   2  -8   6  166.38    5.40
  -3   8  -6    3.80    0.60
   3  -8   6    3.80    0.50
   3  -8   6    3.70    0.50
   3  -8   6    3.40    0.50
  -4   8  -6   43.70    1.80
   4  -8   6   43.80    1.80
   4  -8   6   45.10    1.70
   4  -8   6   45.40    1.70
  -5   8  -6   63.19    2.40
   5  -8   6   64.89    2.40
   5  -8   6   62.69    2.30
   5  -8   6   64.59    2.30
  -6   8  -6   15.80    1.30
   6  -8   6   14.80    1.00
   6  -8   6   13.50    1.00
   6  -8   6   15.80    0.90
  -7   8  -6   12.10    1.10
   7  -8   6   11.80    1.00
   7  -8   6   12.60    1.00
   7  -8   6   12.00    0.80
  -8   8  -6   17.90    1.50
   8  -8   6   22.80    1.00
   8  -8   6   19.40    1.30
   8  -8   6   20.00    1.10
   8  -8   6   23.30    1.40
   7   7  -6    9.20    0.90
   7   7  -6   10.90    1.30
  -7  -7   6   11.40    1.10
   6   7  -6   24.30    1.50
   6   7  -6   26.10    1.30
  -6  -7   6   24.90    1.30
   5   7  -6   11.90    1.00
   5   7  -6   13.40    1.10
   4   7  -6    0.30    0.40
   4   7  -6    0.30    0.40
  -4  -7   6    0.10    0.40
   3   7  -6   61.69    2.30
   3   7  -6   58.99    2.30
  -3  -7   6   58.89    2.10
  -3  -7   6   58.79    2.40
   2   7  -6    9.80    0.80
   2   7  -6   10.80    1.00
  -2  -7   6   12.10    0.70
  -2  -7   6   11.70    1.10
   1   7  -6   42.40    1.80
   1   7  -6   43.40    1.70
   1   7  -6   43.70    1.60
  -1  -7   6   45.00    1.80
  -1  -7   6   44.00    1.60
   0   7  -6   41.50    1.80
   0   7  -6   48.60    1.80
   0  -7   6   41.90    1.60
   0  -7   6   41.20    1.70
  -1   7  -6    0.40    0.40
  -1   7  -6    0.50    0.50
   1  -7   6    0.50    0.30
   1  -7   6    0.70    0.30
   1  -7   6    0.20    0.40
  -2   7  -6   93.19    3.30
  -2   7  -6   95.19    3.20
   2  -7   6   93.69    3.20
   2  -7   6   97.59    3.10
   2  -7   6   93.79    3.20
  -3   7  -6  214.18    6.80
  -3   7  -6  210.98    6.80
   3  -7   6  216.38    6.70
   3  -7   6  209.58    6.80
   3  -7   6  195.08    6.80
   3  -7   6  213.88    6.80
  -4   7  -6   76.39    2.70
   4  -7   6   74.99    2.80
   4  -7   6   79.99    2.80
   4  -7   6   82.09    2.90
   4  -7   6   78.09    2.60
  -5   7  -6    7.50    0.90
   5  -7   6    6.30    0.60
   5  -7   6    6.10    0.70
   5  -7   6    5.60    0.80
   5  -7   6    6.50    0.70
  -6   7  -6   23.10    1.30
   6  -7   6   23.10    1.20
   6  -7   6   22.70    1.20
   6  -7   6   23.70    1.10
   6  -7   6   24.20    1.00
  -7   7  -6    1.40    0.80
   7  -7   6    0.60    0.40
   7  -7   6    0.10    0.50
   7  -7   6    0.90    0.50
   7  -7   6    0.20    0.30
  -8   7  -6    9.00    1.30
   8  -7   6    8.70    0.80
   8  -7   6   10.30    1.00
  -9   7  -6    1.00    0.90
   9  -7   6    2.20    0.60
   9  -7   6    2.20    0.60
   8   6  -6    0.40    0.60
   8   6  -6    0.10    0.40
  -8  -6   6    0.70    0.60
   7   6  -6    9.40    1.10
   7   6  -6    6.90    0.80
  -7  -6   6    8.50    0.90
   6   6  -6   11.20    0.90
   6   6  -6   12.00    1.10
  -6  -6   6   12.90    0.90
   5   6  -6    0.30    0.40
   5   6  -6    1.00    0.50
  -5  -6   6    0.60    0.40
   4   6  -6    0.30    0.40
   4   6  -6   -0.10    0.40
  -4  -6   6    0.20    0.30
   3   6  -6    0.00    0.30
   3   6  -6   -0.10    0.50
  -3  -6   6    0.00    0.30
  -3  -6   6   -0.40    0.60
   2   6  -6    6.70    0.60
   2   6  -6    5.50    0.80
  -2  -6   6    7.50    0.90
  -2  -6   6    8.00    0.60
   1   6  -6    2.40    0.50
   1   6  -6    2.30    0.30
   1   6  -6    2.00    0.40
  -1  -6   6    2.10    0.50
  -1  -6   6    2.10    0.30
   0   6  -6    0.90    0.30
   0   6  -6    1.20    0.40
   0   6  -6    1.70    0.80
   0  -6   6    1.00    0.30
   0  -6   6    0.70    0.40
  -1   6  -6   52.89    1.90
  -1   6  -6   48.40    2.00
   1  -6   6   50.59    1.80
   1  -6   6   50.99    1.90
   1  -6   6   50.09    1.80
  -2   6  -6   23.90    1.00
  -2   6  -6   23.70    1.20
   2  -6   6   23.40    1.00
   2  -6   6   22.10    1.80
   2  -6   6   22.20    1.00
   2  -6   6   22.70    1.00
  -3   6  -6   23.10    1.00
  -3   6  -6   22.60    1.30
   3  -6   6   23.60    1.00
   3  -6   6   24.00    1.00
   3  -6   6   22.60    1.00
  -4   6  -6   21.90    1.00
   4  -6   6   21.10    0.90
   4  -6   6   20.50    1.00
   4  -6   6   20.30    1.10
   4  -6   6   21.30    0.90
  -5   6  -6    1.40    0.50
   5  -6   6    0.90    0.40
   5  -6   6    1.10    0.40
   5  -6   6    0.90    0.40
   5  -6   6    1.10    0.30
  -6   6  -6   51.19    2.00
   6  -6   6   48.00    1.80
   6  -6   6   49.70    1.80
   6  -6   6   49.00    1.80
   6  -6   6   49.30    1.90
  -7   6  -6    6.30    0.80
   7  -6   6    6.00    0.60
   7  -6   6    5.30    0.70
   7  -6   6    5.70    0.50
   7  -6   6    7.50    0.80
  -8   6  -6   21.80    1.60
   8  -6   6   20.90    1.10
   8  -6   6   23.20    1.30
  -9   6  -6   -0.10    0.70
   9  -6   6    0.10    0.50
   9  -6   6    0.90    0.50
   8   5  -6   -0.10    0.40
   8   5  -6   -0.30    0.60
  -8  -5   6    0.30    0.60
   7   5  -6    1.60    0.50
   7   5  -6    1.40    0.40
  -7  -5   6    2.40    0.50
   6   5  -6   -0.50    0.30
   6   5  -6    0.50    0.50
  -6  -5   6    0.10    0.40
   5   5  -6    0.60    0.40
   5   5  -6    1.00    0.40
  -5  -5   6    1.00    0.40
   4   5  -6   33.40    1.70
   4   5  -6   38.20    1.50
   4   5  -6   38.20    1.50
  -4  -5   6   33.50    1.60
  -4  -5   6   36.90    1.40
   3   5  -6  156.48    5.20
   3   5  -6  165.18    5.20
  -3  -5   6  159.98    5.20
  -3  -5   6  156.48    5.20
   2   5  -6    5.20    0.50
   2   5  -6    5.10    0.60
   2   5  -6    5.50    0.70
  -2  -5   6    6.50    0.80
  -2  -5   6    5.40    0.50
   1   5  -6   61.59    2.10
   1   5  -6   62.79    2.20
   1   5  -6   61.19    2.20
  -1  -5   6   63.19    2.20
  -1  -5   6   63.19    2.10
   0   5  -6   19.60    1.00
   0   5  -6   19.90    0.80
   0   5  -6   20.20    0.90
   0  -5   6   20.40    0.80
   0  -5   6   19.80    0.90
  -1   5  -6    3.40    0.40
  -1   5  -6    3.00    0.40
   1  -5   6    3.60    0.40
   1  -5   6    3.80    0.50
  -2   5  -6    0.60    0.40
  -2   5  -6    0.70    0.30
   2  -5   6    0.20    0.20
   2  -5   6    0.30    0.20
   2  -5   6    0.60    0.40
   2  -5   6    0.70    0.20
  -3   5  -6   -0.20    0.50
  -3   5  -6   -0.20    0.30
   3  -5   6    0.20    0.20
   3  -5   6   -0.20    0.20
   3  -5   6    0.30    0.30
   3  -5   6    0.10    0.40
  -4   5  -6    0.60    0.30
   4  -5   6    0.10    0.20
   4  -5   6    0.10    0.30
   4  -5   6    0.20    0.30
   4  -5   6    0.10    0.20
  -5   5  -6    1.10    0.40
   5  -5   6    0.70    0.30
   5  -5   6    1.20    0.40
   5  -5   6    0.90    0.40
   5  -5   6    1.10    0.30
  -6   5  -6    3.20    0.60
   6  -5   6    3.60    0.50
   6  -5   6    3.40    0.40
   6  -5   6    3.40    0.40
   6  -5   6    3.60    0.50
  -7   5  -6    2.70    0.70
   7  -5   6    3.80    0.80
   7  -5   6    2.80    0.50
  -8   5  -6    7.80    0.90
   8  -5   6   10.40    0.90
   8  -5   6    9.20    0.80
   9  -5   6    2.80    0.60
   9  -5   6    2.80    0.60
   9   4  -6    1.40    0.70
   9   4  -6    1.40    0.40
  -9  -4   6    2.60    0.70
   8   4  -6   17.50    1.00
   8   4  -6   20.20    1.40
  -8  -4   6   18.20    1.10
   7   4  -6   17.40    1.20
   7   4  -6   17.90    0.90
  -7  -4   6   18.60    1.00
   6   4  -6    0.00    0.40
   6   4  -6    0.10    0.30
  -6  -4   6    0.00    0.40
   5   4  -6   23.50    1.10
   5   4  -6   21.00    1.20
   5   4  -6   19.10    1.50
  -5  -4   6   21.90    1.00
   4   4  -6   10.60    0.70
   4   4  -6   10.50    0.70
  -4  -4   6   11.10    0.60
  -4  -4   6   10.20    1.00
   3   4  -6    1.70    0.50
   3   4  -6    2.00    0.40
   3   4  -6    1.90    0.40
  -3  -4   6    2.20    0.50
  -3  -4   6    2.10    0.30
   2   4  -6   27.90    1.20
   2   4  -6   29.30    1.00
   2   4  -6   28.00    1.10
  -2  -4   6   29.60    1.20
  -2  -4   6   27.90    1.10
   1   4  -6  317.57    9.70
   1   4  -6  310.17    9.70
   1   4  -6  307.97    9.80
  -1  -4   6  304.87    9.80
  -1  -4   6  302.47    9.70
   0   4  -6   33.90    1.60
   0   4  -6   37.10    1.30
   0   4  -6   37.60    1.30
   0  -4   6   37.20    1.30
   0  -4   6   38.70    1.40
  -1   4  -6   60.69    2.10
  -1   4  -6   60.59    2.00
  -1   4  -6   60.89    2.10
   1  -4   6   61.09    2.10
   1  -4   6   60.99    2.00
  -2   4  -6  189.18    6.10
  -2   4  -6  197.68    6.00
  -2   4  -6  188.88    6.10
   2  -4   6  192.08    6.10
   2  -4   6  183.28    6.10
   2  -4   6  192.58    6.10
  -3   4  -6    0.70    0.40
  -3   4  -6    0.60    0.30
   3  -4   6    0.60    0.30
   3  -4   6    0.40    0.20
   3  -4   6    0.30    0.20
   3  -4   6    0.60    0.20
  -4   4  -6   41.80    1.40
   4  -4   6   38.90    1.50
   4  -4   6   39.70    1.50
   4  -4   6   39.90    1.40
   4  -4   6   39.40    1.40
  -5   4  -6    0.00    0.40
   5  -4   6    0.40    0.20
   5  -4   6    0.10    0.30
   5  -4   6    0.50    0.30
   5  -4   6    0.40    0.30
   6  -4   6    0.20    0.30
   6  -4   6   -0.10    0.30
   6  -4   6   -0.10    0.40
   7  -4   6    0.40    0.30
  -8   4  -6    8.00    1.20
   8  -4   6   11.10    0.80
   8  -4   6   10.60    0.90
  -9   4  -6    0.40    0.60
   9  -4   6    1.50    0.50
   9   3  -6   59.19    2.20
   9   3  -6   60.39    2.10
   9   3  -6   60.99    2.70
  -9  -3   6   63.79    2.40
   8   3  -6   14.00    1.30
   8   3  -6   14.50    0.80
   8   3  -6   13.80    1.20
  -8  -3   6   15.40    1.00
   7   3  -6    3.30    0.70
   7   3  -6    3.80    0.60
   7   3  -6    3.40    0.60
  -7  -3   6    3.90    0.50
   6   3  -6  191.28    6.00
   6   3  -6  183.78    6.10
   6   3  -6  189.48    6.20
  -6  -3   6  182.68    6.10
   5   3  -6  173.98    5.70
   5   3  -6  177.28    5.70
   5   3  -6  180.08    5.80
  -5  -3   6  177.18    5.70
   4   3  -6    5.00    0.50
   4   3  -6    4.00    0.60
   4   3  -6    6.60    0.60
   4   3  -6    5.50    0.50
  -4  -3   6    5.40    0.50
  -4  -3   6    4.60    0.60
   3   3  -6  106.69    3.50
   3   3  -6  105.99    3.50
   3   3  -6  102.69    3.50
   3   3  -6  108.19    3.40
  -3  -3   6  107.99    3.50
  -3  -3   6  107.19    3.50
   2   3  -6  106.19    3.70
   2   3  -6  112.09    3.60
   2   3  -6  126.59    3.80
  -2  -3   6  108.09    3.60
  -2  -3   6  111.49    3.70
   1   3  -6   87.79    2.90
   1   3  -6   88.09    3.00
   1   3  -6   92.69    2.90
  -1  -3   6   88.79    3.00
  -1  -3   6   91.69    2.90
   0   3  -6  447.16   14.10
   0   3  -6  437.76   14.10
   0   3  -6  445.96   14.10
   0  -3   6  461.05   14.10
   0  -3   6  457.65   14.10
  -1   3  -6  161.48    5.10
  -1   3  -6  164.18    5.10
  -1   3  -6  160.78    5.00
   1  -3   6  159.88    5.10
   1  -3   6  163.28    5.10
   1  -3   6  144.89    5.10
  -2   3  -6  111.19    3.60
  -2   3  -6  110.29    3.60
   2  -3   6  111.49    3.60
   2  -3   6  110.19    3.60
  -3   3  -6   68.19    2.30
   3  -3   6   68.49    2.30
   3  -3   6   66.39    2.30
   3  -3   6   69.19    2.30
  -4   3  -6   35.40    1.30
   4  -3   6   35.40    1.20
   4  -3   6   32.40    1.40
   4  -3   6   34.40    1.30
  -5   3  -6   78.79    2.70
  -5   3  -6   75.79    2.60
   5  -3   6   77.89    2.60
   5  -3   6   81.39    2.60
   5  -3   6   77.19    2.60
  -6   3  -6    5.30    0.80
   6  -3   6    4.80    0.60
  -7   3  -6    3.50    0.50
  -7   3  -6    2.60    0.60
   7  -3   6    2.30    0.40
  -8   3  -6    1.80    0.70
  -8   3  -6    2.00    0.50
   8  -3   6    2.30    0.50
  -9   3  -6    5.70    0.70
   9  -3   6    7.40    0.90
   9   2  -6    2.00    0.90
   9   2  -6    2.00    0.30
   9   2  -6    1.10    0.40
  -9  -2   6    1.90    0.60
   8   2  -6    0.60    0.60
   8   2  -6    1.20    0.30
   8   2  -6    0.70    0.50
  -8  -2   6    0.20    0.50
   7   2  -6  109.59    3.70
   7   2  -6  109.59    3.80
   7   2  -6  114.89    3.70
   7   2  -6  113.09    4.00
   6   2  -6   33.70    1.30
   6   2  -6   33.50    1.50
   6   2  -6   34.10    1.30
   6   2  -6   35.20    1.60
  -6  -2   6   34.50    1.40
   5   2  -6    4.10    0.60
   5   2  -6    4.30    0.50
   5   2  -6    4.30    0.50
   5   2  -6    4.60    0.50
  -5  -2   6    4.30    0.50
   4   2  -6    7.90    0.60
   4   2  -6    8.70    0.80
   4   2  -6    8.70    0.50
   4   2  -6    8.70    0.50
  -4  -2   6    7.30    0.80
  -4  -2   6    9.10    0.60
   3   2  -6    3.90    0.40
   3   2  -6    3.20    0.40
   3   2  -6    2.70    0.40
   3   2  -6    3.80    0.50
  -3  -2   6    4.10    0.40
  -3  -2   6    3.50    0.40
   2   2  -6   29.70    1.20
   2   2  -6   35.70    1.30
   2   2  -6   28.70    1.10
  -2  -2   6   30.10    1.20
  -2  -2   6   32.80    1.10
   1   2  -6  160.18    5.10
   1   2  -6  165.58    5.10
  -1  -2   6  160.68    5.10
  -1  -2   6  156.18    5.10
   0   2  -6   71.39    2.30
   0   2  -6   70.19    2.40
   0   2  -6   71.99    2.40
   0  -2   6   73.69    2.40
   0  -2   6   71.29    2.40
  -1   2  -6   -0.20    0.30
  -1   2  -6   -0.10    0.20
   1  -2   6   -0.10    0.20
   1  -2   6   -0.30    0.20
   1  -2   6   -0.40    0.20
  -2   2  -6    2.00    0.30
  -2   2  -6    1.80    0.40
   2  -2   6    1.70    0.20
   2  -2   6    1.80    0.20
  -3   2  -6   20.60    0.90
   3  -2   6   21.50    0.90
   3  -2   6   20.00    0.80
   3  -2   6   21.20    0.80
  -4   2  -6   30.30    1.20
   4  -2   6   30.90    1.10
   4  -2   6   31.00    1.20
   4  -2   6   31.20    1.10
  -5   2  -6   64.09    2.20
   5  -2   6   62.99    2.20
   5  -2   6   61.29    2.10
   5  -2   6   65.39    2.10
  -6   2  -6   89.39    2.90
  -6   2  -6   82.79    3.00
   6  -2   6   86.19    2.90
  -7   2  -6    1.80    0.60
  -7   2  -6    0.00    0.30
   7  -2   6   -0.20    0.30
  -8   2  -6    7.70    0.80
   8  -2   6    6.00    0.70
  -9   2  -6    0.90    0.50
   9  -2   6    1.80    0.50
 -10  -1   6    3.90    0.70
   9   1  -6    0.40    0.30
   9   1  -6    0.70    0.80
   9   1  -6    0.40    0.40
  -9  -1   6    0.50    0.50
   8   1  -6    1.30    0.50
   8   1  -6    0.90    0.60
   8   1  -6    1.30    0.30
   8   1  -6    2.10    0.60
  -8  -1   6    2.30    0.50
   7   1  -6    1.80    0.50
   7   1  -6    2.30    0.50
   7   1  -6    1.60    0.30
   7   1  -6    2.10    0.50
  -7  -1   6    2.20    0.50
   6   1  -6   15.10    1.00
   6   1  -6   15.10    0.80
  -6  -1   6   14.50    0.80
   5   1  -6   77.89    2.60
   5   1  -6   76.59    2.70
   5   1  -6   79.29    2.80
   5   1  -6   77.89    2.60
  -5  -1   6   80.69    2.60
   4   1  -6   95.79    3.30
   4   1  -6   99.89    3.30
   4   1  -6  100.99    3.40
   4   1  -6  104.39    3.30
  -4  -1   6  104.19    3.30
  -4  -1   6   96.79    3.30
   3   1  -6   10.70    0.60
   3   1  -6   12.00    0.60
   3   1  -6   12.20    0.60
   3   1  -6   11.20    0.70
  -3  -1   6   11.50    0.70
  -3  -1   6   11.50    0.60
   2   1  -6   17.80    0.80
   2   1  -6   17.20    0.80
  -2  -1   6   17.90    0.70
   1   1  -6   27.50    1.10
   1   1  -6   29.70    1.10
  -1  -1   6   30.00    1.00
  -1  -1   6   30.20    1.10
   0   1  -6  131.09    4.30
   0   1  -6  131.79    4.30
   0   1  -6  139.99    4.30
   0  -1   6  135.69    4.30
   0  -1   6  134.29    4.30
  -1   1  -6   14.40    0.70
  -1   1  -6   14.10    0.60
   1  -1   6   13.70    0.60
   1  -1   6   13.50    0.60
   1  -1   6   12.60    0.70
  -2   1  -6   61.09    2.10
  -2   1  -6   62.09    2.10
   2  -1   6   59.89    2.00
   2  -1   6   59.49    2.00
  -3   1  -6   37.70    1.30
   3  -1   6   36.00    1.30
   3  -1   6   34.90    1.30
   3  -1   6   35.50    1.30
  -4   1  -6    1.10    0.30
   4  -1   6    2.00    0.30
   4  -1   6    1.60    0.30
   4  -1   6    1.60    0.20
  -5   1  -6    0.70    0.30
   5  -1   6    0.90    0.30
   5  -1   6    0.50    0.20
   5  -1   6    0.70    0.30
   5  -1   6    1.30    0.30
  -6   1  -6    3.00    0.50
   6  -1   6    2.60    0.50
  -7   1  -6   -0.20    0.30
   7  -1   6    0.10    0.40
   7  -1   6    0.20    0.50
  -8   1  -6   19.10    1.10
   8  -1   6   19.30    1.40
   8  -1   6   21.20    1.10
  -9   1  -6   -0.70    0.50
   9  -1   6   -0.40    0.50
  10   0  -6    0.70    0.70
 -10   0   6    1.30    0.60
   9   0  -6    2.40    0.40
   9   0  -6    2.30    0.30
   9   0  -6    1.30    0.80
   9   0  -6    1.50    0.50
  -9   0   6    2.20    0.50
   8   0  -6    8.00    1.00
   8   0  -6    8.10    0.60
   8   0  -6    8.30    0.90
   8   0  -6    7.40    1.00
  -8   0   6    7.40    1.00
   7   0  -6    1.30    0.50
   7   0  -6    0.60    0.30
   7   0  -6    1.30    0.50
   7   0  -6    1.00    0.50
  -7   0   6    1.50    0.50
   6   0  -6    1.30    0.40
   6   0  -6    1.40    0.40
  -6   0   6    1.50    0.40
   5   0  -6    0.40    0.40
   5   0  -6    0.50    0.30
   5   0  -6    0.70    0.20
   5   0  -6    0.20    0.30
  -5   0   6    0.70    0.30
   4   0  -6   83.39    2.90
   4   0  -6   79.79    2.80
   4   0  -6   86.09    2.80
   4   0  -6   84.59    2.80
  -4   0   6   80.69    2.80
  -4   0   6   85.49    2.70
   3   0  -6    0.10    0.20
   3   0  -6    0.20    0.20
   3   0  -6    0.00    0.20
   3   0  -6    0.10    0.30
  -3   0   6    0.10    0.20
  -3   0   6   -0.10    0.30
   2   0  -6  179.78    6.20
   2   0  -6  192.28    6.20
   2   0  -6  189.58    6.20
  -2   0   6  183.18    6.10
  -2   0   6  222.28    6.20
   1   0  -6   16.40    0.80
  -1   0   6   16.30    0.60
  -1   0   6   15.20    0.70
   0   0  -6   -0.30    0.20
   0   0  -6    0.20    0.30
   0   0   6    0.40    0.20
   0   0   6    0.20    0.20
  -1   0  -6  134.79    4.10
  -1   0  -6  128.59    4.10
   1   0   6  126.99    4.10
   1   0   6  116.19    4.10
   1   0   6  128.59    4.10
  -2   0  -6   11.30    0.60
  -2   0  -6   11.30    0.70
   2   0   6   11.20    0.50
   2   0   6   11.90    0.60
  -3   0  -6   61.49    2.10
   3   0   6   61.39    2.10
   3   0   6   59.99    2.00
   3   0   6   58.49    2.00
  -4   0  -6    1.30    0.30
   4   0   6    1.20    0.30
   4   0   6    1.50    0.30
   4   0   6    1.60    0.30
   4   0   6    1.30    0.30
  -5   0  -6    4.20    0.60
   5   0   6    4.40    0.40
   5   0   6    4.70    0.60
   5   0   6    3.80    0.60
   5   0   6    3.70    0.50
  -6   0  -6    3.70    0.50
   6   0   6    4.20    0.50
   6   0   6    3.70    0.50
   6   0   6    4.20    0.50
   6   0   6    3.30    0.40
  -7   0  -6    4.80    0.70
   7   0   6    2.60    0.60
   7   0   6    3.10    0.50
  -8   0  -6   19.20    1.10
   8   0   6   18.40    1.10
   8   0   6   19.30    1.40
  -9   0  -6   26.90    1.40
   9   0   6   24.30    1.40
  10  -1  -6    3.40    0.60
  10  -1  -6    2.20    0.80
   9  -1  -6    2.90    0.80
   9  -1  -6    2.30    0.40
   9  -1  -6    2.70    0.50
   9  -1  -6    2.10    0.60
  -9   1   6    2.50    0.70
   8  -1  -6    2.30    0.50
   8  -1  -6    1.80    0.50
   8  -1  -6    1.90    0.50
   8  -1  -6    2.00    0.30
  -8   1   6    2.20    0.50
   7  -1  -6   23.00    1.20
   7  -1  -6   24.00    1.20
   7  -1  -6   23.60    1.30
   7  -1  -6   22.10    1.00
  -7   1   6   22.60    1.10
   6  -1  -6    7.40    0.70
   6  -1  -6    6.70    0.80
  -6   1   6    7.20    0.60
   5  -1  -6   47.60    1.80
   5  -1  -6   47.60    1.70
   5  -1  -6   46.00    1.80
   5  -1  -6   49.20    1.80
  -5   1   6   49.20    1.70
   4  -1  -6   13.90    0.70
   4  -1  -6   12.00    0.70
   4  -1  -6   12.10    0.60
  -4   1   6   12.60    0.60
  -4   1   6   11.90    0.90
   3  -1  -6   16.20    0.70
   3  -1  -6   15.50    0.80
   3  -1  -6   15.60    0.90
   3  -1  -6   17.70    0.80
  -3   1   6   16.80    0.90
  -3   1   6   16.70    0.70
   2  -1  -6   17.60    0.80
   2  -1  -6   17.30    0.80
  -2   1   6   18.50    0.80
  -2   1   6   17.60    0.70
  -2   1   6   17.50    0.80
   1  -1  -6  289.77    8.80
  -1   1   6  273.17    8.70
  -1   1   6  263.87    8.80
  -1   1   6  279.97    8.70
   0  -1  -6  428.76   13.50
   0  -1  -6  435.46   13.50
   0   1   6  448.56   13.50
   0   1   6  425.76   13.50
   0   1   6  418.36   13.50
  -1  -1  -6  125.59    4.10
  -1  -1  -6  126.49    4.00
   1   1   6  129.59    4.00
   1   1   6  121.89    4.00
   1   1   6  126.29    4.00
   1   1   6  117.79    4.10
  -2  -1  -6   33.40    1.20
  -2  -1  -6   33.30    1.30
   2   1   6   32.00    1.20
   2   1   6   33.20    1.20
   2   1   6   33.50    1.20
  -3  -1  -6   71.69    2.50
  -3  -1  -6   73.09    2.40
   3   1   6   69.19    2.40
   3   1   6   70.59    2.40
   3   1   6   71.09    2.40
   3   1   6   70.89    2.30
  -4  -1  -6  126.79    4.10
   4   1   6  128.89    4.10
   4   1   6  127.59    4.10
   4   1   6  126.69    4.10
   4   1   6  118.29    4.10
  -5  -1  -6    2.20    0.40
   5   1   6    2.20    0.40
   5   1   6    2.00    0.40
   5   1   6    2.50    0.50
   5   1   6    2.50    0.40
  -6  -1  -6    7.70    0.80
   6   1   6    6.80    0.80
   6   1   6    7.20    0.70
   6   1   6    5.90    0.60
   6   1   6    7.30    0.50
  -7  -1  -6   -0.50    0.40
   7   1   6    0.20    0.60
   7   1   6   -0.10    0.40
  -8  -1  -6    9.00    0.90
   8   1   6    9.70    1.30
   8   1   6   11.50    1.00
  -9  -1  -6   21.20    1.30
   9   1   6   21.70    1.30
  10  -2  -6    9.70    1.10
 -10   2   6   15.00    1.30
   9  -2  -6    2.30    0.60
   9  -2  -6    1.80    0.40
   8  -2  -6   13.30    1.10
   8  -2  -6   12.20    1.00
   8  -2  -6   11.70    0.80
   8  -2  -6   13.60    0.90
   7  -2  -6   33.50    1.50
   7  -2  -6   33.60    1.30
   7  -2  -6   33.50    1.60
   6  -2  -6   -0.40    0.60
   6  -2  -6    0.40    0.30
   6  -2  -6    0.30    0.40
   6  -2  -6    0.70    0.40
   5  -2  -6    7.40    0.50
   5  -2  -6    8.00    0.70
   5  -2  -6    7.20    0.80
  -5   2   6    7.90    0.90
   4  -2  -6    0.20    0.30
   4  -2  -6    0.40    0.20
  -4   2   6   -0.50    0.30
  -4   2   6    0.40    0.50
   3  -2  -6   -0.10    0.20
   3  -2  -6   -0.20    0.20
   3  -2  -6    0.10    0.50
  -3   2   6    0.10    0.40
  -3   2   6    1.20    0.40
  -3   2   6    0.20    0.30
   2  -2  -6    0.10    0.20
   2  -2  -6    0.00    0.30
  -2   2   6    0.00    0.30
  -2   2   6    0.00    0.20
  -1   2   6  162.78    5.30
  -1   2   6  165.28    5.30
  -1   2   6  168.08    5.20
   0  -2  -6   31.50    1.30
   0  -2  -6   32.60    1.20
   0   2   6   31.40    1.10
   0   2   6   31.90    1.20
   0   2   6   31.80    1.20
  -1  -2  -6    0.00    0.30
  -1  -2  -6    0.10    0.20
   1   2   6   -0.10    0.20
   1   2   6    0.10    0.20
   1   2   6   -0.20    0.20
  -2  -2  -6    2.30    0.30
  -2  -2  -6    2.10    0.50
   2   2   6    2.30    0.30
   2   2   6    2.00    0.30
   2   2   6    1.60    0.30
   2   2   6    1.70    0.40
  -3  -2  -6    0.80    0.30
  -3  -2  -6    0.30    0.50
   3   2   6    1.10    0.30
   3   2   6    0.80    0.30
   3   2   6    0.60    0.40
   3   2   6    0.80    0.20
  -4  -2  -6    4.80    0.60
   4   2   6    4.40    0.50
   4   2   6    4.70    0.50
   4   2   6    5.20    0.60
   4   2   6    4.50    0.70
  -5  -2  -6   13.40    0.90
   5   2   6   12.10    0.70
   5   2   6   12.40    0.80
   5   2   6   11.80    0.80
   5   2   6   12.60    0.90
  -6  -2  -6    1.30    0.50
   6   2   6    1.40    0.40
   6   2   6    1.10    0.40
   6   2   6    1.00    0.50
   6   2   6    1.60    0.30
  -7  -2  -6    0.60    0.60
   7   2   6    0.20    0.30
   7   2   6    0.80    0.70
   7   2   6    0.30    0.40
   7   2   6    0.80    0.50
  -8  -2  -6   -0.20    0.50
   8   2   6    0.40    0.50
   8   2   6   -0.70    0.50
   9  -3  -6   18.90    1.40
   9  -3  -6   20.30    1.00
   9  -3  -6   20.10    1.30
  -9   3   6   25.20    1.40
   8  -3  -6    9.50    0.90
   8  -3  -6    8.30    0.70
  -8   3   6    9.70    1.00
   7  -3  -6   18.80    1.00
   7  -3  -6   15.80    1.20
   7  -3  -6   17.20    0.90
  -7   3   6   17.10    1.20
   6  -3  -6   -0.90    0.50
   6  -3  -6   -0.30    0.30
  -6   3   6   -0.70    0.40
   5  -3  -6   61.09    2.30
   5  -3  -6   63.59    2.20
   5  -3  -6   62.39    2.20
  -5   3   6   58.99    2.40
   4  -3  -6   26.90    1.40
   4  -3  -6   28.60    1.20
   4  -3  -6   27.70    1.20
  -4   3   6   28.30    1.40
  -4   3   6   27.30    1.30
   3  -3  -6   90.29    3.10
   3  -3  -6   91.29    3.10
  -3   3   6   90.09    3.10
  -3   3   6   92.59    3.10
   2  -3  -6   54.79    2.00
   2  -3  -6   56.39    2.00
  -2   3   6   56.19    1.90
  -2   3   6   58.09    2.00
  -2   3   6   56.39    2.30
   1  -3  -6    3.50    0.50
   1  -3  -6    5.00    0.70
  -1   3   6    3.40    0.40
  -1   3   6    2.80    0.40
  -1   3   6    3.10    0.40
   0  -3  -6    2.10    0.40
   0   3   6    2.30    0.30
   0   3   6    2.00    0.40
   0   3   6    2.50    0.40
  -1  -3  -6   28.70    1.10
  -1  -3  -6   25.80    1.20
   1   3   6   25.80    1.10
   1   3   6   26.10    1.10
   1   3   6   25.40    1.10
   1   3   6   25.60    1.00
  -2  -3  -6   23.20    1.00
   2   3   6   19.10    1.20
   2   3   6   20.90    1.00
   2   3   6   21.40    1.00
   2   3   6   22.20    0.90
  -3  -3  -6   35.40    1.40
  -3  -3  -6   32.50    1.60
   3   3   6   31.10    1.50
   3   3   6   34.50    1.30
   3   3   6   34.60    1.40
   3   3   6   34.80    1.30
  -4  -3  -6    0.20    0.40
   4   3   6   -0.30    0.40
   4   3   6    0.10    0.50
  -5  -3  -6    1.80    0.50
   5   3   6    1.40    0.40
   5   3   6    1.70    0.50
   5   3   6    1.90    0.50
   5   3   6    1.60    0.50
  -6  -3  -6    2.00    0.60
   6   3   6    1.90    0.40
   6   3   6    2.20    0.60
   6   3   6    1.00    0.50
   6   3   6    1.70    0.50
  -7  -3  -6    0.80    0.70
   7   3   6    0.70    0.50
   7   3   6    0.80    0.40
   7   3   6    1.30    0.50
  -8  -3  -6    0.80    0.60
   8   3   6   -1.20    0.50
   8   3   6    0.00    0.60
   9  -4  -6    7.70    0.80
   9  -4  -6    7.20    0.80
  -9   4   6    8.70    1.30
   8  -4  -6   24.50    1.10
   8  -4  -6   25.90    1.40
  -8   4   6   26.50    1.60
   7  -4  -6   14.70    0.90
   7  -4  -6   17.60    1.10
  -7   4   6   15.70    1.20
   6  -4  -6    0.60    0.40
   6  -4  -6    1.00    0.40
  -6   4   6    1.10    0.50
   5  -4  -6   42.80    1.90
  -5   4   6   40.70    1.90
   4  -4  -6  759.32   24.40
   4  -4  -6  784.42   24.40
  -4   4   6  782.42   24.40
  -4   4   6  781.02   24.40
  -4   4   6  790.92   24.50
   3  -4  -6   63.49    2.30
   3  -4  -6   61.49    2.30
  -3   4   6   65.39    2.40
  -3   4   6   64.69    2.40
  -3   4   6   65.39    2.40
   2  -4  -6  347.97   11.60
   2  -4  -6  423.06   11.70
  -2   4   6  343.97   11.60
  -2   4   6  357.66   11.60
  -2   4   6  359.06   11.60
   1  -4  -6    0.60    0.40
   1  -4  -6    0.60    0.30
  -1   4   6    0.90    0.30
  -1   4   6    1.10    0.40
  -1   4   6    0.50    0.40
   0  -4  -6    1.80    0.50
   0  -4  -6    1.50    0.40
   0   4   6    2.40    0.50
   0   4   6    2.20    0.40
   0   4   6    2.40    0.30
  -1  -4  -6   36.10    1.40
   1   4   6   36.10    1.40
   1   4   6   35.70    1.50
   1   4   6   36.60    1.40
  -2  -4  -6   60.39    2.30
  -2  -4  -6   61.29    2.20
   2   4   6   61.89    2.20
   2   4   6   60.09    2.10
   2   4   6   62.69    2.30
  -3  -4  -6    2.70    0.50
   3   4   6    3.40    0.40
   3   4   6    4.30    0.60
   3   4   6    4.80    0.80
  -4  -4  -6    9.20    0.90
   4   4   6    9.10    0.70
   4   4   6    9.40    0.90
   4   4   6    7.40    0.70
  -5  -4  -6    2.70    0.60
   5   4   6    3.30    0.60
   5   4   6    2.90    0.40
   5   4   6    2.10    0.50
  -6  -4  -6    2.90    0.70
   6   4   6    2.80    0.50
   6   4   6    2.80    0.50
  -7  -4  -6    9.00    0.90
   7   4   6    6.60    0.70
   7   4   6    7.10    1.10
   7   4   6    9.20    1.00
   9  -5  -6    2.00    0.60
   9  -5  -6    1.80    0.40
  -9   5   6    2.00    0.80
   8  -5  -6   19.20    1.20
   8  -5  -6   17.00    1.00
  -8   5   6   18.20    1.50
   7  -5  -6    0.10    0.40
   7  -5  -6    0.50    0.50
  -7   5   6    0.30    0.60
   6  -5  -6    1.40    0.40
   6  -5  -6    0.60    0.40
  -6   5   6    1.20    0.60
   5  -5  -6   37.20    1.50
   5  -5  -6   37.00    1.60
  -5   5   6   37.20    1.70
   4  -5  -6   -0.10    0.40
   4  -5  -6    0.00    0.30
  -4   5   6    0.20    0.60
   3  -5  -6   29.00    1.20
   3  -5  -6   28.10    1.30
  -3   5   6   24.30    1.60
  -3   5   6   28.50    1.40
   2  -5  -6  284.27    9.30
  -2   5   6  287.87    9.30
  -2   5   6  299.37    9.30
   1  -5  -6   77.69    2.70
  -1   5   6   78.89    2.80
  -1   5   6   76.49    2.70
  -1   5   6   78.19    2.60
   0  -5  -6  586.94   18.40
   0  -5  -6  578.04   18.30
   0   5   6  591.14   18.20
   0   5   6  569.54   18.40
   0   5   6  593.44   18.40
  -1  -5  -6  133.99    4.50
  -1  -5  -6  139.49    4.70
   1   5   6  137.69    4.60
   1   5   6  137.19    4.50
   1   5   6  140.39    4.60
  -2  -5  -6    7.10    0.90
  -2  -5  -6    5.80    0.60
   2   5   6    7.50    0.90
   2   5   6    7.80    0.70
   2   5   6    9.10    0.80
  -3  -5  -6    0.00    0.50
   3   5   6    0.00    0.40
   3   5   6    0.00    0.40
   3   5   6    0.50    0.50
  -4  -5  -6   28.70    1.50
   4   5   6   29.80    1.40
   4   5   6   29.90    1.30
   4   5   6   30.40    1.50
  -5  -5  -6    1.60    0.70
   5   5   6    1.00    0.40
   5   5   6    0.30    0.50
   5   5   6    0.90    0.50
  -6  -5  -6    4.30    0.90
   6   5   6    4.80    0.60
   6   5   6    7.00    0.90
   6   5   6    4.10    0.90
   7   5   6   33.40    1.50
   7   5   6   30.50    1.70
   7   5   6   34.10    1.60
   8  -6  -6    1.60    0.60
   8  -6  -6    2.70    0.60
  -8   6   6    1.10    0.90
   7  -6  -6    9.80    0.80
   7  -6  -6    7.60    0.90
  -7   6   6   10.00    1.30
   6  -6  -6   27.90    1.40
   6  -6  -6   27.20    1.30
  -6   6   6   29.30    1.60
   5  -6  -6   21.00    1.20
   5  -6  -6   22.00    1.20
  -5   6   6   22.20    1.40
   4  -6  -6   13.10    0.90
   4  -6  -6   13.20    1.10
  -4   6   6   13.70    1.10
   3  -6  -6   42.80    1.80
   3  -6  -6   42.70    1.70
  -3   6   6   41.50    2.00
  -3   6   6   41.20    1.80
   2  -6  -6   92.89    3.50
   2  -6  -6  103.59    3.50
  -2   6   6   99.89    3.50
   1  -6  -6    0.60    0.60
   1  -6  -6    0.70    0.40
  -1   6   6    1.10    0.60
  -1   6   6    1.30    0.50
  -1   6   6    0.90    0.40
   0  -6  -6   -0.10    0.70
   0  -6  -6    0.10    0.50
   0   6   6   -0.10    0.40
   0   6   6    0.30    0.40
   0   6   6    0.00    0.60
  -1  -6  -6   13.10    1.40
  -1  -6  -6   14.70    1.00
   1   6   6   14.70    1.00
   1   6   6   14.60    1.20
   1   6   6   14.90    0.90
  -2  -6  -6    4.70    0.60
   2   6   6    4.40    0.60
   2   6   6    5.60    0.90
  -3  -6  -6    6.40    0.70
   3   6   6    6.00    0.80
   3   6   6    5.40    0.60
   3   6   6    5.70    0.90
  -4  -6  -6   10.70    1.30
   4   6   6   13.40    1.00
   4   6   6   11.30    1.10
   4   6   6   13.60    0.90
  -5  -6  -6   12.10    1.50
   5   6   6   15.70    1.10
   5   6   6   14.70    1.10
   5   6   6   14.40    1.10
   6   6   6    1.70    0.60
   6   6   6    0.10    0.50
   6   6   6    1.10    0.60
   8  -7  -6    1.00    0.60
   8  -7  -6    0.30    0.50
  -8   7   6   -0.70    0.70
   7  -7  -6    1.60    0.50
   7  -7  -6    2.00    0.60
  -7   7   6    1.90    0.70
   6  -7  -6   -0.10    0.40
   6  -7  -6    0.50    0.50
  -6   7   6    0.10    0.60
   5  -7  -6    5.20    0.60
   5  -7  -6    5.10    0.60
  -5   7   6    5.10    0.80
   4  -7  -6    7.10    0.80
   4  -7  -6    6.30    0.80
  -4   7   6    7.30    1.00
   3  -7  -6   12.80    1.80
   3  -7  -6   11.20    0.90
  -3   7   6   11.70    1.50
  -3   7   6   10.40    1.00
   2  -7  -6    0.50    0.40
   2  -7  -6    0.90    0.70
  -2   7   6   -0.20    0.80
  -2   7   6   -0.20    0.40
   1  -7  -6   -0.40    0.40
   1  -7  -6    0.00    0.70
   1  -7  -6   -0.30    0.40
  -1   7   6    0.20    0.70
  -1   7   6    0.40    0.40
   0  -7  -6    0.10    0.50
   0  -7  -6    0.80    0.40
   0  -7  -6    1.00    0.90
   0   7   6    0.30    0.40
   0   7   6    0.60    0.70
  -1  -7  -6    3.60    0.60
   1   7   6    2.90    0.80
   1   7   6    3.40    0.60
   2   7   6   16.80    1.00
   2   7   6   15.90    1.20
   2   7   6   16.80    1.10
   3   7   6    4.30    0.80
   3   7   6    5.20    0.60
   3   7   6    4.90    0.70
   4   7   6   -0.20    0.50
   4   7   6   -0.10    0.60
  -5  -7  -6    3.30    0.70
   5   7   6    5.40    0.80
   5   7   6    5.30    0.80
   7  -8  -6    0.10    0.60
   7  -8  -6    0.40    0.60
  -7   8   6    0.50    0.80
   6  -8  -6    0.80    0.60
   6  -8  -6    1.30    0.70
  -6   8   6   -0.40    0.70
   5  -8  -6   33.90    1.70
   5  -8  -6   34.90    1.70
  -5   8   6   32.00    1.80
   4  -8  -6   22.30    1.30
  -4   8   6   20.60    1.40
   3  -8  -6    2.80    0.60
   3  -8  -6    2.00    0.50
  -3   8   6    2.40    0.70
   2  -8  -6   11.10    1.00
   2  -8  -6   11.10    1.50
  -2   8   6   10.90    1.00
  -2   8   6   12.30    1.60
   1  -8  -6   -0.10    0.90
   1  -8  -6   -0.40    0.50
   1  -8  -6    0.60    0.50
  -1   8   6    0.50    0.50
  -1   8   6   -0.30    0.80
   0  -8  -6    5.00    0.70
   0  -8  -6    4.80    0.60
   0  -8  -6    4.80    1.10
   0   8   6    4.20    0.70
  -1  -8  -6    0.40    0.50
  -1  -8  -6    1.10    0.50
   1   8   6    0.20    0.60
   1   8   6    1.00    0.70
  -2  -8  -6    6.70    1.00
  -2  -8  -6    8.80    0.90
   2   8   6    9.80    1.10
   2   8   6    6.50    0.90
  -3  -8  -6    0.40    0.60
  -3  -8  -6    0.50    0.50
   3   8   6   -0.40    0.60
   3   8   6   -0.40    0.70
  -4  -8  -6    5.50    0.70
   4   8   6    4.60    0.80
   4   8   6    3.80    0.90
   6  -9  -6   45.10    2.00
   6  -9  -6   43.30    2.00
  -6   9   6   39.20    2.40
   5  -9  -6    7.30    1.00
   5  -9  -6    7.40    1.10
  -5   9   6    4.40    0.90
   4  -9  -6    4.20    0.70
   4  -9  -6    3.00    0.70
  -4   9   6    3.60    0.80
   3  -9  -6   -0.80    0.50
   3  -9  -6    1.50    0.70
  -3   9   6   -0.20    0.60
   2  -9  -6   38.50    1.80
   2  -9  -6   40.90    2.00
  -2   9   6   40.10    1.90
   1  -9  -6    8.70    1.10
   1  -9  -6    9.50    1.80
  -1   9   6    8.40    1.00
   0  -9  -6   -0.20    0.60
   0   9   6    0.30    0.60
   0   9   6    0.00    0.60
  -1  -9  -6   19.70    1.20
  -1  -9  -6   21.50    1.30
   1   9   6   22.40    1.40
   1   9   6   21.40    1.60
  -2  -9  -6    0.40    0.60
  -2  -9  -6    1.50    0.70
   2   9   6    1.00    0.80
   2   9   6    0.60    0.80
   4 -10  -6   21.00    1.50
   4 -10  -6   19.80    1.50
  -4  10   6   17.10    1.50
   3 -10  -6    8.10    1.00
   3 -10  -6    8.90    1.20
  -3  10   6   11.10    1.20
   2 -10  -6   74.09    2.90
   2 -10  -6   74.09    3.10
  -2  10   6   72.69    2.90
   1 -10  -6   -0.80    0.60
  -1  10   6    0.30    0.60
  -1  10   6   -0.10    0.90
   0 -10  -6    1.00    0.70
   0  10   6    1.10    0.90
   0  10   6    1.90    0.70
   1  12  -7    0.00    0.80
   1  12  -7    0.00    0.90
  -1 -12   7    0.10    0.60
   0  12  -7   -0.30    0.80
   0 -12   7    1.70    0.90
   0 -12   7    1.40    0.60
  -1  12  -7   21.50    1.70
   1 -12   7   23.40    1.20
   1 -12   7   24.70    1.70
  -2  12  -7    0.70    0.90
   2 -12   7    1.70    0.60
   2 -12   7    1.70    0.60
   2 -12   7    1.50    0.80
  -3  12  -7    4.30    0.80
   3 -12   7    3.80    0.80
   3 -12   7    4.60    0.70
   3 -12   7    3.50    0.60
  -4  12  -7   26.50    1.60
   4 -12   7   21.90    1.50
   4 -12   7   27.00    1.50
   4 -12   7   21.40    1.30
   3  11  -7   -0.20    0.80
   3  11  -7    0.90    0.70
  -3 -11   7    1.80    0.60
   2  11  -7    7.40    1.00
   2  11  -7    5.60    1.00
  -2 -11   7    7.70    0.90
   1  11  -7   14.50    1.40
   1  11  -7   11.80    1.30
  -1 -11   7   11.30    1.00
   0  11  -7   57.99    2.50
   0  11  -7   62.49    2.90
   0 -11   7   58.29    2.20
  -1  11  -7   39.40    2.00
   1 -11   7   43.50    2.00
   1 -11   7   40.80    1.90
   1 -11   7   44.40    1.70
  -2  11  -7    3.30    0.80
   2 -11   7    2.70    0.50
   2 -11   7    4.10    0.60
   2 -11   7    3.00    0.70
  -3  11  -7    0.80    0.60
   3 -11   7    0.60    0.50
   3 -11   7    0.30    0.50
   3 -11   7    0.10    0.40
  -4  11  -7    6.60    1.10
   4 -11   7    4.10    0.70
   4 -11   7    5.10    0.60
   4 -11   7    5.80    0.70
  -5  11  -7   26.80    1.50
   5 -11   7   24.50    1.40
   5 -11   7   24.50    1.40
   5 -11   7   23.00    1.20
  -6  11  -7    7.80    1.30
   6 -11   7    9.00    1.10
   6 -11   7   11.10    1.00
   5  10  -7    2.20    1.10
   4  10  -7    1.90    0.80
   4  10  -7    3.50    0.80
  -4 -10   7    1.40    0.60
   3  10  -7    0.30    0.60
   3  10  -7   -0.30    0.70
  -3 -10   7    0.40    0.50
   2  10  -7  104.49    3.80
   2  10  -7  109.19    3.90
  -2 -10   7  101.89    3.60
   1  10  -7    2.90    1.00
   1  10  -7    1.70    0.70
  -1 -10   7    1.90    0.50
  -1 -10   7    2.20    0.90
   0  10  -7   24.00    1.40
   0  10  -7   24.10    1.50
   0  10  -7   31.00    2.20
   0 -10   7   31.70    2.10
   0 -10   7   23.70    1.20
  -1  10  -7    1.30    0.70
  -1  10  -7    1.80    1.00
   1 -10   7    2.30    1.40
   1 -10   7    2.60    0.50
   1 -10   7    2.30    0.60
  -2  10  -7   11.90    1.00
   2 -10   7   12.50    1.00
   2 -10   7   11.10    0.80
  -3  10  -7    2.80    0.60
   3 -10   7    3.40    0.60
   3 -10   7    2.90    0.50
   3 -10   7    3.60    0.50
  -4  10  -7   37.20    1.70
   4 -10   7   36.10    1.60
   4 -10   7   38.30    1.70
   4 -10   7   35.70    1.50
  -5  10  -7    2.00    0.60
   5 -10   7    2.00    0.50
   5 -10   7    2.50    0.60
   5 -10   7    2.70    0.50
  -6  10  -7    2.00    0.60
   6 -10   7    0.70    0.40
   6 -10   7    1.70    0.50
   6 -10   7    1.00    0.60
  -7  10  -7   12.70    1.20
   7 -10   7   12.90    1.10
   7 -10   7   11.80    1.00
   6   9  -7    7.00    1.20
   6   9  -7    6.60    0.80
  -6  -9   7    6.30    0.80
   5   9  -7    2.30    0.70
   5   9  -7    0.20    0.60
  -5  -9   7    1.40    0.60
   4   9  -7   21.20    1.50
   4   9  -7   21.00    1.40
  -4  -9   7   20.90    1.20
   3   9  -7   47.60    2.10
   3   9  -7   49.99    2.10
  -3  -9   7   47.20    1.90
   2   9  -7    4.20    1.20
   2   9  -7    4.00    0.70
  -2  -9   7    4.10    0.60
  -2  -9   7    5.80    1.00
   1   9  -7    6.10    0.80
   1   9  -7    6.00    0.80
   1   9  -7    6.80    0.90
  -1  -9   7    7.50    0.70
  -1  -9   7    6.10    0.90
   0   9  -7   -0.60    0.50
   0   9  -7    0.40    0.80
   0   9  -7   -0.70    0.50
   0  -9   7    0.40    0.70
   0  -9   7   -0.20    0.30
  -1   9  -7    2.60    0.80
   1  -9   7    3.50    0.50
   1  -9   7    3.50    0.50
   1  -9   7    3.50    0.70
  -2   9  -7    5.20    1.00
  -2   9  -7    8.60    1.00
   2  -9   7    6.30    0.90
   2  -9   7    5.70    0.90
  -3   9  -7   71.99    2.70
   3  -9   7   72.49    2.60
   3  -9   7   73.19    2.60
   3  -9   7   72.09    2.70
  -4   9  -7   73.89    2.80
   4  -9   7   74.99    2.70
   4  -9   7   73.59    2.70
   4  -9   7   73.49    2.60
  -5   9  -7    8.10    1.20
   5  -9   7    9.60    0.80
   5  -9   7   10.70    0.90
  -6   9  -7   21.40    1.30
   6  -9   7   22.40    1.10
   6  -9   7   21.00    1.30
   6  -9   7   20.20    1.10
  -7   9  -7    0.20    0.60
   7  -9   7    0.90    0.50
   7  -9   7    0.70    0.60
   7  -9   7   -0.10    0.40
  -8   9  -7    0.60    1.20
   8  -9   7    1.50    0.40
   8  -9   7    1.50    0.60
   6   8  -7    0.00    0.50
   6   8  -7    0.80    0.60
   5   8  -7    1.60    0.60
   5   8  -7    2.40    0.60
  -5  -8   7    1.70    0.50
   4   8  -7   18.00    1.20
   4   8  -7   17.70    1.20
  -4  -8   7   17.80    1.00
   3   8  -7   41.50    1.80
   3   8  -7   37.00    1.70
  -3  -8   7   37.50    1.60
   2   8  -7    0.10    0.60
   2   8  -7    0.00    0.50
  -2  -8   7    0.50    0.40
  -2  -8   7    0.10    0.70
   1   8  -7   -0.30    0.60
   1   8  -7    0.00    0.40
   1   8  -7   -0.20    0.80
  -1  -8   7    0.20    0.60
  -1  -8   7    0.60    0.40
   0   8  -7   10.40    1.00
   0   8  -7   11.20    1.20
   0   8  -7   11.00    0.90
   0  -8   7   11.50    1.10
   0  -8   7   11.10    0.80
  -1   8  -7   33.20    1.70
  -1   8  -7   31.20    1.50
   1  -8   7   32.20    1.50
   1  -8   7   32.40    1.40
   1  -8   7   32.30    1.30
  -2   8  -7   11.50    0.90
  -2   8  -7    9.60    1.20
   2  -8   7    9.90    0.90
   2  -8   7    9.00    0.80
   2  -8   7    9.80    0.80
  -3   8  -7  203.58    6.60
   3  -8   7  205.48    6.50
   3  -8   7  201.28    6.60
  -4   8  -7   99.09    3.40
   4  -8   7  100.49    3.30
   4  -8   7  101.89    3.40
   4  -8   7   96.39    3.40
  -5   8  -7   22.70    1.30
   5  -8   7   23.30    1.10
   5  -8   7   22.60    1.20
   5  -8   7   24.00    1.10
  -6   8  -7   79.59    2.90
   6  -8   7   80.59    2.90
   6  -8   7   80.39    2.80
  -7   8  -7  116.99    4.10
   7  -8   7  117.59    4.10
   7  -8   7  115.89    3.90
   7  -8   7  112.99    3.90
  -8   8  -7    6.00    1.40
   8  -8   7    7.50    0.60
   8  -8   7    8.60    0.90
   8  -8   7    6.10    1.00
   7   7  -7    1.70    0.50
   7   7  -7    2.40    0.70
  -7  -7   7    2.70    0.70
   6   7  -7    6.50    1.10
   6   7  -7    5.90    0.80
  -6  -7   7    8.40    0.90
   5   7  -7   40.00    1.70
   5   7  -7   38.40    1.80
  -5  -7   7   38.60    1.60
   4   7  -7   17.60    1.10
   4   7  -7   16.20    1.10
  -4  -7   7   16.70    1.00
   3   7  -7   -0.30    0.40
   3   7  -7    0.00    0.60
  -3  -7   7    0.40    0.80
  -3  -7   7   -0.60    0.30
   2   7  -7   -0.60    0.50
   2   7  -7    0.00    0.40
  -2  -7   7   -0.30    0.60
  -2  -7   7    0.00    0.50
   1   7  -7   85.19    3.00
   1   7  -7   88.69    3.10
   1   7  -7   85.79    2.90
  -1  -7   7   85.19    2.90
  -1  -7   7   86.49    3.10
   0   7  -7   46.00    1.70
   0   7  -7   46.60    1.90
   0   7  -7   47.50    1.80
   0  -7   7   45.70    1.70
   0  -7   7   45.60    1.90
  -1   7  -7    1.60    0.80
  -1   7  -7    1.30    0.50
   1  -7   7    1.50    0.40
   1  -7   7    1.20    0.50
  -2   7  -7   36.10    1.50
  -2   7  -7   33.60    1.60
   2  -7   7   34.80    1.30
   2  -7   7   33.50    1.50
   2  -7   7   34.40    1.40
  -3   7  -7   39.80    1.60
  -3   7  -7   37.80    1.80
   3  -7   7   39.00    1.60
   3  -7   7   36.70    1.50
   3  -7   7   40.80    1.50
  -4   7  -7    0.40    0.40
   4  -7   7    0.40    0.40
   4  -7   7    0.70    0.30
  -5   7  -7   15.00    1.00
   5  -7   7   17.40    0.90
   5  -7   7   16.90    0.90
   5  -7   7   16.20    1.00
  -6   7  -7    0.20    0.60
   6  -7   7   -0.10    0.50
   6  -7   7   -0.10    0.50
   6  -7   7   -0.30    0.40
   6  -7   7   -0.20    0.30
  -7   7  -7   37.70    1.80
   7  -7   7   36.80    1.70
   7  -7   7   36.70    1.50
   7  -7   7   36.40    1.60
   7  -7   7   37.30    1.40
   8  -7   7   22.70    1.20
   8  -7   7   22.70    1.40
   9  -7   7    2.50    0.60
   9  -7   7    2.40    0.60
   8   6  -7    0.10    0.50
   8   6  -7   -0.20    0.70
  -8  -6   7    0.20    0.60
   7   6  -7    0.30    0.60
   7   6  -7    0.80    0.50
  -7  -6   7    0.10    0.50
   6   6  -7    0.10    0.60
   6   6  -7   -0.80    0.40
  -6  -6   7    1.10    0.50
   5   6  -7    5.40    0.90
   5   6  -7    5.00    0.60
  -5  -6   7    5.30    0.70
   4   6  -7    4.50    0.60
  -4  -6   7    6.00    0.70
   3   6  -7    0.60    0.40
   3   6  -7    0.80    0.50
  -3  -6   7    0.80    0.60
   2   6  -7    0.80    0.50
   2   6  -7    0.10    0.40
   2   6  -7    0.60    0.30
  -2  -6   7    0.00    0.50
  -2  -6   7    0.60    0.30
   1   6  -7    0.30    0.40
   1   6  -7    0.20    0.50
   1   6  -7    0.20    0.30
  -1  -6   7    0.10    0.30
  -1  -6   7    0.60    0.50
   0   6  -7    5.80    0.80
   0   6  -7    6.80    0.70
   0   6  -7    6.10    0.60
   0  -6   7    6.10    0.50
   0  -6   7    5.50    0.70
  -1   6  -7    6.50    0.70
  -1   6  -7    6.60    0.60
   1  -6   7    6.30    0.50
   1  -6   7    6.40    0.70
  -2   6  -7   -0.10    0.50
  -2   6  -7    0.30    0.40
   2  -6   7    0.60    0.30
   2  -6   7    0.50    0.30
   2  -6   7    0.60    0.30
  -3   6  -7    0.30    0.60
  -3   6  -7    0.60    0.40
   3  -6   7    0.30    0.30
   3  -6   7    0.60    0.30
   3  -6   7    0.60    0.30
  -4   6  -7   11.80    0.80
   4  -6   7   12.00    0.70
   4  -6   7   11.10    0.90
   4  -6   7   12.10    0.80
   4  -6   7   11.80    0.70
  -5   6  -7    1.70    0.50
   5  -6   7    1.70    0.40
   5  -6   7    1.30    0.30
   5  -6   7    1.60    0.40
   5  -6   7    1.30    0.50
  -6   6  -7    0.50    0.50
   6  -6   7    0.50    0.30
   6  -6   7    0.30    0.40
   6  -6   7    0.60    0.40
   6  -6   7    0.50    0.40
  -7   6  -7    0.10    0.70
   7  -6   7    0.20    0.40
   7  -6   7   -0.10    0.30
   7  -6   7   -0.20    0.40
   7  -6   7    0.00    0.40
   8  -6   7    6.00    0.60
   8  -6   7    6.00    0.90
   9  -6   7    0.00    0.50
   9  -6   7    0.70    0.60
   8   5  -7    6.60    0.80
   8   5  -7    5.90    0.90
  -8  -5   7    7.60    1.00
   7   5  -7    1.30    0.60
   7   5  -7    2.10    0.40
  -7  -5   7    1.30    0.50
   6   5  -7    5.40    0.60
   6   5  -7    4.40    0.70
  -6  -5   7    5.70    0.70
   5   5  -7    6.60    0.70
   5   5  -7    7.00    0.80
  -5  -5   7    7.00    0.70
   4   5  -7    5.30    0.70
   4   5  -7    5.30    0.70
  -4  -5   7    6.60    0.90
  -4  -5   7    5.40    0.60
   3   5  -7   17.60    1.00
   3   5  -7   16.90    1.00
  -3  -5   7   17.00    1.20
  -3  -5   7   16.70    0.80
   2   5  -7   20.20    1.00
   2   5  -7   20.60    0.80
   2   5  -7   20.90    1.00
  -2  -5   7   19.60    0.90
  -2  -5   7   20.20    1.20
   1   5  -7   14.50    0.90
   1   5  -7   15.50    0.70
   1   5  -7   15.40    0.80
  -1  -5   7   16.10    0.80
  -1  -5   7   15.90    0.90
   0   5  -7   35.90    1.40
   0   5  -7   35.10    1.40
   0   5  -7   35.50    1.30
   0  -5   7   36.30    1.30
   0  -5   7   34.90    1.40
  -1   5  -7   60.09    2.20
  -1   5  -7   60.49    2.10
  -1   5  -7   59.59    2.10
   1  -5   7   61.09    2.10
   1  -5   7   61.09    2.10
  -2   5  -7   35.10    1.40
  -2   5  -7   37.20    1.50
  -2   5  -7   39.10    1.40
   2  -5   7   38.40    1.40
   2  -5   7   33.90    1.50
   2  -5   7   37.40    1.40
  -3   5  -7    4.10    0.50
  -3   5  -7    5.20    0.60
   3  -5   7    4.30    0.50
   3  -5   7    5.30    0.70
   3  -5   7    4.50    0.50
   3  -5   7    4.00    0.50
  -4   5  -7   33.80    1.30
   4  -5   7   34.70    1.30
   4  -5   7   34.00    1.40
   4  -5   7   35.30    1.30
   4  -5   7   33.90    1.40
  -5   5  -7   11.80    0.80
   5  -5   7   11.60    0.80
   5  -5   7   10.60    0.90
   5  -5   7   10.70    0.80
  -6   5  -7    1.00    0.50
   6  -5   7    0.70    0.40
   6  -5   7    0.50    0.30
   6  -5   7    0.70    0.40
   6  -5   7    0.80    0.40
  -7   5  -7   -0.90    0.60
   7  -5   7    0.00    0.40
   7  -5   7    0.20    0.30
  -8   5  -7    1.40    0.50
   8  -5   7    0.40    0.50
  -9   5  -7   -0.10    0.60
   9  -5   7   -0.50    0.50
   9   4  -7   92.09    3.70
   9   4  -7   97.29    3.30
  -9  -4   7   94.09    3.40
   8   4  -7   10.80    1.30
   8   4  -7   12.10    0.90
  -8  -4   7   13.90    1.00
   7   4  -7   63.39    2.30
   7   4  -7   63.89    2.60
  -7  -4   7   66.09    2.40
   6   4  -7    2.90    0.60
  -6  -4   7    4.10    0.50
   5   4  -7    4.40    0.70
   5   4  -7    4.40    0.70
   4   4  -7   90.89    3.10
   4   4  -7   89.29    3.10
   4   4  -7   85.69    3.10
  -4  -4   7   91.49    3.20
  -4  -4   7   89.59    3.00
   3   4  -7   13.80    0.70
   3   4  -7   12.30    0.80
   3   4  -7   12.60    0.80
  -3  -4   7   13.10    1.00
  -3  -4   7   13.00    0.70
   2   4  -7   47.30    1.70
   2   4  -7   47.50    1.60
   2   4  -7   45.30    1.70
  -2  -4   7   47.70    1.60
  -2  -4   7   47.10    1.80
   1   4  -7    9.10    0.80
   1   4  -7    7.20    0.60
   1   4  -7    7.90    0.50
  -1  -4   7    7.00    0.50
  -1  -4   7    7.50    0.70
   0   4  -7    3.40    0.50
   0   4  -7    3.00    0.40
   0  -4   7    4.00    0.60
   0  -4   7    2.50    0.30
  -1   4  -7   68.29    2.30
  -1   4  -7   67.99    2.30
  -1   4  -7   68.49    2.40
   1  -4   7   68.49    2.30
   1  -4   7   68.29    2.30
  -2   4  -7   57.79    2.00
  -2   4  -7   58.09    2.10
   2  -4   7   58.69    2.00
   2  -4   7   56.19    2.00
   2  -4   7   57.69    2.00
  -3   4  -7  274.17    8.90
  -3   4  -7  282.57    9.00
   3  -4   7  280.57    8.90
   3  -4   7  286.27    8.90
   3  -4   7  286.17    8.90
  -4   4  -7   63.49    2.30
   4  -4   7   64.09    2.20
   4  -4   7   62.49    2.20
   4  -4   7   64.09    2.20
  -5   4  -7   -0.10    0.30
   5  -4   7    0.00    0.40
   5  -4   7    0.30    0.30
   5  -4   7    0.60    0.30
  -6   4  -7   46.90    1.80
  -6   4  -7   49.30    1.90
   6  -4   7   48.20    2.00
   6  -4   7   49.00    1.70
   6  -4   7   50.49    1.70
  -7   4  -7   17.20    1.20
  -7   4  -7   20.10    1.10
   7  -4   7   19.20    1.00
  -8   4  -7    1.50    0.50
   8  -4   7    1.90    0.50
  -9   4  -7    2.30    0.60
   9  -4   7    1.80    0.60
   9   3  -7    6.60    1.00
   9   3  -7    6.40    0.80
  -9  -3   7    8.80    1.10
   8   3  -7   39.60    1.90
   8   3  -7   39.40    1.60
  -8  -3   7   40.20    1.70
   7   3  -7    9.70    1.00
   7   3  -7    8.70    0.70
  -7  -3   7    9.90    0.90
   6   3  -7   12.60    0.80
   6   3  -7   14.30    1.00
   5   3  -7  178.38    5.90
   5   3  -7  184.58    5.80
   5   3  -7  173.28    5.70
   5   3  -7  180.98    6.00
  -5  -3   7  183.18    5.80
   4   3  -7    4.30    0.60
   4   3  -7    4.00    0.50
   4   3  -7    4.10    0.50
  -4  -3   7    4.00    0.50
  -4  -3   7    4.00    0.60
   3   3  -7  267.37    8.60
   3   3  -7  254.57    8.70
   3   3  -7  265.77    8.50
   3   3  -7  278.47    8.50
  -3  -3   7  272.97    8.60
  -3  -3   7  271.57    8.50
   2   3  -7    2.10    0.40
   2   3  -7    2.80    0.40
   2   3  -7    1.90    0.30
  -2  -3   7    1.70    0.40
  -2  -3   7    2.30    0.30
   1   3  -7  815.92   22.40
   1   3  -7  697.93   22.20
   1   3  -7  668.63   22.20
  -1  -3   7  693.73   22.20
  -1  -3   7  688.53   22.30
   0   3  -7  523.35   16.00
   0   3  -7  510.75   16.00
   0   3  -7  478.95   16.10
   0  -3   7  515.45   16.00
   0  -3   7  529.05   16.00
  -1   3  -7  100.69    3.30
  -1   3  -7   97.59    3.30
   1  -3   7  100.59    3.20
   1  -3   7   97.39    3.30
  -2   3  -7  105.49    3.50
  -2   3  -7  108.49    3.50
   2  -3   7  105.69    3.50
   2  -3   7  107.19    3.50
   2  -3   7  106.39    3.60
  -3   3  -7    0.30    0.50
  -3   3  -7    0.30    0.30
   3  -3   7    0.60    0.30
   3  -3   7    0.60    0.20
   3  -3   7    0.00    0.30
  -4   3  -7   16.80    0.80
   4  -3   7   16.40    0.80
   4  -3   7   17.70    0.80
   4  -3   7   15.70    0.80
  -5   3  -7   19.20    0.90
   5  -3   7   18.90    0.90
   5  -3   7   19.00    0.90
   5  -3   7   19.00    0.80
  -6   3  -7   54.59    2.10
   6  -3   7   52.49    1.90
   6  -3   7   56.49    1.80
  -7   3  -7   13.00    1.10
  -7   3  -7   11.90    0.90
   7  -3   7   11.90    0.80
  -8   3  -7    6.50    0.80
   8  -3   7    6.60    0.80
  -9   3  -7   14.90    1.20
   9  -3   7   15.80    1.10
   9   2  -7   32.60    1.80
   9   2  -7   29.70    1.30
  -9  -2   7   31.90    1.50
   8   2  -7   29.10    1.20
   8   2  -7   30.00    1.60
  -8  -2   7   30.30    1.40
   7   2  -7    0.90    0.90
   7   2  -7    1.20    0.40
   7   2  -7    1.20    0.50
   7   2  -7    1.20    0.50
  -7  -2   7    1.30    0.50
   6   2  -7   17.90    1.20
   6   2  -7   17.90    1.10
   6   2  -7   18.60    0.90
   6   2  -7   17.70    0.90
  -6  -2   7   19.30    1.00
   5   2  -7    0.80    0.50
   5   2  -7    0.80    0.30
   5   2  -7    0.80    0.40
   5   2  -7    0.40    0.30
  -5  -2   7    1.10    0.40
   4   2  -7    7.90    0.70
   4   2  -7    8.30    0.60
   4   2  -7    8.20    0.60
  -4  -2   7    8.20    0.90
  -4  -2   7    8.10    0.60
   3   2  -7    6.50    0.60
   3   2  -7    6.50    0.80
   3   2  -7    6.40    0.60
   3   2  -7    7.30    0.60
  -3  -2   7    7.50    0.50
  -3  -2   7    6.00    0.70
   2   2  -7   18.30    0.90
   2   2  -7   21.00    0.80
   2   2  -7   19.60    0.90
  -2  -2   7   20.90    0.80
  -2  -2   7   18.90    0.90
   1   2  -7  170.98    5.40
   1   2  -7  166.08    5.40
   1   2  -7  163.38    5.30
  -1  -2   7  168.58    5.40
  -1  -2   7  170.78    5.30
   0   2  -7    3.70    0.40
   0   2  -7    3.00    0.40
   0   2  -7    3.30    0.40
   0  -2   7    3.10    0.40
   0  -2   7    2.80    0.30
  -1   2  -7    4.30    0.60
  -1   2  -7    5.10    0.40
   1  -2   7    4.30    0.40
   1  -2   7    5.30    0.40
   1  -2   7    4.20    0.50
  -2   2  -7    1.90    0.30
  -2   2  -7    2.20    0.40
   2  -2   7    2.10    0.30
   2  -2   7    1.70    0.20
  -3   2  -7   10.30    0.60
  -3   2  -7   11.20    1.20
   3  -2   7   10.70    0.50
   3  -2   7   10.00    0.60
   3  -2   7   11.00    0.70
  -4   2  -7   43.00    1.60
   4  -2   7   38.30    1.80
   4  -2   7   42.60    1.50
   4  -2   7   42.70    1.50
  -5   2  -7  177.58    5.80
   5  -2   7  174.48    5.70
   5  -2   7  180.08    5.70
   5  -2   7  179.98    5.70
  -6   2  -7    0.50    0.40
   6  -2   7   -0.10    0.30
   6  -2   7   -0.10    0.30
   6  -2   7   -0.20    0.20
  -7   2  -7   14.80    1.00
  -7   2  -7   13.10    0.90
   7  -2   7   13.40    0.90
  -8   2  -7    6.90    0.90
   8  -2   7    6.70    0.70
  -9   2  -7    0.20    0.50
   9  -2   7    0.80    0.50
   9   1  -7    0.60    0.60
   9   1  -7    0.40    0.40
  -9  -1   7    0.80    0.50
   8   1  -7    1.00    0.80
   8   1  -7    0.60    0.30
   8   1  -7    1.00    0.60
   8   1  -7    1.40    0.60
  -8  -1   7    1.60    0.50
   7   1  -7    4.90    0.70
   7   1  -7    5.40    0.60
   7   1  -7    7.10    0.90
   7   1  -7    6.00    0.70
  -7  -1   7    6.90    0.90
   6   1  -7    0.30    0.40
   6   1  -7    0.20    0.40
   6   1  -7    0.00    0.50
   6   1  -7   -0.20    0.30
  -6  -1   7    0.20    0.40
   5   1  -7    1.20    0.50
   5   1  -7    1.00    0.30
   5   1  -7    1.10    0.40
   5   1  -7    1.40    0.40
  -5  -1   7    1.70    0.40
   4   1  -7   32.40    1.20
   4   1  -7   31.40    1.30
   4   1  -7   32.90    1.20
  -4  -1   7   30.70    1.40
  -4  -1   7   31.60    1.20
   3   1  -7    3.10    0.40
   3   1  -7    2.60    0.50
   3   1  -7    2.90    0.40
   3   1  -7    2.10    0.40
  -3  -1   7    3.30    0.40
  -3  -1   7    2.00    0.40
   2   1  -7    0.80    0.30
   2   1  -7    1.00    0.30
   2   1  -7    1.00    0.30
  -2  -1   7    1.10    0.20
  -2  -1   7    1.40    0.40
   1   1  -7  157.08    4.90
   1   1  -7  151.68    4.90
   1   1  -7  151.58    5.00
  -1  -1   7  153.58    5.00
  -1  -1   7  154.68    4.90
   0   1  -7   10.90    0.70
   0   1  -7   10.40    0.60
   0  -1   7   10.20    0.60
   0  -1   7   10.70    0.50
  -1   1  -7   13.90    0.70
  -1   1  -7   12.90    0.80
   1  -1   7   12.90    0.70
   1  -1   7   14.60    0.60
   1  -1   7   12.00    0.80
  -2   1  -7   49.80    1.80
  -2   1  -7   48.30    1.70
   2  -1   7   48.40    1.70
   2  -1   7   48.90    1.70
  -3   1  -7  233.88    7.70
  -3   1  -7  238.68    7.50
   3  -1   7  237.98    7.50
   3  -1   7  238.38    7.50
   3  -1   7  230.88    7.50
  -4   1  -7    0.40    0.30
   4  -1   7    0.40    0.30
   4  -1   7    0.50    0.50
   4  -1   7    0.00    0.20
  -5   1  -7    0.20    0.40
   5  -1   7   -0.10    0.30
   5  -1   7    0.10    0.30
   5  -1   7   -0.30    0.20
  -6   1  -7   11.00    1.20
   6  -1   7   12.40    0.70
   6  -1   7   11.60    0.80
   6  -1   7   12.40    0.60
  -7   1  -7   -0.60    0.40
   7  -1   7   -0.10    0.40
   7  -1   7    0.10    0.60
  -8   1  -7   14.80    1.10
   8  -1   7   15.10    1.00
  -9   1  -7   25.00    1.40
   9  -1   7   24.20    1.40
   9   0  -7   13.00    1.00
   9   0  -7   10.00    0.70
   9   0  -7   10.20    1.20
   9   0  -7    9.30    1.30
  -9   0   7   10.40    1.00
   8   0  -7    0.00    0.50
   8   0  -7    0.10    0.60
   8   0  -7    0.40    0.60
   8   0  -7    0.10    0.30
  -8   0   7   -0.10    0.60
   7   0  -7    7.10    0.90
   7   0  -7    6.20    0.60
   7   0  -7    6.50    0.90
   7   0  -7    8.10    1.00
  -7   0   7    7.60    0.90
   6   0  -7   14.00    0.90
   6   0  -7   14.10    1.00
   6   0  -7   11.60    1.00
   6   0  -7   14.20    0.80
  -6   0   7   13.50    0.80
   5   0  -7    2.50    0.40
   5   0  -7    3.80    0.60
   5   0  -7    2.40    0.50
   5   0  -7    3.00    0.40
  -5   0   7    2.00    0.80
  -5   0   7    3.30    0.40
   4   0  -7   11.40    0.70
   4   0  -7   11.40    0.70
   4   0  -7   11.60    0.70
  -4   0   7   11.70    0.90
  -4   0   7   11.90    0.60
   3   0  -7   57.59    2.30
   3   0  -7   66.29    2.20
   3   0  -7   65.59    2.30
   3   0  -7   65.49    2.20
  -3   0   7   68.19    2.20
  -3   0   7   64.29    2.30
   2   0  -7  101.59    3.40
   2   0  -7  101.89    3.40
   2   0  -7  101.39    3.30
  -2   0   7   99.39    3.40
  -2   0   7  102.59    3.30
   1   0  -7   18.90    0.90
   1   0  -7   19.40    0.80
  -1   0   7   19.40    0.80
  -1   0   7   20.20    0.80
  -1   0   7   19.10    0.90
   0   0  -7  230.08    7.00
   0   0  -7  220.98    6.90
   0   0   7  225.18    6.90
   0   0   7  197.18    6.90
  -1   0  -7    1.40    0.20
  -1   0  -7    1.60    0.40
   1   0   7    1.50    0.30
   1   0   7    1.20    0.20
  -2   0  -7  260.67    8.30
  -2   0  -7  258.37    8.30
   2   0   7  264.47    8.30
   2   0   7  260.67    8.20
  -3   0  -7   32.50    1.40
  -3   0  -7   34.70    1.30
   3   0   7   35.20    1.30
   3   0   7   33.20    1.30
   3   0   7   33.90    1.30
  -4   0  -7   12.30    0.70
   4   0   7   11.90    0.60
   4   0   7   10.20    0.80
   4   0   7   11.50    0.70
  -5   0  -7   24.70    1.10
   5   0   7   22.50    1.00
   6   0   7    2.10    0.40
   6   0   7    2.00    0.30
   6   0   7    1.60    0.50
   6   0   7    2.00    0.40
  -7   0  -7    3.00    0.50
   7   0   7    3.40    0.70
   7   0   7    2.90    0.50
  -8   0  -7   30.20    1.50
   8   0   7   32.40    1.50
  -9   0  -7    3.00    0.70
   9   0   7    3.40    0.60
   9  -1  -7    6.30    0.90
   9  -1  -7    6.50    0.70
   9  -1  -7    5.70    0.70
   8  -1  -7   11.80    0.90
   8  -1  -7   11.50    0.70
   8  -1  -7    9.90    1.00
  -8   1   7   10.00    1.00
   7  -1  -7    0.10    0.30
   7  -1  -7    0.70    0.60
   7  -1  -7    0.50    0.50
   7  -1  -7    0.10    0.50
  -7   1   7    0.90    0.50
   6  -1  -7    1.50    0.50
   6  -1  -7    1.40    0.30
   6  -1  -7    1.30    0.50
   6  -1  -7    1.20    0.60
  -6   1   7    2.10    0.40
   5  -1  -7   25.70    1.30
   5  -1  -7   28.50    1.20
   5  -1  -7   27.90    1.10
   5  -1  -7   28.30    1.30
  -5   1   7   28.70    1.10
   4  -1  -7   64.89    2.30
   4  -1  -7   60.39    2.30
   4  -1  -7   63.99    2.20
  -4   1   7   66.89    2.10
  -4   1   7   64.09    2.30
   3  -1  -7  177.08    5.70
   3  -1  -7  176.08    5.70
  -3   1   7  178.18    5.60
  -3   1   7  171.18    5.70
  -3   1   7  179.98    5.70
   2  -1  -7   14.30    0.80
   2  -1  -7   13.90    0.70
  -2   1   7   14.40    0.70
  -2   1   7   14.30    0.60
  -2   1   7   12.60    0.80
   1  -1  -7   26.50    1.10
   1  -1  -7   27.20    1.10
  -1   1   7   26.10    1.10
  -1   1   7   26.60    1.10
  -1   1   7   26.20    1.00
   0  -1  -7    2.50    0.30
   0  -1  -7    3.00    0.60
   0   1   7    3.10    0.40
   0   1   7    2.90    0.40
   0   1   7    2.60    0.30
  -1  -1  -7   79.09    2.70
  -1  -1  -7   81.19    2.70
   1   1   7   77.59    2.60
   1   1   7   79.49    2.60
   1   1   7   78.39    2.70
  -2  -1  -7  122.09    3.90
  -2  -1  -7  119.69    3.90
   2   1   7  111.59    3.90
   2   1   7  118.49    3.90
   2   1   7  119.79    3.80
   2   1   7  119.49    3.90
  -3  -1  -7   61.99    2.30
  -3  -1  -7   65.09    2.20
   3   1   7   62.89    2.10
   3   1   7   60.89    2.10
   3   1   7   60.09    2.20
   3   1   7   62.79    2.10
  -4  -1  -7   31.00    1.30
   4   1   7   30.40    1.20
   4   1   7   30.60    1.20
   4   1   7   28.30    1.10
   4   1   7   28.10    1.20
  -5  -1  -7    6.70    0.80
   5   1   7    6.30    0.70
   5   1   7    7.30    0.60
   5   1   7    6.40    0.70
   5   1   7    7.00    0.70
   6   1   7    6.40    0.80
   6   1   7    7.70    0.90
   6   1   7    6.30    0.70
   6   1   7    7.20    0.60
  -7  -1  -7    0.90    0.40
   7   1   7    1.00    0.40
   7   1   7    1.10    0.40
   7   1   7    0.50    0.60
   7   1   7    0.80    0.30
  -8  -1  -7    1.80    0.60
   8   1   7    0.40    0.50
   9  -2  -7   41.90    1.90
   9  -2  -7   40.80    1.60
  -9   2   7   45.90    2.50
   8  -2  -7   57.69    2.10
   8  -2  -7   57.09    2.30
  -8   2   7   61.99    2.50
   7  -2  -7    9.00    0.80
   7  -2  -7    8.60    0.70
  -7   2   7    8.30    0.90
   6  -2  -7    8.80    0.60
   6  -2  -7    7.80    1.00
  -6   2   7    6.30    0.80
   5  -2  -7    0.00    0.40
   5  -2  -7    0.00    0.50
   5  -2  -7    0.40    0.30
  -5   2   7   -0.50    0.40
   4  -2  -7    0.90    0.30
   4  -2  -7    1.00    0.30
   4  -2  -7    0.60    0.50
  -4   2   7    0.60    0.30
  -4   2   7    0.10    0.40
  -4   2   7    1.00    0.50
   3  -2  -7    9.70    0.70
   3  -2  -7    9.90    0.70
  -3   2   7    9.40    0.80
  -3   2   7    9.80    0.80
  -3   2   7    9.70    0.50
   2  -2  -7    1.10    0.40
   2  -2  -7    1.40    0.30
  -2   2   7    1.20    0.50
   1  -2  -7   52.19    1.90
   1  -2  -7   52.29    1.90
  -1   2   7   51.39    1.80
  -1   2   7   53.29    1.90
   0  -2  -7   52.59    1.80
   0  -2  -7   56.69    2.00
   0   2   7   47.90    1.70
   0   2   7   49.20    1.80
   0   2   7   47.80    1.80
  -1  -2  -7   55.89    2.00
  -1  -2  -7   59.49    2.10
   1   2   7   57.59    2.10
   1   2   7   59.69    2.00
   1   2   7   59.59    2.00
  -2  -2  -7    4.90    0.50
  -2  -2  -7    5.10    0.60
   2   2   7    4.60    0.50
   2   2   7    4.70    0.50
   2   2   7    3.30    0.50
   2   2   7    4.40    0.60
  -3  -2  -7   20.40    1.20
  -3  -2  -7   20.80    1.00
   3   2   7   20.70    0.90
   3   2   7   20.70    0.90
   3   2   7   21.50    1.00
   3   2   7   19.50    1.10
   3   2   7   21.40    0.90
  -4  -2  -7    0.40    0.40
   4   2   7    0.20    0.40
   4   2   7    0.20    0.40
  -5  -2  -7    7.90    0.90
   5   2   7    6.60    0.60
   5   2   7    6.80    0.70
   5   2   7    7.50    0.80
   5   2   7    7.50    0.80
  -6  -2  -7    1.40    0.50
   6   2   7    1.40    0.60
   6   2   7    0.90    0.50
   6   2   7    1.00    0.30
   6   2   7    1.50    0.50
  -7  -2  -7    1.00    0.50
   7   2   7   -0.30    0.40
   7   2   7   -0.10    0.50
   7   2   7    0.00    0.30
   7   2   7    0.10    0.70
  -8  -2  -7    1.60    0.60
   8   2   7   -0.80    0.50
   9  -3  -7    3.20    0.60
   9  -3  -7    2.10    0.40
   8  -3  -7   -0.40    0.50
   8  -3  -7    0.50    0.40
  -8   3   7    1.40    0.60
   7  -3  -7   66.99    2.40
   7  -3  -7   66.39    2.50
  -7   3   7   66.39    2.60
   6  -3  -7    8.00    0.80
   6  -3  -7   10.40    0.70
  -6   3   7   10.80    1.10
   4  -3  -7    7.10    0.70
   4  -3  -7    6.50    0.60
  -4   3   7    6.20    0.70
  -4   3   7    5.60    0.80
   3  -3  -7   62.59    2.20
   3  -3  -7   60.29    2.20
  -3   3   7   62.89    2.30
  -3   3   7   61.89    2.30
   2  -3  -7   71.89    2.50
   2  -3  -7   71.89    2.50
  -2   3   7   70.59    2.50
  -2   3   7   73.29    2.30
  -2   3   7   68.59    2.50
   1  -3  -7   15.70    0.80
   1  -3  -7   15.20    1.00
  -1   3   7   15.00    0.70
  -1   3   7   18.80    1.10
  -1   3   7   15.80    0.90
   0  -3  -7    5.20    0.60
   0  -3  -7    4.00    0.50
   0   3   7    3.50    0.50
   0   3   7    3.60    0.60
   0   3   7    3.80    0.40
  -1  -3  -7   67.69    2.40
  -1  -3  -7   68.39    2.50
   1   3   7   68.39    2.40
   1   3   7   66.19    2.30
   1   3   7   65.89    2.30
  -2  -3  -7    4.20    0.50
   2   3   7    4.90    0.80
   2   3   7    6.00    0.70
   2   3   7    4.80    0.60
   2   3   7    6.70    0.60
  -3  -3  -7    1.10    0.40
   3   3   7    0.50    0.30
   3   3   7    0.70    0.40
   3   3   7    0.20    0.30
  -4  -3  -7    7.60    0.80
   4   3   7    6.50    0.80
   4   3   7    6.70    0.70
   4   3   7    7.40    0.70
  -5  -3  -7    3.80    0.60
   5   3   7    3.20    0.40
   5   3   7    4.00    0.60
   5   3   7    3.80    0.50
  -6  -3  -7    9.30    0.80
   6   3   7    9.30    0.80
   6   3   7    9.20    0.90
   6   3   7    9.90    1.10
  -7  -3  -7    1.90    0.50
   7   3   7    2.20    0.40
   7   3   7    2.20    0.50
   7   3   7    1.50    1.30
  -8  -3  -7   23.30    1.40
   8   3   7   22.40    1.30
   9  -4  -7    4.20    0.70
   9  -4  -7    3.30    0.70
  -9   4   7    4.00    0.90
   8  -4  -7    2.70    0.50
   8  -4  -7    3.00    0.60
  -8   4   7    3.50    0.80
   7  -4  -7   -0.10    0.40
   7  -4  -7    0.60    0.50
  -7   4   7    0.70    0.60
   6  -4  -7   37.60    1.60
   6  -4  -7   37.70    1.60
  -6   4   7   38.00    1.80
   5  -4  -7    1.40    0.40
   5  -4  -7    1.60    0.40
  -5   4   7    2.20    0.60
   4  -4  -7    5.90    0.90
   4  -4  -7    6.60    0.80
  -4   4   7    4.70    0.60
  -4   4   7    7.40    0.80
  -4   4   7    6.80    0.90
   3  -4  -7   65.79    2.40
   3  -4  -7   70.39    2.40
  -3   4   7   57.69    2.70
  -3   4   7   65.59    2.70
  -3   4   7   66.69    2.40
   2  -4  -7  172.18    5.90
   2  -4  -7  168.08    5.90
  -2   4   7  170.48    5.70
  -2   4   7  200.58    6.00
  -2   4   7  201.88    6.10
  -2   4   7  174.58    5.90
   1  -4  -7  104.09    3.50
   1  -4  -7  103.29    3.60
  -1   4   7  106.39    3.60
  -1   4   7  105.59    3.60
  -1   4   7  106.79    3.40
   0  -4  -7  385.66   12.50
   0  -4  -7  400.26   12.50
   0   4   7  395.46   12.40
   0   4   7  398.26   12.50
   0   4   7  394.56   12.50
  -1  -4  -7   84.59    3.30
  -1  -4  -7   88.19    3.10
   1   4   7   91.09    3.10
   1   4   7   91.49    3.10
   1   4   7   90.89    3.00
  -2  -4  -7  150.18    5.00
  -2  -4  -7  143.29    4.90
   2   4   7  149.59    4.80
   2   4   7  148.19    4.90
   2   4   7  144.39    4.80
  -3  -4  -7   29.00    1.40
   3   4   7   31.60    1.50
   3   4   7   31.60    1.40
   3   4   7   31.70    1.30
  -4  -4  -7    2.90    0.60
   4   4   7    2.70    0.50
   4   4   7    2.40    0.50
   4   4   7    2.40    0.60
   5   4   7    0.20    0.60
   5   4   7    0.00    0.50
   5   4   7    0.20    0.40
  -6  -4  -7    3.80    0.50
   6   4   7    2.90    0.50
   6   4   7    3.40    0.50
   7   4   7    0.80    0.60
   7   4   7    1.00    0.50
   7   4   7    2.30    0.60
   9  -5  -7    3.20    0.50
  -9   5   7    3.30    0.90
   8  -5  -7    5.50    0.70
  -8   5   7    5.80    0.90
   7  -5  -7    0.90    0.40
   7  -5  -7    2.40    0.50
  -7   5   7    1.60    0.70
   6  -5  -7    0.20    0.40
   6  -5  -7    0.30    0.40
  -6   5   7    0.40    0.60
   5  -5  -7   32.70    1.40
   5  -5  -7   31.70    1.50
  -5   5   7   33.80    1.70
   4  -5  -7   18.90    1.00
   4  -5  -7   15.70    1.40
  -4   5   7   18.80    1.20
   3  -5  -7    3.30    0.50
   3  -5  -7    2.60    0.50
  -3   5   7    2.40    0.90
  -3   5   7    4.20    0.80
  -2   5   7   65.29    2.50
  -2   5   7   66.09    2.50
   1  -5  -7   34.10    1.60
   1  -5  -7   34.40    1.50
  -1   5   7   38.70    1.80
  -1   5   7   34.70    1.30
  -1   5   7   32.20    1.50
   0  -5  -7    4.50    0.50
   0  -5  -7    7.70    1.00
   0   5   7    4.40    0.60
   0   5   7    5.00    0.70
   0   5   7    6.50    0.90
  -1  -5  -7   92.59    3.40
  -1  -5  -7   93.19    3.30
   1   5   7   97.19    3.40
   1   5   7   91.89    3.20
   1   5   7   93.29    3.10
  -2  -5  -7  245.28    7.90
   2   5   7  237.18    7.90
   2   5   7  249.08    7.80
  -3  -5  -7    6.30    0.80
   3   5   7    6.70    0.80
   3   5   7    7.10    0.70
   3   5   7    6.90    1.00
   4   5   7    7.70    1.10
   4   5   7    7.10    0.80
   4   5   7    6.10    0.80
  -5  -5  -7    2.40    0.70
   5   5   7    3.30    0.60
   5   5   7    3.30    0.60
   5   5   7    3.10    0.50
  -6  -5  -7    0.00    0.70
   6   5   7    3.30    0.50
   6   5   7    1.90    0.60
   8  -6  -7    3.90    0.50
   8  -6  -7    2.30    0.70
  -8   6   7    2.70    0.80
   7  -6  -7    7.50    0.80
   7  -6  -7    9.90    1.00
  -7   6   7    7.90    1.10
   6  -6  -7    0.30    0.50
   6  -6  -7    0.80    0.50
  -6   6   7    0.30    0.60
   5  -6  -7   -0.80    0.50
   5  -6  -7    0.00    0.40
  -5   6   7   -0.10    0.60
   4  -6  -7    7.80    0.80
   4  -6  -7    6.40    0.90
  -4   6   7    8.80    1.00
   3  -6  -7    8.30    1.10
   3  -6  -7    7.80    0.80
  -3   6   7    8.10    1.00
  -3   6   7    8.30    1.00
   2  -6  -7   47.00    2.00
   2  -6  -7   44.80    1.80
  -2   6   7   45.40    1.90
  -2   6   7   50.69    2.20
   1  -6  -7   21.30    1.10
   1  -6  -7   23.80    1.50
  -1   6   7   23.20    1.50
  -1   6   7   21.90    1.00
   0  -6  -7   64.09    2.60
   0  -6  -7   63.09    2.40
   0   6   7   64.69    2.50
   0   6   7   63.79    2.20
  -1  -6  -7   62.39    2.70
  -1  -6  -7   63.79    2.40
   1   6   7   67.69    2.70
   1   6   7   62.89    2.30
  -2  -6  -7   40.70    1.70
   2   6   7   36.60    2.20
   2   6   7   40.60    1.80
   2   6   7   41.30    1.60
  -3  -6  -7    1.70    0.60
   3   6   7    2.30    0.60
   3   6   7    1.50    0.60
   3   6   7    1.50    0.50
  -4  -6  -7   24.10    1.40
   4   6   7   24.50    1.30
   4   6   7   25.20    1.40
   4   6   7   26.00    1.40
  -5  -6  -7   37.20    1.80
   5   6   7   38.50    1.80
   5   6   7   39.60    1.80
   5   6   7   40.20    1.70
   7  -7  -7    6.60    0.90
   7  -7  -7    7.30    1.10
  -7   7   7    5.60    1.00
   6  -7  -7    0.40    0.50
   6  -7  -7   -0.70    0.60
  -6   7   7   -0.30    0.70
   5  -7  -7    0.20    0.50
   5  -7  -7   -0.10    0.50
  -5   7   7    0.00    0.60
   4  -7  -7    4.80    0.60
   4  -7  -7    3.60    0.60
  -4   7   7    4.50    0.80
   3  -7  -7    8.60    1.00
   3  -7  -7    9.70    0.90
  -3   7   7    7.10    1.00
   2  -7  -7    4.10    0.60
   2  -7  -7    4.00    0.90
  -2   7   7    4.40    0.70
  -2   7   7    4.80    1.00
   1  -7  -7    4.70    0.90
   1  -7  -7    4.90    0.60
   1  -7  -7    4.80    0.60
  -1   7   7    4.70    0.90
  -1   7   7    5.80    0.80
   0  -7  -7    0.60    0.50
   0  -7  -7    0.40    0.90
   0   7   7    0.60    0.50
   0   7   7    0.90    0.80
  -1  -7  -7    3.70    0.60
   1   7   7    2.60    0.60
   1   7   7    3.40    0.60
  -2  -7  -7   -0.10    0.50
   2   7   7    0.20    0.50
   2   7   7    0.00    0.50
   2   7   7    0.60    0.50
  -3  -7  -7    1.00    0.60
   3   7   7    2.50    0.60
   3   7   7    1.40    0.70
   3   7   7    2.60    0.60
  -4  -7  -7    3.20    0.70
   4   7   7    5.30    0.70
   4   7   7    2.90    0.80
   4   7   7    3.60    0.70
   6  -8  -7    8.60    1.10
   6  -8  -7   11.70    1.30
  -6   8   7    9.30    1.40
   5  -8  -7    1.70    0.60
   5  -8  -7    1.00    0.60
  -5   8   7    0.70    0.70
   4  -8  -7    3.60    0.60
   4  -8  -7    4.20    0.70
  -4   8   7    3.30    0.90
   3  -8  -7    6.30    0.80
   3  -8  -7    5.90    0.70
  -3   8   7    5.60    0.80
   2  -8  -7    0.30    0.50
   2  -8  -7    0.90    0.60
  -2   8   7    0.90    0.50
  -2   8   7    0.40    1.00
   1  -8  -7   22.80    1.90
   1  -8  -7   22.80    1.30
  -1   8   7   24.40    1.90
  -1   8   7   22.60    1.30
   0  -8  -7    8.30    0.80
   0  -8  -7    8.00    1.00
   0   8   7    9.80    1.20
   0   8   7    8.40    1.00
  -1  -8  -7   12.30    0.90
  -1  -8  -7   11.50    1.10
   1   8   7   13.20    1.30
   1   8   7   12.90    1.10
  -2  -8  -7    1.60    0.60
  -2  -8  -7    1.60    0.60
   2   8   7    0.20    0.70
   2   8   7    2.40    0.70
  -3  -8  -7    2.90    0.70
  -3  -8  -7    5.00    0.70
   3   8   7    3.40    0.70
   3   8   7    3.40    0.90
   5  -9  -7    2.50    0.70
   5  -9  -7    4.30    0.70
  -5   9   7    2.00    0.90
   4  -9  -7   12.40    1.20
   4  -9  -7   13.60    1.30
  -4   9   7    9.90    1.30
   3  -9  -7    4.50    0.70
   3  -9  -7    5.80    0.90
  -3   9   7    5.10    0.80
   2  -9  -7    6.50    0.80
   2  -9  -7   12.00    1.40
  -2   9   7    9.80    1.10
   1  -9  -7   17.90    1.30
   1  -9  -7   21.00    1.70
  -1   9   7   17.10    1.30
  -1   9   7   20.90    1.60
   0  -9  -7    0.90    0.60
   0   9   7    1.20    0.80
   0   9   7    1.10    0.60
  -1  -9  -7    4.20    0.70
  -1  -9  -7    4.90    0.80
   1   9   7    5.90    0.90
   1   9   7    7.20    1.00
   1  12  -8   12.00    1.50
   1  12  -8   12.00    1.80
  -1 -12   8   12.30    1.10
   0  12  -8    3.80    1.00
   0 -12   8    6.20    1.00
   0 -12   8    5.70    0.70
  -1  12  -8    0.60    0.90
   1 -12   8    2.00    0.60
   1 -12   8    2.00    0.80
   2 -12   8    0.10    0.60
   2 -12   8   -1.00    0.70
  -3  12  -8    7.20    1.10
   3 -12   8   11.00    1.00
   3 -12   8    7.20    0.90
   3 -12   8   10.20    1.10
  -4  12  -8    2.00    0.80
   4 -12   8    1.10    0.70
   4 -12   8    0.00    0.60
   4 -12   8    0.70    0.70
   3  11  -8    9.50    1.40
   3  11  -8   13.10    1.50
  -3 -11   8   11.20    1.10
   2  11  -8    7.90    1.00
   2  11  -8    5.60    0.90
  -2 -11   8    6.10    0.80
   1  11  -8   13.20    1.40
   1  11  -8   11.80    1.50
  -1 -11   8   13.40    1.00
   0  11  -8   -0.50    0.70
   0  11  -8   -0.20    1.20
   0 -11   8    0.10    0.50
   0 -11   8   -1.20    0.70
  -1  11  -8   14.30    1.40
   1 -11   8   15.00    1.00
   1 -11   8   13.50    1.30
  -2  11  -8   20.10    1.50
   2 -11   8   19.70    1.40
   2 -11   8   18.90    1.20
   2 -11   8   19.20    1.10
  -3  11  -8   34.90    1.80
   3 -11   8   35.20    1.50
   3 -11   8   35.00    1.60
   3 -11   8   33.80    1.70
  -4  11  -8    2.20    0.70
   4 -11   8    1.70    0.60
   4 -11   8    0.40    0.50
   4 -11   8    1.50    0.60
  -5  11  -8    2.60    0.70
   5 -11   8    0.90    0.60
   5 -11   8    0.20    0.50
   5 -11   8    1.30    0.60
  -6  11  -8    1.30    0.70
   6 -11   8   -0.10    0.60
   6 -11   8    0.50    0.50
   4  10  -8    9.40    1.20
   4  10  -8    9.10    1.30
  -4 -10   8    9.60    1.00
   3  10  -8    5.50    0.90
   3  10  -8    9.00    1.20
  -3 -10   8    7.90    0.90
   2  10  -8   28.10    1.70
   2  10  -8   26.70    1.60
  -2 -10   8   28.40    1.40
   1  10  -8    2.90    0.70
   1  10  -8    5.60    1.10
  -1 -10   8    3.60    0.50
  -1 -10   8    4.40    1.00
   0  10  -8   12.70    1.20
   0  10  -8   15.50    1.80
   0  10  -8   12.30    1.20
   0 -10   8   14.00    1.50
   0 -10   8   10.50    0.90
  -1  10  -8    2.10    0.70
  -1  10  -8    2.60    0.70
  -1  10  -8    4.00    1.10
   1 -10   8    2.60    0.50
   1 -10   8    2.70    0.70
  -2  10  -8   12.70    1.20
   2 -10   8   11.80    0.90
   2 -10   8   12.20    0.90
   2 -10   8   13.40    1.10
  -3  10  -8    8.30    1.00
   3 -10   8    8.50    0.90
   3 -10   8    8.90    0.90
   3 -10   8    9.00    0.80
  -4  10  -8   83.49    3.00
   4 -10   8   83.29    3.00
   4 -10   8   79.89    2.90
   4 -10   8   77.49    2.80
  -5  10  -8    8.70    1.00
   5 -10   8    9.30    1.00
   5 -10   8    7.70    0.80
   5 -10   8    9.20    0.90
  -6  10  -8    0.70    0.60
   6 -10   8    0.80    0.50
   6 -10   8    0.60    0.50
   6 -10   8    0.10    0.50
   7 -10   8   -0.60    0.40
   7 -10   8   -0.60    0.50
   7 -10   8   -0.50    0.50
   5   9  -8    5.20    0.80
   5   9  -8    3.60    0.90
  -5  -9   8    4.80    0.80
   4   9  -8    3.50    0.70
   4   9  -8    2.80    0.70
  -4  -9   8    3.00    0.60
   3   9  -8   14.30    1.20
   3   9  -8   14.00    1.30
  -3  -9   8   15.80    1.00
   2   9  -8   28.60    1.50
  -2  -9   8   28.90    1.30
  -2  -9   8   28.50    1.90
   1   9  -8   -0.40    0.50
   1   9  -8    0.20    0.50
   1   9  -8    0.70    0.80
  -1  -9   8   -0.20    0.40
  -1  -9   8    0.20    0.80
   0   9  -8    0.30    0.50
   0   9  -8    1.30    0.80
   0   9  -8    1.20    0.50
   0  -9   8    0.90    0.40
   0  -9   8    1.10    0.70
  -1   9  -8    7.20    0.90
  -1   9  -8    6.60    0.90
  -1   9  -8    7.40    1.00
   1  -9   8    7.90    1.10
   1  -9   8    5.70    0.70
  -2   9  -8   -0.80    0.70
   2  -9   8    0.40    0.50
   2  -9   8    0.40    0.50
   2  -9   8    0.30    0.40
  -3   9  -8   33.20    1.60
   3  -9   8   31.90    1.40
   3  -9   8   32.20    1.50
   3  -9   8   34.10    1.40
  -4   9  -8    2.20    0.70
   4  -9   8    1.60    0.50
   4  -9   8    1.90    0.50
   4  -9   8    1.50    0.40
  -5   9  -8    3.80    0.80
   5  -9   8    2.80    0.50
   5  -9   8    3.40    0.50
   5  -9   8    3.00    0.50
  -6   9  -8   28.00    1.70
   6  -9   8   30.00    1.50
   6  -9   8   29.10    1.30
   6  -9   8   28.10    1.30
   7  -9   8    1.00    0.60
   7  -9   8    1.20    0.50
   7  -9   8    0.90    0.50
   6   8  -8    1.50    0.60
   6   8  -8    2.10    0.80
  -6  -8   8    1.40    0.60
   5   8  -8   24.70    1.60
   5   8  -8   26.60    1.40
  -5  -8   8   25.10    1.30
   4   8  -8    6.50    1.00
   4   8  -8    3.90    0.60
  -4  -8   8    4.30    0.60
   3   8  -8    3.00    0.60
   3   8  -8    2.10    0.60
  -3  -8   8    3.00    0.50
   2   8  -8    4.20    0.60
   2   8  -8    4.60    0.80
  -2  -8   8    5.30    0.60
  -2  -8   8    3.70    0.80
   1   8  -8   49.90    2.10
   1   8  -8   52.09    2.20
   1   8  -8   47.50    1.80
  -1  -8   8   47.50    1.80
  -1  -8   8   50.29    2.10
   0   8  -8    4.90    0.60
   0   8  -8    4.20    0.70
   0   8  -8    6.60    1.10
   0  -8   8    4.40    0.60
   0  -8   8    5.40    0.70
  -1   8  -8    0.80    0.70
  -1   8  -8    0.40    0.60
  -1   8  -8    0.40    0.50
   1  -8   8    0.70    0.60
  -2   8  -8    2.10    0.60
  -2   8  -8    2.00    1.30
   2  -8   8    1.20    0.50
   2  -8   8    2.20    0.60
  -3   8  -8    8.40    1.00
   3  -8   8   10.10    0.80
   3  -8   8    7.80    0.90
   3  -8   8    7.50    0.90
  -4   8  -8    2.80    0.60
   4  -8   8    2.50    0.50
   4  -8   8    2.60    0.50
  -5   8  -8   56.59    2.20
   5  -8   8   57.19    2.10
   5  -8   8   54.09    2.00
   5  -8   8   55.99    2.20
  -6   8  -8   21.50    1.40
   6  -8   8   22.90    1.10
   6  -8   8   21.90    1.10
   6  -8   8   22.00    1.30
   7  -8   8    1.20    0.50
   7  -8   8    1.30    0.50
   7  -8   8    2.00    0.50
   8  -8   8   21.70    1.00
   8  -8   8   22.00    1.40
   8  -8   8   21.10    1.20
   7   7  -8    5.70    1.00
   7   7  -8    4.50    0.70
  -7  -7   8    5.20    0.80
   6   7  -8    5.10    0.80
   6   7  -8    3.60    0.70
  -6  -7   8    4.60    0.60
   5   7  -8    2.20    0.60
   5   7  -8    2.00    0.50
  -5  -7   8    3.00    0.50
   4   7  -8    0.60    0.60
   4   7  -8    1.90    0.50
  -4  -7   8    2.10    0.50
   3   7  -8   12.30    1.00
   3   7  -8   11.10    1.10
  -3  -7   8   12.40    0.80
  -3  -7   8   11.90    1.40
   2   7  -8    4.30    0.70
   2   7  -8    5.60    0.90
  -2  -7   8    5.60    0.60
  -2  -7   8    3.10    0.70
   1   7  -8   11.20    0.90
   1   7  -8   11.30    1.10
   1   7  -8   10.80    0.80
  -1  -7   8    8.60    1.10
   0   7  -8    5.50    0.70
   0   7  -8    4.90    0.70
   0   7  -8    4.30    0.60
   0  -7   8    4.70    0.60
   0  -7   8    4.50    0.60
  -1   7  -8   40.90    1.80
  -1   7  -8   40.20    1.70
  -1   7  -8   42.20    1.60
   1  -7   8   41.10    1.60
   1  -7   8   41.60    1.70
  -2   7  -8   13.20    1.30
  -2   7  -8   13.70    1.00
  -2   7  -8   12.60    0.90
   2  -7   8   11.80    0.90
   2  -7   8   12.50    0.80
  -3   7  -8    3.10    0.50
   3  -7   8    3.20    0.50
   3  -7   8    2.20    0.40
   3  -7   8    3.40    0.50
  -4   7  -8   65.39    2.30
   4  -7   8   64.49    2.40
   4  -7   8   64.29    2.30
   4  -7   8   65.19    2.30
  -5   7  -8   85.29    3.00
   5  -7   8   85.89    3.00
   5  -7   8   85.99    3.00
  -6   7  -8   67.19    2.50
   6  -7   8   70.59    2.50
   6  -7   8   71.39    2.50
   6  -7   8   70.39    2.60
   7  -7   8    4.50    0.60
   7  -7   8    2.70    0.50
   7  -7   8    4.00    0.80
   7  -7   8    5.60    0.70
   8  -7   8    7.20    1.00
   8  -7   8    9.60    0.90
   8  -7   8    7.60    0.70
   8   6  -8   -0.30    0.70
   7   6  -8    0.50    0.60
   7   6  -8    0.80    0.40
   6   6  -8    0.60    0.50
   6   6  -8    1.10    0.60
  -6  -6   8    0.50    0.50
   5   6  -8    0.40    0.50
   5   6  -8   -0.20    0.40
  -5  -6   8    0.40    0.40
   4   6  -8   17.50    1.10
   4   6  -8   19.30    1.10
  -4  -6   8   18.90    1.00
   3   6  -8    6.30    0.70
   3   6  -8    4.80    0.60
  -3  -6   8    6.40    0.60
  -3  -6   8    5.00    1.30
   2   6  -8    0.50    0.30
   2   6  -8   -0.30    0.40
   2   6  -8    1.20    0.50
  -2  -6   8    0.20    0.40
  -2  -6   8    1.00    0.90
   1   6  -8    0.20    0.40
   1   6  -8   -0.20    0.30
   1   6  -8   -0.40    0.60
  -1  -6   8    0.20    0.50
  -1  -6   8    0.20    0.30
   0   6  -8   25.60    1.20
   0   6  -8   25.90    1.10
   0  -6   8   25.90    1.20
   0  -6   8   24.80    1.10
  -1   6  -8    1.80    0.40
  -1   6  -8    1.90    0.60
  -1   6  -8    2.30    0.50
   1  -6   8    2.10    0.40
   1  -6   8    2.40    0.40
  -2   6  -8    0.90    0.40
  -2   6  -8   -0.40    0.60
  -2   6  -8    0.00    0.40
   2  -6   8   -0.60    0.30
   2  -6   8   -0.30    0.30
  -3   6  -8   22.30    1.10
  -3   6  -8   20.50    1.10
  -3   6  -8   20.80    1.30
   3  -6   8   22.20    1.00
   3  -6   8   22.30    1.00
  -4   6  -8    1.50    0.40
   4  -6   8    1.80    0.60
   4  -6   8    1.10    0.60
   4  -6   8    1.40    0.40
  -5   6  -8   15.70    0.90
   5  -6   8   17.20    1.00
   5  -6   8   17.10    1.10
   5  -6   8   18.10    0.90
   5  -6   8   17.00    1.10
  -6   6  -8   27.70    1.30
   6  -6   8   26.10    1.30
   6  -6   8   27.20    1.10
   6  -6   8   27.60    1.20
   6  -6   8   26.40    1.30
  -7   6  -8    7.30    0.90
   7  -6   8    5.00    0.60
   7  -6   8    6.00    0.80
   7  -6   8    6.20    0.70
  -8   6  -8    5.20    0.70
   8  -6   8    5.80    0.70
  -9   6  -8    3.70    0.70
   9  -6   8    2.30    0.70
   8   5  -8    0.70    0.50
   8   5  -8    0.90    0.70
  -8  -5   8   -0.10    0.60
   7   5  -8    1.30    0.50
   7   5  -8    1.20    0.60
  -7  -5   8    1.60    0.50
   6   5  -8    9.20    0.80
   6   5  -8    9.00    1.00
  -6  -5   8    9.20    0.90
   5   5  -8    0.80    0.40
   5   5  -8    0.30    0.50
  -5  -5   8   -0.10    0.40
   4   5  -8    1.00    0.50
   4   5  -8    0.60    0.60
  -4  -5   8    1.30    0.40
   3   5  -8   73.59    2.60
   3   5  -8   70.79    2.40
   3   5  -8   71.19    2.60
  -3  -5   8   73.49    2.70
  -3  -5   8   70.79    2.50
   2   5  -8    1.40    0.40
   2   5  -8    1.30    0.40
   2   5  -8    1.40    0.30
  -2  -5   8    1.30    0.60
  -2  -5   8    1.30    0.30
   1   5  -8   10.40    0.60
   1   5  -8    9.20    0.70
  -1  -5   8   10.60    0.60
  -1  -5   8   11.30    0.90
   0   5  -8    0.70    0.30
   0   5  -8    0.60    0.30
   0   5  -8    0.70    0.40
   0  -5   8    1.10    0.40
   0  -5   8    0.50    0.30
  -1   5  -8   17.40    0.90
  -1   5  -8   17.70    1.00
  -1   5  -8   17.00    0.80
   1  -5   8   17.40    0.80
   1  -5   8   18.40    0.90
  -2   5  -8    7.50    0.60
  -2   5  -8    7.10    0.90
  -2   5  -8    7.00    0.60
   2  -5   8    5.10    0.60
   2  -5   8    6.50    0.50
   2  -5   8    6.60    0.60
  -3   5  -8   53.49    1.90
  -3   5  -8   51.89    2.10
   3  -5   8   52.99    1.90
   3  -5   8   51.89    1.90
  -4   5  -8   10.10    0.80
   4  -5   8    9.30    0.60
   4  -5   8   10.00    0.90
   4  -5   8    9.10    0.70
  -5   5  -8   -0.10    0.30
   5  -5   8   -0.20    0.40
   5  -5   8    0.00    0.40
   5  -5   8    0.10    0.30
  -6   5  -8    7.80    0.80
   6  -5   8    7.50    0.60
   6  -5   8    8.00    0.80
   6  -5   8    8.40    0.70
  -7   5  -8    4.00    0.60
   7  -5   8    3.80    0.50
   7  -5   8    4.10    0.40
   7  -5   8    4.30    0.50
  -8   5  -8    0.00    0.60
   8  -5   8    0.10    0.50
  -9   5  -8    1.50    0.60
   9  -5   8    3.00    0.70
   8   4  -8    8.50    1.20
   8   4  -8    8.90    0.80
  -8  -4   8   10.20    1.00
   7   4  -8  121.39    4.40
   7   4  -8  120.29    4.10
  -7  -4   8  122.59    4.10
   6   4  -8  186.38    6.40
   6   4  -8  192.58    6.30
  -6  -4   8  195.38    6.20
   5   4  -8  130.49    4.50
   5   4  -8  128.69    4.30
  -5  -4   8  130.49    4.30
   4   4  -8   13.80    1.00
   4   4  -8   15.10    0.80
   4   4  -8   14.70    0.90
  -4  -4   8   15.10    0.80
  -4  -4   8   14.70    1.30
   3   4  -8    1.30    0.40
   3   4  -8    0.00    0.40
   3   4  -8    0.20    0.40
  -3  -4   8    0.30    0.30
  -3  -4   8    0.50    0.60
   2   4  -8   27.80    1.10
   2   4  -8   33.80    1.40
   2   4  -8   26.50    1.20
  -2  -4   8   28.60    1.10
  -2  -4   8   28.80    1.30
   1   4  -8   33.80    1.30
   1   4  -8   33.20    1.30
   1   4  -8   33.10    1.40
  -1  -4   8   33.80    1.20
  -1  -4   8   33.60    1.40
   0   4  -8  239.18    7.70
   0   4  -8  244.28    7.70
   0   4  -8  241.98    7.70
   0  -4   8  241.18    7.70
   0  -4   8  243.58    7.70
  -1   4  -8   10.50    0.80
  -1   4  -8   11.60    0.70
   1  -4   8    9.90    0.70
   1  -4   8    9.90    0.60
  -2   4  -8    8.40    0.80
  -2   4  -8    8.20    0.60
   2  -4   8    8.40    0.60
   2  -4   8    8.50    0.60
   2  -4   8    7.80    0.80
  -3   4  -8   17.40    1.20
  -3   4  -8   20.20    1.00
   3  -4   8   20.50    0.90
   3  -4   8   19.40    1.00
   3  -4   8   21.60    0.90
  -4   4  -8   23.40    1.10
   4  -4   8   23.00    1.10
   4  -4   8   24.70    1.00
   4  -4   8   23.60    1.00
  -5   4  -8   87.29    3.10
   5  -4   8   84.69    3.00
   5  -4   8   89.49    3.00
   5  -4   8   90.19    2.90
  -6   4  -8   14.50    0.90
   6  -4   8   15.40    0.70
   6  -4   8   14.90    0.90
   6  -4   8   14.10    0.80
  -7   4  -8    0.70    0.40
   7  -4   8    1.30    0.40
  -8   4  -8    1.80    0.50
   8  -4   8    1.20    0.50
  -9   4  -8    0.30    0.60
   9  -4   8   -0.30    0.60
   9   3  -8    0.90    0.70
   9   3  -8   -0.20    0.40
  -9  -3   8    1.60    0.70
   8   3  -8   17.30    1.10
   8   3  -8   18.80    1.40
  -8  -3   8   17.90    1.10
   7   3  -8  206.58    7.00
   7   3  -8  206.58    6.70
  -7  -3   8  208.78    6.70
   6   3  -8   82.09    3.00
   6   3  -8   80.99    2.80
   6   3  -8   75.89    2.70
  -6  -3   8   82.09    2.80
   5   3  -8    0.30    0.30
  -5  -3   8    0.40    0.40
   4   3  -8   70.99    2.30
   4   3  -8   68.59    2.50
   4   3  -8   65.79    2.60
   4   3  -8   71.19    2.40
  -4  -3   8   68.79    2.40
  -4  -3   8   69.29    2.60
   3   3  -8  206.68    6.80
   3   3  -8  207.68    6.80
   3   3  -8  214.08    6.70
  -3  -3   8  213.98    6.70
  -3  -3   8  206.68    6.80
   2   3  -8   48.40    1.80
   2   3  -8   48.40    1.70
   2   3  -8   46.90    1.70
  -2  -3   8   47.70    1.60
  -2  -3   8   42.70    1.90
   1   3  -8  265.87    8.70
   1   3  -8  269.67    8.60
   1   3  -8  273.87    8.60
  -1  -3   8  279.97    8.60
   0   3  -8   22.50    0.90
   0   3  -8   22.70    0.90
   0   3  -8   22.30    1.10
   0  -3   8   22.70    0.90
  -1   3  -8  278.67    8.80
  -1   3  -8  281.07    8.90
   1  -3   8  276.97    8.90
   1  -3   8  279.67    8.80
  -2   3  -8   52.49    1.90
  -2   3  -8   52.39    1.90
   2  -3   8   47.40    1.90
   2  -3   8   52.29    1.80
   2  -3   8   53.69    1.80
  -3   3  -8    2.70    0.50
  -3   3  -8    3.90    0.60
   3  -3   8    3.10    0.50
   3  -3   8    3.50    0.40
   3  -3   8    4.50    0.50
  -4   3  -8   56.19    2.00
   4  -3   8   56.79    1.90
   4  -3   8   53.89    1.90
   4  -3   8   51.89    1.90
  -5   3  -8    0.30    0.50
   5  -3   8   -0.10    0.30
   5  -3   8    0.10    0.40
   5  -3   8    0.10    0.40
  -6   3  -8  173.28    5.70
   6  -3   8  170.08    5.60
   6  -3   8  178.28    5.50
   6  -3   8  171.08    5.50
  -7   3  -8    0.40    0.40
   7  -3   8   -0.70    0.40
  -8   3  -8   12.10    1.00
   8  -3   8   12.50    1.00
  -9   3  -8    1.60    0.60
   9  -3   8    2.30    0.60
   9   2  -8    8.90    1.30
   9   2  -8    7.80    0.70
  -9  -2   8    9.40    1.00
   8   2  -8    0.30    0.60
   8   2  -8    0.00    0.40
  -8  -2   8   -0.60    0.50
   7   2  -8    5.50    0.60
   7   2  -8    6.00    0.90
   7   2  -8    4.20    0.50
  -7  -2   8    6.30    0.70
   6   2  -8   12.50    0.90
   6   2  -8   11.50    0.80
   6   2  -8   11.80    1.00
  -6  -2   8   13.20    0.90
   5   2  -8   85.39    2.90
   5   2  -8   88.69    3.10
   5   2  -8   71.59    3.50
   5   2  -8   90.89    3.00
  -5  -2   8   88.19    2.90
   4   2  -8   92.49    3.10
   4   2  -8   93.39    3.20
   4   2  -8   94.09    3.10
   4   2  -8   85.79    3.20
  -4  -2   8   92.89    3.20
  -4  -2   8   92.59    3.10
   3   2  -8  162.68    5.40
   3   2  -8  170.38    5.40
   3   2  -8  167.68    5.50
  -3  -2   8  169.48    5.40
  -3  -2   8  166.78    5.50
   2   2  -8    8.40    0.80
   2   2  -8    5.20    0.50
   2   2  -8    6.90    0.60
  -2  -2   8    4.30    0.80
  -2  -2   8    7.00    0.50
   1   2  -8   56.19    2.00
   1   2  -8   57.89    1.90
   1   2  -8   54.99    1.90
  -1  -2   8   55.89    1.90
  -1  -2   8   53.89    2.00
   0   2  -8   86.99    3.00
   0   2  -8   79.89    2.70
   0   2  -8   83.39    2.70
   0  -2   8   79.59    2.70
   0  -2   8   77.09    2.70
  -1   2  -8   24.70    1.00
  -1   2  -8   24.80    1.10
   1  -2   8   24.80    1.00
   1  -2   8   24.70    1.00
  -2   2  -8   18.80    1.00
  -2   2  -8   18.50    0.90
   2  -2   8   17.50    1.00
   2  -2   8   18.60    0.80
   2  -2   8   18.50    0.80
  -3   2  -8   12.60    0.70
  -3   2  -8   11.90    1.00
   3  -2   8   12.10    0.80
   3  -2   8   12.10    0.60
   3  -2   8   12.70    0.70
  -4   2  -8    1.90    0.40
   4  -2   8    1.50    0.30
   4  -2   8    1.90    0.40
   4  -2   8    2.10    0.40
   5  -2   8   82.79    2.80
   5  -2   8   85.09    2.80
  -6   2  -8    5.30    0.70
   6  -2   8    5.30    0.60
   6  -2   8    3.90    0.40
   6  -2   8    4.10    0.60
  -7   2  -8   21.90    1.20
   7  -2   8   21.80    1.10
  -8   2  -8   -0.10    0.50
   8  -2   8    0.40    0.50
  -9   2  -8   -0.40    0.60
   9  -2   8    1.00    0.60
   9   1  -8   -0.60    1.00
   9   1  -8    1.20    0.40
  -9  -1   8    0.70    0.60
   8   1  -8    0.00    0.60
   8   1  -8    0.00    0.50
   8   1  -8    0.00    0.30
  -8  -1   8    0.30    0.50
   7   1  -8    5.70    0.60
   7   1  -8    5.60    0.60
   7   1  -8    4.50    0.70
  -7  -1   8    6.90    0.70
   6   1  -8    0.40    0.40
   6   1  -8    0.10    0.30
   6   1  -8    0.10    0.40
  -6  -1   8    0.40    0.40
   5   1  -8    7.50    0.70
   5   1  -8    6.90    0.80
   5   1  -8    5.40    0.70
   5   1  -8    6.00    0.60
  -5  -1   8    6.50    0.70
   4   1  -8    4.80    0.60
   4   1  -8    7.20    0.70
   4   1  -8    6.40    0.70
   4   1  -8    5.50    0.60
  -4  -1   8    6.00    0.90
  -4  -1   8    6.90    0.60
   3   1  -8    4.80    0.60
   3   1  -8    4.70    0.60
   3   1  -8    5.00    0.60
  -3  -1   8    5.00    0.50
  -3  -1   8    3.90    0.50
   2   1  -8   22.60    1.00
   2   1  -8   21.80    1.00
   2   1  -8   21.70    1.00
  -2  -1   8   22.30    0.90
  -2  -1   8   18.90    1.40
   1   1  -8   28.00    1.10
   1   1  -8   28.70    1.20
   1   1  -8   28.10    1.10
  -1  -1   8   26.40    1.20
  -1  -1   8   29.00    1.10
   0   1  -8   13.00    0.70
   0   1  -8   12.30    1.00
   0  -1   8   12.50    0.60
   0  -1   8   12.70    0.60
   0  -1   8   11.80    0.70
  -1   1  -8   93.49    3.10
  -1   1  -8   91.59    3.10
   1  -1   8   89.79    3.10
   1  -1   8   92.29    3.00
  -2   1  -8   21.90    1.10
  -2   1  -8   21.50    0.90
   2  -1   8   21.60    0.90
   2  -1   8   21.40    0.90
   2  -1   8   19.80    1.00
  -3   1  -8    5.60    0.50
  -3   1  -8    5.50    0.70
   3  -1   8    6.00    0.50
   3  -1   8    5.80    0.50
   3  -1   8    5.80    0.70
  -4   1  -8    0.80    0.30
   4  -1   8    1.30    0.40
   4  -1   8    0.50    0.20
   4  -1   8    0.60    0.30
   5  -1   8   34.00    1.30
   5  -1   8   33.80    1.40
   5  -1   8   33.60    1.40
  -6   1  -8   16.50    1.00
   6  -1   8   14.40    0.90
   6  -1   8   15.20    0.90
   6  -1   8   15.40    0.70
  -7   1  -8    0.50    0.40
   7  -1   8    0.50    0.40
  -8   1  -8   25.20    1.40
   8  -1   8   24.90    1.30
  -9   1  -8    8.90    1.10
   9  -1   8   10.80    1.10
   9   0  -8    3.00    0.50
   9   0  -8    1.90    0.60
   9   0  -8    2.50    0.80
  -9   0   8    3.80    0.60
   8   0  -8   16.00    0.90
   8   0  -8   15.40    1.00
   8   0  -8   15.30    1.20
  -8   0   8   14.60    1.20
   7   0  -8    9.90    1.10
   7   0  -8   12.40    1.00
   7   0  -8   11.20    0.80
  -7   0   8   12.70    1.00
   6   0  -8    6.10    0.80
   6   0  -8    6.40    0.60
   6   0  -8    4.70    0.60
  -6   0   8    6.80    0.80
   5   0  -8    7.80    1.10
   5   0  -8    8.80    0.80
   5   0  -8    8.70    0.70
   5   0  -8    8.80    0.80
  -5   0   8    8.60    0.70
   4   0  -8    8.80    1.00
   4   0  -8    9.00    0.70
   4   0  -8    8.50    0.80
   4   0  -8    8.80    0.70
  -4   0   8    8.70    1.00
  -4   0   8    8.50    0.60
   3   0  -8    0.30    0.40
   3   0  -8    0.20    0.30
   3   0  -8    0.60    0.30
  -3   0   8    0.40    0.30
  -3   0   8    0.30    0.40
   2   0  -8   14.10    0.80
   2   0  -8   15.00    0.80
  -2   0   8   14.60    0.90
  -2   0   8   13.80    0.70
   1   0  -8   28.10    1.20
   1   0  -8   31.00    1.30
  -1   0   8   29.70    1.20
  -1   0   8   28.90    1.20
  -1   0   8   30.20    1.10
   0   0  -8   17.40    0.80
   0   0   8   17.60    0.80
   0   0   8   17.80    0.80
  -1   0  -8   20.70    0.90
  -1   0  -8   20.70    1.00
   1   0   8   20.90    0.90
   1   0   8   21.00    0.80
  -2   0  -8  114.59    3.80
  -2   0  -8  110.99    3.70
   2   0   8  106.59    3.70
   2   0   8  112.29    3.70
   2   0   8  116.59    3.70
  -3   0  -8    0.00    0.20
  -3   0  -8   -0.10    0.50
   3   0   8   -0.30    0.40
   3   0   8   -0.20    0.20
   3   0   8    0.30    0.20
  -4   0  -8  117.89    3.90
   4   0   8  116.79    3.80
   4   0   8  108.69    3.80
   4   0   8  116.99    3.80
   5   0   8   -0.10    0.30
   5   0   8   -0.20    0.40
   5   0   8    0.00    0.30
  -6   0  -8    0.10    0.40
   6   0   8    1.60    0.40
   6   0   8    0.80    0.40
   6   0   8    1.40    0.30
  -7   0  -8    8.50    0.90
   7   0   8    9.30    0.90
   7   0   8   10.90    0.60
   7   0   8    9.50    0.70
  -8   0  -8    2.40    0.60
   9  -1  -8   14.20    0.90
   9  -1  -8   15.00    1.10
   9  -1  -8   15.00    1.40
   8  -1  -8   -0.20    0.50
   8  -1  -8    1.10    0.60
   8  -1  -8    1.00    0.50
  -8   1   8    1.70    0.90
   7  -1  -8   70.19    2.60
   7  -1  -8   71.19    2.70
   7  -1  -8   69.69    2.50
  -7   1   8   72.29    2.50
   6  -1  -8   31.80    1.30
   6  -1  -8   32.90    1.50
   6  -1  -8   31.60    1.50
  -6   1   8   32.20    1.30
   5  -1  -8    3.00    0.50
   5  -1  -8    1.70    0.40
   5  -1  -8    1.90    0.50
  -5   1   8    2.90    0.40
   4  -1  -8   10.30    0.70
   4  -1  -8    9.10    1.20
   4  -1  -8   10.40    0.70
  -4   1   8   10.80    0.70
  -4   1   8    9.50    1.00
   3  -1  -8   12.40    0.70
   3  -1  -8   12.20    0.80
  -3   1   8   10.80    0.80
  -3   1   8   11.50    0.90
  -3   1   8   11.80    0.70
   2  -1  -8   19.10    1.00
   2  -1  -8   18.30    0.90
  -2   1   8   22.80    1.00
  -2   1   8   19.80    1.00
  -2   1   8   19.20    0.80
   1  -1  -8  199.18    5.70
   1  -1  -8  167.48    5.60
  -1   1   8  168.68    5.50
  -1   1   8  167.58    5.60
  -1   1   8  167.58    5.60
   0  -1  -8    0.20    0.40
   0   1   8    0.20    0.30
   0   1   8    0.40    0.30
   0   1   8    0.50    0.30
  -1  -1  -8    3.50    0.40
  -1  -1  -8    3.70    0.50
   1   1   8    4.30    0.50
   1   1   8    3.80    0.40
   1   1   8    4.30    0.60
  -2  -1  -8   10.50    0.60
  -2  -1  -8   10.50    1.00
   2   1   8    9.90    0.60
   2   1   8    8.50    0.90
   2   1   8   11.30    0.70
  -3  -1  -8    3.30    0.70
  -3  -1  -8    4.10    0.60
   3   1   8    3.00    0.50
   3   1   8    3.40    0.40
   3   1   8    4.20    0.50
  -4  -1  -8    1.30    0.40
   4   1   8    0.80    0.50
   4   1   8    1.30    0.50
   4   1   8    1.30    0.40
  -5  -1  -8   19.80    1.40
   5   1   8   22.20    1.00
   5   1   8   20.50    1.10
   5   1   8   21.80    1.10
  -6  -1  -8   15.10    1.00
   6   1   8   14.50    1.00
   6   1   8   15.80    0.80
   6   1   8   16.00    1.00
  -7  -1  -8   -0.20    0.50
   7   1   8    0.50    0.30
   7   1   8    0.90    0.50
   7   1   8    0.60    0.40
  -8  -1  -8    2.70    0.70
   8   1   8    2.40    0.70
   9  -2  -8    4.50    0.70
   9  -2  -8    4.90    0.60
   8  -2  -8    0.80    0.50
   8  -2  -8    1.00    0.40
  -8   2   8    1.60    0.60
   7  -2  -8   25.80    1.30
   7  -2  -8   26.10    1.20
  -7   2   8   29.10    1.50
   6  -2  -8    2.40    0.50
   6  -2  -8    1.80    0.40
  -6   2   8    2.30    0.50
   5  -2  -8   64.09    2.50
   4  -2  -8   -0.10    0.30
   4  -2  -8    0.30    0.30
  -4   2   8    0.00    0.40
  -4   2   8    0.40    0.30
  -4   2   8   -0.10    0.60
   3  -2  -8    1.00    0.40
   3  -2  -8    1.20    0.40
  -3   2   8    1.20    0.50
  -3   2   8    1.30    0.30
  -3   2   8    0.80    0.50
   2  -2  -8   10.40    0.70
   2  -2  -8   11.00    0.80
  -2   2   8   10.60    0.60
  -2   2   8   14.00    1.10
  -2   2   8   10.70    0.80
   1  -2  -8   42.90    1.70
   1  -2  -8   44.30    1.70
  -1   2   8   42.70    1.60
  -1   2   8   42.70    1.70
  -1   2   8   43.10    1.50
   0  -2  -8   32.70    1.40
   0  -2  -8   34.30    1.40
   0   2   8   33.70    1.30
   0   2   8   33.30    1.40
   0   2   8   32.40    1.20
  -1  -2  -8    0.90    0.50
  -1  -2  -8    0.60    0.30
   1   2   8    0.80    0.30
   1   2   8    1.20    0.40
   1   2   8    1.00    0.30
  -2  -2  -8   65.19    2.20
  -2  -2  -8   65.99    2.40
   2   2   8   56.39    2.50
   2   2   8   64.79    2.30
   2   2   8   63.19    2.20
   2   2   8   63.69    2.20
  -3  -2  -8   18.90    1.00
   3   2   8   19.30    0.90
   3   2   8   19.60    0.90
   3   2   8   17.60    0.90
  -4  -2  -8    2.30    0.50
   4   2   8    1.90    0.40
   4   2   8    2.10    0.40
   4   2   8    2.30    0.40
  -5  -2  -8   44.40    1.80
   5   2   8   44.20    1.80
   5   2   8   43.60    1.70
   5   2   8   45.50    1.70
  -6  -2  -8    0.30    0.40
   6   2   8    0.20    0.40
   6   2   8    0.10    0.60
   6   2   8    0.80    0.40
  -7  -2  -8    0.60    0.50
   7   2   8    0.20    0.40
   7   2   8    0.30    0.50
  -8  -2  -8    1.00    0.60
   8   2   8    1.00    0.60
   9  -3  -8    2.80    0.70
   9  -3  -8    2.80    0.50
  -9   3   8    2.70    0.90
   8  -3  -8   -0.60    0.50
   8  -3  -8   -0.10    0.60
  -8   3   8    0.30    0.70
   7  -3  -8   13.30    0.90
   7  -3  -8   13.10    1.00
  -7   3   8   13.00    1.30
   6  -3  -8    2.10    0.50
   6  -3  -8    2.70    0.50
  -6   3   8    2.60    0.60
   5  -3  -8  206.58    6.70
   5  -3  -8  209.08    6.70
  -5   3   8  200.28    6.80
   4  -3  -8   73.89    2.70
  -4   3   8   74.39    2.70
  -4   3   8   74.59    2.80
   3  -3  -8   46.80    1.90
   3  -3  -8   47.70    1.80
  -3   3   8   46.80    1.60
  -3   3   8   47.20    1.90
  -3   3   8   48.50    2.00
   2  -3  -8   49.40    1.90
  -2   3   8   52.39    1.80
  -2   3   8   52.59    2.00
  -2   3   8   49.40    2.00
   1  -3  -8    7.50    0.80
   1  -3  -8    7.70    0.70
  -1   3   8    7.40    0.80
  -1   3   8    7.70    0.60
  -1   3   8    7.10    0.80
   0  -3  -8   40.40    1.60
   0  -3  -8   40.00    1.70
   0   3   8   40.90    1.70
   0   3   8   41.20    1.60
   0   3   8   38.10    1.50
  -1  -3  -8    0.10    0.70
  -1  -3  -8   -0.40    0.40
   1   3   8   -0.20    0.40
   1   3   8   -0.10    0.30
   1   3   8    0.10    0.40
  -2  -3  -8   23.40    1.10
  -2  -3  -8   19.60    1.30
   2   3   8   20.10    1.00
   2   3   8   20.30    1.10
   2   3   8   20.70    1.00
   2   3   8   20.90    1.10
  -3  -3  -8   15.60    1.00
   3   3   8   14.10    0.90
   3   3   8   15.80    1.00
   3   3   8   12.50    1.00
   4   3   8    6.10    0.80
   4   3   8    6.70    0.80
   4   3   8    5.10    0.60
  -5  -3  -8    1.00    0.40
   5   3   8    0.40    0.40
   5   3   8    1.00    0.60
   5   3   8    1.50    0.50
  -6  -3  -8    0.40    0.50
   6   3   8    0.30    0.50
   6   3   8   -0.30    0.40
   6   3   8   -0.10    0.70
   7   3   8    3.10    0.50
   7   3   8    3.30    0.70
   8  -4  -8   24.50    1.30
   8  -4  -8   27.00    1.50
  -8   4   8   27.30    1.70
   7  -4  -8   21.10    1.30
   7  -4  -8   22.50    1.20
  -7   4   8   21.60    1.50
   6  -4  -8    4.20    0.60
   6  -4  -8    4.50    0.60
  -6   4   8    4.80    0.70
   5  -4  -8   82.29    3.00
   5  -4  -8   83.79    2.90
  -5   4   8   81.79    3.10
   4  -4  -8   20.40    1.20
   4  -4  -8   19.90    1.10
  -4   4   8   20.50    1.30
   3  -4  -8   49.99    1.90
   3  -4  -8   48.90    2.00
  -3   4   8   50.79    2.00
  -3   4   8   50.69    2.10
   2  -4  -8  101.49    3.50
  -2   4   8  104.59    3.30
  -2   4   8   97.29    3.50
  -2   4   8  103.89    3.60
   1  -4  -8  117.99    4.00
   1  -4  -8  115.99    4.00
  -1   4   8  115.09    4.00
  -1   4   8  117.29    4.00
  -1   4   8  118.99    3.80
  -1   4   8  117.49    4.00
   0  -4  -8   10.50    0.80
   0  -4  -8   12.10    1.10
   0   4   8   11.10    0.80
   0   4   8   11.20    0.90
   0   4   8   12.40    1.00
   0   4   8   12.40    1.10
  -1  -4  -8  205.98    6.80
  -1  -4  -8  205.78    6.80
   1   4   8  209.48    6.70
   1   4   8  213.68    6.70
   1   4   8  208.38    6.80
  -2  -4  -8  192.48    7.00
   2   4   8  220.78    6.70
   2   4   8  209.78    6.70
  -3  -4  -8   56.39    2.50
   3   4   8   59.99    2.10
   3   4   8   59.19    2.20
   3   4   8   57.79    2.20
  -4  -4  -8   55.99    2.10
   4   4   8   56.99    2.20
   4   4   8   55.19    2.20
   4   4   8   55.99    2.10
  -5  -4  -8    0.20    0.50
   5   4   8    0.10    0.60
   5   4   8   -0.20    0.50
   5   4   8   -0.30    0.40
  -6  -4  -8    6.20    0.90
   6   4   8    5.60    0.80
   6   4   8    4.40    0.70
   8  -5  -8    4.20    0.70
   8  -5  -8    3.30    0.60
  -8   5   8    3.00    1.00
   7  -5  -8   19.90    1.20
   7  -5  -8   19.80    1.40
  -7   5   8   20.70    1.60
   6  -5  -8   53.39    2.10
   6  -5  -8   54.79    2.20
  -6   5   8   56.39    2.40
   5  -5  -8    0.30    0.50
   5  -5  -8    0.20    0.40
  -5   5   8    0.00    0.60
   4  -5  -8    0.60    0.50
   4  -5  -8    0.20    0.40
  -4   5   8    0.80    0.60
   3  -5  -8    6.00    0.70
   3  -5  -8    7.00    0.80
  -3   5   8    6.00    0.90
  -3   5   8    6.40    0.80
   2  -5  -8   27.00    1.60
   2  -5  -8   18.90    1.10
  -2   5   8   21.00    1.00
  -2   5   8   23.10    1.40
  -2   5   8   20.30    1.30
   1  -5  -8   76.19    2.80
  -1   5   8   76.19    2.80
  -1   5   8   78.79    2.60
   0  -5  -8  179.38    5.80
   0  -5  -8  178.28    5.90
   0   5   8  177.38    5.90
   0   5   8  177.78    5.70
   0   5   8  173.08    5.80
  -1  -5  -8   27.10    1.30
  -1  -5  -8   24.50    1.70
   1   5   8   27.00    1.30
   1   5   8   26.70    1.20
   1   5   8   27.10    1.50
  -2  -5  -8   27.90    1.40
   2   5   8   30.30    1.30
   2   5   8   27.80    1.40
   2   5   8   29.00    1.40
  -3  -5  -8    0.90    0.60
   3   5   8    0.20    0.50
   3   5   8    0.70    0.50
   3   5   8    1.10    0.60
  -4  -5  -8   40.10    1.80
   4   5   8   44.80    1.80
   4   5   8   42.70    2.10
   4   5   8   43.10    1.80
  -5  -5  -8   12.50    1.30
   5   5   8   17.10    1.20
   5   5   8   17.20    1.10
   5   5   8   18.30    1.20
  -6  -5  -8    3.20    0.80
   6   5   8    3.90    0.70
   6   5   8    5.40    1.00
   6   5   8    4.50    0.60
   7  -6  -8   19.00    1.30
   7  -6  -8   18.00    1.20
  -7   6   8   17.70    1.70
   6  -6  -8    0.10    0.50
   6  -6  -8    0.80    0.50
  -6   6   8   -0.30    0.60
   5  -6  -8    1.30    0.60
   5  -6  -8    1.20    0.50
  -5   6   8    2.20    0.70
   4  -6  -8    2.30    0.50
   4  -6  -8    0.70    0.50
  -4   6   8    0.90    0.60
   3  -6  -8   22.40    1.20
  -3   6   8   25.00    1.80
  -3   6   8   22.60    1.40
   2  -6  -8    2.30    0.50
   2  -6  -8    2.50    0.80
  -2   6   8    2.60    0.60
  -2   6   8    2.40    0.80
   1  -6  -8   -0.20    0.40
   1  -6  -8    0.40    0.80
  -1   6   8    0.60    0.50
  -1   6   8    0.20    0.40
  -1   6   8    0.50    0.80
   0  -6  -8   -0.70    0.40
   0  -6  -8    0.30    0.90
   0   6   8    0.20    0.70
   0   6   8    1.00    0.40
   0   6   8    0.90    0.50
  -1  -6  -8    1.70    0.50
   1   6   8    1.50    0.50
   1   6   8    1.80    0.60
  -2  -6  -8   38.50    1.70
   2   6   8   38.60    1.80
   2   6   8   35.80    1.50
   2   6   8   36.20    1.60
  -3  -6  -8   66.89    2.50
   3   6   8   62.89    2.50
   3   6   8   67.49    2.60
   3   6   8   66.89    2.40
  -4  -6  -8   89.59    3.20
   4   6   8   91.79    3.30
   4   6   8   88.19    3.20
   4   6   8   88.39    3.30
  -5  -6  -8    5.50    0.90
   5   6   8    7.80    1.00
   5   6   8    7.90    1.00
   5   6   8    6.50    0.90
   7  -7  -8   16.80    1.20
   7  -7  -8   18.60    1.40
  -7   7   8   15.60    1.90
   6  -7  -8   17.80    1.30
   6  -7  -8   18.70    1.30
  -6   7   8   17.70    1.50
   5  -7  -8   37.30    1.70
   5  -7  -8   34.40    1.80
  -5   7   8   36.60    2.20
   4  -7  -8    0.10    0.50
   4  -7  -8   -0.40    0.50
  -4   7   8   -0.20    0.70
   3  -7  -8    6.90    0.80
   3  -7  -8    6.60    0.90
  -3   7   8    5.30    0.80
   2  -7  -8   11.50    1.00
   2  -7  -8   13.10    1.70
  -2   7   8   15.30    1.70
  -2   7   8   12.30    1.10
   1  -7  -8    3.70    0.90
   1  -7  -8    2.60    0.60
  -1   7   8    3.70    1.00
  -1   7   8    3.40    0.60
   0  -7  -8   -0.10    0.50
   0  -7  -8    0.40    1.40
   0   7   8    0.10    0.60
   0   7   8    0.00    0.50
   0   7   8   -0.40    0.60
  -1  -7  -8    1.70    0.60
   1   7   8    2.30    0.50
   1   7   8    2.00    0.70
   1   7   8    1.90    0.50
  -2  -7  -8   -0.60    0.50
   2   7   8   -0.50    0.70
   2   7   8    1.10    0.50
   2   7   8   -0.10    0.60
  -3  -7  -8    0.50    0.60
   3   7   8    1.50    0.60
   3   7   8    1.20    0.60
   3   7   8   -0.70    0.70
  -4  -7  -8    1.60    0.70
   4   7   8    1.20    0.80
   4   7   8    2.20    0.70
   4   7   8    1.80    0.70
   5  -8  -8    1.10    0.70
   5  -8  -8    1.80    0.60
  -5   8   8    0.60    0.70
   4  -8  -8   11.20    1.10
   4  -8  -8   10.70    1.20
  -4   8   8    9.00    1.30
   3  -8  -8   35.10    2.00
   3  -8  -8   39.30    1.90
  -3   8   8   35.20    1.90
   2  -8  -8   22.70    1.40
   2  -8  -8   30.00    1.90
  -2   8   8   22.80    1.50
   1  -8  -8    0.90    0.60
   1  -8  -8    2.20    1.20
  -1   8   8    2.60    0.60
  -1   8   8    1.20    0.80
   0  -8  -8    0.50    0.60
   0  -8  -8    2.00    0.60
   0   8   8    1.40    0.60
   0   8   8   -0.30    0.80
  -1  -8  -8   42.50    1.80
  -1  -8  -8   47.90    2.00
   1   8   8   45.90    2.20
   1   8   8   44.60    2.00
  -2  -8  -8    1.30    0.70
  -2  -8  -8    1.20    0.60
   2   8   8    1.50    0.80
   2   8   8   -0.70    0.70
   3  -9  -8    0.90    0.80
   3  -9  -8    0.90    0.70
  -3   9   8    1.90    0.70
   2  -9  -8   -0.70    0.90
   2  -9  -8   -0.40    0.60
  -2   9   8    0.70    0.70
   1  -9  -8    3.70    0.70
  -1   9   8    4.90    1.10
  -1   9   8    3.90    0.80
   0  -9  -8   68.39    2.80
   0   9   8   66.79    2.80
   0   9   8   75.89    3.10
   0  12  -9    9.80    1.20
   0 -12   9   12.00    1.10
   0 -12   9   13.60    1.60
  -1  12  -9    0.90    0.90
   1 -12   9    0.90    0.60
   1 -12   9    5.10    0.90
  -2  12  -9    6.30    1.10
  -2  12  -9    7.80    1.10
   2 -12   9    7.80    0.80
   2 -12   9   11.30    1.30
  -3  12  -9    3.10    0.70
  -3  12  -9    0.30    1.00
   3 -12   9    1.00    0.60
   3 -12   9    3.00    0.80
   3  11  -9   14.80    1.60
  -3 -11   9   12.60    1.20
   2  11  -9    5.50    1.00
   2  11  -9    6.80    1.00
  -2 -11   9    6.70    0.70
   1  11  -9   15.00    1.60
   1  11  -9   11.40    1.40
  -1 -11   9   12.40    1.00
   0  11  -9   13.40    1.40
   0  11  -9   13.80    1.70
   0 -11   9   19.20    1.50
   0 -11   9   15.90    1.10
  -1  11  -9   21.70    1.20
  -1  11  -9   19.10    1.50
   1 -11   9   18.60    1.20
   1 -11   9   22.90    1.50
  -2  11  -9    6.90    0.90
  -2  11  -9    3.80    0.90
   2 -11   9    8.40    1.10
   2 -11   9    5.60    0.70
  -3  11  -9   -1.00    0.70
   3 -11   9    0.90    0.60
   3 -11   9    0.40    0.50
  -4  11  -9    4.70    0.90
   4 -11   9    7.50    1.00
   4 -11   9    5.40    0.70
   4 -11   9    5.30    0.70
  -5  11  -9   19.00    1.40
   5 -11   9   18.20    1.20
   5 -11   9   15.00    1.20
   5 -11   9   14.70    1.10
   4  10  -9    8.80    1.30
   4  10  -9   10.10    1.50
  -4 -10   9    8.40    1.00
   3  10  -9   25.10    1.60
   3  10  -9   24.70    1.60
  -3 -10   9   25.90    1.40
   2  10  -9    2.80    0.80
   2  10  -9    3.50    0.80
  -2 -10   9    3.30    0.60
   1  10  -9   -0.10    0.60
   1  10  -9   -0.50    1.40
  -1 -10   9   -0.10    0.50
  -1 -10   9    0.50    1.10
   0  10  -9    0.90    1.30
   0  10  -9    0.80    0.70
   0  10  -9    1.00    0.70
   0 -10   9    1.70    0.40
   0 -10   9    2.10    1.30
  -1  10  -9    0.10    0.70
  -1  10  -9    0.20    0.80
   1 -10   9    0.00    0.40
   1 -10   9    0.90    0.60
  -2  10  -9    1.40    0.50
  -2  10  -9    1.30    0.70
   2 -10   9    1.30    0.50
   2 -10   9    1.40    0.60
  -3  10  -9   13.90    1.30
   3 -10   9   16.40    1.20
   3 -10   9   14.40    1.00
  -4  10  -9   27.10    1.50
   4 -10   9   25.70    1.30
   4 -10   9   26.40    1.40
   4 -10   9   29.20    1.40
  -5  10  -9    2.60    0.70
   5 -10   9   -0.10    0.50
   5 -10   9    0.80    0.50
   5 -10   9   -0.30    0.50
   6 -10   9    9.10    0.90
   6 -10   9   11.50    1.00
   6 -10   9    9.80    1.10
   5   9  -9    9.90    1.20
   5   9  -9   14.30    1.40
  -5  -9   9   11.80    1.10
   4   9  -9   12.00    1.30
   4   9  -9   11.60    1.20
  -4  -9   9   10.90    1.10
   3   9  -9    0.80    0.60
   3   9  -9    2.20    0.70
  -3  -9   9    1.30    0.50
   2   9  -9   -0.90    0.60
   2   9  -9    0.10    0.60
  -2  -9   9    0.30    0.50
  -2  -9   9    0.80    0.90
   1   9  -9    0.60    0.50
   1   9  -9    0.60    0.60
   1   9  -9   -0.30    1.00
  -1  -9   9    0.40    0.40
  -1  -9   9   -0.50    0.80
   0   9  -9   32.40    1.50
   0   9  -9   33.20    1.60
   0   9  -9   35.90    2.00
   0  -9   9   32.10    1.80
   0  -9   9   31.50    1.40
  -1   9  -9   38.50    1.70
  -1   9  -9   42.10    2.20
  -1   9  -9   38.50    1.90
   1  -9   9   36.60    1.60
   1  -9   9   39.40    2.00
  -2   9  -9    1.10    0.50
  -2   9  -9    2.00    0.70
   2  -9   9    1.90    0.50
   2  -9   9    1.20    0.40
  -3   9  -9   -0.30    0.70
  -3   9  -9    0.90    0.50
   3  -9   9    1.40    0.50
   3  -9   9    1.00    0.40
  -4   9  -9    2.90    0.80
   4  -9   9    2.30    0.50
   4  -9   9    1.90    0.50
   4  -9   9    1.00    0.50
  -5   9  -9   -0.30    0.80
   5  -9   9    0.00    0.40
   5  -9   9   -0.10    0.50
   5  -9   9   -0.60    0.40
   6  -9   9   -0.80    0.50
   6  -9   9    0.70    0.50
   6  -9   9   -0.80    0.50
   7  -9   9    9.30    0.80
   7  -9   9    8.30    1.00
   7  -9   9    8.80    1.00
   6   8  -9    2.30    0.90
   6   8  -9    1.00    0.70
   5   8  -9    3.70    0.80
   5   8  -9    3.90    0.70
  -5  -8   9    5.00    0.70
   4   8  -9   -1.20    0.60
   4   8  -9   -1.00    0.60
  -4  -8   9    0.10    0.40
   3   8  -9   15.10    1.20
   3   8  -9   17.30    1.20
  -3  -8   9   15.60    1.00
   2   8  -9    1.50    0.70
   2   8  -9    1.00    0.50
  -2  -8   9    1.10    0.40
  -2  -8   9    1.70    0.80
   1   8  -9    2.50    0.80
   1   8  -9    3.50    0.70
   1   8  -9    3.70    0.60
  -1  -8   9    3.20    0.70
  -1  -8   9    2.90    0.50
   0   8  -9   17.20    1.40
   0   8  -9   16.70    1.00
   0   8  -9   15.80    1.20
   0  -8   9   16.20    0.90
   0  -8   9   15.80    1.30
  -1   8  -9   14.50    1.00
  -1   8  -9   16.50    1.50
  -1   8  -9   15.90    1.20
   1  -8   9   16.30    1.20
   1  -8   9   14.90    0.90
  -2   8  -9    5.40    0.70
  -2   8  -9    4.60    0.70
   2  -8   9    4.30    0.50
  -3   8  -9    8.00    0.80
  -3   8  -9    6.70    1.10
   3  -8   9    8.70    0.80
   3  -8   9    8.80    0.70
  -4   8  -9    2.10    0.60
  -4   8  -9    1.80    0.50
   4  -8   9    2.10    0.40
   4  -8   9    1.00    0.40
  -5   8  -9    5.10    0.80
   5  -8   9    5.10    0.60
   5  -8   9    4.80    0.70
   6  -8   9    3.50    0.60
   6  -8   9    3.80    0.50
   6  -8   9    3.30    0.50
  -7   8  -9    0.50    0.60
   7  -8   9    0.40    0.40
   7  -8   9    0.80    0.50
  -8   8  -9    2.50    0.70
   8  -8   9    2.40    0.50
   8  -8   9    3.50    0.60
   7   7  -9    3.50    0.60
   7   7  -9    5.40    1.00
  -7  -7   9    4.80    0.80
   6   7  -9    0.70    0.60
   6   7  -9    0.90    0.70
  -6  -7   9    0.80    0.50
   5   7  -9   13.80    1.10
   5   7  -9   14.70    1.30
  -5  -7   9   14.50    1.00
   4   7  -9   14.50    1.10
   4   7  -9   11.20    1.00
  -4  -7   9   11.80    0.90
   3   7  -9   58.19    2.30
  -3  -7   9   60.99    2.80
  -3  -7   9   55.79    2.10
   2   7  -9   44.90    2.00
   2   7  -9   44.50    1.90
   2   7  -9   42.70    1.60
  -2  -7   9   43.60    2.00
  -2  -7   9   42.90    1.70
   1   7  -9    6.70    1.20
   1   7  -9    4.50    0.50
   1   7  -9    4.40    0.60
  -1  -7   9    4.20    0.70
  -1  -7   9    3.50    0.50
   0   7  -9    0.20    0.50
   0   7  -9   -0.50    0.70
   0   7  -9    0.10    0.40
   0  -7   9   -0.60    0.50
   0  -7   9    0.20    0.30
  -1   7  -9   33.20    1.50
  -1   7  -9   33.70    1.70
  -1   7  -9   31.80    1.40
   1  -7   9   33.50    1.50
  -2   7  -9    1.00    0.50
  -2   7  -9    1.60    0.60
  -2   7  -9    1.10    0.80
   2  -7   9    1.30    0.50
  -3   7  -9    7.70    0.80
   3  -7   9    7.60    0.80
  -4   7  -9    1.60    0.40
  -4   7  -9    2.70    0.60
   4  -7   9    2.10    0.40
   4  -7   9    1.30    0.40
  -5   7  -9    9.20    0.90
  -5   7  -9    9.80    1.10
   5  -7   9    9.80    0.80
   5  -7   9   10.20    0.80
  -6   7  -9   61.09    2.40
   6  -7   9   60.99    2.20
   6  -7   9   61.19    2.20
  -7   7  -9   50.29    2.10
   7  -7   9   51.59    2.00
   7  -7   9   49.99    1.90
  -8   7  -9   48.00    2.10
   8  -7   9   51.19    1.90
   8  -7   9   43.40    1.70
   7   6  -9    0.70    0.50
   7   6  -9   -0.70    0.80
  -7  -6   9    0.60    0.60
   6   6  -9    1.60    0.70
   6   6  -9    0.70    0.40
  -6  -6   9    1.80    0.50
   5   6  -9    0.40    0.50
   5   6  -9    0.70    0.50
  -5  -6   9   -0.20    0.40
   4   6  -9    2.10    0.50
   4   6  -9    3.20    0.60
  -4  -6   9    2.60    0.50
   3   6  -9    5.30    0.70
   3   6  -9    4.10    0.70
  -3  -6   9    4.80    0.60
  -3  -6   9    5.30    0.90
   2   6  -9   23.70    1.30
   2   6  -9   23.00    1.20
   2   6  -9   24.00    1.10
  -2  -6   9   22.40    1.10
  -2  -6   9   24.30    1.40
   1   6  -9    1.00    0.50
   1   6  -9    1.40    0.40
   1   6  -9    2.10    0.60
  -1  -6   9    0.90    0.50
  -1  -6   9    1.20    0.40
   0   6  -9    1.20    0.50
   0   6  -9    0.60    0.60
   0   6  -9    1.00    0.40
   0  -6   9    1.60    0.40
   0  -6   9    1.60    0.50
  -1   6  -9    1.20    0.40
  -1   6  -9    1.60    0.40
  -1   6  -9    0.60    0.40
   1  -6   9    1.40    0.40
   1  -6   9    1.40    0.50
  -2   6  -9   18.30    1.00
  -2   6  -9   17.90    1.00
  -2   6  -9   17.60    1.30
   2  -6   9   17.30    0.90
   2  -6   9   17.80    1.00
  -3   6  -9   16.50    1.00
  -3   6  -9   15.50    1.00
   3  -6   9   16.30    0.90
   3  -6   9   14.70    0.90
  -4   6  -9    0.80    0.40
   4  -6   9    1.10    0.40
  -5   6  -9    2.40    0.50
   5  -6   9    3.80    0.50
   5  -6   9    3.10    0.40
  -6   6  -9    0.60    0.40
   6  -6   9    0.60    0.40
   6  -6   9    0.20    0.40
  -7   6  -9    1.70    0.60
   7  -6   9    1.90    0.50
   7  -6   9    1.60    0.40
   7  -6   9    1.40    0.50
  -8   6  -9    2.20    0.60
   8  -6   9    2.80    0.60
   8   5  -9    5.70    0.80
   8   5  -9    5.20    1.00
  -8  -5   9    6.80    0.80
   7   5  -9    0.90    0.50
   7   5  -9    0.90    0.70
  -7  -5   9    1.40    0.60
   6   5  -9    1.20    0.50
   6   5  -9    0.50    0.50
  -6  -5   9    1.10    0.50
   5   5  -9    5.80    0.70
   5   5  -9    7.30    0.90
  -5  -5   9    6.30    0.80
   4   5  -9   21.60    1.40
  -4  -5   9   23.30    1.10
   3   5  -9   -0.40    0.50
   3   5  -9   -0.60    0.50
  -3  -5   9    0.30    0.60
   2   5  -9   20.60    1.00
   2   5  -9   22.20    1.20
   2   5  -9   20.60    1.10
  -2  -5   9   20.90    1.20
  -2  -5   9   21.00    0.90
   1   5  -9    8.70    0.80
   1   5  -9   10.10    0.70
   1   5  -9    9.20    0.90
  -1  -5   9    8.50    0.60
  -1  -5   9   13.20    1.20
   0   5  -9    0.20    0.40
   0   5  -9    0.10    0.40
   0   5  -9    0.90    0.60
   0  -5   9    0.10    0.30
   0  -5   9    0.10    0.40
  -1   5  -9   17.20    0.90
  -1   5  -9   17.30    0.90
  -1   5  -9   17.70    1.40
   1  -5   9   17.80    0.90
   1  -5   9   18.40    1.00
  -2   5  -9   43.70    1.70
  -2   5  -9   43.50    1.80
   2  -5   9   44.80    1.70
   2  -5   9   43.30    1.60
  -3   5  -9    0.90    0.40
  -3   5  -9    1.00    0.80
   3  -5   9    1.20    0.30
   3  -5   9    1.00    0.30
  -4   5  -9   12.40    0.80
   4  -5   9   11.50    1.00
   4  -5   9   12.80    0.80
  -5   5  -9    1.10    0.40
   5  -5   9    1.20    0.30
   5  -5   9    1.60    0.50
   5  -5   9    1.10    0.40
  -6   5  -9    4.40    0.60
   6  -5   9    6.40    0.70
   6  -5   9    6.00    0.60
   6  -5   9    5.00    0.60
  -7   5  -9    0.40    0.50
   7  -5   9   -0.20    0.50
   7  -5   9    0.00    0.30
   7  -5   9    0.00    0.40
  -8   5  -9    4.00    0.60
   8  -5   9    3.90    0.60
   8   4  -9   11.60    1.20
   8   4  -9   11.70    1.40
  -8  -4   9   12.60    1.10
   7   4  -9    0.40    0.50
   7   4  -9    0.50    0.60
  -7  -4   9    1.40    0.50
   6   4  -9   19.70    1.10
   6   4  -9   21.40    1.30
  -6  -4   9   20.30    1.10
   5   4  -9    6.60    0.90
   5   4  -9    5.60    0.70
   5   4  -9    6.20    0.80
  -5  -4   9    7.70    0.70
   4   4  -9  155.98    5.00
   4   4  -9  157.58    5.10
   4   4  -9  161.98    5.20
  -4  -4   9  156.18    5.30
  -4  -4   9  143.59    5.30
   3   4  -9  198.48    6.20
   3   4  -9  187.18    6.30
   3   4  -9  191.88    6.30
  -3  -4   9  191.68    6.40
  -3  -4   9  198.98    6.20
   2   4  -9   59.69    2.00
   2   4  -9   56.59    2.10
   2   4  -9   59.69    2.20
  -2  -4   9   58.89    2.20
  -2  -4   9   57.39    2.00
   1   4  -9   42.50    1.70
   1   4  -9   44.00    1.60
   1   4  -9   45.60    1.80
  -1  -4   9   44.20    1.60
  -1  -4   9   45.50    1.80
   0   4  -9   21.40    1.00
   0   4  -9   22.80    1.00
   0  -4   9   24.60    1.10
   0  -4   9   22.30    1.00
  -1   4  -9   65.89    2.30
  -1   4  -9   61.49    2.30
   1  -4   9   64.59    2.20
   1  -4   9   66.19    2.30
  -2   4  -9    1.20    0.60
  -2   4  -9    0.30    0.30
   2  -4   9    0.30    0.30
   2  -4   9    0.20    0.50
   2  -4   9    0.30    0.30
  -3   4  -9    1.80    0.70
  -3   4  -9    2.10    0.40
   3  -4   9    2.40    0.40
   3  -4   9    1.80    0.50
   3  -4   9    2.10    0.30
  -4   4  -9    3.20    0.60
   4  -4   9    3.00    0.40
   4  -4   9    3.00    0.50
  -5   4  -9    2.50    0.50
   5  -4   9    2.60    0.40
   5  -4   9    2.40    0.40
   5  -4   9    2.60    0.50
  -6   4  -9    1.00    0.50
   6  -4   9    1.30    0.40
   6  -4   9    1.30    0.50
   6  -4   9    1.10    0.30
  -7   4  -9   16.30    1.10
   7  -4   9   16.60    0.90
   7  -4   9   16.60    1.00
   7  -4   9   17.90    0.80
  -8   4  -9   18.00    1.40
   8  -4   9   15.30    1.10
   8   3  -9    2.40    0.70
   8   3  -9    1.20    0.50
  -8  -3   9    2.30    0.60
   7   3  -9   14.70    1.30
   7   3  -9   13.70    1.00
  -7  -3   9   15.40    1.00
   6   3  -9   14.00    1.00
   6   3  -9   13.10    1.10
   6   3  -9   14.60    1.00
  -6  -3   9   15.70    0.90
   5   3  -9  132.99    4.50
   5   3  -9  138.69    4.60
   5   3  -9  140.49    4.70
  -5  -3   9  137.89    4.70
   4   3  -9  134.99    4.60
   4   3  -9  133.79    4.40
   4   3  -9  135.89    4.50
  -4  -3   9  132.49    4.60
  -4  -3   9  138.59    4.40
   3   3  -9   79.29    2.80
   3   3  -9   78.89    2.70
   3   3  -9   77.29    2.80
  -3  -3   9   77.09    2.80
  -3  -3   9   77.09    2.60
   2   3  -9  216.78    6.90
   2   3  -9  221.38    7.00
   2   3  -9  212.18    6.90
  -2  -3   9  212.08    6.90
  -2  -3   9  216.68    7.00
   1   3  -9    1.50    0.40
   1   3  -9    2.30    0.50
   1   3  -9    1.10    0.30
  -1  -3   9    1.60    0.30
  -1  -3   9    1.90    0.70
   0   3  -9   51.19    1.90
   0   3  -9   50.39    1.80
   0   3  -9   51.29    1.80
   0  -3   9   49.50    1.80
   0  -3   9   50.29    1.90
  -1   3  -9   22.80    1.00
  -1   3  -9   24.30    1.20
   1  -3   9   22.20    0.90
   1  -3   9   21.70    1.00
  -2   3  -9    2.70    0.40
  -2   3  -9    2.40    0.60
   2  -3   9    2.00    0.50
   2  -3   9    2.10    0.30
   2  -3   9    2.40    0.30
  -3   3  -9   80.09    2.80
  -3   3  -9   80.49    2.90
   3  -3   9   79.19    2.80
   3  -3   9   81.59    2.80
   3  -3   9   85.19    2.80
   4  -3   9    0.60    0.40
   4  -3   9    0.40    0.40
   4  -3   9    0.80    0.50
  -5   3  -9   68.69    2.50
   5  -3   9   67.19    2.40
   5  -3   9   68.89    2.30
   5  -3   9   67.99    2.40
  -6   3  -9   47.00    1.90
   6  -3   9   48.00    1.80
   6  -3   9   50.29    1.70
   6  -3   9   47.30    1.80
  -7   3  -9    3.90    0.60
   7  -3   9    4.00    0.60
   7  -3   9    3.30    0.40
   7  -3   9    3.90    0.40
  -8   3  -9   34.40    1.70
   8  -3   9   34.90    1.60
   9   2  -9   11.80    1.80
   9   2  -9    8.90    1.00
  -9  -2   9   11.10    1.10
   8   2  -9   13.90    1.30
   8   2  -9   14.20    1.00
  -8  -2   9   16.10    1.10
   7   2  -9    0.70    0.40
   7   2  -9    1.50    0.60
   7   2  -9    0.20    0.50
  -7  -2   9    1.60    0.50
   6   2  -9   19.90    1.10
   6   2  -9   21.10    1.10
   6   2  -9   21.50    1.20
  -6  -2   9   19.30    1.30
   5   2  -9    0.00    0.30
   5   2  -9    0.60    0.40
  -5  -2   9    0.80    0.40
   4   2  -9   18.50    1.10
   4   2  -9   19.00    1.00
   4   2  -9   18.80    1.10
  -4  -2   9   18.90    1.00
  -4  -2   9   19.60    1.30
   3   2  -9  121.29    4.10
   3   2  -9  124.99    4.10
   3   2  -9  122.29    4.10
  -3  -2   9  124.69    4.20
  -3  -2   9  123.59    4.00
   2   2  -9  178.68    5.70
   2   2  -9  175.18    5.70
   2   2  -9  171.58    5.70
  -2  -2   9  175.48    5.70
  -2  -2   9  178.88    5.60
   1   2  -9   54.99    1.90
   1   2  -9   53.79    1.90
   1   2  -9   56.79    2.00
  -1  -2   9   55.09    2.00
  -1  -2   9   55.69    1.90
   0   2  -9    0.10    0.20
   0   2  -9    0.40    0.60
   0   2  -9   -0.10    0.60
   0  -2   9    0.10    0.40
   0  -2   9    0.00    0.20
  -1   2  -9   12.70    0.70
  -1   2  -9   13.40    0.90
   1  -2   9   12.50    0.80
   1  -2   9   12.70    0.60
  -2   2  -9   90.89    3.00
  -2   2  -9   87.39    3.00
   2  -2   9   86.49    2.90
   2  -2   9   87.99    2.90
   2  -2   9   80.79    3.00
  -3   2  -9    9.10    1.10
  -3   2  -9   10.50    0.70
   3  -2   9    9.60    0.60
   3  -2   9    8.90    0.90
   3  -2   9   10.00    0.70
   4  -2   9    0.20    0.40
  -5   2  -9    0.40    0.40
   5  -2   9    0.80    0.30
   5  -2   9    0.60    0.40
   5  -2   9   -0.10    0.40
  -6   2  -9    0.50    0.40
   6  -2   9    0.20    0.30
   6  -2   9    0.90    0.40
   6  -2   9   -0.30    0.40
  -7   2  -9    3.30    0.60
   7  -2   9    2.60    0.50
   7  -2   9    2.40    0.30
  -8   2  -9    0.20    0.60
   8  -2   9    1.00    0.60
   9   1  -9    1.00    0.40
   9   1  -9    0.00    0.70
  -9  -1   9    0.90    0.60
   8   1  -9    0.00    0.40
   8   1  -9   -0.10    0.60
  -8  -1   9    0.80    0.50
   7   1  -9    2.10    0.60
   7   1  -9    2.10    0.60
   7   1  -9    2.60    0.50
  -7  -1   9    2.80    0.70
   6   1  -9    3.30    0.50
   6   1  -9    4.30    0.60
   6   1  -9    3.80    0.70
  -6  -1   9    4.80    0.60
   5   1  -9   46.60    1.70
   5   1  -9   41.30    1.80
  -5  -1   9   45.40    1.70
   4   1  -9    0.60    0.40
   4   1  -9   -0.20    0.40
   4   1  -9    0.20    0.40
  -4  -1   9    0.30    0.60
  -4  -1   9    0.50    0.40
   3   1  -9    0.00    0.40
   3   1  -9   -0.30    0.40
   3   1  -9    0.30    0.40
  -3  -1   9   -0.30    0.50
  -3  -1   9    0.30    0.30
   2   1  -9   21.40    1.00
   2   1  -9   21.20    1.10
   2   1  -9   21.50    1.10
  -2  -1   9   20.50    1.10
  -2  -1   9   22.50    0.90
   1   1  -9   36.80    1.50
   1   1  -9   35.10    1.40
  -1  -1   9   36.80    1.30
  -1  -1   9   33.90    1.40
   0   1  -9   55.79    2.00
   0   1  -9   55.19    1.90
   0  -1   9   53.29    2.00
   0  -1   9   52.29    1.90
   0  -1   9   54.69    1.90
  -1   1  -9   36.20    1.40
  -1   1  -9   35.80    1.50
   1  -1   9   36.30    1.30
   1  -1   9   36.50    1.40
  -2   1  -9    4.20    0.50
  -2   1  -9    3.90    0.60
   2  -1   9    4.10    0.40
   2  -1   9    3.10    0.50
   2  -1   9    3.70    0.50
  -3   1  -9   30.70    1.20
  -3   1  -9   29.10    1.50
   3  -1   9   30.70    1.20
   3  -1   9   30.40    1.20
   3  -1   9   29.20    1.30
   4  -1   9    1.60    0.40
   4  -1   9    1.30    0.40
   4  -1   9    1.60    0.50
  -5   1  -9    6.20    0.70
   5  -1   9    7.60    0.70
   5  -1   9    7.40    0.60
   5  -1   9    6.50    0.80
  -6   1  -9   -0.60    0.40
   6  -1   9   -0.50    0.40
   6  -1   9    0.10    0.30
   6  -1   9    0.10    0.40
  -7   1  -9   -0.20    0.50
   7  -1   9    0.00    0.40
   7  -1   9   -1.00    0.50
   7  -1   9    0.00    0.30
  -8   1  -9   40.80    1.90
   8  -1   9   43.80    1.90
   9   0  -9    0.90    0.60
   9   0  -9    1.40    0.50
   9   0  -9    0.50    0.70
   8   0  -9    9.30    0.80
   8   0  -9   10.10    1.20
   8   0  -9    7.70    0.90
  -8   0   9    9.20    1.20
   7   0  -9    0.80    0.60
   7   0  -9    1.40    0.50
   7   0  -9    1.20    0.40
  -7   0   9    1.30    0.60
   6   0  -9   11.00    0.80
   6   0  -9   10.40    1.00
   6   0  -9   10.40    1.00
  -6   0   9    9.90    0.90
   5   0  -9    1.10    0.40
   5   0  -9    0.80    0.40
  -5   0   9    0.70    0.40
   4   0  -9   24.90    1.20
   4   0  -9   24.50    1.20
   4   0  -9   25.20    1.30
  -4   0   9   24.90    1.10
   3   0  -9    0.60    0.50
   3   0  -9    0.70    0.50
   3   0  -9    0.60    0.40
  -3   0   9    1.20    0.50
  -3   0   9    0.80    0.30
   2   0  -9   -0.30    0.40
   2   0  -9   -0.10    0.30
  -2   0   9    0.70    0.40
  -2   0   9    0.20    0.30
  -2   0   9    0.00    0.50
   1   0  -9   15.80    1.00
   1   0  -9   14.30    0.80
  -1   0   9   16.30    0.90
  -1   0   9   16.40    0.80
   0   0  -9    2.30    0.40
   0   0  -9    3.30    0.50
   0   0   9    3.40    0.40
   0   0   9    3.10    0.40
   0   0   9    3.00    0.50
  -1   0  -9    0.30    0.50
  -1   0  -9   -0.20    0.20
   1   0   9    0.00    0.20
   1   0   9    0.10    0.40
  -2   0  -9    9.10    1.00
  -2   0  -9    8.80    0.60
   2   0   9    8.10    0.70
   2   0   9    7.80    0.90
   2   0   9    9.10    0.60
  -3   0  -9    5.20    0.60
   3   0   9    5.10    0.50
   3   0   9    4.20    0.60
   3   0   9    5.20    0.50
  -4   0  -9    5.30    0.80
   4   0   9    5.50    0.60
   4   0   9    6.20    0.90
   4   0   9    7.20    0.60
  -5   0  -9    3.80    0.50
   5   0   9    3.30    0.40
   5   0   9    3.60    0.60
   5   0   9    2.80    0.50
  -6   0  -9   20.70    1.20
   6   0   9   21.00    1.10
   6   0   9   20.50    1.10
   6   0   9   20.80    1.00
  -7   0  -9    9.40    0.90
   7   0   9    9.00    0.90
   7   0   9    9.50    0.70
   7   0   9    9.00    0.90
  -8   0  -9    2.70    0.70
   8   0   9    3.60    0.60
   9  -1  -9    8.80    0.80
   9  -1  -9   10.30    1.30
   9  -1  -9   10.20    1.10
   8  -1  -9   38.30    1.70
   8  -1  -9   37.70    1.80
   8  -1  -9   38.80    1.90
   7  -1  -9   19.30    1.30
   7  -1  -9   18.30    1.00
   7  -1  -9   17.20    1.10
  -7   1   9   17.60    1.10
   6  -1  -9    0.40    0.40
   6  -1  -9    0.90    0.50
   6  -1  -9    0.70    0.40
  -6   1   9    1.10    0.50
   5  -1  -9   42.10    1.70
   5  -1  -9   42.70    1.80
  -5   1   9   40.80    1.80
  -5   1   9   45.40    1.60
   4  -1  -9   17.80    1.00
   4  -1  -9   17.50    1.00
  -4   1   9   16.30    1.30
  -4   1   9   17.80    0.90
  -4   1   9   17.00    1.10
   3  -1  -9    1.60    0.50
   3  -1  -9    1.10    0.40
  -3   1   9    1.50    0.40
  -3   1   9    1.20    0.90
  -3   1   9    1.60    0.40
   2  -1  -9    0.70    0.40
   2  -1  -9    0.70    0.60
  -2   1   9    0.20    0.50
  -2   1   9    0.60    0.40
  -2   1   9    0.50    0.30
   1  -1  -9    4.30    0.70
  -1   1   9    2.90    0.50
  -1   1   9    2.90    0.40
  -1   1   9    2.60    0.50
   0  -1  -9   -0.60    0.30
   0  -1  -9    0.60    0.50
   0   1   9    0.40    0.50
   0   1   9    0.30    0.30
   0   1   9    0.00    0.40
  -1  -1  -9    0.30    0.30
  -1  -1  -9    0.60    0.60
   1   1   9    0.60    0.30
   1   1   9    0.30    0.30
   1   1   9    0.30    0.40
  -2  -1  -9    0.20    0.70
  -2  -1  -9    0.40    0.30
   2   1   9    0.70    0.30
   2   1   9    0.70    0.30
  -3  -1  -9    9.50    0.70
   3   1   9    9.10    0.70
   3   1   9    8.50    0.90
  -4  -1  -9   28.70    1.30
   4   1   9   29.40    1.30
   4   1   9   28.90    1.20
  -5  -1  -9    0.50    0.40
   5   1   9    0.40    0.40
   5   1   9   -0.30    0.30
  -6  -1  -9    6.80    0.80
   6   1   9    7.30    0.70
   6   1   9    7.30    0.80
  -7  -1  -9    1.80    0.60
   7   1   9    3.50    0.70
   7   1   9    1.60    0.40
  -8  -1  -9    9.60    1.20
   8   1   9    9.50    1.10
   9  -2  -9    4.40    0.70
   9  -2  -9    4.40    0.60
   8  -2  -9    2.20    0.50
   8  -2  -9    3.20    0.60
  -8   2   9    3.00    0.60
   7  -2  -9    0.70    0.40
   7  -2  -9    0.60    0.50
  -7   2   9    0.50    0.50
   6  -2  -9   41.10    1.70
   6  -2  -9   42.30    1.70
  -6   2   9   41.00    1.80
   5  -2  -9    6.20    0.70
   5  -2  -9    7.10    0.80
  -5   2   9    8.60    0.90
  -5   2   9    6.80    0.70
   4  -2  -9   38.20    1.60
  -4   2   9   37.70    1.40
  -4   2   9   37.60    1.70
  -4   2   9   37.00    1.80
   3  -2  -9   36.70    1.50
   3  -2  -9   36.00    1.60
  -3   2   9   35.90    1.70
  -3   2   9   36.60    1.40
  -3   2   9   36.00    1.60
   2  -2  -9   20.30    1.10
   2  -2  -9   19.60    1.10
  -2   2   9   20.90    1.20
  -2   2   9   19.00    1.10
  -2   2   9   20.10    0.90
   1  -2  -9    5.50    0.70
   1  -2  -9    3.80    0.50
  -1   2   9    5.10    0.60
  -1   2   9    4.50    0.60
  -1   2   9    5.40    0.80
   0  -2  -9   17.80    1.20
   0  -2  -9   20.70    1.00
   0   2   9   18.80    1.10
   0   2   9   18.20    1.00
   0   2   9   18.20    0.90
  -1  -2  -9   13.20    0.80
  -1  -2  -9   13.80    1.40
   1   2   9   14.90    0.80
   1   2   9   13.30    0.90
   1   2   9   13.40    0.80
  -2  -2  -9   42.50    1.70
  -2  -2  -9   44.10    2.00
   2   2   9   43.10    1.60
   2   2   9   41.10    1.60
   2   2   9   44.50    1.70
  -3  -2  -9    1.00    0.60
   3   2   9    1.20    0.40
   3   2   9    0.70    0.40
   3   2   9    1.40    0.40
  -4  -2  -9   -0.10    0.40
   4   2   9    0.20    0.40
   4   2   9    0.90    0.40
  -5  -2  -9   15.40    1.00
   5   2   9   16.40    1.00
   5   2   9   16.20    1.00
  -6  -2  -9    8.30    0.90
   6   2   9    9.90    0.90
   6   2   9    9.40    0.80
  -7  -2  -9    7.20    1.00
   7   2   9    7.50    0.90
   7   2   9    7.90    0.70
   8  -3  -9    0.00    0.40
   8  -3  -9    1.00    0.60
  -8   3   9    0.10    0.80
   7  -3  -9    1.20    0.50
   7  -3  -9    0.70    0.50
  -7   3   9    0.90    0.70
   6  -3  -9    3.00    0.60
   6  -3  -9    3.50    0.50
  -6   3   9    3.80    0.70
   5  -3  -9   71.39    2.60
   5  -3  -9   70.99    2.60
  -5   3   9   73.99    2.80
   4  -3  -9    3.50    0.60
   4  -3  -9    3.20    0.50
  -4   3   9    3.90    1.00
   3  -3  -9   78.89    2.80
   3  -3  -9   77.89    2.90
  -3   3   9   78.99    2.90
  -3   3   9   79.59    2.60
  -3   3   9   78.99    2.90
   2  -3  -9    4.50    0.60
   2  -3  -9    6.50    0.90
  -2   3   9    5.50    0.60
  -2   3   9    5.80    0.90
  -2   3   9    5.30    0.70
   1  -3  -9  214.08    7.10
  -1   3   9  216.78    6.90
  -1   3   9  221.18    7.00
   0  -3  -9    6.10    0.80
   0   3   9    5.80    0.80
   0   3   9    6.60    0.90
   0   3   9    4.90    0.50
  -1  -3  -9   19.40    1.40
   1   3   9   18.50    1.00
   1   3   9   19.60    1.20
   1   3   9   19.60    1.00
  -2  -3  -9    3.70    0.50
   2   3   9    3.10    0.90
   2   3   9    3.90    0.50
   2   3   9    4.40    0.90
   2   3   9    4.20    0.60
  -3  -3  -9   38.90    1.60
   3   3   9   39.10    1.60
   3   3   9   40.30    1.60
   3   3   9   40.20    1.60
  -4  -3  -9    2.80    0.50
   4   3   9    2.10    0.50
   4   3   9    2.80    0.50
   4   3   9    3.40    0.60
  -5  -3  -9    0.50    0.50
   5   3   9   -0.40    0.40
   5   3   9    0.70    0.40
  -6  -3  -9   -0.40    0.50
   6   3   9    0.90    0.50
   6   3   9    0.50    0.40
  -7  -3  -9    0.90    0.60
   7   3   9   -0.30    0.60
   7   3   9    0.50    0.50
   8  -4  -9    1.70    0.60
   8  -4  -9    0.30    0.50
  -8   4   9    1.50    0.80
   7  -4  -9   31.50    1.60
   7  -4  -9   32.80    1.60
  -7   4   9   32.00    1.90
   6  -4  -9    0.30    0.40
   6  -4  -9   -0.40    0.50
  -6   4   9   -0.30    0.70
   5  -4  -9    6.30    0.80
   5  -4  -9    5.40    0.60
  -5   4   9    6.60    1.00
   4  -4  -9   19.00    1.10
   4  -4  -9   19.20    1.10
  -4   4   9   18.90    1.20
   3  -4  -9   12.30    0.90
   3  -4  -9   13.00    1.10
  -3   4   9   12.40    1.30
   2  -4  -9    7.00    0.80
   2  -4  -9    7.50    1.00
  -2   4   9    6.80    0.80
  -2   4   9    7.20    1.00
  -2   4   9    8.20    0.70
   1  -4  -9   11.30    0.90
   1  -4  -9   11.30    1.20
  -1   4   9   12.90    1.40
  -1   4   9   10.60    1.00
  -1   4   9   12.30    0.80
  -1   4   9   13.50    1.40
   0  -4  -9  133.29    4.50
   0  -4  -9  135.19    4.60
   0   4   9  134.49    4.60
   0   4   9  136.09    4.60
   0   4   9  133.99    4.50
   0   4   9  133.69    4.40
  -1  -4  -9    0.80    0.50
  -1  -4  -9   -0.40    0.70
   1   4   9    1.20    0.60
   1   4   9    0.30    0.50
   1   4   9    1.30    0.50
  -2  -4  -9  146.99    5.00
   2   4   9  150.08    4.90
   2   4   9  148.89    5.00
   2   4   9  146.59    4.90
  -3  -4  -9   11.80    1.10
   3   4   9   11.80    1.20
   3   4   9   13.80    0.90
   3   4   9   14.40    1.00
  -4  -4  -9    8.60    1.10
   4   4   9    7.50    0.90
   4   4   9    9.90    1.10
   4   4   9   10.30    0.90
  -5  -4  -9   37.40    1.80
   5   4   9   39.90    1.70
   5   4   9   39.00    1.70
  -6  -4  -9   22.50    1.40
   6   4   9   22.60    1.30
   6   4   9   22.80    1.30
   8  -5  -9   21.60    1.50
   8  -5  -9   25.00    1.50
  -8   5   9   23.00    2.20
   7  -5  -9    0.60    0.50
   7  -5  -9   -0.60    0.50
  -7   5   9   -0.60    0.70
   6  -5  -9    2.80    0.60
   6  -5  -9    2.50    0.60
  -6   5   9    3.30    0.80
   5  -5  -9   17.30    1.10
   5  -5  -9   16.60    1.10
  -5   5   9   16.70    1.30
   4  -5  -9   10.50    1.00
   4  -5  -9    9.50    0.90
  -4   5   9   10.40    1.10
   3  -5  -9    0.90    0.40
   3  -5  -9    0.40    0.60
  -3   5   9    1.90    0.90
  -3   5   9    0.50    0.60
   2  -5  -9    1.40    0.60
   2  -5  -9    1.20    0.50
  -2   5   9    1.60    0.60
   1  -5  -9    0.30    0.70
   1  -5  -9    0.90    0.50
  -1   5   9    0.70    0.70
  -1   5   9    0.20    0.70
  -1   5   9    1.60    0.50
   0  -5  -9    0.90    0.70
   0  -5  -9   -0.20    0.40
   0   5   9    0.80    0.60
   0   5   9    0.30    0.50
   0   5   9    0.30    0.50
  -1  -5  -9   23.20    1.30
   1   5   9   22.40    1.30
   1   5   9   22.60    1.30
  -2  -5  -9   30.10    1.50
   2   5   9   32.50    1.40
   2   5   9   31.20    1.60
   2   5   9   30.90    1.50
  -3  -5  -9   21.10    1.30
   3   5   9   20.40    1.30
   3   5   9   20.80    1.50
   3   5   9   22.20    1.20
  -4  -5  -9   25.80    1.50
   4   5   9   29.00    1.40
   4   5   9   28.20    1.50
  -5  -5  -9   32.90    1.90
   5   5   9   37.70    1.70
   5   5   9   40.30    1.80
   7  -6  -9    2.30    0.70
   7  -6  -9    2.10    0.70
  -7   6   9    1.40    0.80
   6  -6  -9    5.90    0.80
   6  -6  -9    5.90    0.70
  -6   6   9    5.10    0.90
   5  -6  -9   43.50    1.90
   5  -6  -9   42.50    1.90
  -5   6   9   43.40    2.10
   4  -6  -9   10.20    1.00
   4  -6  -9    7.70    1.00
  -4   6   9    7.50    1.20
   3  -6  -9    1.00    0.60
   3  -6  -9    1.30    0.50
  -3   6   9    1.30    0.60
   2  -6  -9    8.70    0.90
   2  -6  -9   10.60    1.50
  -2   6   9    8.60    1.10
  -2   6   9    8.10    1.00
   1  -6  -9   41.20    1.80
   1  -6  -9   44.30    2.20
  -1   6   9   42.20    1.80
  -1   6   9   41.30    2.20
  -1   6   9   43.40    1.70
   0  -6  -9   -1.10    0.50
   0  -6  -9    1.50    1.00
   0   6   9    0.30    0.60
   0   6   9    0.30    0.60
   0   6   9    0.20    0.40
  -1  -6  -9    1.20    0.50
   1   6   9    2.10    0.50
   1   6   9    1.90    0.50
   1   6   9    2.00    0.60
  -2  -6  -9   13.40    1.10
   2   6   9   14.50    1.00
   2   6   9   13.60    1.20
   2   6   9   13.10    1.10
  -3  -6  -9    2.80    0.70
   3   6   9    1.40    0.70
   3   6   9    3.70    0.70
   3   6   9    2.30    0.60
  -4  -6  -9   12.30    1.30
   4   6   9   14.80    1.40
   4   6   9   12.20    1.10
   4   6   9   12.70    1.20
   6  -7  -9    3.80    0.70
   6  -7  -9    2.70    0.80
  -6   7   9    2.70    0.90
   5  -7  -9   24.20    1.50
   5  -7  -9   25.60    1.60
  -5   7   9   24.40    1.70
   4  -7  -9    5.10    0.80
   4  -7  -9    3.60    0.70
  -4   7   9    4.00    0.80
   3  -7  -9   28.10    1.50
   3  -7  -9   28.70    1.60
  -3   7   9   27.50    1.60
   2  -7  -9    0.60    0.50
   2  -7  -9    1.30    0.70
  -2   7   9    1.90    1.10
  -2   7   9    1.30    0.60
   1  -7  -9   14.70    1.90
   1  -7  -9   13.20    1.10
  -1   7   9   13.00    1.70
  -1   7   9   12.90    1.30
   0  -7  -9   -1.10    0.50
   0   7   9    0.10    0.50
   0   7   9   -1.30    0.70
  -1  -7  -9    2.10    0.60
   1   7   9    2.80    0.60
   1   7   9    2.60    0.60
   1   7   9    1.60    0.70
  -2  -7  -9   -0.80    0.60
   2   7   9    1.20    0.60
   2   7   9   -1.20    0.60
   2   7   9   -1.40    0.70
  -3  -7  -9   -0.40    0.70
   3   7   9   -0.30    0.70
   3   7   9   -0.10    0.60
   4  -8  -9    1.90    0.70
   4  -8  -9    1.90    0.80
  -4   8   9    2.20    0.80
   3  -8  -9    0.30    0.80
   3  -8  -9    0.00    0.60
  -3   8   9   -0.40    0.70
   2  -8  -9    3.50    0.70
   2  -8  -9    3.70    0.90
  -2   8   9    4.10    0.70
   1  -8  -9   17.80    1.40
  -1   8   9   20.20    1.30
  -1   8   9   20.70    1.70
   0  -8  -9    6.60    0.80
   0   8   9    8.80    1.10
   0   8   9    8.30    1.10
  -1  -8  -9    2.10    0.70
  -1  -8  -9    2.70    0.60
   1   8   9    3.50    0.70
   1   8   9    2.70    0.80
  -1  12 -10   40.10    2.20
   2  11 -10  131.89    4.70
   2  11 -10  125.79    4.70
  -2 -11  10  132.09    4.70
   1  11 -10    5.90    1.10
   1  11 -10    6.10    0.90
  -1 -11  10    5.40    0.70
   0  11 -10    1.40    0.80
   0 -11  10    2.20    0.60
   0 -11  10    2.20    0.80
  -1  11 -10    4.80    0.90
  -1  11 -10    6.60    0.70
   1 -11  10    6.00    0.70
   1 -11  10    9.70    1.20
  -2  11 -10    7.80    1.00
  -2  11 -10   10.30    1.00
   2 -11  10   12.20    1.20
   2 -11  10    8.40    1.00
  -3  11 -10   33.40    1.60
  -3  11 -10   26.30    1.80
   3 -11  10   32.50    1.50
   3 -11  10   35.90    1.70
  -4  11 -10   51.19    2.10
  -4  11 -10   40.50    2.20
   4 -11  10   48.20    2.00
   4 -11  10   51.99    2.20
   4  10 -10    3.70    0.90
   4  10 -10    4.00    1.00
  -4 -10  10    3.80    0.70
   3  10 -10   21.70    1.60
   3  10 -10   24.10    1.60
  -3 -10  10   21.70    1.40
   2  10 -10    0.70    0.70
   2  10 -10   -0.10    0.70
  -2 -10  10   -0.30    0.50
   1  10 -10    3.30    1.20
   1  10 -10    3.80    0.80
  -1 -10  10    3.50    0.60
  -1 -10  10    3.20    1.00
   0  10 -10   18.80    2.00
   0  10 -10   14.80    1.30
   0  10 -10   15.70    1.30
   0 -10  10   18.00    1.30
   0 -10  10   17.10    1.10
  -1  10 -10   -0.30    0.70
  -1  10 -10    0.00    0.50
   1 -10  10   -0.10    0.40
   1 -10  10    0.80    0.60
  -2  10 -10   22.70    1.20
  -2  10 -10   17.50    1.40
   2 -10  10   20.90    1.20
   2 -10  10   22.60    1.30
  -3  10 -10   46.60    2.00
  -3  10 -10   38.90    2.30
   3 -10  10   49.00    2.00
   3 -10  10   46.30    1.80
  -4  10 -10    1.40    0.60
   4 -10  10    1.80    0.50
   4 -10  10    1.60    0.60
  -5  10 -10    1.50    0.60
   5 -10  10    1.60    0.50
   5 -10  10    2.00    0.60
  -6  10 -10    0.00    0.60
   6 -10  10    1.00    0.60
   6 -10  10   -0.10    0.60
   5   9 -10    0.00    0.80
   5   9 -10   -0.40    0.70
  -5  -9  10    1.50    0.60
   4   9 -10    2.20    0.80
   4   9 -10    0.80    0.70
  -4  -9  10    1.50    0.50
   3   9 -10    1.00    0.70
   3   9 -10    2.70    0.70
  -3  -9  10    0.60    0.60
   2   9 -10    0.80    0.60
   2   9 -10    1.80    0.70
  -2  -9  10    1.20    0.50
   1   9 -10    0.20    0.60
   1   9 -10    0.10    0.90
   1   9 -10    0.00    0.60
  -1  -9  10   -0.40    0.90
  -1  -9  10    0.10    0.40
   0   9 -10    0.70    0.60
   0   9 -10    0.30    0.60
   0   9 -10    0.30    1.00
   0  -9  10   -0.10    0.40
   0  -9  10    0.10    0.80
  -1   9 -10   16.40    1.80
  -1   9 -10   16.60    1.40
   1  -9  10   14.00    0.90
   1  -9  10   13.70    1.10
  -2   9 -10    0.50    0.80
  -2   9 -10    0.50    0.40
   2  -9  10    0.20    0.40
   2  -9  10    0.70    0.50
  -3   9 -10    5.70    0.80
  -3   9 -10    6.20    0.90
   3  -9  10    5.80    0.70
   3  -9  10    6.30    0.90
  -4   9 -10    3.00    0.90
  -4   9 -10    2.30    0.60
   4  -9  10    2.50    0.60
   4  -9  10    2.60    0.50
  -5   9 -10    1.00    0.50
   5  -9  10    0.30    0.50
   5  -9  10    0.30    0.40
  -6   9 -10    0.30    0.50
   6  -9  10    0.60    0.50
   6  -9  10    1.40    0.50
  -7   9 -10   11.90    1.30
   7  -9  10   10.50    1.10
   7  -9  10   12.80    0.90
   6   8 -10    1.00    0.70
   6   8 -10    0.60    0.60
  -6  -8  10   -0.70    0.60
   5   8 -10    0.40    0.60
   5   8 -10    1.20    0.70
  -5  -8  10    1.30    0.50
   4   8 -10    0.30    0.60
   4   8 -10   -0.20    0.60
  -4  -8  10    0.90    0.50
   3   8 -10    1.50    0.70
   3   8 -10    2.80    0.70
  -3  -8  10    2.60    0.50
   2   8 -10    0.80    0.60
   2   8 -10    0.80    0.60
   2   8 -10   -0.30    0.80
  -2  -8  10    0.20    0.90
  -2  -8  10   -0.10    0.40
   1   8 -10    2.80    1.10
   1   8 -10    3.80    0.60
   1   8 -10    3.20    0.80
  -1  -8  10    3.80    0.80
  -1  -8  10    3.70    0.50
   0   8 -10   33.50    1.50
   0   8 -10   34.60    1.70
   0   8 -10   34.80    1.90
   0  -8  10   34.50    1.80
   0  -8  10   33.20    1.40
  -1   8 -10    5.60    1.10
  -1   8 -10    3.50    0.70
  -1   8 -10    3.50    0.60
   1  -8  10    4.00    0.70
   1  -8  10    2.60    0.40
  -2   8 -10   10.10    0.80
  -2   8 -10    8.20    1.20
   2  -8  10    7.00    0.90
   2  -8  10   10.20    0.80
  -3   8 -10    0.50    0.70
  -3   8 -10    0.90    0.50
   3  -8  10    0.70    0.40
   3  -8  10    1.30    0.50
  -4   8 -10    3.10    0.50
  -4   8 -10    2.90    0.90
   4  -8  10    3.10    0.50
   4  -8  10    2.60    0.50
  -5   8 -10   13.30    1.10
   5  -8  10   14.80    1.00
   5  -8  10   13.50    1.00
  -6   8 -10    0.90    0.50
   6  -8  10    1.20    0.40
   6  -8  10    1.40    0.50
  -7   8 -10    3.50    0.70
   7  -8  10    3.80    0.60
   7  -8  10    4.20    0.60
   6   7 -10   10.00    1.30
   6   7 -10    8.00    1.00
  -6  -7  10    7.30    0.80
   5   7 -10    6.50    1.00
   5   7 -10    7.30    1.10
  -5  -7  10    7.80    0.90
   4   7 -10    0.90    0.60
  -4  -7  10    0.70    0.50
   3   7 -10   28.50    1.50
   3   7 -10   29.30    1.50
  -3  -7  10   29.00    1.30
   2   7 -10   11.30    1.30
   2   7 -10    9.10    1.20
   2   7 -10   10.40    0.90
  -2  -7  10    8.70    0.80
  -2  -7  10   10.20    1.40
   1   7 -10   69.09    2.50
   1   7 -10   66.49    2.60
  -1  -7  10   67.49    2.50
  -1  -7  10   73.39    2.70
   0   7 -10   73.69    2.70
   0   7 -10   73.19    2.60
   0   7 -10   74.79    2.80
   0  -7  10   75.19    2.80
   0  -7  10   70.69    2.60
  -1   7 -10   24.90    1.30
  -1   7 -10   24.30    1.60
  -1   7 -10   23.80    1.30
   1  -7  10   23.20    1.10
   1  -7  10   24.40    1.40
  -2   7 -10    2.90    0.60
   2  -7  10    3.00    0.40
   2  -7  10    3.30    0.80
  -3   7 -10   10.20    1.00
  -3   7 -10   10.30    0.80
   3  -7  10    9.90    0.80
   3  -7  10    9.30    0.80
  -4   7 -10    0.90    0.40
   4  -7  10    1.30    0.40
   4  -7  10    1.30    0.40
  -5   7 -10    1.20    0.50
   5  -7  10    1.30    0.40
   5  -7  10    1.40    0.40
  -6   7 -10    0.90    0.50
   6  -7  10    0.80    0.40
   6  -7  10    1.40    0.50
  -7   7 -10    9.30    1.10
   7  -7  10    8.40    0.80
  -8   7 -10   12.70    1.20
   8  -7  10   12.90    1.10
   8  -7  10   13.60    0.80
   7   6 -10    0.40    0.70
   7   6 -10    0.40    0.50
  -7  -6  10    0.50    0.60
   6   6 -10    6.10    0.90
   6   6 -10    6.80    0.90
  -6  -6  10    5.60    0.70
   5   6 -10    0.00    0.50
   5   6 -10    0.30    0.60
  -5  -6  10    0.30    0.50
   4   6 -10   30.60    1.50
   4   6 -10   30.20    1.50
  -4  -6  10   28.80    1.40
   3   6 -10   13.90    1.00
   3   6 -10   15.80    1.20
  -3  -6  10   15.10    0.90
  -3  -6  10   16.00    1.50
   2   6 -10    4.20    0.70
   2   6 -10    4.20    0.70
   2   6 -10    5.40    0.70
  -2  -6  10    3.50    0.50
  -2  -6  10    5.10    0.80
   1   6 -10    1.30    0.90
   1   6 -10    1.20    0.40
   1   6 -10    1.40    0.60
  -1  -6  10    1.00    0.40
  -1  -6  10    1.30    0.80
   0   6 -10    0.10    0.50
   0   6 -10    0.00    0.60
   0   6 -10   -0.10    0.40
   0  -6  10    0.20    0.50
   0  -6  10    0.00    0.40
  -1   6 -10    0.10    0.40
  -1   6 -10    0.60    0.70
  -1   6 -10   -0.10    0.40
   1  -6  10   -0.40    0.50
   1  -6  10   -0.20    0.40
  -2   6 -10   17.60    1.40
  -2   6 -10   17.90    1.00
   2  -6  10   16.10    1.10
   2  -6  10   17.20    0.90
  -3   6 -10   14.00    0.90
   3  -6  10   15.40    0.90
   3  -6  10   15.40    0.80
  -4   6 -10    1.20    0.40
   4  -6  10    0.90    0.40
   4  -6  10    1.80    0.40
  -5   6 -10    0.90    0.40
   5  -6  10    1.30    0.40
   5  -6  10    0.60    0.40
  -6   6 -10    1.80    0.50
   6  -6  10    0.40    0.40
   6  -6  10   -0.50    0.40
  -7   6 -10    1.10    0.50
   7  -6  10    0.80    0.30
   7  -6  10    0.60    0.50
  -8   6 -10    4.70    0.80
   8  -6  10    6.20    0.70
   7   5 -10    7.80    1.20
   7   5 -10    8.20    0.90
  -7  -5  10   10.00    1.00
   6   5 -10   57.89    2.40
   6   5 -10   55.99    2.20
  -6  -5  10   57.09    2.20
   5   5 -10    0.00    0.50
   5   5 -10    0.30    0.50
  -5  -5  10    0.40    0.40
   4   5 -10   24.60    1.20
   4   5 -10   22.70    1.10
   4   5 -10   23.80    1.30
  -4  -5  10   23.00    1.10
   3   5 -10    6.20    0.90
   3   5 -10    5.20    0.70
   3   5 -10    5.70    0.60
  -3  -5  10    5.80    0.70
  -3  -5  10    6.00    0.80
   2   5 -10   22.20    1.20
   2   5 -10   24.30    1.30
   2   5 -10   24.50    1.10
  -2  -5  10   30.30    1.70
  -2  -5  10   22.80    1.50
   1   5 -10   29.40    1.40
   1   5 -10   31.10    1.50
   1   5 -10   30.50    1.30
  -1  -5  10   32.00    1.50
  -1  -5  10   30.20    1.30
   0   5 -10   34.70    1.50
   0   5 -10   34.80    1.50
   0   5 -10   38.00    1.70
   0  -5  10   37.70    1.60
   0  -5  10   35.90    1.40
  -1   5 -10   -0.10    0.40
  -1   5 -10    0.30    0.60
  -1   5 -10   -0.30    0.40
   1  -5  10   -0.10    0.40
   1  -5  10    0.10    0.30
  -2   5 -10   19.90    1.40
  -2   5 -10   22.00    1.10
   2  -5  10   21.40    1.10
   2  -5  10   21.70    1.10
  -3   5 -10    2.90    0.50
   3  -5  10    3.10    0.40
  -4   5 -10    2.90    0.50
   4  -5  10    3.50    0.40
   4  -5  10    2.70    0.40
  -5   5 -10    0.30    0.40
   5  -5  10   -0.50    0.30
   5  -5  10   -0.20    0.40
  -6   5 -10   29.30    1.50
   6  -5  10   31.00    1.40
   6  -5  10   31.50    1.30
  -7   5 -10    0.40    0.50
   7  -5  10    1.10    0.30
   7  -5  10    0.00    0.50
   7  -5  10   -0.30    0.50
  -8   5 -10    0.30    0.50
   8  -5  10    1.10    0.60
   8   4 -10    0.00    0.50
   8   4 -10    0.50    0.70
  -8  -4  10    0.00    0.60
   7   4 -10   10.90    1.20
   7   4 -10   10.60    1.00
  -7  -4  10   13.50    1.00
   6   4 -10    1.80    0.50
   6   4 -10    1.80    0.70
  -6  -4  10    3.20    0.50
   5   4 -10   57.79    2.10
   5   4 -10   60.89    2.30
   5   4 -10   61.29    2.40
  -5  -4  10   58.49    2.20
   4   4 -10   15.70    0.90
   4   4 -10   12.70    1.40
  -4  -4  10   15.10    0.90
   3   4 -10    5.90    0.60
   3   4 -10    6.90    0.90
   3   4 -10    6.40    0.90
  -3  -4  10    6.10    0.80
  -3  -4  10    6.50    0.80
   2   4 -10   94.19    3.30
   2   4 -10   93.79    3.30
   2   4 -10   96.49    3.20
  -2  -4  10   94.39    3.20
  -2  -4  10   95.69    3.30
   1   4 -10  297.67    9.50
   1   4 -10  300.77    9.60
   1   4 -10  300.37    9.50
  -1  -4  10  297.07    9.60
  -1  -4  10  297.17    9.50
   0   4 -10  419.56   13.20
   0   4 -10  419.56   13.30
   0   4 -10  418.96   13.30
   0  -4  10  423.76   13.30
   0  -4  10  423.56   13.30
  -1   4 -10   33.70    1.90
  -1   4 -10   34.10    1.40
   1  -4  10   34.10    1.30
   1  -4  10   35.40    1.50
  -2   4 -10   -0.40    0.60
  -2   4 -10   -0.70    0.30
   2  -4  10    0.20    0.30
   2  -4  10   -0.10    0.40
   3  -4  10    4.00    0.60
  -4   4 -10    5.90    0.80
   4  -4  10    7.40    0.70
   4  -4  10    8.10    0.70
  -5   4 -10   16.40    1.00
   5  -4  10   16.10    0.80
   5  -4  10   14.60    0.90
  -6   4 -10   40.40    1.80
   6  -4  10   43.10    1.60
   6  -4  10   43.00    1.70
   6  -4  10   38.80    1.70
  -7   4 -10    2.30    0.60
   7  -4  10    3.30    0.60
   7  -4  10    2.50    0.50
   7  -4  10    2.80    0.40
  -8   4 -10    2.30    0.60
   8  -4  10    2.00    0.60
   8   3 -10   13.20    1.10
   8   3 -10   14.20    1.40
  -8  -3  10   15.80    1.10
   7   3 -10    7.50    1.10
   7   3 -10    5.80    0.80
  -7  -3  10    7.90    0.90
   6   3 -10    0.10    0.50
   6   3 -10    0.60    0.60
   6   3 -10   -0.10    0.40
  -6  -3  10   -0.10    0.50
   5   3 -10   10.10    1.00
   5   3 -10   10.10    0.90
   5   3 -10   10.60    0.90
  -5  -3  10   10.00    0.80
   4   3 -10    0.50    0.40
   4   3 -10   -0.10    0.60
   4   3 -10   -0.40    0.50
  -4  -3  10   -0.20    1.00
  -4  -3  10   -0.10    0.40
   3   3 -10    7.40    0.90
   3   3 -10    6.40    0.90
   3   3 -10    5.90    0.60
  -3  -3  10    5.90    0.70
  -3  -3  10    7.30    1.10
   2   3 -10   13.00    0.80
   2   3 -10   12.10    0.90
   2   3 -10   11.90    1.00
  -2  -3  10   12.60    0.70
  -2  -3  10   13.80    1.20
   1   3 -10  436.66   14.40
   1   3 -10  412.16   14.40
   1   3 -10  530.85   14.70
  -1  -3  10  492.45   14.60
  -1  -3  10  427.56   14.40
   0   3 -10  139.99    4.80
   0   3 -10  170.38    5.00
   0   3 -10  150.78    4.80
   0  -3  10  140.59    4.80
   0  -3  10  140.49    4.90
  -1   3 -10    7.90    1.00
  -1   3 -10    9.00    0.70
   1  -3  10    8.00    0.80
   1  -3  10    8.80    0.60
  -2   3 -10   56.69    2.10
  -2   3 -10   56.69    2.20
   2  -3  10   56.89    2.10
   2  -3  10   58.39    2.00
   3  -3  10  154.98    5.10
  -4   3 -10    8.20    0.70
   4  -3  10    8.50    0.70
   4  -3  10    7.90    1.00
   4  -3  10    8.80    0.70
  -5   3 -10   92.79    3.20
   5  -3  10   87.59    3.20
   5  -3  10   91.59    3.10
   5  -3  10   92.79    3.10
  -6   3 -10    0.60    0.50
   6  -3  10    0.00    0.40
   6  -3  10    0.20    0.30
   6  -3  10    0.00    0.50
  -7   3 -10   26.10    1.40
   7  -3  10   22.90    1.10
   7  -3  10   23.10    1.00
   7  -3  10   23.90    1.30
  -8   3 -10    3.00    0.60
   8  -3  10    2.20    0.60
   8   2 -10    2.50    0.80
   8   2 -10    2.70    0.60
  -8  -2  10    2.30    0.60
   7   2 -10    8.30    1.10
   7   2 -10    8.80    0.80
   7   2 -10    7.60    1.10
  -7  -2  10    8.90    0.90
   6   2 -10   16.00    1.00
   6   2 -10   16.80    1.20
   6   2 -10   17.80    1.10
  -6  -2  10   18.60    1.00
   5   2 -10   -0.40    0.40
   5   2 -10   -0.30    0.50
   5   2 -10   -0.30    0.40
  -5  -2  10    0.10    0.50
   4   2 -10   99.69    3.50
   4   2 -10  104.09    3.50
   4   2 -10  101.49    3.40
  -4  -2  10  100.29    3.40
  -4  -2  10   96.79    3.60
   3   2 -10   39.30    1.70
   3   2 -10   39.20    1.70
   3   2 -10   40.80    1.60
  -3  -2  10   38.20    1.80
  -3  -2  10   42.40    1.60
   2   2 -10   71.29    2.50
   2   2 -10   72.79    2.50
   2   2 -10   72.59    2.60
  -2  -2  10   72.39    2.60
  -2  -2  10   72.79    2.50
   1   2 -10    0.50    0.30
   1   2 -10   -0.40    0.50
  -1  -2  10   -0.10    0.30
   0   2 -10    2.90    0.60
   0   2 -10    3.70    0.50
   0  -2  10    3.30    0.40
   0  -2  10    2.60    0.50
   0  -2  10    2.40    0.40
  -1   2 -10    6.10    0.70
  -1   2 -10    6.10    0.60
   1  -2  10    6.30    0.50
   1  -2  10    5.50    0.70
  -2   2 -10    8.70    1.10
  -2   2 -10    8.70    0.70
   2  -2  10    7.50    1.20
   2  -2  10    7.60    0.70
   2  -2  10    8.80    0.60
   3  -2  10    3.30    0.90
   3  -2  10    4.80    0.60
  -4   2 -10    0.00    0.40
   4  -2  10   -0.10    0.30
   4  -2  10   -0.20    0.30
   4  -2  10    0.60    0.80
  -5   2 -10    0.10    0.40
   5  -2  10    1.50    0.40
   5  -2  10    0.10    0.60
   5  -2  10    0.60    0.30
  -6   2 -10    2.30    0.50
   6  -2  10    2.70    0.60
   6  -2  10    2.90    0.50
   6  -2  10    3.10    0.40
  -7   2 -10    1.20    0.50
   7  -2  10    0.20    0.50
   7  -2  10    0.30    0.30
   7  -2  10    0.60    0.50
  -8   2 -10    1.50    0.60
   8  -2  10    1.80    0.60
   8   1 -10    1.40    0.60
   8   1 -10    2.30    0.80
   8   1 -10    2.10    0.60
  -8  -1  10    2.30    0.60
   7   1 -10    2.40    0.60
   7   1 -10    3.30    0.70
  -7  -1  10    2.70    0.50
   6   1 -10    5.20    0.70
   6   1 -10    5.00    0.70
   6   1 -10    5.40    0.80
  -6  -1  10    6.00    0.70
   5   1 -10    6.00    0.80
   5   1 -10    4.90    0.70
   5   1 -10    6.10    0.70
  -5  -1  10    6.30    0.80
   4   1 -10   10.20    1.00
   4   1 -10   11.00    0.90
   4   1 -10   10.90    0.90
  -4  -1  10    8.90    1.20
  -4  -1  10   11.20    0.80
   3   1 -10   68.09    2.40
   3   1 -10   67.69    2.50
   3   1 -10   65.69    2.40
  -3  -1  10   64.09    2.50
  -3  -1  10   66.19    2.30
   2   1 -10    8.00    0.80
   2   1 -10    7.80    0.90
   2   1 -10    7.50    0.80
  -2  -1  10    7.70    0.90
  -2  -1  10    8.60    0.70
   1   1 -10   47.30    1.80
   1   1 -10   50.39    1.90
  -1  -1  10   49.20    1.70
  -1  -1  10   45.90    1.70
  -1  -1  10   48.10    1.90
   0   1 -10   48.80    1.90
   0   1 -10   50.59    2.00
   0  -1  10   52.79    1.80
   0  -1  10   53.49    2.00
  -1   1 -10   28.30    1.40
  -1   1 -10   26.80    1.20
   1  -1  10   26.40    1.10
   1  -1  10   27.00    1.20
  -2   1 -10    3.00    0.70
  -2   1 -10    3.00    0.40
   2  -1  10    3.70    0.50
   2  -1  10    3.80    0.50
  -3   1 -10    3.00    0.50
   3  -1  10    4.30    0.60
   3  -1  10    3.90    0.50
  -4   1 -10    1.50    0.40
   4  -1  10    2.10    0.40
   4  -1  10    1.60    0.40
  -5   1 -10    2.60    0.50
   5  -1  10    3.00    0.40
   5  -1  10    3.00    0.40
  -6   1 -10    1.50    0.50
   6  -1  10    1.30    0.50
   6  -1  10    2.20    0.40
  -7   1 -10   12.80    1.10
   7  -1  10   12.90    0.80
   7  -1  10   12.40    1.00
   7  -1  10   11.10    1.00
  -8   1 -10    4.50    0.80
   8  -1  10    4.60    0.80
   8   0 -10    4.90    0.90
   8   0 -10    7.50    0.80
   8   0 -10    8.20    1.00
   7   0 -10    0.20    0.40
   7   0 -10    0.30    0.40
   7   0 -10    0.20    0.60
  -7   0  10    0.30    0.60
   6   0 -10   24.60    1.20
   6   0 -10   24.00    1.40
   6   0 -10   22.10    1.20
  -6   0  10   24.70    1.20
   5   0 -10   10.50    0.80
   5   0 -10    8.50    0.90
   5   0 -10    9.00    1.30
  -5   0  10    9.80    0.90
   4   0 -10    0.10    0.50
   4   0 -10    0.30    0.40
   4   0 -10    0.00    0.40
  -4   0  10   -0.80    0.80
  -4   0  10    0.60    0.40
   3   0 -10    0.50    0.50
   3   0 -10   -0.20    0.40
  -3   0  10    0.90    0.50
  -3   0  10    0.10    0.40
  -3   0  10   -0.10    0.70
   2   0 -10   53.49    2.00
   2   0 -10   52.09    2.00
  -2   0  10   51.89    1.90
  -2   0  10   50.99    1.90
  -2   0  10   52.49    2.00
   1   0 -10   11.30    1.00
   1   0 -10   13.70    0.90
  -1   0  10   11.60    0.90
  -1   0  10   11.30    0.90
  -1   0  10   13.00    0.70
   0   0 -10   -0.40    0.50
   0   0 -10   -0.30    0.30
   0   0  10   -0.40    0.40
   0   0  10   -0.20    0.30
   0   0  10    0.20    0.40
  -1   0 -10   27.10    1.20
  -1   0 -10   28.20    1.40
   1   0  10   26.90    1.30
   1   0  10   25.80    1.10
  -2   0 -10   36.30    1.80
  -2   0 -10   42.30    1.90
   2   0  10   39.60    1.60
   2   0  10   39.80    1.50
  -3   0 -10   19.80    1.00
   3   0  10   19.00    1.10
   3   0  10   20.50    1.00
  -4   0 -10   18.80    1.00
   4   0  10   18.50    0.90
   4   0  10   18.80    1.00
  -5   0 -10    1.10    0.50
   5   0  10    1.10    0.50
   5   0  10    1.00    0.40
  -6   0 -10    4.30    0.60
   6   0  10    5.20    0.70
   6   0  10    4.50    0.60
  -7   0 -10    4.30    0.70
   7   0  10    5.80    0.80
   7   0  10    4.30    0.50
   8  -1 -10    4.70    0.70
   8  -1 -10    5.00    0.70
   7  -1 -10    5.50    0.80
   7  -1 -10    6.60    0.90
  -7   1  10    7.60    1.00
   6  -1 -10    1.30    0.50
   6  -1 -10    1.30    0.40
  -6   1  10    0.90    0.50
  -6   1  10    1.90    0.50
   5  -1 -10    2.70    0.50
   5  -1 -10    4.10    0.50
  -5   1  10    4.30    0.60
  -5   1  10    4.80    0.50
   4  -1 -10   11.40    1.00
   4  -1 -10   11.40    0.90
  -4   1  10   10.80    0.80
  -4   1  10   10.50    1.30
  -4   1  10   12.30    1.00
   3  -1 -10   14.10    1.10
   3  -1 -10   14.70    1.00
  -3   1  10   12.90    1.00
  -3   1  10   14.60    1.20
  -3   1  10   14.00    0.80
   2  -1 -10   25.20    1.30
   2  -1 -10   23.30    1.20
  -2   1  10   23.50    1.30
  -2   1  10   25.50    1.30
  -2   1  10   24.10    1.10
   1  -1 -10    7.50    0.80
   1  -1 -10    6.80    1.00
  -1   1  10    9.40    1.20
  -1   1  10    6.70    0.60
  -1   1  10    7.70    0.80
   0  -1 -10    0.50    0.60
   0  -1 -10   -0.70    0.30
   0   1  10    0.10    0.40
   0   1  10    0.20    0.50
   0   1  10   -0.20    0.30
   1   1  10   25.70    1.30
   1   1  10   25.10    1.10
  -2  -1 -10    0.50    1.00
  -2  -1 -10   -0.10    0.30
   2   1  10    0.30    0.40
   2   1  10    0.70    0.40
  -3  -1 -10    1.90    0.40
   3   1  10    2.60    0.50
   3   1  10    2.60    0.40
  -4  -1 -10    8.10    0.80
   4   1  10    8.00    0.80
   4   1  10    8.50    0.80
  -5  -1 -10    0.00    0.40
   5   1  10    0.30    0.50
   5   1  10    0.40    0.40
  -6  -1 -10   14.80    1.10
   6   1  10   15.00    0.90
   6   1  10   14.10    1.00
  -7  -1 -10    4.80    0.70
   7   1  10    3.40    0.80
   7   1  10    3.30    0.50
   8  -2 -10    4.00    0.70
   8  -2 -10    4.00    0.60
   7  -2 -10   22.40    1.20
   7  -2 -10   22.10    1.30
  -7   2  10   22.60    1.40
   6  -2 -10   -0.20    0.40
   6  -2 -10    0.20    0.40
  -6   2  10    0.40    0.60
   5  -2 -10    1.80    0.50
   5  -2 -10    1.70    0.50
  -5   2  10    2.00    0.60
  -5   2  10    2.50    0.50
   4  -2 -10  156.18    5.20
  -4   2  10  155.88    5.00
   3  -2 -10   27.70    1.30
  -3   2  10   31.40    1.60
  -3   2  10   28.90    1.20
  -3   2  10   29.10    1.50
   2  -2 -10    9.90    0.80
  -2   2  10    9.70    0.70
  -2   2  10   10.60    1.10
  -2   2  10   10.00    1.00
   1  -2 -10    8.90    0.80
   1  -2 -10    9.30    1.10
  -1   2  10    8.60    1.00
  -1   2  10    9.40    0.70
  -1   2  10    9.80    0.90
   0  -2 -10    2.00    0.60
   0  -2 -10    2.10    0.50
   0   2  10    3.00    0.50
   0   2  10    3.20    0.60
   0   2  10    2.50    0.50
  -1  -2 -10    1.50    0.80
  -1  -2 -10    1.10    0.40
   1   2  10    1.20    0.40
   1   2  10    1.70    0.50
   1   2  10    1.20    0.40
  -2  -2 -10   40.00    1.60
   2   2  10   37.00    1.50
   2   2  10   42.10    1.70
  -3  -2 -10    2.90    0.50
   3   2  10    2.80    0.50
   3   2  10    3.40    0.50
  -4  -2 -10    1.90    0.50
   4   2  10    2.30    0.50
   4   2  10    2.50    0.50
  -5  -2 -10    0.60    0.50
   5   2  10    0.40    0.50
   5   2  10    0.60    0.50
  -6  -2 -10    1.20    0.50
   6   2  10    2.00    0.60
   6   2  10    1.60    0.50
  -7  -2 -10   -0.20    0.60
   7   2  10    0.40    0.50
   7   2  10    0.00    0.60
   8  -3 -10   21.70    1.40
   8  -3 -10   20.50    1.30
  -8   3  10   21.70    1.70
   7  -3 -10    3.50    0.60
   7  -3 -10    2.80    0.70
  -7   3  10    2.60    0.70
   6  -3 -10    2.80    0.60
   6  -3 -10    1.30    0.50
  -6   3  10    2.50    0.70
   5  -3 -10   53.99    2.20
   5  -3 -10   57.09    2.20
  -5   3  10   54.19    2.30
   4  -3 -10    5.30    0.70
   4  -3 -10    5.80    0.80
  -4   3  10    5.60    0.80
   3  -3 -10    0.50    0.70
   3  -3 -10    0.00    0.40
  -3   3  10   -0.20    0.40
  -3   3  10    0.00    0.60
  -3   3  10    0.30    0.80
   2  -3 -10    7.70    1.10
   2  -3 -10    7.00    0.80
  -2   3  10    6.70    1.00
  -2   3  10    9.90    1.20
  -2   3  10    8.00    0.70
   1  -3 -10   33.40    1.50
  -1   3  10   33.50    1.50
  -1   3  10   32.20    1.60
  -1   3  10   34.20    1.40
   0  -3 -10    2.90    0.60
   0  -3 -10    2.80    0.80
   0   3  10    2.90    0.60
   0   3  10    2.50    0.70
   0   3  10    2.80    0.50
  -1  -3 -10  352.66   11.20
  -1  -3 -10  338.27   11.10
   1   3  10  340.77   11.00
   1   3  10  350.76   11.00
   1   3  10  351.46   11.10
  -2  -3 -10   42.70    1.80
   2   3  10   40.60    1.60
   2   3  10   42.70    1.70
   2   3  10   41.40    1.70
   2   3  10   39.90    1.70
  -3  -3 -10    3.60    0.50
   3   3  10    3.80    0.50
   3   3  10    3.40    0.60
   3   3  10    3.10    0.60
  -4  -3 -10    1.50    0.50
   4   3  10    0.10    0.50
   4   3  10    0.80    0.70
  -5  -3 -10   14.70    1.10
   5   3  10   15.50    1.10
   5   3  10   16.30    1.10
  -6  -3 -10    4.10    0.70
   6   3  10    3.20    0.70
   6   3  10    3.80    0.70
   7  -4 -10    1.90    0.60
   7  -4 -10    1.40    0.60
  -7   4  10    3.10    0.90
   6  -4 -10   77.89    3.00
   6  -4 -10   80.09    2.90
  -6   4  10   78.69    3.10
   5  -4 -10   -0.50    0.50
   5  -4 -10    0.40    0.50
  -5   4  10    0.60    0.60
   4  -4 -10    0.50    0.50
   4  -4 -10    0.30    0.40
  -4   4  10    0.60    0.60
   3  -4 -10   34.20    1.70
   3  -4 -10   32.10    1.50
  -3   4  10   31.80    1.60
   2  -4 -10   22.10    1.20
   2  -4 -10   25.70    1.50
  -2   4  10   23.50    1.50
  -2   4  10   23.90    1.60
  -2   4  10   25.20    1.10
   1  -4 -10    1.10    0.70
   1  -4 -10    0.80    0.50
  -1   4  10    1.40    0.50
  -1   4  10    0.80    0.60
  -1   4  10    1.30    0.60
   0  -4 -10    2.30    0.90
   0  -4 -10    1.40    0.50
   0   4  10    1.80    0.60
   0   4  10    2.40    0.70
   0   4  10    2.00    0.70
   0   4  10    2.30    0.50
  -1  -4 -10   42.30    1.80
   1   4  10   45.90    1.90
   1   4  10   42.90    2.00
   1   4  10   42.40    1.80
  -2  -4 -10   88.29    3.20
   2   4  10   91.29    3.10
   2   4  10   90.89    3.20
   2   4  10   84.19    3.10
  -3  -4 -10    6.90    0.80
   3   4  10    8.20    0.90
   3   4  10    7.40    0.90
   3   4  10    6.20    0.80
  -4  -4 -10  155.48    5.40
   4   4  10  165.38    5.50
   4   4  10  163.28    5.40
  -5  -4 -10   10.00    1.40
   5   4  10   14.80    1.10
   5   4  10   14.20    1.10
   7  -5 -10   11.10    1.20
   7  -5 -10    9.20    1.20
  -7   5  10   10.60    1.40
   6  -5 -10    3.20    0.70
   6  -5 -10    2.10    0.60
  -6   5  10    2.10    0.80
   5  -5 -10    0.30    0.50
   5  -5 -10    0.10    0.50
  -5   5  10   -0.30    0.60
   4  -5 -10   11.10    1.10
   4  -5 -10    9.20    1.10
  -4   5  10   10.50    1.20
   3  -5 -10    8.90    1.00
   3  -5 -10    9.50    0.90
  -3   5  10    8.50    1.10
   2  -5 -10    7.70    0.90
  -2   5  10    6.60    1.00
  -2   5  10    9.20    0.90
  -2   5  10    9.80    1.50
   1  -5 -10    1.70    0.90
   1  -5 -10    1.60    0.50
  -1   5  10    1.40    0.50
  -1   5  10    1.80    0.90
  -1   5  10    2.10    0.60
   0  -5 -10    8.70    1.00
   0  -5 -10   11.00    1.50
   0   5  10   10.10    1.00
   0   5  10   11.60    1.70
  -1  -5 -10   -0.10    0.50
   1   5  10    0.40    0.40
   1   5  10    0.30    0.60
   1   5  10    0.10    0.60
  -2  -5 -10    3.60    0.70
   2   5  10    5.00    0.60
   2   5  10    4.30    0.80
   2   5  10    5.20    0.80
  -3  -5 -10   -0.50    0.60
   3   5  10    0.00    0.60
   3   5  10   -0.60    0.50
   3   5  10   -0.80    0.90
  -4  -5 -10    8.60    1.30
   4   5  10   10.70    1.00
   4   5  10   11.90    1.20
   6  -6 -10    9.10    1.10
   6  -6 -10    9.30    1.20
  -6   6  10   10.70    1.40
   5  -6 -10    0.30    0.60
   5  -6 -10   -0.10    0.60
  -5   6  10    0.10    0.70
   4  -6 -10    1.90    0.80
   4  -6 -10    0.10    0.60
  -4   6  10    1.40    0.80
   3  -6 -10   29.20    1.50
   3  -6 -10   31.00    1.70
  -3   6  10   28.70    1.70
   2  -6 -10   11.50    1.70
   2  -6 -10   14.70    1.10
  -2   6  10   11.80    1.20
  -2   6  10   12.60    1.80
   1  -6 -10   12.50    1.80
   1  -6 -10   11.00    1.10
  -1   6  10   12.50    1.10
  -1   6  10   12.30    1.00
   0  -6 -10    0.50    0.60
   0   6  10    2.10    0.60
   0   6  10    2.10    0.70
  -1  -6 -10    2.20    0.60
   1   6  10    2.00    0.60
   1   6  10    2.40    0.60
   1   6  10    3.30    0.70
  -2  -6 -10    4.00    0.70
   2   6  10    5.00    0.70
   2   6  10    4.00    0.80
   2   6  10    3.50    0.80
  -3  -6 -10    5.90    0.80
   3   6  10    6.10    0.90
   3   6  10    7.60    1.00
   3   6  10    8.10    1.10
   5  -7 -10    2.30    0.80
   5  -7 -10    2.20    0.70
  -5   7  10    1.40    0.80
   4  -7 -10   30.90    1.60
   4  -7 -10   29.40    1.80
  -4   7  10   27.90    1.80
   3  -7 -10   -0.60    0.70
   3  -7 -10   -0.60    0.70
  -3   7  10   -0.20    0.70
   2  -7 -10   -0.70    0.70
   2  -7 -10    0.00    0.60
  -2   7  10    0.20    0.60
   1  -7 -10   17.60    1.30
  -1   7  10   16.50    1.60
  -1   7  10   17.50    1.30
   0  -7 -10   19.40    1.40
   0   7  10   20.60    1.10
   0   7  10   19.80    1.70
   0   7  10   21.30    1.30
  -1  -7 -10   14.90    1.30
   1   7  10   15.40    1.50
   1   7  10   15.10    1.10
   1   7  10   17.10    1.20
  -2  -7 -10    1.70    0.80
   2   7  10    1.50    0.90
   2   7  10    2.60    0.60
   2   7  10    2.00    0.80
   1  11 -11    6.60    1.00
   1  11 -11    7.40    1.00
  -1 -11  11    5.80    0.70
   0  11 -11   38.90    2.00
   0 -11  11   37.50    2.10
   0 -11  11   36.50    1.70
  -1  11 -11    6.00    0.80
  -1  11 -11    7.60    1.00
   1 -11  11    6.90    1.00
   1 -11  11    7.40    1.00
  -2  11 -11   12.90    1.20
  -2  11 -11   12.40    1.40
   2 -11  11   14.20    1.10
   2 -11  11   14.70    1.30
  -3  11 -11   21.30    1.40
   3 -11  11   20.30    1.50
   3 -11  11   22.60    1.30
  -4  11 -11    6.20    0.90
   4 -11  11    4.80    0.80
   4 -11  11    6.30    0.70
   3  10 -11   10.70    1.40
   3  10 -11   10.70    1.50
  -3 -10  11   13.50    1.10
   2  10 -11    0.90    0.80
   2  10 -11    2.90    0.80
  -2 -10  11    2.70    0.70
   1  10 -11    3.30    0.90
   1  10 -11    1.90    0.80
  -1 -10  11    2.50    0.60
   0  10 -11    0.30    0.70
   0  10 -11    1.00    0.90
   0 -10  11    1.60    0.80
   0 -10  11    0.50    0.50
  -1  10 -11    1.30    0.70
  -1  10 -11    0.60    0.50
   1 -10  11    1.60    0.70
   1 -10  11    1.40    0.60
  -2  10 -11    1.70    0.80
  -2  10 -11    2.80    0.60
   2 -10  11    2.80    0.70
   2 -10  11    3.40    0.60
  -3  10 -11   33.10    1.60
  -3  10 -11   32.90    2.20
   3 -10  11   31.80    1.70
   3 -10  11   31.10    1.50
  -4  10 -11   16.40    1.30
   4 -10  11   16.80    1.20
   4 -10  11   17.40    1.10
  -5  10 -11   13.20    1.20
   5 -10  11   14.80    1.40
   5 -10  11   14.70    1.10
   4   9 -11    0.10    0.80
   4   9 -11   -0.20    0.70
  -4  -9  11    0.20    0.60
   3   9 -11   -0.30    0.70
   3   9 -11   -0.90    0.70
  -3  -9  11    0.10    0.50
   2   9 -11    7.50    1.10
   2   9 -11    4.00    0.80
  -2  -9  11    5.10    0.60
   1   9 -11    0.40    0.60
   1   9 -11    0.00    0.90
   1   9 -11    0.20    0.60
  -1  -9  11    0.20    0.90
  -1  -9  11    0.00    0.40
   0   9 -11   10.20    1.20
   0   9 -11    9.10    1.10
   0   9 -11    9.90    1.30
   0  -9  11    8.40    0.80
  -1   9 -11    1.10    0.50
  -1   9 -11    0.70    0.80
   1  -9  11    0.60    0.50
   1  -9  11    0.50    0.40
  -2   9 -11   12.50    1.40
  -2   9 -11   15.20    1.00
   2  -9  11   15.60    1.00
   2  -9  11   13.50    1.10
  -3   9 -11    0.60    1.00
  -3   9 -11    0.70    0.50
   3  -9  11    0.40    0.50
   3  -9  11    0.10    0.40
  -4   9 -11    2.20    0.60
   4  -9  11    1.20    0.50
   4  -9  11    1.00    0.50
  -5   9 -11    0.00    0.50
   5  -9  11    1.00    0.50
   5  -9  11   -0.30    0.50
  -6   9 -11   25.40    1.50
   6  -9  11   25.40    1.30
   6  -9  11   26.10    1.40
   5   8 -11    1.80    0.80
   5   8 -11    2.30    0.80
  -5  -8  11    0.10    0.60
   4   8 -11    1.20    0.70
   4   8 -11   -0.50    0.60
  -4  -8  11   -1.30    0.50
   3   8 -11    3.50    0.70
   3   8 -11    1.40    0.70
  -3  -8  11    2.60    0.60
   2   8 -11   -0.60    0.60
   2   8 -11    0.90    0.60
  -2  -8  11    1.60    1.00
  -2  -8  11    0.50    0.40
   1   8 -11    1.20    0.60
   1   8 -11    0.80    0.90
  -1  -8  11    0.50    0.80
  -1  -8  11    0.40    0.40
   0   8 -11    0.50    0.70
   0   8 -11    0.30    0.90
   0   8 -11    1.40    0.60
   0  -8  11    0.40    0.40
   0  -8  11    1.40    0.80
  -1   8 -11    0.80    0.70
  -1   8 -11    0.60    1.40
  -1   8 -11    1.00    0.60
   1  -8  11   -0.20    0.40
   1  -8  11   -0.50    0.70
  -2   8 -11    9.80    1.20
  -2   8 -11   10.80    0.90
   2  -8  11    9.80    0.80
   2  -8  11   10.10    1.00
  -3   8 -11   14.40    1.00
   3  -8  11   13.30    0.90
   3  -8  11   14.70    1.00
  -4   8 -11    4.40    0.60
   4  -8  11    4.90    0.60
   4  -8  11    5.70    0.80
  -5   8 -11    4.00    0.60
   5  -8  11    4.00    0.60
   5  -8  11    3.50    0.60
  -6   8 -11    2.00    0.70
   6  -8  11    2.40    0.50
   6  -8  11    1.60    0.60
  -7   8 -11    8.70    1.10
   7  -8  11    8.50    0.90
   7  -8  11    7.60    1.00
   6   7 -11    0.20    0.80
   6   7 -11    1.30    0.60
  -6  -7  11    0.10    0.60
   5   7 -11    2.20    0.70
   5   7 -11    2.00    0.70
  -5  -7  11    0.80    0.50
   4   7 -11    5.80    0.80
   4   7 -11    7.40    1.10
  -4  -7  11    4.30    0.60
   3   7 -11   10.00    1.00
   3   7 -11    9.80    1.00
  -3  -7  11    8.20    0.80
   2   7 -11    0.80    0.80
   2   7 -11    0.60    0.50
  -2  -7  11   -0.40    0.80
  -2  -7  11    0.30    0.40
   1   7 -11    1.60    0.70
   1   7 -11    1.70    0.60
   1   7 -11    1.90    0.80
  -1  -7  11    1.30    0.70
  -1  -7  11    1.20    0.50
   0   7 -11    0.40    0.50
   0   7 -11    1.10    0.90
   0   7 -11    0.80    0.60
   0  -7  11    0.60    0.40
   0  -7  11    0.70    0.70
  -1   7 -11   22.40    1.30
  -1   7 -11   25.20    1.90
  -1   7 -11   25.60    1.80
   1  -7  11   24.60    1.40
   1  -7  11   24.40    1.20
  -2   7 -11   11.10    0.90
  -2   7 -11   11.40    1.00
   2  -7  11   13.60    1.00
   2  -7  11   11.50    0.80
  -3   7 -11   38.10    1.60
   3  -7  11   38.40    1.60
   3  -7  11   38.50    1.60
  -4   7 -11    3.00    0.50
   4  -7  11    3.70    0.50
   4  -7  11    3.20    0.50
  -5   7 -11    1.80    0.50
   5  -7  11    1.00    0.40
   5  -7  11    1.50    0.50
  -6   7 -11    9.80    1.10
   6  -7  11   10.80    1.20
   6  -7  11   10.30    0.90
  -7   7 -11    0.40    0.60
   7  -7  11    0.10    0.50
   7  -7  11    1.40    0.50
   7   6 -11   33.20    1.70
   7   6 -11   38.20    2.10
  -7  -6  11   36.00    1.70
   6   6 -11    8.00    1.10
   6   6 -11    8.40    1.30
  -6  -6  11    6.50    0.80
   5   6 -11    3.90    0.70
   5   6 -11    4.00    0.70
  -5  -6  11    2.70    0.60
   4   6 -11   25.60    1.40
   4   6 -11   27.70    1.50
  -4  -6  11   25.10    1.30
   3   6 -11    3.80    0.60
   3   6 -11    1.80    0.60
  -3  -6  11    2.50    0.50
  -3  -6  11    2.50    1.10
   2   6 -11    4.30    0.70
   2   6 -11    3.80    0.80
   2   6 -11    6.20    0.80
  -2  -6  11    5.40    0.70
  -2  -6  11    6.20    1.20
   1   6 -11    6.50    1.00
   1   6 -11    6.00    0.80
   1   6 -11    5.10    0.80
  -1  -6  11    5.60    0.70
  -1  -6  11    5.40    0.80
   0   6 -11   31.30    1.40
   0   6 -11   30.50    1.70
   0   6 -11   31.70    1.50
   0  -6  11   30.50    1.30
   0  -6  11   31.00    1.60
  -1   6 -11    8.90    1.30
  -1   6 -11    7.90    0.90
  -1   6 -11    7.70    0.90
   1  -6  11    9.00    0.70
   1  -6  11    8.30    1.00
  -2   6 -11    0.60    0.40
   2  -6  11    0.30    0.30
  -3   6 -11   15.60    1.00
   3  -6  11   15.20    0.90
   3  -6  11   16.10    1.00
  -4   6 -11    3.40    0.60
   4  -6  11    4.00    0.50
   4  -6  11    4.00    0.60
  -5   6 -11   -0.20    0.40
   5  -6  11    0.40    0.40
   5  -6  11    0.40    0.40
  -6   6 -11    0.40    0.50
   6  -6  11    0.70    0.40
   6  -6  11   -0.30    0.50
  -7   6 -11   -0.10    0.50
   7  -6  11    0.80    0.50
   7  -6  11    0.40    0.40
   7   5 -11   17.20    1.70
   7   5 -11   16.30    1.30
  -7  -5  11   17.20    1.20
   6   5 -11   21.10    1.50
   6   5 -11   19.30    1.20
  -6  -5  11   20.00    1.20
   5   5 -11    1.80    0.60
   5   5 -11    2.80    0.70
  -5  -5  11    1.50    0.50
   4   5 -11    6.50    0.90
   4   5 -11    5.40    0.70
   4   5 -11    5.30    0.60
  -4  -5  11    5.60    0.60
   3   5 -11    7.50    0.90
   3   5 -11    7.70    0.90
   3   5 -11    7.30    1.10
  -3  -5  11    8.00    0.70
  -3  -5  11    8.50    1.00
   2   5 -11    3.10    0.50
   2   5 -11    2.40    0.60
   2   5 -11    2.90    0.70
  -2  -5  11    3.20    0.70
  -2  -5  11    2.40    0.40
   1   5 -11   22.70    1.20
   1   5 -11   24.70    1.20
   1   5 -11   22.10    1.40
  -1  -5  11   23.50    1.10
  -1  -5  11   24.60    1.40
   0   5 -11   -0.30    0.70
   0   5 -11    0.40    0.50
   0   5 -11    0.40    0.40
   0  -5  11    0.40    0.40
   0  -5  11    1.30    0.90
  -1   5 -11    9.70    0.80
  -1   5 -11   10.00    1.30
   1  -5  11    9.30    0.90
   1  -5  11    9.20    0.70
  -2   5 -11    7.40    0.70
   2  -5  11    8.40    0.90
   2  -5  11    7.70    0.70
  -3   5 -11    0.70    0.40
   3  -5  11    1.50    0.40
   3  -5  11    0.30    0.40
  -4   5 -11   -0.70    0.40
   4  -5  11   -0.10    0.40
   4  -5  11    0.50    0.40
  -5   5 -11    0.50    0.50
   5  -5  11    1.00    0.40
   5  -5  11    0.90    0.40
  -6   5 -11    8.40    1.00
   6  -5  11   10.50    0.80
   6  -5  11   11.00    0.90
  -7   5 -11    1.00    0.70
   7  -5  11    1.50    0.60
   7  -5  11    1.70    0.40
   7   4 -11    2.60    0.80
   7   4 -11    1.90    0.60
  -7  -4  11    1.60    0.70
   6   4 -11   -0.20    0.50
   6   4 -11   -0.60    0.60
  -6  -4  11   -0.10    0.50
   5   4 -11    6.40    0.90
   5   4 -11    5.20    0.80
   5   4 -11    6.10    0.80
  -5  -4  11    5.50    0.60
   4   4 -11    0.20    0.50
   4   4 -11    0.80    0.50
   4   4 -11    0.00    0.50
  -4  -4  11    0.50    0.40
   3   4 -11   86.69    3.10
   3   4 -11   81.99    3.00
   3   4 -11   82.99    2.90
  -3  -4  11   83.19    3.10
  -3  -4  11   82.89    2.90
   2   4 -11   80.79    2.90
   2   4 -11   81.79    2.90
   2   4 -11   78.79    2.80
  -2  -4  11   76.09    2.80
  -2  -4  11   79.79    2.90
   1   4 -11    0.60    0.60
   1   4 -11    0.40    0.50
   1   4 -11    0.40    0.40
  -1  -4  11    0.20    0.90
   0   4 -11    8.10    0.80
   0   4 -11    6.80    0.80
   0   4 -11    7.70    1.10
   0  -4  11    9.30    0.90
  -1   4 -11   36.90    1.50
  -1   4 -11   37.40    1.80
   1  -4  11   39.10    1.60
  -2   4 -11  148.59    5.30
  -2   4 -11  164.98    5.40
   2  -4  11  162.48    5.30
  -3   4 -11   86.59    3.10
   3  -4  11   87.29    3.00
   3  -4  11   90.29    3.10
  -4   4 -11    2.00    0.50
   4  -4  11    2.50    0.40
   4  -4  11    2.80    0.50
  -5   4 -11   48.50    2.00
   5  -4  11   50.49    1.90
   5  -4  11   49.50    1.90
  -6   4 -11    0.80    0.50
   6  -4  11    1.60    0.50
   6  -4  11    1.20    0.40
  -7   4 -11    0.00    0.50
   7  -4  11   -0.50    0.50
   7  -4  11    0.20    0.30
  -8   4 -11    4.70    0.80
   8  -4  11    3.80    0.70
   8   3 -11    6.90    1.50
   8   3 -11    6.90    0.90
  -8  -3  11    5.80    0.80
   7   3 -11   -0.30    0.70
   7   3 -11   -0.30    0.50
  -7  -3  11   -0.30    0.50
   6   3 -11    0.90    0.50
   6   3 -11    1.90    0.60
   6   3 -11    1.70    0.60
  -6  -3  11    1.70    0.50
   5   3 -11    7.50    1.00
   5   3 -11    7.00    0.90
   5   3 -11    7.00    0.80
  -5  -3  11    7.40    0.80
   4   3 -11    0.70    0.50
   4   3 -11    0.50    0.50
   4   3 -11    0.30    0.80
  -4  -3  11    0.60    0.40
   3   3 -11   92.89    3.20
   3   3 -11   93.89    3.30
   3   3 -11   95.29    3.30
  -3  -3  11   88.29    3.40
  -3  -3  11   92.29    3.40
   2   3 -11   88.39    3.10
   2   3 -11   90.59    3.20
   2   3 -11   88.99    3.10
  -2  -3  11   89.19    3.00
   1   3 -11    4.40    0.60
   1   3 -11    5.60    0.70
   1   3 -11    6.30    0.70
  -1  -3  11    4.40    0.60
  -1  -3  11    4.70    0.70
   0   3 -11    5.10    0.50
   0   3 -11    5.80    0.70
   0   3 -11    5.80    0.80
   0  -3  11    5.90    0.90
   0  -3  11    5.10    0.50
  -1   3 -11  112.79    4.00
  -1   3 -11  117.49    3.90
   1  -3  11  108.69    3.80
   1  -3  11  117.09    3.90
  -2   3 -11   16.10    1.00
  -2   3 -11   16.60    1.40
   2  -3  11   17.40    1.00
   2  -3  11   17.00    0.90
  -3   3 -11   11.80    0.90
   3  -3  11   14.30    0.80
   3  -3  11   13.70    0.80
  -4   3 -11    7.00    0.80
   4  -3  11    8.90    0.70
   4  -3  11    7.60    0.70
  -5   3 -11   22.40    1.20
   5  -3  11   22.70    1.10
   5  -3  11   22.60    1.10
  -6   3 -11   17.70    1.20
   6  -3  11   17.70    1.10
   6  -3  11   18.20    1.00
  -7   3 -11    4.80    0.70
   7  -3  11    4.00    0.60
   7  -3  11    4.20    0.60
   8  -3  11    1.60    0.60
   8   2 -11    2.60    0.60
   8   2 -11    1.80    0.90
  -8  -2  11    1.80    0.60
   7   2 -11    1.40    0.50
   7   2 -11    1.60    0.70
  -7  -2  11    1.10    0.50
   6   2 -11    0.50    0.60
   6   2 -11    0.00    0.50
   6   2 -11    0.20    0.40
  -6  -2  11   -0.20    0.40
   5   2 -11    1.50    0.60
   5   2 -11    1.60    0.50
   5   2 -11    1.40    0.50
  -5  -2  11    2.20    0.50
   4   2 -11    5.00    0.70
   4   2 -11    5.80    0.80
  -4  -2  11    6.60    0.80
   3   2 -11    2.10    0.60
   3   2 -11    2.30    0.60
   3   2 -11    1.10    0.50
  -3  -2  11    1.20    0.70
  -3  -2  11    1.70    0.50
   2   2 -11   22.80    1.20
   2   2 -11   21.60    1.30
   2   2 -11   20.00    1.20
  -2  -2  11   21.40    1.30
  -2  -2  11   21.10    1.00
   1   2 -11   60.89    2.20
   1   2 -11   64.29    2.40
  -1  -2  11   61.29    2.30
  -1  -2  11   59.99    2.20
   0   2 -11  169.68    5.50
   0   2 -11  162.78    5.40
   0  -2  11  164.48    5.30
   0  -2  11  162.58    5.40
  -1   2 -11   46.90    2.50
  -1   2 -11   45.40    1.90
   1  -2  11   46.20    1.90
   1  -2  11   49.70    1.70
  -2   2 -11   84.49    3.00
  -2   2 -11   88.69    3.20
   2  -2  11   85.29    3.00
   2  -2  11   87.49    3.00
  -3   2 -11   -0.50    0.40
   3  -2  11    0.40    0.40
   3  -2  11    0.00    0.30
  -4   2 -11    0.60    0.40
   4  -2  11    0.70    0.40
   4  -2  11    1.00    0.40
  -5   2 -11    2.40    0.50
   5  -2  11    2.30    0.40
   5  -2  11    1.80    0.50
  -6   2 -11   -0.50    0.50
   6  -2  11    0.20    0.30
   6  -2  11    0.50    0.40
  -7   2 -11   -0.90    0.50
   7  -2  11   -0.10    0.50
   7  -2  11    0.30    0.40
   8   1 -11   10.40    1.40
   8   1 -11   11.10    1.10
   8   1 -11    8.70    1.00
  -8  -1  11   10.20    1.10
   7   1 -11   17.60    1.10
   7   1 -11   16.10    1.40
   7   1 -11   14.50    1.10
  -7  -1  11   16.00    1.00
   6   1 -11    1.70    0.60
   6   1 -11    1.80    0.50
   6   1 -11    1.50    0.50
   5   1 -11   16.20    1.10
   5   1 -11   15.60    1.00
  -5  -1  11   16.40    1.10
   4   1 -11    9.70    1.10
   4   1 -11    9.90    0.90
  -4  -1  11   11.30    0.90
   3   1 -11    1.20    0.60
   3   1 -11    0.80    0.50
   3   1 -11    0.60    0.60
  -3  -1  11    1.10    0.40
  -3  -1  11    0.80    0.60
   2   1 -11    2.70    0.60
   2   1 -11    2.20    0.50
  -2  -1  11    3.00    0.50
  -2  -1  11    2.90    0.40
  -2  -1  11    3.30    0.70
   1   1 -11   42.10    1.70
   1   1 -11   44.50    1.90
  -1  -1  11   44.10    1.80
  -1  -1  11   41.80    1.70
  -1  -1  11   44.10    1.60
   0   1 -11    4.30    0.60
   0   1 -11    4.30    0.80
   0  -1  11    5.50    0.60
   0  -1  11    6.80    0.80
  -1   1 -11   45.20    2.30
   1  -1  11   49.90    1.90
   1  -1  11   50.59    1.80
  -2   1 -11   11.40    0.80
   2  -1  11   13.00    0.80
   2  -1  11   11.00    0.90
  -3   1 -11    4.00    0.50
   3  -1  11    4.00    0.50
   3  -1  11    4.70    0.70
  -4   1 -11    0.60    0.40
   4  -1  11    0.10    0.40
   4  -1  11    0.70    0.40
  -5   1 -11    4.10    0.60
   5  -1  11    5.60    0.70
   5  -1  11    4.40    0.60
  -6   1 -11    0.00    0.50
   6  -1  11    0.10    0.40
   6  -1  11   -0.30    0.50
  -7   1 -11    1.60    0.60
   7  -1  11    0.40    0.60
   7  -1  11    1.30    0.40
   8   0 -11   23.20    1.60
   8   0 -11   20.90    1.40
   8   0 -11   21.30    1.30
   7   0 -11    3.50    0.60
   7   0 -11    5.30    0.80
  -7   0  11    3.80    0.80
   6   0 -11   17.20    1.10
   6   0 -11   20.20    1.30
   6   0 -11   19.30    1.10
  -6   0  11   18.40    1.20
   5   0 -11   10.20    0.90
   5   0 -11    9.40    0.80
   5   0 -11   11.80    1.00
  -5   0  11   10.30    0.90
   4   0 -11   16.70    1.00
  -4   0  11   19.60    1.30
  -4   0  11   17.00    1.00
   3   0 -11    8.80    1.00
   3   0 -11    9.20    0.90
  -3   0  11    9.30    1.20
  -3   0  11   10.80    1.00
  -3   0  11    8.30    0.80
   2   0 -11    8.30    1.00
  -2   0  11    9.00    1.00
  -2   0  11   10.00    0.80
  -2   0  11    9.50    1.10
   1   0 -11   12.40    1.20
  -1   0  11   13.50    1.10
  -1   0  11   14.30    0.80
  -1   0  11   13.90    1.00
   0   0 -11    4.70    0.70
   0   0 -11    4.50    0.70
   0   0  11    3.40    0.50
   0   0  11    4.70    0.50
   0   0  11    5.00    0.70
  -1   0 -11    5.10    0.80
  -1   0 -11    5.30    0.60
   1   0  11    5.20    0.60
   1   0  11    5.30    0.70
  -2   0 -11    0.80    0.40
   2   0  11    1.70    0.40
  -3   0 -11   29.10    1.30
   3   0  11   28.50    1.30
   3   0  11   30.60    1.30
  -4   0 -11    8.10    0.80
   4   0  11    6.80    0.70
   4   0  11    7.40    0.70
  -5   0 -11   24.40    1.30
   5   0  11   23.80    1.20
   5   0  11   23.00    1.10
  -6   0 -11    8.30    1.00
   6   0  11    8.50    0.90
   6   0  11    8.10    1.00
  -7   0 -11    0.50    0.60
   7   0  11    0.80    0.40
   7   0  11    0.20    0.60
   8  -1 -11    1.90    0.60
   8  -1 -11   -0.10    0.60
   7  -1 -11    1.30    0.60
   7  -1 -11    0.50    0.50
  -7   1  11    1.10    0.60
   6  -1 -11   11.20    1.00
   6  -1 -11   12.30    0.90
  -6   1  11   11.70    1.10
  -6   1  11   11.40    1.10
   5  -1 -11   18.80    1.10
   5  -1 -11   18.60    1.10
  -5   1  11   18.90    1.10
  -5   1  11   20.00    1.20
   4  -1 -11    8.20    0.80
   4  -1 -11    9.30    0.90
  -4   1  11   10.10    0.80
  -4   1  11   11.10    1.40
   3  -1 -11   29.90    1.40
   3  -1 -11   32.90    1.60
  -3   1  11   32.10    1.30
  -3   1  11   32.30    1.70
  -3   1  11   30.90    1.60
   2  -1 -11  118.09    4.00
  -2   1  11  111.49    3.80
  -2   1  11  114.39    4.00
  -2   1  11  114.09    3.90
   1  -1 -11    1.30    0.50
   1  -1 -11    2.60    0.90
  -1   1  11    1.10    0.60
  -1   1  11    1.30    0.40
  -1   1  11    1.80    0.60
   0  -1 -11   17.50    1.10
   0   1  11   16.90    1.00
   0   1  11   17.60    1.00
  -1  -1 -11    0.10    0.70
  -1  -1 -11   -0.40    0.40
   1   1  11    0.10    0.50
   1   1  11    0.30    0.60
  -2  -1 -11    2.70    0.50
   2   1  11    2.90    0.50
   2   1  11    2.80    0.50
  -3  -1 -11    8.30    0.80
   3   1  11    8.00    0.70
   3   1  11    7.30    0.80
  -4  -1 -11    3.10    0.50
   4   1  11    1.90    0.50
   4   1  11    2.50    0.50
  -5  -1 -11    1.90    0.60
   5   1  11    2.50    0.60
   5   1  11    2.70    0.50
  -6  -1 -11    0.70    0.60
   6   1  11    0.60    0.60
   6   1  11    0.60    0.50
   8  -2 -11    1.70    0.60
   8  -2 -11    1.40    0.70
  -8   2  11    1.20    0.80
   7  -2 -11    1.10    0.60
   7  -2 -11    1.10    0.50
  -7   2  11    1.60    0.80
   6  -2 -11    0.50    0.50
   6  -2 -11    1.20    0.50
  -6   2  11    1.00    0.70
   5  -2 -11   70.99    2.70
   5  -2 -11   74.19    2.70
  -5   2  11   73.29    2.80
  -5   2  11   72.39    2.60
   4  -2 -11    0.70    0.50
   4  -2 -11   -0.10    0.40
  -4   2  11    0.50    0.60
  -4   2  11    0.80    0.50
   3  -2 -11    5.90    0.70
   3  -2 -11    6.10    0.80
  -3   2  11    6.00    0.80
  -3   2  11    7.70    1.00
  -3   2  11    7.60    1.10
   2  -2 -11   22.80    1.40
   2  -2 -11   22.00    1.20
  -2   2  11   22.00    1.30
  -2   2  11   24.60    1.50
  -2   2  11   21.50    1.10
   1  -2 -11   13.80    1.00
   1  -2 -11   13.70    1.30
  -1   2  11   14.40    1.20
  -1   2  11   15.10    0.90
  -1   2  11   14.50    1.10
   0  -2 -11   24.70    1.30
   0  -2 -11   27.60    1.60
   0   2  11   25.20    1.20
   0   2  11   25.30    1.40
   0   2  11   23.80    1.30
  -1  -2 -11   21.80    1.80
  -1  -2 -11   19.20    1.20
   1   2  11   19.00    1.50
   1   2  11   19.00    1.00
   1   2  11   18.00    1.20
  -2  -2 -11   33.20    1.50
   2   2  11   35.10    1.40
   2   2  11   33.30    1.50
  -3  -2 -11    0.40    0.50
   3   2  11   -0.40    0.50
   3   2  11    0.30    0.50
  -4  -2 -11    1.30    0.50
   4   2  11    1.60    0.50
   4   2  11    1.50    0.50
  -5  -2 -11    0.30    0.50
   5   2  11   -0.60    0.50
   5   2  11   -0.50    0.50
  -6  -2 -11    2.40    0.60
   6   2  11    1.20    0.60
   6   2  11    0.60    0.70
   7  -3 -11   35.20    1.80
   7  -3 -11   36.90    1.70
  -7   3  11   34.50    2.00
   6  -3 -11   13.80    1.10
   6  -3 -11   13.10    1.10
  -6   3  11   11.80    1.40
   5  -3 -11    3.70    0.60
   5  -3 -11    3.40    0.60
  -5   3  11    2.50    0.80
   4  -3 -11   23.90    1.30
   4  -3 -11   26.10    1.30
  -4   3  11   24.40    1.50
   3  -3 -11   -1.00    0.40
   3  -3 -11    0.40    0.90
  -3   3  11   -0.30    0.50
  -3   3  11   -0.60    0.80
  -3   3  11   -0.60    0.50
   2  -3 -11    0.60    0.40
   2  -3 -11    1.50    0.70
  -2   3  11    1.70    0.50
  -2   3  11    0.50    0.70
  -2   3  11    1.20    0.70
   1  -3 -11   22.10    1.30
   1  -3 -11   21.60    1.60
  -1   3  11   22.90    1.50
  -1   3  11   24.30    1.20
  -1   3  11   24.30    1.30
   0  -3 -11    2.10    0.50
   0  -3 -11    1.50    0.80
   0   3  11    1.60    0.50
   0   3  11    1.90    0.60
   0   3  11    1.40    0.50
  -1  -3 -11   31.60    1.60
   1   3  11   34.30    1.60
   1   3  11   32.40    1.50
   1   3  11   32.40    1.40
  -2  -3 -11    1.50    0.60
   2   3  11    2.30    0.60
   2   3  11    2.10    0.50
   2   3  11    1.80    0.60
   2   3  11    2.20    0.60
  -3  -3 -11   48.40    2.00
   3   3  11   49.00    2.00
   3   3  11   47.00    1.90
  -4  -3 -11   33.30    1.60
   4   3  11   32.30    1.60
   4   3  11   32.30    1.50
  -5  -3 -11   12.70    1.10
   5   3  11   13.50    1.10
   5   3  11   12.30    1.10
   7  -4 -11   16.80    1.30
   7  -4 -11   16.50    1.20
  -7   4  11   16.20    1.60
   6  -4 -11   25.80    1.40
   6  -4 -11   21.70    1.40
  -6   4  11   25.20    1.70
   5  -4 -11    2.30    0.60
   5  -4 -11    2.50    0.60
  -5   4  11    2.50    0.80
   4  -4 -11   40.30    1.80
   4  -4 -11   39.20    1.70
  -4   4  11   39.20    1.90
   3  -4 -11   17.70    1.20
   3  -4 -11   15.50    1.10
  -3   4  11   15.00    1.20
   2  -4 -11    0.20    0.50
   2  -4 -11    0.50    0.80
  -2   4  11   -0.30    0.50
  -2   4  11    0.40    0.70
  -2   4  11    0.90    0.60
   1  -4 -11   29.20    1.50
   1  -4 -11   31.30    1.80
  -1   4  11   31.20    1.40
  -1   4  11   30.80    1.60
  -1   4  11   29.20    1.80
  -1   4  11   30.90    1.80
   0  -4 -11   -0.30    0.50
   0  -4 -11   -0.70    1.00
   0   4  11    0.30    0.70
   0   4  11   -0.10    0.60
   0   4  11   -0.60    0.70
  -1  -4 -11   -0.40    0.50
   1   4  11    0.70    0.50
   1   4  11    0.40    0.60
   1   4  11   -0.10    0.60
  -2  -4 -11    0.30    0.60
   2   4  11   -0.90    0.70
   2   4  11    0.50    0.60
   2   4  11    0.10    0.50
  -3  -4 -11   23.50    1.50
   3   4  11   24.10    1.40
   3   4  11   23.00    1.30
  -4  -4 -11   15.50    1.40
   4   4  11   18.60    1.30
   4   4  11   18.60    1.20
   6  -5 -11    0.30    0.60
   6  -5 -11    1.00    0.60
  -6   5  11   -0.20    0.80
   5  -5 -11    0.60    0.60
   5  -5 -11    0.50    0.60
  -5   5  11   -0.20    0.70
   4  -5 -11    3.90    0.70
   4  -5 -11    4.70    0.80
  -4   5  11    5.00    0.90
   3  -5 -11   -0.20    0.60
   3  -5 -11    0.40    0.50
  -3   5  11   -0.20    0.60
   2  -5 -11    9.30    1.00
  -2   5  11    9.20    1.10
  -2   5  11   11.40    1.20
   1  -5 -11    0.00    0.70
   1  -5 -11    0.00    0.50
  -1   5  11    0.50    0.50
  -1   5  11    0.40    0.60
   0   5  11    8.00    0.80
   0   5  11    7.60    0.90
   0   5  11    8.50    1.20
  -1  -5 -11    3.60    0.70
   1   5  11    3.90    0.80
   1   5  11    3.60    0.70
   1   5  11    4.80    0.60
  -2  -5 -11    1.30    0.70
   2   5  11    2.80    0.60
   2   5  11    2.40    0.70
  -3  -5 -11    1.80    0.70
   3   5  11    2.80    0.70
   3   5  11    3.60    0.70
   5  -6 -11    0.30    0.60
   5  -6 -11    0.30    0.70
  -5   6  11   -1.30    0.80
   4  -6 -11   21.60    1.60
   4  -6 -11   21.90    1.50
  -4   6  11   20.30    1.60
   3  -6 -11   10.20    1.10
   3  -6 -11    9.10    1.30
  -3   6  11    9.70    1.20
   2  -6 -11   -2.00    1.20
   2  -6 -11    0.20    0.60
  -2   6  11   -0.20    1.40
  -2   6  11   -0.50    0.60
   1  -6 -11    8.10    1.10
  -1   6  11   10.90    1.40
  -1   6  11   10.90    1.10
   0  -6 -11    1.60    0.70
   0   6  11    2.70    0.60
   0   6  11    2.50    0.70
   0   6  11    3.70    0.90
  -1  -6 -11   25.70    1.50
   1   6  11   28.30    1.50
   1   6  11   26.70    1.40
   1   6  11   29.80    1.70
  -2  -6 -11    0.30    0.70
   2   6  11    0.60    0.70
   2   6  11   -0.60    0.80
   2   6  11    0.60    0.60
   3  -7 -11    3.30    0.80
   3  -7 -11    3.10    0.90
  -3   7  11    4.10    0.90
   2  -7 -11   27.70    1.90
   2  -7 -11   24.90    1.90
  -2   7  11   27.80    1.60
   1  -7 -11    1.60    0.70
  -1   7  11    2.90    1.00
   0  -7 -11   -0.90    0.70
   0   7  11   -1.80    0.90
   0   7  11    1.20    0.60
   0  11 -12   61.39    2.60
   0 -11  12   59.99    2.40
   0 -11  12   61.99    2.80
  -1  11 -12    1.20    0.90
  -1  11 -12    1.90    0.70
   1 -11  12    0.40    0.80
   1 -11  12    0.70    0.60
  -2  11 -12    1.00    0.70
  -2  11 -12    3.80    1.10
   2 -11  12    3.60    0.70
   2 -11  12    2.40    0.80
   2  10 -12   -1.20    0.80
   2  10 -12   -2.10    0.80
  -2 -10  12    0.50    0.60
   1  10 -12    3.70    0.80
   1  10 -12   -1.00    0.90
  -1 -10  12    1.30    0.60
  -1 -10  12    2.50    0.90
   0  10 -12    1.20    0.60
   0  10 -12    1.50    0.80
   0 -10  12    0.20    0.60
   0 -10  12    1.40    0.70
  -1  10 -12    2.00    0.80
  -1  10 -12    2.40    0.60
   1 -10  12    3.50    0.80
   1 -10  12    1.90    0.60
  -2  10 -12   14.80    1.20
   2 -10  12   16.60    1.40
   2 -10  12   16.10    1.10
  -3  10 -12    1.80    0.60
   3 -10  12    1.60    0.60
   3 -10  12    0.30    0.70
  -4  10 -12    0.40    0.60
   4 -10  12    0.60    0.60
   4 -10  12    0.30    0.50
   4   9 -12    1.50    0.80
   4   9 -12    0.80    0.80
  -4  -9  12   -0.10    0.60
   3   9 -12   -0.40    0.80
  -3  -9  12    0.50    0.60
   2   9 -12    7.70    1.20
   2   9 -12    5.30    0.90
  -2  -9  12    6.30    0.90
   1   9 -12    0.40    0.70
   1   9 -12    0.80    2.00
   1   9 -12    0.50    0.70
  -1  -9  12    0.00    1.00
  -1  -9  12   -0.70    0.50
   0   9 -12   12.10    2.10
   0   9 -12   11.30    1.00
   0   9 -12   13.20    1.20
   0  -9  12    9.10    1.30
   0  -9  12   10.00    1.00
  -1   9 -12    0.20    0.80
  -1   9 -12    0.00    0.50
   1  -9  12   -0.60    0.70
   1  -9  12   -0.40    0.50
  -2   9 -12    2.80    0.60
   2  -9  12    3.00    0.60
   2  -9  12    2.70    0.70
  -3   9 -12    0.20    0.50
   3  -9  12   -0.40    0.50
   3  -9  12   -0.70    0.40
  -4   9 -12    1.70    0.60
   4  -9  12    2.60    0.60
   4  -9  12    1.70    0.60
  -5   9 -12    7.10    1.00
   5  -9  12    5.50    0.80
   5  -9  12    5.10    0.70
   5   8 -12    9.20    1.40
   5   8 -12    8.00    1.20
  -5  -8  12    7.10    0.80
   4   8 -12    3.00    0.80
   4   8 -12    4.80    0.90
  -4  -8  12    3.50    0.60
   3   8 -12    2.60    0.70
   3   8 -12    1.50    0.70
  -3  -8  12    2.10    0.50
   2   8 -12   -0.20    0.70
   2   8 -12   -0.70    0.60
   2   8 -12    1.00    0.70
  -2  -8  12    0.60    1.10
  -2  -8  12   -0.40    0.40
   1   8 -12    4.40    1.10
   1   8 -12    4.90    0.70
  -1  -8  12    4.00    0.60
  -1  -8  12    4.50    1.00
   0   8 -12    0.50    0.80
   0   8 -12   -1.00    1.00
   0   8 -12   -0.30    0.80
   0  -8  12   -0.40    0.40
  -1   8 -12    0.00    0.70
  -1   8 -12   -0.30    0.40
   1  -8  12    0.50    0.60
   1  -8  12    0.40    0.40
  -2   8 -12    0.00    0.50
   2  -8  12    1.00    0.50
   2  -8  12    0.40    0.50
  -3   8 -12    0.80    0.60
   3  -8  12    2.10    0.60
   3  -8  12    1.90    0.50
  -4   8 -12    0.10    0.50
   4  -8  12    0.60    0.50
   4  -8  12   -0.10    0.50
  -5   8 -12   17.30    1.20
   5  -8  12   17.40    1.10
   5  -8  12   18.40    1.10
  -6   8 -12    3.50    0.70
   6  -8  12    3.70    0.60
   6  -8  12    3.40    0.60
   5   7 -12    7.60    1.10
   5   7 -12    4.90    0.90
  -5  -7  12    4.90    0.70
   4   7 -12   18.10    1.30
   4   7 -12   17.00    1.40
  -4  -7  12   15.90    1.10
   3   7 -12   -0.20    0.60
   3   7 -12    0.80    0.60
  -3  -7  12    0.00    0.50
   2   7 -12    4.60    0.70
   2   7 -12    4.60    0.90
   2   7 -12    5.10    1.00
  -2  -7  12    3.50    1.00
  -2  -7  12    4.10    0.60
   1   7 -12    4.40    0.80
   1   7 -12    4.60    0.70
   1   7 -12    3.70    0.90
  -1  -7  12    4.20    0.90
  -1  -7  12    3.90    0.50
   0   7 -12    0.20    1.00
   0   7 -12   -0.40    0.70
   0  -7  12   -0.40    0.40
   0  -7  12   -0.20    0.70
  -1   7 -12    3.50    0.50
  -1   7 -12    4.40    0.80
   1  -7  12    4.10    0.60
   1  -7  12    5.50    0.70
  -2   7 -12   16.00    1.10
   2  -7  12   18.20    1.10
   2  -7  12   17.00    1.00
  -3   7 -12    6.50    0.90
   3  -7  12    5.90    0.90
   3  -7  12    6.80    0.70
  -4   7 -12    0.20    0.50
   4  -7  12    0.40    0.50
   4  -7  12   -0.10    0.40
  -5   7 -12    9.80    1.00
   5  -7  12   10.60    0.90
   5  -7  12    9.00    0.90
  -6   7 -12    3.70    0.70
   6  -7  12    3.50    0.70
   6  -7  12    2.30    0.60
   6   6 -12    8.60    1.40
   6   6 -12   10.00    1.10
  -6  -6  12    9.10    1.10
   5   6 -12   27.40    1.60
   5   6 -12   30.70    1.70
  -5  -6  12   27.50    1.40
   4   6 -12   -0.40    0.60
   4   6 -12   -0.30    0.50
  -4  -6  12    0.60    0.50
   3   6 -12    3.80    0.70
   3   6 -12    4.30    0.70
   3   6 -12    2.50    0.70
  -3  -6  12    4.10    0.50
   2   6 -12    2.00    0.70
   2   6 -12    3.70    0.60
   2   6 -12    1.50    0.80
  -2  -6  12    2.50    0.50
  -2  -6  12    4.20    1.10
   1   6 -12   -0.80    0.60
   1   6 -12    0.00    0.50
   1   6 -12    0.00    0.80
  -1  -6  12    0.10    0.40
  -1  -6  12    0.20    0.70
   0   6 -12    3.40    0.70
   0   6 -12    3.40    0.90
   0  -6  12    3.30    0.50
   0  -6  12    2.80    0.70
  -1   6 -12    6.20    1.00
  -1   6 -12    4.80    0.70
   1  -6  12    6.10    0.70
   1  -6  12    5.40    0.90
  -2   6 -12   -0.20    0.40
   2  -6  12   -0.10    0.40
   2  -6  12   -0.40    0.40
  -3   6 -12   24.90    1.30
   3  -6  12   25.60    1.30
   3  -6  12   23.20    1.20
  -4   6 -12   10.70    0.90
   4  -6  12   11.60    0.90
   4  -6  12   11.20    0.90
  -5   6 -12    3.10    0.70
   5  -6  12    4.60    0.60
   5  -6  12    3.00    0.50
  -6   6 -12    1.80    0.60
   6  -6  12    3.10    0.60
   6  -6  12    3.00    0.50
  -7   6 -12   -0.50    0.60
   7  -6  12    0.10    0.60
   7  -6  12   -0.20    0.40
   7   5 -12   44.50    2.30
   7   5 -12   43.50    2.00
  -7  -5  12   42.40    1.90
   6   5 -12   -1.10    0.50
   6   5 -12   -1.20    0.70
  -6  -5  12   -0.20    0.50
   5   5 -12    1.60    0.60
   5   5 -12    1.60    0.70
  -5  -5  12    1.40    0.60
   4   5 -12    1.50    0.60
   4   5 -12    2.20    0.60
   4   5 -12    1.30    0.60
  -4  -5  12    1.80    0.50
   3   5 -12   26.40    1.70
   3   5 -12   24.20    1.40
  -3  -5  12   26.40    1.30
  -3  -5  12   27.70    1.90
   2   5 -12    3.20    0.80
   2   5 -12    2.60    0.50
   2   5 -12    2.20    0.70
  -2  -5  12    1.50    0.50
  -2  -5  12    2.80    0.70
   1   5 -12   98.49    3.40
   1   5 -12   98.69    3.60
   1   5 -12   96.49    3.40
  -1  -5  12   98.89    3.50
  -1  -5  12   93.19    3.30
   0   5 -12   28.50    1.70
   0   5 -12   27.30    1.30
   0  -5  12   26.20    1.20
   0  -5  12   25.60    1.50
  -1   5 -12   -0.70    0.30
  -1   5 -12   -0.40    0.80
   1  -5  12   -0.50    0.30
   1  -5  12    0.00    0.50
  -2   5 -12   10.40    0.90
   2  -5  12   11.70    0.90
   2  -5  12   11.80    0.80
  -3   5 -12    1.20    0.40
   3  -5  12    1.30    0.40
   3  -5  12    1.20    0.50
  -4   5 -12    4.10    0.60
   4  -5  12    3.70    0.50
   4  -5  12    3.60    0.50
  -5   5 -12   10.10    1.00
   5  -5  12   10.30    0.80
   5  -5  12   11.80    0.90
  -6   5 -12   14.90    1.20
   6  -5  12   13.70    0.90
   6  -5  12   15.90    1.00
  -7   5 -12    2.10    0.70
   7  -5  12    1.70    0.40
   7  -5  12    1.90    0.60
   7   4 -12   -0.10    0.50
   7   4 -12   -0.20    0.70
  -7  -4  12   -0.50    0.60
   6   4 -12   12.70    1.10
   6   4 -12   14.30    1.30
  -6  -4  12   11.70    1.00
   5   4 -12    9.50    1.10
   5   4 -12    8.90    1.00
   5   4 -12   10.40    1.10
  -5  -4  12    9.50    0.90
   4   4 -12    0.60    0.60
   4   4 -12   -0.50    0.50
   4   4 -12    0.60    0.60
  -4  -4  12    0.40    0.40
   3   4 -12   17.60    1.20
   3   4 -12   18.50    1.40
   3   4 -12   19.40    1.40
  -3  -4  12   18.20    1.00
  -3  -4  12   17.60    1.60
   2   4 -12   10.80    1.20
   2   4 -12   10.80    1.10
  -2  -4  12   11.10    0.80
   1   4 -12    0.30    0.60
   1   4 -12    0.60    0.50
   1   4 -12    0.10    0.60
  -1  -4  12   -0.10    0.50
  -1  -4  12    0.20    0.40
   0   4 -12  127.09    4.50
   0  -4  12  120.29    4.30
   0  -4  12  144.99    4.60
  -1   4 -12   37.60    1.90
  -1   4 -12   36.00    1.50
   1  -4  12   40.70    1.70
   1  -4  12   34.70    1.50
  -2   4 -12   53.79    2.10
   2  -4  12   54.29    2.10
   2  -4  12   55.99    2.00
  -3   4 -12   -0.30    0.40
   3  -4  12    0.40    0.40
   3  -4  12    0.50    0.40
  -4   4 -12   29.50    1.40
   4  -4  12   31.60    1.40
   4  -4  12   31.60    1.40
  -5   4 -12  173.48    5.90
   5  -4  12  175.98    5.80
   5  -4  12  178.68    5.80
  -6   4 -12   19.00    1.30
   6  -4  12   20.50    1.10
   6  -4  12   19.30    1.20
  -7   4 -12   17.40    1.30
   7  -4  12   16.90    1.00
   7  -4  12   18.70    1.20
   7   3 -12   23.50    1.70
   7   3 -12   23.90    1.40
  -7  -3  12   24.90    1.40
   6   3 -12    0.00    0.70
   6   3 -12    0.50    0.70
   6   3 -12   -0.40    0.50
  -6  -3  12    1.30    0.50
   5   3 -12    7.80    1.10
   5   3 -12    6.00    0.80
   5   3 -12    7.90    0.90
  -5  -3  12    6.30    0.80
   4   3 -12    2.80    0.60
   4   3 -12    1.80    0.60
   4   3 -12    2.10    0.60
  -4  -3  12    1.90    0.50
   3   3 -12    0.60    0.70
   3   3 -12    0.20    0.70
   3   3 -12   -1.10    0.50
  -3  -3  12    0.30    0.60
  -3  -3  12    0.70    0.40
   2   3 -12   39.70    1.90
   2   3 -12   41.50    1.80
   2   3 -12   38.10    1.70
  -2  -3  12   41.50    1.60
   1   3 -12   61.29    2.50
   1   3 -12   60.69    2.40
   1   3 -12   61.69    2.30
  -1  -3  12   60.19    2.20
  -1  -3  12   61.09    2.40
   0   3 -12   46.10    2.10
   0   3 -12   52.89    2.20
   0  -3  12   52.99    2.10
   0  -3  12   51.49    1.90
  -1   3 -12   69.29    2.50
  -1   3 -12   71.09    2.80
   1  -3  12   69.59    2.50
   1  -3  12   69.59    2.60
  -2   3 -12   10.90    0.90
   2  -3  12   11.40    0.90
   2  -3  12   10.90    0.80
  -3   3 -12    0.50    0.40
   3  -3  12    1.00    0.40
   3  -3  12    1.20    0.40
  -4   3 -12   25.00    1.30
   4  -3  12   24.80    1.20
   4  -3  12   26.10    1.20
  -5   3 -12    2.20    0.60
   5  -3  12    3.20    0.50
   5  -3  12    4.00    0.60
  -6   3 -12    4.20    0.70
   6  -3  12    7.00    0.80
   6  -3  12    4.90    0.70
  -7   3 -12    6.50    0.90
   7  -3  12    6.60    0.80
   7  -3  12    7.00    0.70
   7   2 -12    6.80    0.80
   7   2 -12    6.60    1.00
   7   2 -12    8.00    1.00
  -7  -2  12    7.40    0.90
   6   2 -12    0.10    0.70
   6   2 -12    0.10    0.50
   6   2 -12    0.20    0.50
  -6  -2  12   -0.60    0.50
   5   2 -12    1.10    0.50
   5   2 -12    0.70    0.60
   5   2 -12    0.00    0.50
  -5  -2  12    0.50    0.50
   4   2 -12   11.70    1.70
   4   2 -12   11.70    1.00
   4   2 -12   10.00    1.30
  -4  -2  12   12.80    0.90
   3   2 -12    3.00    0.70
   3   2 -12    2.50    0.70
  -3  -2  12    2.70    0.80
   2   2 -12    9.50    1.10
   2   2 -12   10.30    1.20
  -2  -2  12    9.80    1.20
   1   2 -12    3.80    0.60
   1   2 -12    4.80    0.80
  -1  -2  12    5.30    0.80
  -1  -2  12    4.20    0.70
   0   2 -12    8.60    1.30
   0   2 -12    6.90    0.70
   0  -2  12    7.70    0.70
   0  -2  12    6.10    0.70
  -1   2 -12   11.70    1.40
  -1   2 -12   12.40    0.80
   1  -2  12   13.00    0.80
   1  -2  12   11.80    1.00
  -2   2 -12  102.79    3.60
   2  -2  12  105.69    3.50
   2  -2  12  102.69    3.60
  -3   2 -12   52.29    2.10
   3  -2  12   55.89    2.10
   3  -2  12   56.29    2.10
  -4   2 -12   40.80    1.80
   4  -2  12   46.10    1.80
   4  -2  12   43.80    1.70
  -5   2 -12    0.40    0.50
   5  -2  12    0.10    0.40
   5  -2  12    0.30    0.50
  -6   2 -12    0.00    0.50
   6  -2  12   -0.10    0.50
   6  -2  12   -0.10    0.40
  -7   2 -12    0.70    0.60
   7  -2  12   -0.80    0.50
   7  -2  12   -0.40    0.40
   7   1 -12    0.70    0.70
   7   1 -12   -0.40    0.60
   7   1 -12    0.80    0.60
  -7  -1  12   -0.40    0.60
   6   1 -12    1.40    0.70
   6   1 -12    2.60    0.50
   6   1 -12    1.30    0.50
  -6  -1  12    1.40    0.50
   5   1 -12    3.60    0.60
   5   1 -12    2.70    0.70
   5   1 -12    3.10    0.60
  -5  -1  12    2.20    0.70
   4   1 -12    0.90    0.50
   4   1 -12    1.50    0.90
   4   1 -12    1.30    0.40
  -4  -1  12    0.60    0.50
   3   1 -12   29.70    1.40
   3   1 -12   31.40    1.60
  -3  -1  12   29.60    1.80
  -3  -1  12   33.00    1.60
  -3  -1  12   30.20    1.40
   2   1 -12    1.00    0.50
   2   1 -12    1.50    0.70
  -2  -1  12    1.40    0.50
  -2  -1  12    1.50    0.70
  -2  -1  12    1.70    0.50
   1   1 -12    0.10    0.40
   1   1 -12    0.30    0.70
  -1  -1  12    0.70    0.60
  -1  -1  12    0.30    0.40
  -1  -1  12    0.50    0.60
   0   1 -12    0.00    0.40
   0   1 -12   -0.20    1.00
   0  -1  12   -0.30    0.60
  -1   1 -12    0.20    0.40
  -1   1 -12   -0.20    0.70
   1  -1  12    0.20    0.40
   1  -1  12    0.20    0.40
  -2   1 -12    0.30    0.40
   2  -1  12    0.40    0.40
   2  -1  12    0.00    0.40
  -3   1 -12    4.10    0.50
   3  -1  12    5.60    0.80
   3  -1  12    4.60    0.50
  -4   1 -12    0.70    0.50
   4  -1  12    0.20    0.40
   4  -1  12    0.70    0.40
  -5   1 -12    2.00    0.50
   5  -1  12    3.30    0.60
   5  -1  12    2.30    0.50
  -6   1 -12    1.00    0.60
   6  -1  12    1.50    0.50
   6  -1  12    0.90    0.60
  -7   1 -12    6.60    0.80
   7  -1  12    8.00    1.00
   7  -1  12    7.40    0.90
   7   0 -12    4.40    0.70
   7   0 -12    4.10    0.70
   6   0 -12    0.00    0.50
   6   0 -12    0.70    0.60
  -6   0  12    0.80    0.60
  -6   0  12    0.30    0.70
   5   0 -12   -0.10    0.40
   5   0 -12    0.30    0.40
  -5   0  12    1.10    0.60
  -5   0  12    0.40    0.60
   4   0 -12   31.10    1.50
   4   0 -12   30.30    1.40
  -4   0  12   31.00    1.50
  -4   0  12   29.70    1.40
   3   0 -12    0.50    0.40
   3   0 -12    0.30    0.60
  -3   0  12   -0.40    0.60
  -3   0  12    0.60    0.50
  -3   0  12    0.60    0.70
   2   0 -12    2.30    0.70
   2   0 -12    1.50    0.50
  -2   0  12    2.50    0.70
  -2   0  12    2.90    0.50
  -2   0  12    2.50    0.70
   1   0 -12    0.20    0.50
   1   0 -12    0.00    0.70
  -1   0  12   -0.50    0.40
  -1   0  12    0.20    0.60
  -1   0  12   -0.10    0.70
   0   0 -12   63.89    2.40
   0   0 -12   71.79    2.70
   0   0  12   64.19    2.30
   0   0  12   69.89    2.60
  -1   0 -12    0.30    0.40
  -1   0 -12   -0.20    0.90
   1   0  12    0.20    0.40
   1   0  12    0.10    0.60
  -2   0 -12    7.80    0.80
   2   0  12    7.80    0.80
   2   0  12    7.80    0.70
  -3   0 -12    3.10    0.50
   3   0  12    3.40    0.60
   3   0  12    4.00    0.50
  -4   0 -12    2.90    0.60
   4   0  12    2.50    0.50
   4   0  12    3.00    0.50
  -5   0 -12   20.30    1.20
   5   0  12   17.70    1.20
   5   0  12   20.30    1.10
  -6   0 -12    0.80    0.60
   6   0  12   -0.30    0.70
   6   0  12    0.20    0.50
   7  -1 -12   40.10    1.90
   7  -1 -12   40.70    1.90
  -7   1  12   47.30    2.10
   6  -1 -12    7.30    1.00
   6  -1 -12    8.30    1.00
  -6   1  12    9.20    1.10
   5  -1 -12   24.10    1.30
   5  -1 -12   20.90    1.20
  -5   1  12   22.90    1.50
  -5   1  12   21.10    1.20
   4  -1 -12   31.90    1.50
   4  -1 -12   30.40    1.50
  -4   1  12   31.70    1.60
  -4   1  12   31.70    1.40
   3  -1 -12    1.90    0.50
   3  -1 -12    2.50    0.60
  -3   1  12    3.10    0.90
  -3   1  12    2.30    0.50
  -3   1  12    2.50    0.70
   2  -1 -12   -0.30    0.50
   2  -1 -12    1.70    0.80
  -2   1  12    0.50    0.70
  -2   1  12    0.70    0.50
  -2   1  12    0.70    0.70
   1  -1 -12   49.90    2.10
   1  -1 -12   55.19    2.30
  -1   1  12   52.39    2.10
  -1   1  12   54.19    2.20
  -1   1  12   53.59    2.00
   0  -1 -12   15.50    1.10
   0  -1 -12   14.10    1.50
   0   1  12   14.30    1.00
   0   1  12   14.80    1.20
  -1  -1 -12    8.40    0.80
   1   1  12    8.10    1.00
   1   1  12    9.00    0.80
  -2  -1 -12    0.60    0.40
   2   1  12    0.60    0.50
   2   1  12    0.50    0.40
  -3  -1 -12    2.90    0.50
   3   1  12    2.70    0.50
   3   1  12    3.20    0.50
  -4  -1 -12    6.60    0.90
   4   1  12    4.60    0.60
   4   1  12    5.80    0.70
  -5  -1 -12    0.40    0.50
   5   1  12    1.20    0.60
   5   1  12    1.80    0.60
  -6  -1 -12    3.70    0.70
   6   1  12    5.00    0.70
   6   1  12    4.70    0.70
   7  -2 -12    1.70    0.60
   7  -2 -12    0.60    0.60
  -7   2  12    3.00    0.90
   6  -2 -12    2.40    0.60
   6  -2 -12    2.90    0.60
  -6   2  12    3.70    0.80
   5  -2 -12    6.20    0.90
   5  -2 -12    4.00    0.60
  -5   2  12    4.50    0.80
   4  -2 -12    1.60    0.60
   4  -2 -12    1.20    0.50
  -4   2  12    1.80    0.60
  -4   2  12    1.50    0.60
   3  -2 -12    1.90    0.50
  -3   2  12    0.50    1.00
  -3   2  12    1.90    0.60
  -3   2  12    2.40    0.90
   2  -2 -12    9.70    0.90
   2  -2 -12    9.10    1.10
  -2   2  12    9.40    1.20
  -2   2  12    9.60    1.40
  -2   2  12    9.50    0.90
   1  -2 -12    3.80    0.60
   1  -2 -12    6.50    1.00
  -1   2  12    6.10    0.90
  -1   2  12    6.80    0.90
  -1   2  12    5.30    0.70
   0  -2 -12   -0.30    0.80
   0  -2 -12    0.10    0.50
   0   2  12    0.50    0.60
   0   2  12    1.00    0.70
   0   2  12    0.70    0.40
  -1  -2 -12   20.70    1.30
   1   2  12   22.20    1.20
   1   2  12   15.70    1.40
   1   2  12   20.60    1.10
  -2  -2 -12   21.70    1.20
   2   2  12   20.40    1.20
   2   2  12   20.70    1.10
  -3  -2 -12    0.50    0.40
   3   2  12   -0.90    0.40
   3   2  12   -0.20    0.50
  -4  -2 -12    1.50    0.60
   4   2  12    0.40    0.60
   4   2  12    0.30    0.50
  -5  -2 -12    1.70    0.60
   5   2  12    0.60    0.60
   5   2  12    0.50    0.60
   6  -3 -12   29.20    1.60
   6  -3 -12   28.60    1.60
  -6   3  12   28.60    1.80
   5  -3 -12    6.50    0.90
   5  -3 -12    8.10    1.00
  -5   3  12    8.10    1.20
   4  -3 -12   33.10    1.60
   4  -3 -12   30.20    1.50
  -4   3  12   30.70    1.70
   3  -3 -12   10.10    1.10
   3  -3 -12    7.40    0.90
  -3   3  12    8.10    1.00
  -3   3  12    7.20    1.10
   2  -3 -12   23.20    1.40
   2  -3 -12   26.60    1.80
  -2   3  12   32.60    2.20
  -2   3  12   25.80    1.30
   1  -3 -12   34.10    1.70
   1  -3 -12   43.30    2.40
  -1   3  12   36.10    1.60
  -1   3  12   40.90    2.10
  -1   3  12   34.50    1.70
   0  -3 -12    9.90    1.00
   0   3  12   10.30    1.10
   0   3  12   12.70    0.90
   0   3  12   13.00    1.10
  -1  -3 -12    4.20    0.70
   1   3  12    4.60    0.70
   1   3  12    4.20    0.70
   1   3  12    3.60    0.60
  -2  -3 -12    3.20    0.70
   2   3  12    3.40    0.60
   2   3  12    4.20    0.70
   2   3  12    3.20    0.60
  -3  -3 -12    6.90    0.90
   3   3  12    9.30    1.00
   3   3  12    7.40    0.90
  -4  -3 -12    1.60    0.60
   4   3  12    0.30    0.60
   4   3  12    0.70    0.60
   6  -4 -12   -0.30    0.60
   6  -4 -12   -0.20    0.60
  -6   4  12   -0.70    0.80
   5  -4 -12   39.00    1.80
   5  -4 -12   35.20    1.80
  -5   4  12   36.00    1.90
   4  -4 -12   -0.20    0.60
   4  -4 -12   -0.80    0.50
  -4   4  12   -0.60    0.70
   3  -4 -12    0.60    0.60
   3  -4 -12    0.30    0.70
  -3   4  12   -0.40    0.70
   2  -4 -12    0.80    0.60
  -2   4  12    0.00    0.60
  -2   4  12    1.30    0.60
  -2   4  12    0.90    1.10
   1  -4 -12   40.10    2.20
   1  -4 -12   39.00    1.80
  -1   4  12   36.10    1.90
  -1   4  12   36.60    1.70
   0  -4 -12   17.20    1.20
   0   4  12   15.90    1.30
   0   4  12   15.90    1.30
   0   4  12   13.90    1.30
   0   4  12   15.30    1.00
  -1  -4 -12    3.00    0.70
   1   4  12    4.20    0.80
   1   4  12    4.40    0.80
   1   4  12    6.00    0.70
  -2  -4 -12    0.70    0.70
   2   4  12    2.30    0.70
   2   4  12    1.20    0.60
  -3  -4 -12    0.80    0.70
   3   4  12    2.10    0.70
   3   4  12    2.10    0.60
   5  -5 -12   17.20    1.40
   5  -5 -12   16.40    1.30
  -5   5  12   14.80    1.50
   4  -5 -12    5.40    0.90
   4  -5 -12    5.70    0.90
  -4   5  12    5.40    1.00
   3  -5 -12    8.90    1.20
   3  -5 -12    9.30    1.20
  -3   5  12    7.60    1.00
   2  -5 -12   18.10    1.30
  -2   5  12   18.40    1.40
  -2   5  12   21.40    2.50
   1  -5 -12    0.00    0.60
  -1   5  12    0.60    0.90
  -1   5  12    0.70    0.60
  -1   5  12   -0.30    0.70
   0  -5 -12    0.10    0.50
   0   5  12   -0.30    0.50
   0   5  12    0.40    0.50
   0   5  12    1.30    0.80
  -1  -5 -12    1.50    0.60
   1   5  12    1.50    0.80
   1   5  12    3.40    0.60
   1   5  12    5.60    0.90
  -2  -5 -12    1.50    0.70
   2   5  12    1.90    0.60
   2   5  12    1.00    0.80
   3  -6 -12   -0.40    0.60
   3  -6 -12   -1.10    0.80
  -3   6  12   -1.00    0.70
   2  -6 -12   16.40    1.50
   2  -6 -12   13.50    1.60
  -2   6  12   13.20    1.30
   1  -6 -12    3.00    1.10
  -1   6  12    6.70    1.10
  -1   6  12    4.50    1.00
   0  -6 -12    9.30    1.20
   0   6  12   12.70    1.10
   0   6  12    9.60    1.10
   1  10 -13   15.00    1.50
  -1 -10  13   15.00    1.20
   0  10 -13    7.70    1.10
   0  10 -13    8.30    1.00
   0 -10  13    8.90    1.10
   0 -10  13    9.20    1.00
   1 -10  13    1.70    0.80
   1 -10  13    1.80    0.60
  -2  10 -13    0.10    0.60
   2 -10  13    0.30    0.70
   2 -10  13    0.30    0.60
  -3  10 -13   -0.60    0.60
   3 -10  13   -0.30    0.60
   3 -10  13    0.70    0.70
   3   9 -13   22.50    1.80
   3   9 -13   25.40    1.70
  -3  -9  13   24.70    1.50
   2   9 -13    3.40    0.90
   2   9 -13    3.80    0.90
   1   9 -13    6.20    0.90
   1   9 -13    8.10    1.10
   1   9 -13    8.20    1.10
  -1  -9  13    6.60    0.70
  -1  -9  13    6.40    1.00
   0   9 -13    5.80    0.90
   0   9 -13    4.90    0.70
   0  -9  13    4.50    0.70
   0  -9  13    4.70    0.80
  -1   9 -13   -0.50    0.50
   1  -9  13    1.00    0.50
   1  -9  13    1.30    0.60
  -2   9 -13    0.70    0.60
   2  -9  13    0.50    0.70
   2  -9  13    0.30    0.40
  -3   9 -13    1.90    0.60
   3  -9  13    0.60    0.60
   3  -9  13    1.00    0.50
  -4   9 -13    0.20    0.60
   4  -9  13    1.20    0.60
   4  -9  13    1.80    0.60
   4   8 -13   14.50    1.40
   4   8 -13   12.00    1.50
  -4  -8  13   11.00    1.10
   3   8 -13    9.60    1.30
   3   8 -13    6.30    0.90
  -3  -8  13    7.10    0.90
   2   8 -13    5.40    0.90
   2   8 -13    4.20    0.90
   2   8 -13    5.90    0.90
  -2  -8  13    4.90    1.00
   1   8 -13    4.10    0.60
   1   8 -13    5.20    0.90
   1   8 -13    5.60    1.40
  -1  -8  13    5.00    1.40
  -1  -8  13    4.20    0.70
   0   8 -13    0.90    0.50
   0   8 -13    0.80    0.90
   0  -8  13    0.90    0.50
   0  -8  13    1.80    0.70
  -1   8 -13    0.90    0.50
   1  -8  13    1.30    0.60
   1  -8  13    1.20    0.50
  -2   8 -13    0.00    0.50
   2  -8  13    0.20    0.50
   2  -8  13    0.20    0.60
  -3   8 -13    0.40    0.50
   3  -8  13    0.70    0.50
   3  -8  13    0.10    0.50
  -4   8 -13    1.70    0.60
   4  -8  13    2.30    0.60
   4  -8  13    1.00    0.50
  -5   8 -13    0.20    0.60
   5  -8  13    0.60    0.50
   5  -8  13    0.30    0.50
   5   7 -13    5.50    1.00
   5   7 -13    3.50    0.80
  -5  -7  13    4.10    1.00
   4   7 -13   23.60    1.60
   4   7 -13   25.30    1.60
  -4  -7  13   25.50    1.40
   3   7 -13   25.90    1.60
   3   7 -13   21.70    1.50
  -3  -7  13   21.40    1.30
   2   7 -13   18.30    1.30
   2   7 -13   23.90    1.50
   2   7 -13   20.90    1.30
  -2  -7  13   20.70    2.20
  -2  -7  13   15.50    1.10
   1   7 -13    2.80    0.80
   1   7 -13    2.20    1.00
   1   7 -13    2.30    0.60
  -1  -7  13    2.30    0.50
  -1  -7  13    2.20    0.90
   0   7 -13   -0.20    1.10
   0   7 -13    0.20    0.50
   0   7 -13    0.10    0.80
   0  -7  13    0.60    1.20
   0  -7  13    0.30    0.50
  -1   7 -13   13.70    1.00
   1  -7  13   12.20    1.10
   1  -7  13   12.50    0.90
  -2   7 -13    8.20    0.90
   2  -7  13    7.20    0.80
   2  -7  13    8.00    1.00
  -3   7 -13    2.60    0.60
   3  -7  13    2.40    0.50
   3  -7  13    3.00    0.60
  -4   7 -13   11.70    1.20
   4  -7  13   12.30    1.10
   4  -7  13   12.50    1.10
  -5   7 -13    1.30    0.60
   5  -7  13    0.20    0.50
   5  -7  13    1.50    0.50
  -6   7 -13    0.10    0.60
   6  -7  13    0.20    0.50
   6  -7  13   -0.20    0.50
   5   6 -13    0.60    0.80
   5   6 -13    0.70    0.70
  -5  -6  13    0.20    0.60
   4   6 -13    0.40    0.70
   4   6 -13   -0.60    0.60
  -4  -6  13   -0.70    0.50
   3   6 -13   20.90    1.40
   3   6 -13   22.30    1.50
   3   6 -13   23.30    1.40
  -3  -6  13   22.00    1.20
   2   6 -13   12.70    1.10
   2   6 -13    9.50    1.40
   2   6 -13   10.90    1.60
  -2  -6  13   10.40    0.90
  -2  -6  13   10.00    1.20
   1   6 -13   23.50    1.70
   1   6 -13   21.70    1.50
   1   6 -13   22.10    1.20
  -1  -6  13   23.20    1.70
  -1  -6  13   21.10    1.20
   0   6 -13   55.19    2.20
   0   6 -13   53.49    2.10
   0   6 -13   57.29    2.60
   0  -6  13   55.59    2.40
  -1   6 -13   -0.10    0.40
   1  -6  13    0.40    0.50
   1  -6  13    0.00    0.40
  -2   6 -13    6.80    0.90
   2  -6  13    8.30    0.90
   2  -6  13    7.90    0.80
  -3   6 -13    0.70    0.50
   3  -6  13    0.50    0.50
   3  -6  13    1.40    0.50
  -4   6 -13    0.10    0.50
   4  -6  13    0.10    0.50
  -5   6 -13    1.90    0.60
   5  -6  13    1.50    0.50
   5  -6  13    1.80    0.60
  -6   6 -13   25.70    1.50
   6  -6  13   25.90    1.40
   6  -6  13   29.00    1.40
   6   5 -13    3.00    0.80
   6   5 -13    3.70    0.90
  -6  -5  13    3.10    0.70
   5   5 -13    5.40    0.90
   5   5 -13    5.10    0.80
  -5  -5  13    5.40    0.70
   4   5 -13    5.10    0.80
   4   5 -13    4.70    0.80
   4   5 -13    5.30    0.80
  -4  -5  13    4.90    0.70
   3   5 -13    2.90    0.70
   3   5 -13    3.50    0.70
   3   5 -13    3.70    0.80
  -3  -5  13    3.80    0.60
   2   5 -13    7.40    1.00
   2   5 -13    8.20    1.30
  -2  -5  13    6.70    0.80
  -2  -5  13    6.90    1.00
   1   5 -13  109.39    4.00
   1   5 -13  105.69    3.70
   1   5 -13  109.39    3.70
  -1  -5  13  105.09    3.70
  -1  -5  13  105.49    3.90
   0   5 -13    7.30    1.10
   0   5 -13    7.60    0.80
   0  -5  13    6.90    0.80
   0  -5  13    6.30    0.80
  -1   5 -13   18.60    1.10
   1  -5  13   16.50    1.00
   1  -5  13   18.80    1.10
  -2   5 -13   15.90    1.00
   2  -5  13   14.40    0.90
   2  -5  13   14.60    1.10
  -3   5 -13    0.30    0.40
   3  -5  13   -0.30    0.40
   3  -5  13   -0.10    0.50
  -4   5 -13   -0.50    0.40
   4  -5  13    0.30    0.40
   4  -5  13    0.00    0.40
  -5   5 -13   12.10    1.10
   5  -5  13   12.60    1.00
   5  -5  13   14.60    1.00
  -6   5 -13    0.80    0.80
   6  -5  13    1.10    0.50
   6  -5  13    1.00    0.50
   6   4 -13   14.30    1.50
   6   4 -13   14.80    1.30
  -6  -4  13   16.50    1.20
   5   4 -13   -1.30    0.60
   5   4 -13   -0.30    0.70
  -5  -4  13   -0.10    0.50
   4   4 -13    9.30    1.10
   4   4 -13   10.20    1.10
  -4  -4  13   10.30    0.90
   3   4 -13   22.30    1.40
   3   4 -13   22.80    1.50
  -3  -4  13   21.80    1.20
  -3  -4  13   22.40    2.80
   2   4 -13    1.20    0.40
   2   4 -13    1.00    0.80
   2   4 -13    1.00    0.70
  -2  -4  13   -0.10    0.40
  -2  -4  13    0.80    0.70
   1   4 -13    3.20    0.70
   1   4 -13    2.90    0.90
   1   4 -13    3.20    0.50
  -1  -4  13    2.90    0.80
  -1  -4  13    2.80    0.50
   0   4 -13    0.10    0.80
   0   4 -13    0.50    0.40
   0  -4  13    0.20    0.40
   0  -4  13    2.50    1.20
  -1   4 -13    2.00    0.50
   1  -4  13    0.80    0.60
   1  -4  13    1.20    0.40
  -2   4 -13   72.39    2.70
   2  -4  13   70.69    2.60
   2  -4  13   75.59    2.70
  -3   4 -13   60.09    2.40
   3  -4  13   60.49    2.30
   3  -4  13   64.69    2.40
  -4   4 -13   58.99    2.40
   4  -4  13   60.09    2.30
   4  -4  13   60.89    2.40
  -5   4 -13   -0.80    0.60
   5  -4  13    0.90    0.40
   5  -4  13   -0.60    0.50
  -6   4 -13    0.30    0.60
   6  -4  13    1.20    0.60
   6  -4  13    0.60    0.60
   7   3 -13    0.10    0.60
   7   3 -13   -1.10    0.80
  -7  -3  13    0.70    0.60
   6   3 -13    0.90    0.60
   6   3 -13    0.50    0.80
   6   3 -13    1.00    0.60
  -6  -3  13    0.50    0.60
   5   3 -13   11.20    1.30
   5   3 -13   12.90    1.00
   5   3 -13   11.80    1.10
  -5  -3  13   11.80    1.00
   4   3 -13   16.80    1.20
   4   3 -13   16.80    1.10
   4   3 -13   17.60    1.20
  -4  -3  13   17.00    1.10
   3   3 -13   21.70    1.50
   3   3 -13   17.80    1.20
  -3  -3  13   18.60    1.10
  -3  -3  13   18.90    1.70
   2   3 -13    0.70    0.50
   2   3 -13    1.30    0.80
   2   3 -13   -0.10    0.70
  -2  -3  13    2.00    0.90
  -2  -3  13    1.50    0.50
   1   3 -13    1.00    0.40
   1   3 -13    0.30    0.80
  -1  -3  13    0.50    0.40
  -1  -3  13    0.80    0.60
   0   3 -13   14.50    1.50
   0   3 -13   11.70    0.90
   0  -3  13   13.00    1.20
   0  -3  13   13.80    0.90
  -1   3 -13    9.50    0.80
   1  -3  13    8.90    0.80
   1  -3  13   10.30    1.40
  -2   3 -13    0.00    0.50
   2  -3  13    0.30    0.40
   2  -3  13   -0.10    0.40
  -3   3 -13   58.09    2.30
   3  -3  13   60.49    2.30
   3  -3  13   58.89    2.20
  -4   3 -13   24.50    1.40
   4  -3  13   26.60    1.30
   4  -3  13   29.60    1.40
  -5   3 -13    0.70    0.50
   5  -3  13    1.40    0.50
   5  -3  13    1.30    0.50
  -6   3 -13   14.10    1.20
   6  -3  13   16.10    1.20
   6  -3  13   15.20    1.20
   7   2 -13    8.70    1.40
   7   2 -13    5.40    0.80
  -7  -2  13    6.50    0.80
   6   2 -13    8.80    1.10
   6   2 -13   12.90    1.40
   6   2 -13   11.20    1.10
  -6  -2  13    9.70    1.00
   5   2 -13   17.50    1.20
   5   2 -13   19.60    1.40
   5   2 -13   16.70    1.20
  -5  -2  13   15.40    1.10
   4   2 -13    3.30    0.60
   4   2 -13    3.50    0.70
   4   2 -13    3.80    0.60
  -4  -2  13    3.50    0.60
   3   2 -13   -0.80    0.70
   3   2 -13   -0.40    0.40
  -3  -2  13   -0.20    0.80
  -3  -2  13    0.30    0.40
   2   2 -13   19.60    1.20
   2   2 -13   22.40    1.60
  -2  -2  13   21.30    1.10
  -2  -2  13   22.20    1.40
  -2  -2  13   21.50    1.50
   1   2 -13   -0.50    0.40
   1   2 -13    0.50    0.80
  -1  -2  13   -0.30    0.70
  -1  -2  13   -0.40    0.60
  -1  -2  13    0.30    0.40
   0   2 -13   18.60    1.10
   0   2 -13   20.40    1.60
   0  -2  13   20.70    1.10
   0  -2  13   22.40    1.40
  -1   2 -13   31.80    1.50
   1  -2  13   34.10    1.70
   1  -2  13   33.30    1.40
  -2   2 -13   46.20    1.90
   2  -2  13   47.10    1.80
   2  -2  13   49.80    1.90
  -3   2 -13    1.40    0.50
   3  -2  13    1.30    0.50
   3  -2  13    0.50    0.40
  -4   2 -13    2.30    0.50
   4  -2  13    2.60    0.50
   4  -2  13    3.00    0.50
  -5   2 -13    3.80    0.70
   5  -2  13    4.10    0.60
   5  -2  13    3.70    0.60
  -6   2 -13    3.30    0.70
   6  -2  13    3.30    0.50
   6  -2  13    3.50    0.60
   7   1 -13    7.30    1.00
   7   1 -13   11.00    1.50
   7   1 -13    7.60    0.90
  -7  -1  13    7.10    0.80
   6   1 -13    4.30    0.80
   6   1 -13    4.20    0.70
   6   1 -13    2.00    0.60
  -6  -1  13    2.90    0.60
   5   1 -13    7.30    1.00
   5   1 -13   10.60    1.00
  -5  -1  13    8.50    0.90
   4   1 -13    0.50    0.40
   4   1 -13    0.30    0.60
  -4  -1  13    0.00    0.40
  -4  -1  13    1.10    0.60
   3   1 -13   -0.80    0.50
  -3  -1  13   -0.40    0.40
  -3  -1  13    0.40    0.90
  -3  -1  13    1.30    0.70
   2   1 -13   17.50    1.20
   2   1 -13   20.30    1.50
  -2  -1  13   19.60    1.50
  -2  -1  13   18.30    1.30
  -2  -1  13   20.30    1.00
   1   1 -13   24.60    1.70
   1   1 -13   23.60    1.30
  -1  -1  13   24.60    1.50
  -1  -1  13   24.00    1.10
  -1  -1  13   23.10    1.30
   0   1 -13    4.60    1.00
   0   1 -13    4.90    0.70
   0  -1  13    6.00    0.70
   0  -1  13    4.90    0.70
  -1   1 -13    2.00    0.50
   1  -1  13    2.80    0.50
   1  -1  13    2.20    0.60
  -2   1 -13    0.70    0.40
   2  -1  13    1.20    0.50
   2  -1  13    1.20    0.50
  -3   1 -13    9.00    0.90
   3  -1  13    9.50    0.80
   3  -1  13    9.10    0.90
  -4   1 -13   15.30    1.10
   4  -1  13   14.40    1.00
   4  -1  13   13.70    1.00
  -5   1 -13    1.00    0.60
   5  -1  13   -0.30    0.40
   5  -1  13    0.40    0.50
  -6   1 -13    3.50    0.70
   6  -1  13    2.70    0.60
   6  -1  13    3.00    0.70
   7   0 -13   -0.30    0.70
   7   0 -13    1.20    0.50
   6   0 -13   -1.30    0.50
   6   0 -13   -0.60    0.60
  -6   0  13    0.00    0.50
   5   0 -13   16.50    1.20
   5   0 -13   17.10    1.20
  -5   0  13   17.40    1.20
  -5   0  13   17.30    1.10
   4   0 -13   13.10    1.10
   4   0 -13   12.10    1.00
  -4   0  13   13.30    1.20
   3   0 -13    0.10    0.70
   3   0 -13    0.60    0.50
  -3   0  13    0.90    0.80
  -3   0  13    0.60    0.90
   2   0 -13   62.79    2.50
   2   0 -13   68.09    2.70
  -2   0  13   64.99    2.50
  -2   0  13   64.49    2.70
  -2   0  13   65.09    2.40
   1   0 -13   13.10    1.50
   1   0 -13   11.50    1.00
  -1   0  13   12.50    0.80
  -1   0  13   11.20    1.10
  -1   0  13   13.10    1.70
   0   0 -13    1.70    0.40
   0   0 -13    0.20    1.00
   0   0  13    1.50    0.70
   0   0  13    1.30    0.40
  -1   0 -13    1.50    0.40
   1   0  13    1.30    0.50
   1   0  13    0.40    0.40
  -2   0 -13   50.49    2.10
   2   0  13   55.59    2.10
   2   0  13   56.09    2.20
  -3   0 -13    2.00    0.50
   3   0  13    2.00    0.60
   3   0  13    1.50    0.50
  -4   0 -13    0.30    0.50
   4   0  13    1.20    0.50
   4   0  13    0.00    0.50
  -5   0 -13    2.40    0.60
   5   0  13    1.80    0.60
   5   0  13    1.20    0.80
   6  -1 -13   27.20    1.50
   6  -1 -13   26.20    1.50
  -6   1  13   26.10    1.80
   5  -1 -13  104.39    3.70
   5  -1 -13  100.49    3.60
  -5   1  13  101.09    3.50
  -5   1  13   99.19    3.70
   4  -1 -13   21.20    1.30
   4  -1 -13   24.90    1.40
  -4   1  13   22.30    1.30
  -4   1  13   23.10    1.50
   3  -1 -13    4.90    0.70
   3  -1 -13    7.20    1.00
  -3   1  13    6.40    0.70
   2  -1 -13   -0.60    1.10
   2  -1 -13   -0.90    0.50
  -2   1  13    0.40    0.70
  -2   1  13    0.90    0.80
   1  -1 -13    7.30    1.10
   1  -1 -13    7.20    0.90
  -1   1  13    8.00    0.90
  -1   1  13    9.10    0.80
  -1   1  13    7.40    1.10
   0  -1 -13    6.70    1.00
   0  -1 -13    8.60    1.30
   0   1  13    6.90    1.10
   0   1  13    6.50    0.80
  -1  -1 -13   61.89    2.40
   1   1  13   64.39    2.30
   1   1  13   63.99    2.50
  -2  -1 -13   15.20    1.00
   2   1  13   14.20    1.00
   2   1  13   17.00    1.10
  -3  -1 -13    0.50    0.50
   3   1  13    0.40    0.50
   3   1  13    0.90    0.50
  -4  -1 -13   11.40    1.10
   4   1  13   10.20    1.00
   4   1  13   10.80    1.10
  -5  -1 -13    3.80    0.70
   5   1  13    3.20    0.60
   5   1  13    4.50    0.90
   6  -2 -13    2.30    0.80
   6  -2 -13    2.70    0.70
  -6   2  13    2.10    0.90
   5  -2 -13   12.80    1.10
   5  -2 -13   15.20    1.20
  -5   2  13   12.70    1.40
   4  -2 -13    1.40    0.60
   4  -2 -13    1.30    0.60
  -4   2  13    1.20    0.70
  -4   2  13    1.40    0.70
   3  -2 -13   11.10    1.00
   3  -2 -13   11.50    1.10
  -3   2  13   11.00    1.10
  -3   2  13   10.10    1.10
   2  -2 -13    2.70    0.60
   2  -2 -13    2.50    0.80
  -2   2  13    2.30    0.90
  -2   2  13    3.40    1.00
  -2   2  13    2.60    0.80
   1  -2 -13   -0.70    0.50
   1  -2 -13   -0.50    0.80
  -1   2  13    0.10    0.80
  -1   2  13    0.10    0.70
  -1   2  13    0.10    0.40
   0  -2 -13    5.40    0.80
   0   2  13    5.90    0.80
   0   2  13    6.80    1.00
  -1  -2 -13   94.29    3.60
   1   2  13   97.49    3.60
   1   2  13  102.89    3.40
  -2  -2 -13   13.40    1.30
   2   2  13   13.30    1.10
   2   2  13   13.10    1.00
  -3  -2 -13    9.40    1.20
   3   2  13    6.00    0.80
   3   2  13    6.30    0.70
  -4  -2 -13    1.30    0.50
   4   2  13   -0.20    0.60
   4   2  13   -0.50    0.70
   5  -3 -13    0.70    0.70
   5  -3 -13   -0.30    0.60
  -5   3  13    0.10    0.80
   4  -3 -13   16.80    1.30
   4  -3 -13   14.30    1.20
  -4   3  13   14.00    1.30
   3  -3 -13    3.70    0.70
  -3   3  13    5.60    0.90
  -3   3  13    4.00    0.80
   2  -3 -13   12.10    1.10
   2  -3 -13   12.40    1.90
  -2   3  13   14.70    1.70
  -2   3  13   10.80    1.20
  -2   3  13   13.20    1.30
   1  -3 -13   32.80    2.10
   1  -3 -13   34.00    1.70
  -1   3  13   33.80    1.40
  -1   3  13   34.00    1.80
   0  -3 -13   -0.70    0.50
   0   3  13    0.20    0.70
   0   3  13    0.50    0.90
   0   3  13   -0.70    0.50
  -1  -3 -13   13.90    1.20
   1   3  13   14.20    1.20
   1   3  13   12.70    1.00
  -2  -3 -13   -0.50    0.60
   2   3  13    0.00    0.50
   2   3  13    0.20    0.70
   2   3  13   -0.20    0.60
  -3  -3 -13    8.30    1.00
   3   3  13    9.30    1.20
   3   3  13    9.10    1.00
   5  -4 -13    1.80    0.70
   5  -4 -13    2.20    0.80
  -5   4  13    1.80    0.90
   4  -4 -13   -0.90    0.70
   4  -4 -13   -0.20    0.60
  -4   4  13   -0.50    0.70
   3  -4 -13   24.40    1.60
   3  -4 -13   23.30    1.50
  -3   4  13   22.70    1.60
   2  -4 -13   22.00    1.60
   2  -4 -13   23.30    1.60
  -2   4  13   21.80    1.40
   1  -4 -13    0.00    0.60
  -1   4  13    0.40    0.70
  -1   4  13    0.10    0.50
  -1   4  13    0.50    0.80
  -1   4  13   -0.10    0.60
   0  -4 -13    0.10    0.60
   0   4  13   -1.10    0.80
   0   4  13   -0.70    0.50
   0   4  13   -1.00    0.60
  -1  -4 -13   11.40    1.30
   1   4  13   15.50    1.40
   1   4  13   14.20    1.10
  -2  -4 -13   16.20    1.50
   2   4  13   21.40    1.50
   2   4  13   17.10    1.20
   3  -5 -13   24.20    1.50
   3  -5 -13   24.20    1.70
  -3   5  13   20.90    1.60
   2  -5 -13    9.70    1.50
   2  -5 -13    8.20    1.20
  -2   5  13    8.10    1.00
   1  -5 -13   13.40    1.40
  -1   5  13   16.00    1.20
  -1   5  13   12.50    1.60
   0  -5 -13    8.10    1.10
   0   5  13    7.70    1.00
   0   5  13    7.90    1.00
   2   9 -14   17.50    1.50
   2   9 -14   13.90    1.70
  -2  -9  14   13.00    1.20
   1   9 -14   33.60    1.70
   1   9 -14   38.90    1.90
  -1  -9  14   34.30    2.00
  -1  -9  14   32.10    1.70
   0   9 -14    3.60    0.70
   0  -9  14    3.20    0.80
   0  -9  14    4.20    0.90
  -1   9 -14   10.70    1.10
   1  -9  14   11.00    1.10
   1  -9  14   11.80    1.40
  -2   9 -14    1.80    0.70
   2  -9  14    2.40    0.80
   2  -9  14    2.50    0.60
  -3   9 -14    0.60    0.70
   3  -9  14    0.90    0.50
   3  -9  14   -0.10    0.60
   3   8 -14    8.30    1.10
   3   8 -14    7.30    1.00
  -3  -8  14    6.00    0.80
   2   8 -14    0.00    0.80
   2   8 -14    2.80    1.00
  -2  -8  14    0.10    0.60
   1   8 -14   -0.40    0.50
   1   8 -14    3.90    1.50
   1   8 -14    0.10    0.80
  -1  -8  14   -1.10    0.80
  -1  -8  14   -0.90    0.50
   0   8 -14    1.00    0.60
   0  -8  14    1.20    0.60
   0  -8  14    0.20    0.70
  -1   8 -14   10.30    1.10
   1  -8  14    9.30    1.20
   1  -8  14   11.70    1.00
  -2   8 -14    0.00    0.60
   2  -8  14   -0.20    0.50
   2  -8  14    0.00    0.60
  -3   8 -14    2.40    0.60
   3  -8  14    2.50    0.60
   3  -8  14    3.00    0.70
  -4   8 -14    1.20    0.60
   4  -8  14    0.50    0.60
   4  -8  14    1.30    0.60
   4   7 -14    1.40    0.90
   4   7 -14    1.40    0.70
  -4  -7  14    1.30    0.70
   3   7 -14    2.20    0.80
   3   7 -14    0.70    0.80
  -3  -7  14    0.50    0.60
   2   7 -14    4.60    0.80
   2   7 -14    2.30    0.80
   2   7 -14    3.10    0.50
  -2  -7  14    3.20    0.70
   1   7 -14    4.40    0.60
   1   7 -14    4.90    1.30
   1   7 -14    4.60    1.00
  -1  -7  14    4.00    1.30
  -1  -7  14    4.50    0.60
   0   7 -14    9.50    1.00
   0  -7  14    9.40    0.90
   0  -7  14    9.50    1.20
  -1   7 -14    0.30    0.50
   1  -7  14    0.50    0.60
   1  -7  14    0.20    0.40
  -2   7 -14   14.70    1.10
   2  -7  14   14.30    1.20
   2  -7  14   14.30    1.00
  -3   7 -14    0.30    0.60
   3  -7  14    1.10    0.60
   3  -7  14    0.60    0.50
  -4   7 -14   -0.10    0.50
   4  -7  14   -0.10    0.50
   4  -7  14   -1.00    0.50
  -5   7 -14    7.80    1.10
   5  -7  14    7.70    1.00
   5  -7  14    9.40    1.00
   5   6 -14   12.80    1.50
   5   6 -14   12.60    1.30
  -5  -6  14   13.50    1.20
   4   6 -14    9.60    1.30
   4   6 -14    9.20    1.40
  -4  -6  14    9.70    1.10
   3   6 -14    5.50    0.80
   3   6 -14    5.80    0.90
   3   6 -14    4.10    0.70
  -3  -6  14    5.60    0.70
   2   6 -14    1.60    0.50
   2   6 -14    2.60    1.00
   2   6 -14    2.80    0.80
  -2  -6  14    0.90    0.60
  -2  -6  14    1.60    1.00
   1   6 -14   38.40    2.00
   1   6 -14   39.50    2.40
   1   6 -14   38.30    1.70
  -1  -6  14   38.10    2.20
  -1  -6  14   36.60    1.70
   0   6 -14   26.10    1.30
   0  -6  14   24.90    1.30
   0  -6  14   26.10    1.50
  -1   6 -14    3.40    0.60
   1  -6  14    4.30    0.60
   1  -6  14    4.40    0.60
  -2   6 -14    3.30    0.60
   2  -6  14    3.20    0.60
   2  -6  14    3.20    0.50
  -3   6 -14    3.50    0.60
   3  -6  14    4.30    0.60
   3  -6  14    3.60    0.70
  -4   6 -14    2.90    0.60
   4  -6  14    4.20    0.80
   4  -6  14    3.50    0.60
  -5   6 -14    9.50    1.10
   5  -6  14   11.90    1.00
   5  -6  14   11.10    1.00
   5   5 -14   10.70    1.40
   5   5 -14    8.80    1.00
  -5  -5  14    6.50    0.90
   4   5 -14    3.60    0.80
   4   5 -14    5.30    0.80
   4   5 -14    3.90    0.60
  -4  -5  14    3.40    0.70
   3   5 -14    0.60    0.70
   3   5 -14    1.80    0.70
   3   5 -14    0.30    0.60
  -3  -5  14    0.60    0.50
   2   5 -14   -0.20    1.50
   2   5 -14    0.80    0.40
   2   5 -14    0.80    0.90
  -2  -5  14    0.70    0.70
  -2  -5  14   -0.10    0.50
   1   5 -14   26.60    1.40
   1   5 -14   29.80    2.00
   1   5 -14   29.70    2.00
  -1  -5  14   28.60    1.40
   0   5 -14    5.10    0.60
   0   5 -14    6.00    1.20
   0  -5  14    5.90    0.60
   0  -5  14    5.00    0.80
  -1   5 -14    4.20    0.60
   1  -5  14    3.40    0.50
   1  -5  14    3.10    0.60
  -2   5 -14    0.40    0.50
   2  -5  14    0.40    0.60
   2  -5  14    0.70    0.50
  -3   5 -14    3.10    0.60
   3  -5  14    2.50    0.50
   3  -5  14    2.10    0.60
  -4   5 -14   21.00    1.30
   4  -5  14   22.80    1.30
   4  -5  14   24.50    1.30
  -5   5 -14   35.10    2.00
   5  -5  14   35.00    1.60
   5  -5  14   31.70    1.60
   6   4 -14    1.60    0.90
   6   4 -14    1.60    0.70
  -6  -4  14    2.10    0.70
   5   4 -14    1.60    0.70
   5   4 -14    1.70    0.80
   5   4 -14    2.30    0.60
  -5  -4  14    2.50    0.70
   4   4 -14    7.70    1.20
   4   4 -14    7.80    1.20
   4   4 -14    7.00    0.70
  -4  -4  14    7.00    0.80
   3   4 -14    2.40    0.70
   3   4 -14    0.80    0.60
  -3  -4  14    1.00    0.50
   2   4 -14    5.00    1.10
   2   4 -14    4.30    0.90
   2   4 -14    4.20    0.70
  -2  -4  14    4.30    0.60
  -2  -4  14    3.10    0.70
   1   4 -14    0.80    0.50
   1   4 -14   -0.10    0.90
  -1  -4  14    0.20    0.40
  -1  -4  14    0.70    0.80
   0   4 -14   13.50    1.80
   0   4 -14   14.20    1.00
   0  -4  14   12.00    1.40
   0  -4  14   13.00    0.90
  -1   4 -14    3.10    0.50
   1  -4  14    3.20    0.60
   1  -4  14    2.40    0.50
  -2   4 -14    1.70    0.50
   2  -4  14    2.60    0.50
   2  -4  14    1.40    0.50
  -3   4 -14   -0.40    0.50
   3  -4  14    0.40    0.50
   3  -4  14    0.70    0.50
  -4   4 -14   -0.30    0.50
   4  -4  14    0.30    0.50
   4  -4  14    0.80    0.60
  -5   4 -14    6.90    1.00
   5  -4  14    6.00    0.80
   5  -4  14    7.00    0.90
   6   3 -14    1.00    0.60
   6   3 -14    0.30    0.90
   6   3 -14    0.40    0.60
  -6  -3  14    1.20    0.70
   5   3 -14    1.50    0.60
   5   3 -14    1.30    0.70
   5   3 -14    0.70    0.80
  -5  -3  14    0.00    0.60
   4   3 -14    0.30    0.60
   4   3 -14   -0.60    0.50
   4   3 -14    1.00    0.70
  -4  -3  14   -0.60    0.50
   3   3 -14   -1.00    0.90
   3   3 -14   -0.40    0.60
   3   3 -14   -0.30    0.50
  -3  -3  14    0.50    0.50
   2   3 -14    6.00    1.00
   2   3 -14    5.50    0.70
  -2  -3  14    5.50    0.60
  -2  -3  14    6.00    1.00
   1   3 -14   33.80    2.00
   1   3 -14   32.50    1.50
  -1  -3  14   33.60    1.90
  -1  -3  14   33.40    1.40
   0   3 -14    0.40    0.50
   0   3 -14    1.00    1.00
   0  -3  14   -0.20    0.40
  -1   3 -14    0.90    0.40
   1  -3  14    0.70    0.50
   1  -3  14    0.70    0.40
  -2   3 -14    4.30    0.60
   2  -3  14    4.70    0.60
   2  -3  14    3.60    0.60
  -3   3 -14    3.40    0.60
   3  -3  14    3.50    0.50
   3  -3  14    3.80    0.60
  -4   3 -14    0.70    0.50
   4  -3  14    1.40    0.90
   4  -3  14    1.60    0.50
  -5   3 -14   17.80    1.70
   5  -3  14   20.10    1.30
   5  -3  14   20.50    1.20
   6   2 -14   14.90    1.50
   6   2 -14   11.40    1.20
   6   2 -14   15.70    1.30
  -6  -2  14   12.80    1.20
   5   2 -14   -0.30    0.60
   5   2 -14    0.30    0.60
   5   2 -14    1.30    0.80
  -5  -2  14    0.20    0.50
   4   2 -14    1.60    0.60
   4   2 -14    2.00    0.70
  -4  -2  14    1.80    0.60
   3   2 -14    8.60    1.00
   3   2 -14   10.90    1.10
  -3  -2  14   10.50    0.90
  -3  -2  14   11.10    1.40
   2   2 -14    1.90    0.90
   2   2 -14    0.80    0.60
  -2  -2  14    1.40    0.50
  -2  -2  14    2.10    0.80
  -2  -2  14    1.70    0.80
   1   2 -14    6.10    0.80
   1   2 -14    6.10    1.00
  -1  -2  14    6.20    0.80
  -1  -2  14    4.00    0.80
   0   2 -14    3.00    1.20
   0   2 -14    2.50    0.50
   0  -2  14    1.60    0.80
   0  -2  14    3.30    0.60
  -1   2 -14    3.50    0.50
   1  -2  14    5.80    0.90
   1  -2  14    5.90    0.80
  -2   2 -14   14.10    1.00
   2  -2  14   16.50    1.10
   2  -2  14   15.50    1.00
  -3   2 -14   26.80    1.40
   3  -2  14   34.00    1.50
   3  -2  14   29.30    1.40
  -4   2 -14   40.70    1.90
   4  -2  14   42.70    1.80
   4  -2  14   43.40    1.80
  -5   2 -14   22.50    1.50
   5  -2  14   22.40    1.70
   5  -2  14   18.10    1.20
   6   1 -14    2.30    0.70
   6   1 -14    2.20    0.70
  -6  -1  14    2.60    0.70
   5   1 -14    5.30    0.80
   5   1 -14    3.10    0.70
  -5  -1  14    4.50    0.60
   4   1 -14   13.60    1.20
   4   1 -14    9.60    1.00
  -4  -1  14    9.00    0.90
   3   1 -14    3.60    0.70
   3   1 -14    1.20    0.60
  -3  -1  14    1.50    1.00
  -3  -1  14    2.20    0.50
   2   1 -14    2.50    0.90
   2   1 -14    1.70    0.60
  -2  -1  14    1.50    0.80
  -2  -1  14    1.90    0.50
  -2  -1  14    2.40    0.80
   1   1 -14    3.90    0.70
   1   1 -14    4.30    1.00
  -1  -1  14    5.20    0.90
  -1  -1  14    6.10    0.80
   0   1 -14    5.80    0.80
   0  -1  14    7.90    0.80
   0  -1  14    8.90    1.00
  -1   1 -14    0.50    0.50
   1  -1  14    0.80    0.50
   1  -1  14    0.50    0.40
  -2   1 -14    2.60    0.60
   2  -1  14    3.00    0.60
   2  -1  14    2.20    0.50
  -3   1 -14   -0.10    0.50
   3  -1  14    0.50    0.50
   3  -1  14    0.00    0.50
  -4   1 -14    7.70    1.00
   4  -1  14    7.20    1.00
   4  -1  14    7.40    0.90
  -5   1 -14    1.80    0.60
   5  -1  14    1.80    0.60
   5  -1  14    0.90    0.70
   6   0 -14    6.10    0.90
   6   0 -14    5.30    0.80
   5   0 -14    0.00    0.60
   5   0 -14    0.60    0.60
  -5   0  14    1.10    0.50
  -5   0  14    0.20    0.80
   4   0 -14    0.60    0.70
   4   0 -14   -0.40    0.50
  -4   0  14    1.00    0.50
  -4   0  14    1.50    0.70
   3   0 -14    0.20    0.50
   3   0 -14   -0.90    0.70
  -3   0  14   -0.50    0.40
  -3   0  14   -0.60    0.80
   2   0 -14    2.30    1.00
   2   0 -14    1.10    0.60
  -2   0  14    2.20    0.50
  -2   0  14    1.40    0.90
  -2   0  14    1.20    0.80
   1   0 -14   -0.50    1.00
   1   0 -14   -0.60    0.50
  -1   0  14    0.60    0.50
  -1   0  14   -1.10    0.80
   0   0 -14    2.40    0.70
   0   0  14    3.10    0.60
   0   0  14    2.50    0.60
  -1   0 -14    2.70    0.60
   1   0  14    2.80    0.60
   1   0  14    3.30    0.70
  -2   0 -14    1.40    0.50
   2   0  14    0.20    0.60
   2   0  14    1.90    0.50
  -3   0 -14    1.40    0.60
   3   0  14    1.00    0.50
   3   0  14    1.40    0.60
  -4   0 -14    0.50    0.50
   4   0  14    0.60    0.50
   4   0  14   -0.70    0.50
   5  -1 -14    2.00    0.60
   5  -1 -14    1.80    0.70
  -5   1  14    1.10    0.80
   4  -1 -14    2.50    0.70
   4  -1 -14    2.80    0.70
  -4   1  14    4.00    0.60
  -4   1  14    3.20    0.80
   3  -1 -14   10.20    1.10
   3  -1 -14   14.60    1.20
  -3   1  14   12.00    0.90
  -3   1  14    9.60    1.20
   2  -1 -14    4.80    0.70
  -2   1  14    4.40    0.90
  -2   1  14    5.50    1.10
  -2   1  14    7.20    0.80
   1  -1 -14   21.50    2.00
   1  -1 -14   19.50    1.30
  -1   1  14   19.80    1.10
  -1   1  14   14.00    1.60
   0  -1 -14   -0.70    0.70
   0   1  14   -0.70    0.60
   0   1  14   -0.30    0.50
  -1  -1 -14   29.50    1.70
   1   1  14   31.20    1.40
   1   1  14   31.60    1.60
  -2  -1 -14   25.40    1.40
   2   1  14   25.90    1.30
   2   1  14   25.50    1.40
  -3  -1 -14    1.40    0.60
   3   1  14    0.60    0.50
   3   1  14    2.70    0.60
   4   1  14    7.40    0.90
   4   1  14    6.80    0.90
   5  -2 -14    1.00    0.80
   5  -2 -14    0.20    0.60
  -5   2  14    0.80    0.80
   4  -2 -14    5.30    0.80
   4  -2 -14    7.60    1.00
  -4   2  14    5.50    0.90
   3  -2 -14    1.10    0.70
   3  -2 -14   -0.60    0.50
  -3   2  14   -0.10    0.70
  -3   2  14   -1.10    0.50
   2  -2 -14    4.60    0.70
   2  -2 -14    7.30    1.10
  -2   2  14    5.50    1.10
  -2   2  14    7.00    0.80
   1  -2 -14   20.10    1.60
   1  -2 -14   20.20    2.60
  -1   2  14   20.70    1.50
  -1   2  14   20.90    1.10
   0  -2 -14   11.20    1.20
   0   2  14   12.10    1.30
   0   2  14   10.60    1.00
  -1  -2 -14    8.10    1.00
   1   2  14    9.60    1.10
   1   2  14   10.50    0.90
  -2  -2 -14    4.00    0.80
   2   2  14    5.50    0.80
   2   2  14    6.50    0.80
  -3  -2 -14   17.90    1.50
   3   2  14   21.30    1.40
   3   2  14   22.60    1.40
   3   2  14   19.70    1.30
   4  -3 -14    2.50    0.90
   4  -3 -14    0.60    0.60
  -4   3  14    0.90    0.80
   3  -3 -14    2.70    0.80
  -3   3  14    1.50    0.80
   2  -3 -14    3.40    0.70
   2  -3 -14    2.80    0.70
  -2   3  14    1.40    0.80
  -2   3  14    2.20    0.80
  -2   3  14    4.40    0.60
   1  -3 -14    0.40    0.60
  -1   3  14    0.30    0.60
  -1   3  14    1.90    0.60
   0  -3 -14    6.40    0.90
   0   3  14    8.30    1.00
   0   3  14    9.40    1.20
  -1  -3 -14   13.90    1.30
   1   3  14   13.10    1.10
   1   3  14   13.00    1.30
  -2  -3 -14    3.70    1.20
   2   3  14    4.50    0.90
   2   3  14    5.00    0.90
   2   3  14    5.10    0.70
   3  -4 -14    0.00    0.60
   2  -4 -14   -0.80    0.60
   2  -4 -14    0.90    1.00
  -2   4  14   -0.20    0.70
   1  -4 -14    2.50    0.70
  -1   4  14    3.10    0.70
  -1   4  14    2.20    0.90
  -1   4  14    2.80    0.80
   0  -4 -14   18.80    1.50
   0   4  14   22.40    1.70
   0   4  14   21.40    1.30
   2   8 -15    4.20    1.00
   2   8 -15    1.70    1.00
  -2  -8  15    2.00    0.80
   1   8 -15   10.30    1.10
  -1  -8  15    7.50    1.10
  -1  -8  15    7.20    0.90
   0   8 -15   11.40    1.10
   0  -8  15   10.20    1.20
   0  -8  15   11.00    1.50
  -1   8 -15   -0.10    0.60
   1  -8  15    0.60    0.80
   1  -8  15   -0.40    0.50
  -2   8 -15    1.10    0.60
   2  -8  15    2.80    0.60
   2  -8  15    2.10    0.80
  -3   8 -15   14.80    1.30
   3  -8  15   16.80    1.40
   3  -8  15   15.20    1.20
   3   7 -15   17.50    1.60
   3   7 -15   18.70    1.70
  -3  -7  15   16.70    1.30
   2   7 -15    0.30    0.80
   2   7 -15   -0.30    0.80
  -2  -7  15    0.00    0.50
   1   7 -15   39.50    1.70
  -1  -7  15   38.40    1.70
  -1  -7  15   36.40    2.00
   0   7 -15    4.70    0.70
   0  -7  15    4.60    1.10
   0  -7  15    3.70    0.80
  -1   7 -15    4.50    0.70
   1  -7  15    3.50    0.60
   1  -7  15    3.20    0.70
  -2   7 -15   24.40    1.40
   2  -7  15   25.80    1.50
   2  -7  15   24.40    1.30
  -3   7 -15    8.90    1.10
   3  -7  15    7.20    0.80
   3  -7  15    7.70    0.90
  -4   7 -15    2.50    0.70
   4  -7  15    2.90    0.60
   4  -7  15    2.20    0.70
   4   6 -15    2.00    0.90
   4   6 -15    1.10    0.90
  -4  -6  15    2.10    0.70
   3   6 -15    5.90    0.90
   3   6 -15    2.80    0.80
   3   6 -15    4.90    1.00
  -3  -6  15    3.60    0.70
   2   6 -15    7.90    1.00
   2   6 -15    7.40    1.00
  -2  -6  15    7.00    0.80
   1   6 -15    1.60    0.60
   1   6 -15   -0.30    1.20
  -1  -6  15    1.20    0.60
  -1  -6  15    1.40    0.70
   0   6 -15    4.10    0.70
   0  -6  15    2.40    0.80
   0  -6  15    3.30    0.60
  -1   6 -15    0.80    0.60
   1  -6  15    0.30    0.50
  -2   6 -15   -0.40    0.50
   2  -6  15   -0.30    0.40
   2  -6  15   -0.80    0.60
  -3   6 -15    7.70    1.00
   3  -6  15    8.20    1.00
   3  -6  15    7.20    0.90
  -4   6 -15    0.00    0.60
   4  -6  15    1.50    0.50
   4  -6  15    0.50    0.60
   4   5 -15    1.60    0.70
   4   5 -15    1.90    0.90
   4   5 -15    1.80    0.90
  -4  -5  15    2.70    0.70
   3   5 -15   46.50    2.10
   3   5 -15   49.80    2.30
   3   5 -15   44.00    2.00
  -3  -5  15   46.00    2.00
   2   5 -15    3.30    0.70
   2   5 -15    5.30    1.00
  -2  -5  15    4.40    0.70
  -2  -5  15    3.70    0.90
   1   5 -15   -0.40    1.20
   1   5 -15    1.80    0.60
  -1  -5  15    2.10    0.50
  -1  -5  15    0.40    0.60
   0   5 -15   -0.30    0.50
   0  -5  15   -0.30    0.70
   0  -5  15   -0.20    0.50
  -1   5 -15   -0.60    0.50
   1  -5  15    0.80    0.60
   1  -5  15   -0.10    0.50
  -2   5 -15    3.50    0.60
   2  -5  15    2.10    0.60
   2  -5  15    2.50    0.60
  -3   5 -15    8.10    1.10
   3  -5  15    8.20    1.00
   3  -5  15    6.70    0.90
  -4   5 -15    1.20    0.60
   4  -5  15    2.20    0.60
   4  -5  15    1.70    0.60
   5   4 -15    4.20    0.90
   5   4 -15    4.90    0.80
   5   4 -15    5.30    1.00
  -5  -4  15    3.70    0.80
   4   4 -15   12.60    1.40
   4   4 -15   11.70    1.30
   4   4 -15    9.10    1.10
  -4  -4  15   10.60    1.10
   3   4 -15    2.30    0.70
   3   4 -15    3.50    0.80
   3   4 -15    2.70    0.80
  -3  -4  15    3.20    0.60
   2   4 -15   15.40    1.30
   2   4 -15   16.80    1.50
  -2  -4  15   17.30    1.10
  -2  -4  15   16.90    1.90
   1   4 -15    7.90    1.30
   1   4 -15    8.50    0.90
  -1  -4  15    6.20    0.70
  -1  -4  15    6.60    0.90
   0   4 -15    3.10    0.60
   0  -4  15    3.10    0.70
   0  -4  15    3.70    0.60
  -1   4 -15    1.10    0.50
   1  -4  15    1.20    0.50
   1  -4  15    1.50    0.60
  -2   4 -15   30.90    1.60
   2  -4  15   31.20    1.50
   2  -4  15   33.80    1.60
  -3   4 -15    1.20    0.60
   3  -4  15   -0.40    0.50
   3  -4  15    0.40    0.50
  -4   4 -15    2.70    0.70
   4  -4  15    2.60    0.70
   4  -4  15    4.00    0.60
   5   3 -15    0.80    0.70
   5   3 -15    1.50    0.70
   5   3 -15    1.00    0.90
  -5  -3  15    1.50    0.70
   4   3 -15    3.90    0.70
   4   3 -15    4.30    0.90
   4   3 -15    3.40    0.80
  -4  -3  15    4.20    0.70
   3   3 -15    0.30    0.70
   3   3 -15    1.50    0.70
  -3  -3  15    2.10    0.60
   2   3 -15    1.60    0.70
   2   3 -15    2.50    1.00
  -2  -3  15    2.40    1.10
  -2  -3  15    2.00    0.60
   1   3 -15    0.10    0.50
   1   3 -15   -0.30    1.40
  -1  -3  15    1.00    0.50
  -1  -3  15    1.20    1.20
   0   3 -15    0.80    0.50
   0  -3  15   -0.20    0.40
   0  -3  15   -0.40    0.60
  -1   3 -15   19.30    1.20
   1  -3  15   19.60    1.20
   1  -3  15   20.30    1.30
  -2   3 -15    7.30    0.90
   2  -3  15    8.90    0.90
   2  -3  15    7.00    1.00
  -3   3 -15    0.20    0.50
   3  -3  15    0.00    0.60
   3  -3  15    1.00    0.60
  -4   3 -15    9.20    1.10
   4  -3  15    9.80    1.00
   4  -3  15    6.10    0.90
   5   2 -15    8.70    1.20
   5   2 -15   11.60    1.30
  -5  -2  15    9.00    1.10
   4   2 -15   25.70    1.70
   4   2 -15   24.40    1.50
  -4  -2  15   24.00    1.40
  -4  -2  15   31.00    1.60
   3   2 -15    3.70    0.90
   3   2 -15    2.20    0.70
  -3  -2  15    3.50    0.60
   2   2 -15    9.50    1.10
   2   2 -15   11.90    1.60
  -2  -2  15   11.90    1.40
  -2  -2  15   10.50    0.90
   1   2 -15    6.00    1.40
   1   2 -15    5.30    0.80
  -1  -2  15    7.10    1.20
  -1  -2  15    4.20    0.60
   0   2 -15    3.40    0.60
   0  -2  15    4.70    0.70
   0  -2  15    3.00    0.60
  -1   2 -15    3.30    0.60
   1  -2  15    4.00    0.60
   1  -2  15    4.00    0.70
  -2   2 -15    0.70    0.50
   2  -2  15    0.80    0.50
   2  -2  15    0.90    0.50
  -3   2 -15    1.80    0.60
   3  -2  15    3.90    0.70
   3  -2  15    1.80    0.60
  -4   2 -15    0.50    0.60
   4  -2  15    1.50    0.60
   4  -2  15   -0.10    0.80
   5   1 -15    8.50    1.00
   5   1 -15    9.90    1.20
  -5  -1  15    8.20    0.80
   4   1 -15    2.90    0.70
   4   1 -15    3.40    0.90
  -4  -1  15    3.80    0.60
  -4  -1  15    2.80    0.80
   3   1 -15    4.60    0.70
   3   1 -15    6.60    0.90
  -3  -1  15    5.10    0.60
  -3  -1  15    5.20    0.80
   2   1 -15    3.90    1.20
   2   1 -15    0.60    0.60
  -2  -1  15    1.30    1.10
  -2  -1  15    1.10    0.50
   1   1 -15    0.90    1.10
   1   1 -15    0.00    0.60
  -1  -1  15    0.50    0.50
  -1  -1  15    0.90    0.60
   0   1 -15    2.90    0.60
   0  -1  15    3.60    0.70
   0  -1  15    3.20    0.60
  -1   1 -15   21.90    1.30
   1  -1  15   24.40    1.40
   1  -1  15   23.00    1.20
  -2   1 -15    0.40    0.50
   2  -1  15    1.20    0.60
   2  -1  15    0.70    0.50
  -3   1 -15    0.70    0.60
   3  -1  15    0.80    0.60
   3  -1  15    0.00    0.60
   4  -1  15    4.60    0.70
   4  -1  15    3.20    0.60
   5   0 -15   36.10    2.00
   5   0 -15   37.40    1.90
  -5   0  15   34.20    1.60
  -5   0  15   39.40    2.10
   4   0 -15   10.30    1.20
   4   0 -15    9.20    1.40
  -4   0  15   11.60    1.00
  -4   0  15   11.70    1.40
   3   0 -15   14.40    1.40
   3   0 -15   14.30    1.20
  -3   0  15   16.30    1.30
  -3   0  15   17.00    1.10
   2   0 -15    4.70    0.80
   2   0 -15    4.40    0.90
  -2   0  15    6.90    0.90
  -2   0  15    6.50    1.20
   1   0 -15   -0.70    0.60
  -1   0  15    0.00    0.70
  -1   0  15    1.40    0.50
   0   0 -15    6.90    0.90
   0   0  15    9.20    1.20
   0   0  15    9.90    0.90
  -1   0 -15   17.60    1.20
   1   0  15   15.00    1.30
   1   0  15   18.70    1.10
  -2   0 -15    6.50    0.90
   2   0  15    4.40    0.80
   2   0  15    3.70    0.60
  -3   0 -15    7.80    1.10
   3   0  15    4.20    0.70
   3   0  15    5.10    0.90
   4  -1 -15   73.69    2.90
   4  -1 -15   74.99    3.00
  -4   1  15   71.59    2.90
  -4   1  15   74.39    2.70
   3  -1 -15   20.70    1.60
   3  -1 -15   20.80    1.40
  -3   1  15   21.50    1.20
  -3   1  15   17.10    1.40
   2  -1 -15    4.60    0.70
   2  -1 -15    3.70    0.70
  -2   1  15    2.90    0.90
  -2   1  15    6.20    0.70
   1  -1 -15   -0.70    0.50
  -1   1  15   -0.60    0.60
  -1   1  15   -0.60    0.50
   0  -1 -15    6.00    0.80
   0   1  15    9.30    1.30
  -1  -1 -15   49.30    2.40
   1   1  15   52.59    2.10
   1   1  15   56.39    2.30
  -2  -1 -15    0.20    0.80
   2   1  15    0.30    0.70
   2   1  15    0.50    0.60
   3  -2 -15   12.30    1.50
   3  -2 -15   10.50    1.20
  -3   2  15   10.70    1.10
  -3   2  15    9.20    1.00
   2  -2 -15    2.50    0.90
   2  -2 -15    2.30    0.70
  -2   2  15    4.60    0.60
   1  -2 -15    1.00    0.70
  -1   2  15    1.40    0.60
  -1   2  15    1.80    0.80
   0  -2 -15    0.70    0.70
   0   2  15    0.10    0.70
   0   2  15    0.10    0.50
  -1  -2 -15    0.50    0.70
   1   2  15    2.80    0.60
   1   2  15    0.90    0.80
   1   7 -16   33.60    1.70
  -1  -7  16   32.30    2.00
  -1  -7  16   33.20    1.90
   0   7 -16    8.30    1.10
   0  -7  16    8.40    1.10
   0  -7  16    6.60    0.80
  -1   7 -16   17.40    1.30
   1  -7  16   13.90    1.50
   1  -7  16   18.30    1.30
  -2   7 -16    0.80    0.70
   2  -7  16    0.70    0.50
   2  -7  16   -0.70    0.70
   2   6 -16   -1.10    0.80
   2   6 -16    1.50    1.00
  -2  -6  16    0.40    0.80
   1   6 -16   14.90    1.20
  -1  -6  16   14.10    1.10
  -1  -6  16   11.20    1.50
   0   6 -16    0.80    0.60
   0  -6  16   -1.30    0.50
   0  -6  16   -0.10    0.80
  -1   6 -16    1.30    0.60
   1  -6  16    1.30    0.60
   1  -6  16    0.70    0.60
  -2   6 -16    1.40    0.60
   2  -6  16   -0.40    0.70
   2  -6  16   -0.20    0.60
  -3   6 -16   -0.10    0.60
   3  -6  16    0.40    0.60
   3  -6  16    1.50    0.60
   3   5 -16    0.30    0.90
   3   5 -16   -0.90    0.70
  -3  -5  16    0.60    0.60
   2   5 -16    7.90    1.10
   2   5 -16    5.70    0.90
  -2  -5  16    7.00    0.90
   1   5 -16   32.80    1.50
  -1  -5  16   29.40    1.50
   0   5 -16    0.80    0.60
   0  -5  16    0.70    0.80
   0  -5  16    1.40    0.50
  -1   5 -16   18.60    1.30
   1  -5  16   19.80    1.40
   1  -5  16   18.10    1.20
  -2   5 -16    1.80    0.60
   2  -5  16    0.00    0.50
   2  -5  16    1.60    0.60
  -3   5 -16   14.10    1.40
   3  -5  16   15.80    1.30
   3  -5  16   13.00    1.10
   3   4 -16    1.40    0.90
   3   4 -16   -0.50    0.70
  -3  -4  16    0.90    0.60
   2   4 -16   10.10    1.30
   2   4 -16   10.60    1.50
  -2  -4  16   13.00    1.10
   1   4 -16    1.30    0.50
  -1  -4  16    1.80    0.80
  -1  -4  16    1.30    0.60
   0   4 -16    4.30    0.70
   0  -4  16    3.50    0.60
   0  -4  16    5.20    0.80
  -1   4 -16    3.80    0.70
   1  -4  16    3.40    0.70
   1  -4  16    3.30    0.70
  -2   4 -16    0.30    0.50
   2  -4  16    0.90    0.60
   2  -4  16    0.20    0.50
  -3   4 -16    2.80    0.70
   3  -4  16    3.50    0.60
   3  -4  16    3.10    0.70
   4   3 -16   -0.20    0.80
   4   3 -16    0.30    0.60
  -4  -3  16    0.50    0.60
   3   3 -16    3.20    0.90
   3   3 -16    1.60    0.70
  -3  -3  16    2.80    0.70
   2   3 -16    0.10    0.90
   2   3 -16   -0.90    0.70
  -2  -3  16   -0.40    1.20
  -2  -3  16    0.30    0.50
   1   3 -16   -0.70    0.70
  -1  -3  16   -0.10    0.70
  -1  -3  16   -0.40    0.50
   0   3 -16    8.90    1.00
   0  -3  16    8.80    1.00
   0  -3  16    6.30    1.00
  -1   3 -16    0.40    0.50
   1  -3  16    0.50    0.50
   1  -3  16    0.80    0.60
  -2   3 -16    1.20    0.50
   2  -3  16    1.60    0.70
   2  -3  16    1.60    0.60
  -3   3 -16    0.40    0.60
   3  -3  16    0.90    0.70
   3  -3  16    2.20    0.60
   4   2 -16    0.30    0.60
  -4  -2  16    0.00    0.60
  -4  -2  16    0.10    0.80
   3   2 -16    1.90    0.80
   3   2 -16    5.10    0.90
  -3  -2  16    2.60    0.60
   2   2 -16   40.20    2.00
   2   2 -16   32.40    1.80
  -2  -2  16   37.00    2.40
  -2  -2  16   34.60    1.60
   1   2 -16    1.20    0.70
  -1  -2  16    2.30    0.60
  -1  -2  16    1.10    0.70
   0   2 -16   11.70    1.00
   0  -2  16    9.30    1.00
   0  -2  16   10.90    1.20
  -1   2 -16    1.00    0.60
   1  -2  16    1.20    0.70
   1  -2  16    1.00    0.50
  -2   2 -16    1.70    0.60
   2  -2  16    2.10    0.70
   2  -2  16    1.30    0.60
  -3   2 -16    2.40    0.60
   3  -2  16    1.60    0.60
   3  -2  16    2.30    0.70
   3   1 -16    6.70    0.90
   3   1 -16    5.80    1.00
  -3  -1  16    5.90    0.70
   2   1 -16    7.80    0.90
   2   1 -16    8.00    1.10
  -2  -1  16   10.30    1.00
   1   1 -16   -0.50    0.70
  -1  -1  16    1.10    0.60
  -1  -1  16    0.30    0.70
   0   1 -16   -0.90    0.70
   0  -1  16    0.60    0.70
   0  -1  16    0.00    0.50
  -1   1 -16    0.80    0.60
   1  -1  16    0.80    0.70
   1  -1  16    0.50    0.60
  -2   1 -16    9.90    1.10
   2  -1  16    9.20    1.00
   2  -1  16   10.70    1.20
   3   0 -16   12.10    1.50
   3   0 -16    9.90    1.20
  -3   0  16   11.50    1.10
   2   0 -16   26.50    1.70
   2   0 -16   28.50    1.90
  -2   0  16   31.30    1.50
   1   0 -16    0.70    0.80
  -1   0  16    2.40    0.80
  -1   0  16    2.50    0.60
   0   0 -16   -0.40    0.90
   0   0  16    0.70    0.70
   0   0  16    0.00    0.60
  -1   0 -16    5.10    0.90
   1   0  16    6.00    0.90
   2  -1 -16   47.80    2.20
  -2   1  16   48.20    2.00
   1  -1 -16   37.20    2.00
  -1   1  16   40.70    2.10
  -1   1  16   41.90    1.80
   0  -1 -16    1.40    0.80
   0   1  16    2.30    0.60
   0   1  16    2.60    0.80
   0   5 -17    2.60    0.70
   0  -5  17    2.00    0.60
   0  -5  17    2.70    0.90
   1   4 -17    3.40    0.90
  -1  -4  17    4.50    1.10
  -1  -4  17    4.60    0.70
   0   4 -17    4.80    0.70
   0  -4  17    3.90    0.70
   0  -4  17    3.70    0.90
  -1   4 -17   15.50    1.20
   1  -4  17   11.50    1.40
   1  -4  17   13.50    1.10
   1   3 -17    1.60    0.80
  -1  -3  17    2.20    0.70
  -1  -3  17    3.70    0.80
   0   3 -17    0.50    0.60
   0  -3  17    1.10    0.60
   0  -3  17    2.10    0.70
  -1   3 -17    1.30    0.70
   1  -3  17    1.20    0.60
   1  -3  17    0.30    0.80
   1   2 -17   -1.30    0.70
  -1  -2  17    0.80    0.60
  -1  -2  17    1.00    0.80
   0   2 -17    0.10    0.90
   0  -2  17    2.90    0.80
   0  -2  17    2.40    0.60

_computing_structure_solution     'SHELXT 2014/4 (Sheldrick, 2014)'
;
_shelx_hkl_checksum              68847
loop_
_space_group_symop_operation_xyz
'x, y, z'
'-x, -y, -z'
loop_
_atom_site_label
_atom_site_type_symbol
_atom_site_fract_x
_atom_site_fract_y
_atom_site_fract_z
_atom_site_U_iso_or_equiv
_atom_site_adp_type
_atom_site_occupancy
_atom_site_site_symmetry_order
_atom_site_calc_flag
_atom_site_refinement_flags_posn
_atom_site_refinement_flags_adp
F001 F 0.54475(11) 1.15113(9) 0.57163(6) 0.02914(18) Uani 1 1 d . .
F002 F 0.36656(12) 1.56055(9) 0.83729(8) 0.0364(2) Uani 1 1 d . .
F003 F 0.34639(13) 1.08422(10) 0.91411(7) 0.0368(2) Uani 1 1 d . .
O004 O 0.15037(12) -0.52916(9) 0.10014(7) 0.02132(18) Uani 1 1 d . .
O005 O 0.46486(10) 0.65194(9) 0.60233(7) 0.02087(18) Uani 1 1 d . .
O006 O 0.31513(10) 0.84737(9) 0.65469(7) 0.01982(18) Uani 1 1 d . .
C007 C 0.15413(13) 0.60331(11) 0.55259(9) 0.01346(19) Uani 1 1 d . .
C008 C 0.32800(13) 0.70145(12) 0.60526(9) 0.0149(2) Uani 1 1 d . .
C009 C 0.03482(13) 0.19665(12) 0.37215(9) 0.0153(2) Uani 1 1 d . .
C00A C 0.05724(14) 0.07065(12) 0.31999(9) 0.0162(2) Uani 1 1 d . .
C00B C 0.01130(13) 0.34780(11) 0.43570(9) 0.01345(19) Uani 1 1 d . .
C00C C 0.07600(13) -0.08430(12) 0.26250(9) 0.0155(2) Uani 1 1 d . .
C00D C 0.16255(13) 0.45377(11) 0.48912(9) 0.01417(19) Uani 1 1 d . .
H00D H 0.2747 0.4224 0.4817 0.017 Uiso 1 1 calc R U
C00E C 0.12829(14) -0.12428(12) 0.15154(9) 0.0167(2) Uani 1 1 d . .
H00E H 0.1484 -0.0481 0.1117 0.020 Uiso 1 1 calc R U
C00F C 0.15080(14) -0.27385(12) 0.09959(9) 0.0172(2) Uani 1 1 d . .
H00F H 0.1863 -0.3000 0.0244 0.021 Uiso 1 1 calc R U
C00G C 0.12125(14) -0.38617(12) 0.15764(9) 0.0164(2) Uani 1 1 d . .
C00H C 0.44673(14) 1.10896(12) 0.74093(10) 0.0183(2) Uani 1 1 d . .
C00I C 0.48110(15) 1.20714(13) 0.67276(10) 0.0197(2) Uani 1 1 d . .
C00J C 0.04436(15) -0.19850(12) 0.31878(9) 0.0184(2) Uani 1 1 d . .
H00J H 0.0072 -0.1731 0.3936 0.022 Uiso 1 1 calc R U
C00K C 0.06649(15) -0.34909(12) 0.26699(9) 0.0184(2) Uani 1 1 d . .
H00K H 0.0444 -0.4260 0.3061 0.022 Uiso 1 1 calc R U
C00L C 0.38294(16) 1.17396(13) 0.84392(11) 0.0227(2) Uani 1 1 d . .
C00M C 0.48117(14) 0.94708(12) 0.70666(11) 0.0204(2) Uani 1 1 d . .
H00A H 0.5738 0.9373 0.6520 0.025 Uiso 1 1 calc R U
H00B H 0.5218 0.9179 0.7737 0.025 Uiso 1 1 calc R U
C00N C 0.45639(16) 1.35872(13) 0.70144(10) 0.0225(2) Uani 1 1 d . .
H00N H 0.4813 1.4222 0.6521 0.027 Uiso 1 1 calc R U
C00O C 0.12363(19) -0.64744(13) 0.15679(11) 0.0261(3) Uani 1 1 d . .
H00C H 0.2036 -0.6166 0.2257 0.039 Uiso 1 1 calc R U
H00G H 0.1483 -0.7440 0.1066 0.039 Uiso 1 1 calc R U
H00H H 0.0007 -0.6629 0.1770 0.039 Uiso 1 1 calc R U
C00P C 0.39336(16) 1.41250(13) 0.80589(11) 0.0241(2) Uani 1 1 d . .
C00Q C 0.35502(17) 1.32479(14) 0.87960(11) 0.0265(3) Uani 1 1 d . .
H00Q H 0.3117 1.3654 0.9511 0.032 Uiso 1 1 calc R U
loop_
_atom_site_aniso_label
_atom_site_aniso_U_11
_atom_site_aniso_U_22
_atom_site_aniso_U_33
_atom_site_aniso_U_23
_atom_site_aniso_U_13
_atom_site_aniso_U_12
F001 0.0409(4) 0.0235(4) 0.0204(4) -0.0005(3) 0.0068(3) 0.0087(3)
F002 0.0457(5) 0.0147(4) 0.0479(5) 0.0014(3) 0.0122(4) 0.0136(3)
F003 0.0520(5) 0.0256(4) 0.0361(5) 0.0123(3) 0.0182(4) 0.0082(4)
O004 0.0338(5) 0.0106(3) 0.0196(4) 0.0010(3) 0.0067(3) 0.0088(3)
O005 0.0145(4) 0.0140(4) 0.0325(5) 0.0025(3) 0.0012(3) 0.0051(3)
O006 0.0129(3) 0.0113(4) 0.0302(4) -0.0031(3) -0.0004(3) 0.0028(3)
C007 0.0133(4) 0.0106(4) 0.0163(4) 0.0029(3) 0.0026(3) 0.0027(3)
C008 0.0149(5) 0.0116(4) 0.0176(5) 0.0025(4) 0.0029(3) 0.0026(3)
C009 0.0128(4) 0.0138(5) 0.0190(5) 0.0033(4) 0.0019(3) 0.0036(3)
C00A 0.0136(4) 0.0138(5) 0.0206(5) 0.0028(4) 0.0016(4) 0.0036(4)
C00B 0.0149(4) 0.0100(4) 0.0157(4) 0.0027(3) 0.0034(3) 0.0041(3)
C00C 0.0132(4) 0.0119(4) 0.0194(5) 0.0003(4) 0.0006(4) 0.0036(3)
C00D 0.0128(4) 0.0124(4) 0.0175(5) 0.0029(4) 0.0032(3) 0.0046(3)
C00E 0.0178(5) 0.0121(4) 0.0196(5) 0.0030(4) 0.0011(4) 0.0035(4)
C00F 0.0203(5) 0.0142(5) 0.0159(5) 0.0009(4) 0.0027(4) 0.0049(4)
C00G 0.0184(5) 0.0105(4) 0.0184(5) -0.0007(4) 0.0009(4) 0.0048(4)
C00H 0.0144(5) 0.0121(4) 0.0244(5) -0.0011(4) -0.0010(4) 0.0023(4)
C00I 0.0191(5) 0.0170(5) 0.0190(5) -0.0018(4) -0.0003(4) 0.0039(4)
C00J 0.0218(5) 0.0144(5) 0.0182(5) 0.0011(4) 0.0051(4) 0.0057(4)
C00K 0.0236(5) 0.0124(5) 0.0192(5) 0.0030(4) 0.0042(4) 0.0057(4)
C00L 0.0229(5) 0.0173(5) 0.0266(6) 0.0040(4) 0.0055(4) 0.0030(4)
C00M 0.0136(5) 0.0119(5) 0.0309(6) -0.0014(4) -0.0021(4) 0.0015(4)
C00N 0.0234(5) 0.0166(5) 0.0262(6) 0.0035(4) -0.0010(4) 0.0049(4)
C00O 0.0422(7) 0.0124(5) 0.0250(6) 0.0043(4) 0.0064(5) 0.0094(5)
C00P 0.0236(6) 0.0125(5) 0.0328(6) -0.0017(4) 0.0022(5) 0.0066(4)
C00Q 0.0287(6) 0.0193(6) 0.0278(6) -0.0011(5) 0.0095(5) 0.0060(5)
loop_
_atom_type_symbol
_atom_type_description
_atom_type_scat_dispersion_real
_atom_type_scat_dispersion_imag
_atom_type_scat_source
C C 0.0033 0.0016 'International Tables Vol C Tables 4.2.6.8 and 6.1.1.4'
H H 0.0000 0.0000 'International Tables Vol C Tables 4.2.6.8 and 6.1.1.4'
O O 0.0106 0.0060 'International Tables Vol C Tables 4.2.6.8 and 6.1.1.4'
F F 0.0171 0.0103 'International Tables Vol C Tables 4.2.6.8 and 6.1.1.4'
loop_
_geom_angle_atom_site_label_1
_geom_angle_atom_site_label_2
_geom_angle_atom_site_label_3
_geom_angle
_geom_angle_site_symmetry_1
_geom_angle_site_symmetry_3
C00G O004 C00O 117.49(9) . .
C008 O006 C00M 114.87(8) . .
C00D C007 C00B 119.67(9) . 2_566
C00D C007 C008 115.53(9) . .
C00B C007 C008 124.79(9) 2_566 .
O005 C008 O006 123.90(9) . .
O005 C008 C007 123.09(9) . .
O006 C008 C007 113.01(8) . .
C00A C009 C00B 178.89(11) . .
C009 C00A C00C 176.07(11) . .
C00D C00B C007 118.06(9) . 2_566
C00D C00B C009 117.75(9) . .
C007 C00B C009 124.19(9) 2_566 .
C00J C00C C00E 118.80(9) . .
C00J C00C C00A 119.30(10) . .
C00E C00C C00A 121.88(10) . .
C007 C00D C00B 122.27(9) . .
C007 C00D H00D 118.9 . .
C00B C00D H00D 118.9 . .
C00F C00E C00C 120.53(10) . .
C00F C00E H00E 119.7 . .
C00C C00E H00E 119.7 . .
C00E C00F C00G 119.96(10) . .
C00E C00F H00F 120.0 . .
C00G C00F H00F 120.0 . .
O004 C00G C00K 124.20(10) . .
O004 C00G C00F 115.55(9) . .
C00K C00G C00F 120.24(9) . .
C00L C00H C00I 114.86(10) . .
C00L C00H C00M 122.94(11) . .
C00I C00H C00M 122.18(10) . .
F001 C00I C00N 117.61(11) . .
F001 C00I C00H 117.77(10) . .
C00N C00I C00H 124.62(11) . .
C00K C00J C00C 120.94(10) . .
C00K C00J H00J 119.5 . .
C00C C00J H00J 119.5 . .
C00G C00K C00J 119.51(10) . .
C00G C00K H00K 120.2 . .
C00J C00K H00K 120.2 . .
F003 C00L C00Q 117.90(11) . .
F003 C00L C00H 117.78(10) . .
C00Q C00L C00H 124.33(11) . .
O006 C00M C00H 107.12(8) . .
O006 C00M H00A 110.3 . .
C00H C00M H00A 110.3 . .
O006 C00M H00B 110.3 . .
C00H C00M H00B 110.3 . .
H00A C00M H00B 108.5 . .
C00P C00N C00I 115.99(11) . .
C00P C00N H00N 122.0 . .
C00I C00N H00N 122.0 . .
O004 C00O H00C 109.5 . .
O004 C00O H00G 109.5 . .
H00C C00O H00G 109.5 . .
O004 C00O H00H 109.5 . .
H00C C00O H00H 109.5 . .
H00G C00O H00H 109.5 . .
F002 C00P C00Q 118.09(11) . .
F002 C00P C00N 117.95(11) . .
C00Q C00P C00N 123.95(11) . .
C00P C00Q C00L 116.25(11) . .
C00P C00Q H00Q 121.9 . .
C00L C00Q H00Q 121.9 . .
loop_
_geom_bond_atom_site_label_1
_geom_bond_atom_site_label_2
_geom_bond_distance
_geom_bond_site_symmetry_2
F001 C00I 1.3486(13) .
F002 C00P 1.3538(13) .
F003 C00L 1.3485(14) .
O004 C00G 1.3638(12) .
O004 C00O 1.4280(14) .
O005 C008 1.2077(13) .
O006 C008 1.3280(12) .
O006 C00M 1.4576(13) .
C007 C00D 1.3906(13) .
C007 C00B 1.4120(13) 2_566
C007 C008 1.5010(14) .
C009 C00A 1.1987(15) .
C009 C00B 1.4334(14) .
C00A C00C 1.4332(14) .
C00B C00D 1.4016(14) .
C00B C007 1.4119(13) 2_566
C00C C00J 1.3946(15) .
C00C C00E 1.4024(15) .
C00D H00D 0.9500 .
C00E C00F 1.3839(14) .
C00E H00E 0.9500 .
C00F C00G 1.3945(15) .
C00F H00F 0.9500 .
C00G C00K 1.3902(15) .
C00H C00L 1.3855(16) .
C00H C00I 1.3857(16) .
C00H C00M 1.4935(15) .
C00I C00N 1.3793(15) .
C00J C00K 1.3909(14) .
C00J H00J 0.9500 .
C00K H00K 0.9500 .
C00L C00Q 1.3824(16) .
C00M H00A 0.9900 .
C00M H00B 0.9900 .
C00N C00P 1.3772(18) .
C00N H00N 0.9500 .
C00O H00C 0.9800 .
C00O H00G 0.9800 .
C00O H00H 0.9800 .
C00P C00Q 1.3721(19) .
C00Q H00Q 0.9500 .
