#------------------------------------------------------------------------------
#$Date: 2017-12-21 01:38:39 +0200 (Thu, 21 Dec 2017) $
#$Revision: 204415 $
#$URL: file:///home/coder/svn-repositories/cod/cif/4/12/68/4126899.cif $
#------------------------------------------------------------------------------
#
# This file is available in the Crystallography Open Database (COD),
# http://www.crystallography.net/
#
# All data on this site have been placed in the public domain by the
# contributors.
#
data_4126899
loop_
_publ_author_name
'Bai, Xiao-Yan'
'Zhang, Wen-Wen'
'Li, Qian'
'Li, Bi-Jie'
_publ_section_title
;
 Highly Enantioselective Synthesis of Propargyl Amides through
 Rh-Catalyzed Asymmetric Hydroalkynylation of Enamides: Scope, Mechanism,
 and Origin of Selectivity.
;
_journal_name_full               'Journal of the American Chemical Society'
_journal_paper_doi               10.1021/jacs.7b12054
_journal_year                    2017
_chemical_absolute_configuration ad
_chemical_formula_moiety         'C14 H16 Br N O'
_chemical_formula_sum            'C14 H16 Br N O'
_chemical_formula_weight         294.19
_space_group_crystal_system      monoclinic
_space_group_IT_number           4
_space_group_name_Hall           'P 2yb'
_space_group_name_H-M_alt        'P 1 21 1'
_symmetry_space_group_name_Hall  'P 2yb'
_symmetry_space_group_name_H-M   'P 1 21 1'
_atom_sites_solution_hydrogens   mixed
_audit_creation_method           SHELXL-2014/7
_cell_angle_alpha                90
_cell_angle_beta                 90.212(4)
_cell_angle_gamma                90
_cell_formula_units_Z            2
_cell_length_a                   4.8610(2)
_cell_length_b                   9.8176(4)
_cell_length_c                   14.4748(5)
_cell_measurement_reflns_used    3927
_cell_measurement_temperature    173.0(1)
_cell_measurement_theta_max      76.8
_cell_measurement_theta_min      5.4
_cell_volume                     690.78(5)
_computing_cell_refinement       'CrysAlisPro 1.171.38.43f (Rigaku OD, 2015)'
_computing_data_collection       'CrysAlisPro 1.171.38.43f (Rigaku OD, 2015)'
_computing_data_reduction        'CrysAlisPro 1.171.38.43f (Rigaku OD, 2015)'
_computing_molecular_graphics    'Bruker SHELXTL'
_computing_publication_material  'Bruker SHELXTL'
_computing_structure_refinement  'SHELXL-2014/7 (Sheldrick, 2014)'
_computing_structure_solution    'Bruker SHELXTL'
_diffrn_ambient_temperature      173.0(1)
_diffrn_detector_area_resol_mean 5.2137
_diffrn_measured_fraction_theta_full 0.999
_diffrn_measured_fraction_theta_max 0.997
_diffrn_measurement_device_type  'SuperNova, Dual, Cu at zero, AtlasS2'
_diffrn_measurement_method       'phi and omega scans'
_diffrn_radiation_type           CuK\a
_diffrn_radiation_wavelength     1.54178
_diffrn_reflns_av_R_equivalents  0.0477
_diffrn_reflns_av_unetI/netI     0.0480
_diffrn_reflns_Laue_measured_fraction_full 0.999
_diffrn_reflns_Laue_measured_fraction_max 0.997
_diffrn_reflns_limit_h_max       6
_diffrn_reflns_limit_h_min       -6
_diffrn_reflns_limit_k_max       12
_diffrn_reflns_limit_k_min       -12
_diffrn_reflns_limit_l_max       18
_diffrn_reflns_limit_l_min       -13
_diffrn_reflns_number            7100
_diffrn_reflns_point_group_measured_fraction_full 0.966
_diffrn_reflns_point_group_measured_fraction_max 0.958
_diffrn_reflns_theta_full        74.500
_diffrn_reflns_theta_max         76.844
_diffrn_reflns_theta_min         5.444
_exptl_absorpt_coefficient_mu    3.922
_exptl_absorpt_correction_T_max  1.000
_exptl_absorpt_correction_T_min  0.679
_exptl_absorpt_correction_type   multi-scan
_exptl_absorpt_process_details   'CrysAlisPro 1.171.38.43f (Rigaku OD, 2015)'
_exptl_crystal_colour            colorless
_exptl_crystal_density_diffrn    1.414
_exptl_crystal_density_meas      ?
_exptl_crystal_description       needle
_exptl_crystal_F_000             300
_exptl_crystal_size_max          0.4
_exptl_crystal_size_mid          0.05
_exptl_crystal_size_min          0.05
_refine_diff_density_max         0.323
_refine_diff_density_min         -0.413
_refine_diff_density_rms         0.062
_refine_ls_abs_structure_details
; 
 Flack x determined using 1098 quotients [(I+)-(I-)]/[(I+)+(I-)] 
 (Parsons, Flack and Wagner, Acta Cryst. B69 (2013) 249-259). 
;
_refine_ls_abs_structure_Flack   0.03(4)
_refine_ls_extinction_method     none
_refine_ls_goodness_of_fit_ref   0.989
_refine_ls_hydrogen_treatment    mixed
_refine_ls_matrix_type           full
_refine_ls_number_parameters     159
_refine_ls_number_reflns         2791
_refine_ls_number_restraints     1
_refine_ls_restrained_S_all      0.989
_refine_ls_R_factor_all          0.0438
_refine_ls_R_factor_gt           0.0411
_refine_ls_shift/su_max          0.001
_refine_ls_shift/su_mean         0.000
_refine_ls_structure_factor_coef Fsqd
_refine_ls_weighting_details
'w=1/[\s^2^(Fo^2^)+(0.0010P)^2^+1.5000P] where P=(Fo^2^+2Fc^2^)/3'
_refine_ls_weighting_scheme      calc
_refine_ls_wR_factor_gt          0.0936
_refine_ls_wR_factor_ref         0.0956
_reflns_Friedel_coverage         0.814
_reflns_Friedel_fraction_full    0.929
_reflns_Friedel_fraction_max     0.915
_reflns_number_gt                2638
_reflns_number_total             2791
_reflns_threshold_expression     'I > 2\s(I)'
_cod_data_source_file            ja7b12054_si_002.cif
_cod_data_source_block           try
_cod_depositor_comments
;
The following automatic conversions were performed:

'_exptl_crystal_density_meas' value 'none' was changed to '?' - the
value is perceived as not measured.

Automatic conversion script
Id: cif_fix_values 4973 2017-02-22 13:04:09Z antanas 
;
_cod_database_code               4126899
_shelx_shelxl_version_number     2014/7
_shelx_space_group_comment
; 
The symmetry employed for this shelxl refinement is uniquely defined 
by the following loop, which should always be used as a source of 
symmetry information in preference to the above space-group names. 
They are only intended as comments. 
;
_shelx_res_file
; 
  
    try.res created by SHELXL-2014/7 
  
  
TITL try in P2(1) 
CELL 1.54178   4.8610   9.8176  14.4748  90.000  90.212  90.000 
ZERR    2.00   0.0002   0.0004   0.0005   0.000   0.004   0.000 
LATT -1 
SYMM -X, 0.5+Y, -Z 
SFAC C  H  N  O  Br 
UNIT 28 32 2 2 2 
  
OMIT 1 4 0 
  
EQIV $1 1+X, Y, Z 
  
L.S. 4 
ACTA 149 
BOND $H 
FMAP 2 
PLAN 10 
  
HTAB N1 O1_$1 
  
WGHT    0.001000    1.500000 
FVAR       0.96808 
BR1   5    0.075487    0.255051    1.216891    11.00000    0.08278    0.05194 = 
         0.02664    0.00147    0.00714   -0.02313 
O1    4   -0.100138    0.453236    0.624053    11.00000    0.02080    0.06999 = 
         0.04424    0.02489    0.00737    0.00177 
N1    3    0.335353    0.386253    0.651833    11.00000    0.02084    0.03714 = 
         0.02674    0.00566    0.00495    0.00278 
H1A   2    0.531582    0.391771    0.636132    11.00000   -1.20000 
C1    1    0.177238    0.307394    1.094745    11.00000    0.04802    0.03939 = 
         0.02492   -0.00059    0.00040   -0.02181 
C2    1    0.380099    0.234406    1.051023    11.00000    0.04929    0.03982 = 
         0.03207    0.00732   -0.00634   -0.00292 
AFIX  43 
H2    2    0.467559    0.162690    1.081121    11.00000   -1.20000 
AFIX   0 
C3    1    0.452853    0.269185    0.961212    11.00000    0.03922    0.03437 = 
         0.03298    0.00196    0.00057    0.00760 
AFIX  43 
H3    2    0.591692    0.221035    0.931592    11.00000   -1.20000 
AFIX   0 
C4    1    0.321031    0.374732    0.915266    11.00000    0.03287    0.02949 = 
         0.02848    0.00140    0.00027   -0.00654 
C5    1    0.116682    0.445484    0.961579    11.00000    0.04049    0.03340 = 
         0.03467    0.00115    0.00071    0.00282 
AFIX  43 
H5    2    0.027107    0.516785    0.931728    11.00000   -1.20000 
AFIX   0 
C6    1    0.042094    0.412396    1.051819    11.00000    0.04375    0.04106 = 
         0.03464   -0.00344    0.00727   -0.00362 
AFIX  43 
H6    2   -0.095801    0.460377    1.082054    11.00000   -1.20000 
AFIX   0 
C7    1    0.399368    0.415050    0.818020    11.00000    0.03758    0.03101 = 
         0.02776    0.00008    0.00278   -0.00778 
AFIX  23 
H7A   2    0.598198    0.412459    0.812862    11.00000   -1.20000 
H7B   2    0.341345    0.508319    0.807496    11.00000   -1.20000 
AFIX   0 
C8    1    0.274313    0.324167    0.741504    11.00000    0.02661    0.03253 = 
         0.02427    0.00263    0.00277   -0.00152 
AFIX  13 
H8    2    0.074157    0.323205    0.749333    11.00000   -1.20000 
AFIX   0 
C9    1    0.372875    0.183330    0.745751    11.00000    0.04666    0.03379 = 
         0.03120   -0.00017    0.00245   -0.00034 
C10   1    0.459356    0.072112    0.748964    11.00000    0.08804    0.03668 = 
         0.04621    0.00348    0.00642    0.01706 
AFIX 163 
H10   2    0.528045   -0.016225    0.751516    11.00000   -1.20000 
AFIX   0 
C11   1    0.144082    0.454329    0.603667    11.00000    0.02419    0.03541 = 
         0.02365    0.00091    0.00458   -0.00089 
C12   1    0.253544    0.538282    0.523499    11.00000    0.02704    0.03586 = 
         0.02773    0.00578    0.00622   -0.00016 
AFIX  13 
H12   2    0.419638    0.493833    0.499963    11.00000   -1.20000 
AFIX   0 
C13   1    0.047078    0.549718    0.444782    11.00000    0.05554    0.10813 = 
         0.03908    0.03167   -0.00876   -0.01986 
AFIX 137 
H13A  2   -0.120051    0.589650    0.467267    11.00000   -1.50000 
H13B  2    0.008915    0.460675    0.420507    11.00000   -1.50000 
H13C  2    0.121950    0.606051    0.396849    11.00000   -1.50000 
AFIX   0 
C14   1    0.333199    0.678523    0.560312    11.00000    0.09663    0.04145 = 
         0.04950    0.00788    0.01561   -0.01694 
AFIX 137 
H14A  2    0.173422    0.722701    0.585048    11.00000   -1.50000 
H14B  2    0.407037    0.732494    0.510969    11.00000   -1.50000 
H14C  2    0.469256    0.668610    0.608081    11.00000   -1.50000 
AFIX   0 
HKLF 4 
  
REM  try in P2(1) 
REM R1 =  0.0411 for    2638 Fo > 4sig(Fo)  and  0.0438 for all    2791 data 
REM    159 parameters refined using      1 restraints 
  
END 
  
WGHT      0.0591      0.3130 
  
REM Highest difference peak  0.323,  deepest hole -0.413,  1-sigma level  0.062 
Q1    1   0.2281  0.7556  0.6579  11.00000  0.05    0.32 
Q2    1  -0.2147  0.2624  1.2039  11.00000  0.05    0.27 
Q3    1   0.3257  0.2813  1.2587  11.00000  0.05    0.23 
Q4    1   0.8132  0.2627  1.0059  11.00000  0.05    0.23 
Q5    1  -0.0117  0.3359  1.0806  11.00000  0.05    0.22 
Q6    1   0.3651  0.2607  1.2417  11.00000  0.05    0.20 
Q7    1   0.0151  0.6772  0.9185  11.00000  0.05    0.20 
Q8    1   0.1753  0.4987  0.5592  11.00000  0.05    0.19 
Q9    1   0.4545 -0.2411  0.7762  11.00000  0.05    0.19 
Q10   1  -0.1650  0.4916  0.4354  11.00000  0.05    0.19 
;
_shelx_res_checksum              47396
_shelx_hkl_file
; 
   0  12   2   78.88    7.75 
   0  12   2   88.74    8.57 
   0  12   3   25.38    4.18 
   0  12   3   24.72    3.96 
   0  12   4   72.44    6.95 
   0  11   4   92.96   10.87 
   0  11   5    7.19    2.43 
   0  11   5    9.54    3.26 
   0  11   6   68.06    8.49 
   0  11   6   66.74    8.12 
   0  11   7    0.24    1.26 
   0  11   7    1.51    2.05 
   0  11   8   90.09    8.01 
   0  10   6   28.21    6.34 
   0  10   6   30.37    6.66 
   0  10   7   92.44   11.60 
   0  10   7   90.84   11.07 
   0  10   8    2.99    1.72 
   0  10   8    6.60    2.87 
   0  10   9   78.68    8.58 
   0  10   9   88.65    9.17 
   0  10   9   78.89    9.27 
   0  10  10   12.98    3.03 
   0  10  10   10.96    3.01 
   0   9   0    2.29    3.19 
   0   9  -1  210.22   17.55 
   0   9   1  226.87   19.38 
   0   9   2   27.42    6.97 
   0   9  -2   28.16    6.01 
   0   9   3  441.54   28.20 
   0   9   4  280.85   21.80 
   0   9   5   75.85   10.76 
   0   9   6   88.22   11.20 
   0   9   7    5.37    2.79 
   0   9   7    7.87    3.61 
   0   9   8  112.92   13.76 
   0   9   8  100.60   12.79 
   0   9   9    1.91    3.07 
   0   9   9   -0.24    1.98 
   0   9  10   43.06    7.81 
   0   9  10   53.46    8.19 
   0   9  10   46.22    6.56 
   0   9  10   49.60    7.80 
   0   9  11   59.65    7.61 
   0   9  11   65.34    8.00 
   0   9  12   59.34    6.50 
   0   8   0  141.32   14.37 
   0   8   0  153.89   19.52 
   0   8   1   79.62   13.70 
   0   8  -1   64.43    9.19 
   0   8   1   69.75   10.17 
   0   8  -1   74.64   13.26 
   0   8   2  175.70   16.78 
   0   8  -2  220.51   22.97 
   0   8   2  241.58   23.74 
   0   8  -2  149.54   14.10 
   0   8  -3  138.32   17.68 
   0   8   3  142.32   18.08 
   0   8   3  117.19   13.63 
   0   8   4   72.97   10.69 
   0   8   5  135.48   14.55 
   0   8   6   17.51    5.29 
   0   8   7  434.67   26.23 
   0   8   7  459.64   31.77 
   0   8   8   74.50   12.18 
   0   8   8   67.89   11.29 
   0   8   8   56.52    8.33 
   0   8   9  260.95   22.19 
   0   8   9  265.52   23.11 
   0   8  10   71.44   10.94 
   0   8  10   76.40   11.59 
   0   8  10   65.28    8.46 
   0   8  11  135.90   12.94 
   0   8  11  139.61   14.21 
   0   8  11  128.49   13.91 
   0   8  11  109.53   13.27 
   0   8  12  102.08    9.80 
   0   8  12   99.19   10.66 
   0   8  12  114.42   11.68 
   0   8  13   17.37    4.27 
   0   8  13   12.50    3.38 
   0   7   0    0.28    2.49 
   0   7  -1  735.39   41.15 
   0   7   1  803.38   42.68 
   0   7  -2   44.32    9.16 
   0   7   2   72.57   12.27 
   0   7   3  753.66   40.52 
   0   7  -3  735.50   40.35 
   0   7  -4  202.85   19.45 
   0   7   4  193.60   16.88 
   0   7   4  198.62   18.93 
   0   7   5  334.11   24.77 
   0   7   5  333.57   22.54 
   0   7  -5  333.55   25.37 
   0   7   6  653.97   33.18 
   0   7   7  150.80   14.53 
   0   7   8  250.22   23.01 
   0   7   8  250.23   22.71 
   0   7   8  201.08   16.71 
   0   7   9    2.61    3.33 
   0   7   9    3.19    3.68 
   0   7   9    0.73    2.36 
   0   7  10  196.73   19.67 
   0   7  10  157.82   14.32 
   0   7  10  150.35   15.86 
   0   7  10  181.61   16.21 
   0   7  10  204.36   20.56 
   0   7  11   67.92    9.05 
   0   7  11   84.13   11.42 
   0   7  11  100.94   13.67 
   0   7  11   86.16   13.08 
   0   7  11   83.47   12.17 
   0   7  12  127.64   13.10 
   0   7  12  116.06   10.85 
   0   7  12  127.13   14.04 
   0   7  12  138.74   14.82 
   0   7  13  185.13   15.82 
   0   7  13  187.13   14.58 
   0   7  13  174.62   15.17 
   0   7  14   18.40    4.03 
   0   7  14   16.01    3.91 
   0   7  15   29.50    3.99 
   0   6   0 1352.76   53.63 
   0   6  -1  353.04   23.81 
   0   6   1  358.51   23.85 
   0   6  -2  420.58   26.43 
   0   6   2  445.66   26.94 
   0   6  -3  109.43   12.78 
   0   6   3  120.21   13.19 
   0   6  -4  333.74   22.72 
   0   6   4  309.26   21.75 
   0   6   5 1234.56   49.32 
   0   6  -5 1227.30   49.91 
   0   6   5 1227.08   45.83 
   0   6   6   20.24    5.50 
   0   6   6   14.91    4.42 
   0   6   7  924.22   40.33 
   0   6   7  881.52   38.15 
   0   6   8  108.04   12.18 
   0   6   8   97.29   10.85 
   0   6   8  103.61   14.25 
   0   6   8  112.43   14.19 
   0   6   8  113.80   15.26 
   0   6   9  139.97   17.43 
   0   6   9  127.46   13.68 
   0   6   9  146.53   17.29 
   0   6   9  136.50   15.94 
   0   6  10  120.18   13.68 
   0   6  10   97.88   13.58 
   0   6  10  116.42   15.40 
   0   6  10   94.15   11.85 
   0   6  10  118.40   15.97 
   0   6  11  363.28   26.81 
   0   6  11  430.19   30.20 
   0   6  11  330.97   23.26 
   0   6  11  383.83   24.86 
   0   6  11  444.79   31.17 
   0   6  11  452.53   29.63 
   0   6  11  494.69   28.11 
   0   6  11  441.74   31.49 
   0   6  12  425.05   24.93 
   0   6  12  353.68   25.71 
   0   6  12  451.03   29.70 
   0   6  12  474.90   31.00 
   0   6  12  442.50   28.35 
   0   6  12  430.63   25.33 
   0   6  13   22.85    6.29 
   0   6  13   16.26    4.25 
   0   6  13   21.08    4.60 
   0   6  14   96.58   11.24 
   0   6  14   77.70    8.21 
   0   6  14   94.10   10.35 
   0   6  15   -3.38    3.85 
   0   6  15    4.43    2.26 
   0   5   0    1.75    2.64 
   0   5   1 1102.60   42.46 
   0   5  -1 1054.48   41.88 
   0   5  -2  712.28   32.33 
   0   5   2  751.39   32.69 
   0   5  -3 1652.57   56.93 
   0   5   3 1704.82   57.01 
   0   5   4  267.56   17.73 
   0   5  -4  259.11   17.60 
   0   5   5  526.62   25.84 
   0   5  -5  488.16   25.93 
   0   5   6  474.51   23.84 
   0   5  -6  436.26   23.81 
   0   5   6  435.70   23.56 
   0   5   7   47.48    7.64 
   0   5   8 1463.77   55.46 
   0   5   8 1468.79   61.28 
   0   5   9  120.30   15.04 
   0   5   9  130.82   13.90 
   0   5   9  133.26   14.25 
   0   5   9  138.13   16.57 
   0   5   9  121.69   15.39 
   0   5   9  137.37   15.80 
   0   5  10  204.08   18.11 
   0   5  10  241.82   20.33 
   0   5  10  232.76   22.17 
   0   5  10  241.24   22.65 
   0   5  10  214.35   20.38 
   0   5  10  216.92   18.74 
   0   5  11   65.68   10.08 
   0   5  11   76.10   12.15 
   0   5  11   82.87   13.62 
   0   5  11   73.77   10.50 
   0   5  11   83.31   13.75 
   0   5  11   83.49   12.45 
   0   5  11   86.25   13.30 
   0   5  12  182.97   18.61 
   0   5  12  226.59   20.63 
   0   5  12  230.98   19.29 
   0   5  12  191.00   17.05 
   0   5  12  210.25   20.60 
   0   5  12  217.94   20.87 
   0   5  13  155.12   16.70 
   0   5  13  178.14   17.44 
   0   5  13  217.55   20.00 
   0   5  13  202.57   17.11 
   0   5  13  188.07   18.70 
   0   5  14   24.78    6.01 
   0   5  14   23.74    6.11 
   0   5  14   19.34    4.66 
   0   5  15  418.04   23.91 
   0   5  15  398.76   23.11 
   0   5  15  359.07   20.00 
   0   5  16    3.15    2.95 
   0   5  16   -3.88    3.37 
   0   5  16   -6.86    3.34 
   0   4  -3  982.36   35.71 
   0   4   3  976.84   35.29 
   0   4  -4 1676.42   52.64 
   0   4   4 1654.59   51.91 
   0   4  -5 1553.90   51.26 
   0   4   5 1664.41   51.05 
   0   4   5 1641.48   51.64 
   0   4   6  152.51   12.20 
   0   4   6  149.54   10.90 
   0   4  -6  154.86   11.53 
   0   4   7  864.96   36.06 
   0   4   8   38.45    7.04 
   0   4   9  666.38   33.67 
   0   4  10  201.29   19.07 
   0   4  10  165.30   15.98 
   0   4  10  189.57   19.66 
   0   4  10  170.19   16.38 
   0   4  10  186.18   18.91 
   0   4  10  210.38   19.51 
   0   4  10  175.69   17.13 
   0   4  11  710.19   40.52 
   0   4  11  684.74   38.70 
   0   4  11  571.87   32.84 
   0   4  11  656.60   35.03 
   0   4  11  667.04   38.19 
   0   4  11  706.74   40.18 
   0   4  11  632.20   36.64 
   0   4  12  707.73   40.41 
   0   4  12  587.98   35.96 
   0   4  12  660.67   39.00 
   0   4  12  592.20   34.93 
   0   4  12  652.47   37.70 
   0   4  12  620.59   33.71 
   0   4  13   81.51   12.59 
   0   4  13   86.39   12.58 
   0   4  13   94.14   12.29 
   0   4  13   70.01   11.78 
   0   4  13   65.00   11.19 
   0   4  14  209.23   19.01 
   0   4  14  249.05   21.21 
   0   4  14  201.07   18.61 
   0   4  14  238.09   18.84 
   0   4  15    3.40    2.90 
   0   4  15   -4.50    5.88 
   0   4  15    4.45    2.56 
   0   4  16  194.01   14.91 
   0   4  16  186.72   13.40 
   0   4  16  189.95   13.84 
   0   4  17   27.21    3.80 
   0   4  17   68.34    6.87 
   0   3   4 1606.83   46.87 
   0   3  -4 1576.53   47.04 
   0   3   5  182.65   11.84 
   0   3   5  184.84   10.56 
   0   3  -5  195.21   11.04 
   0   3   6 2649.61   71.21 
   0   3   6 2606.98   76.20 
   0   3  -6 2670.21   71.68 
   0   3   7  135.51   11.71 
   0   3   8 1426.88   51.26 
   0   3   9  164.22   14.87 
   0   3  10  419.17   28.67 
   0   3  10  417.91   26.37 
   0   3  10  433.21   29.03 
   0   3  10  414.41   28.72 
   0   3  10  368.25   24.21 
   0   3  10  451.73   28.97 
   0   3  11  466.19   29.13 
   0   3  11  420.41   28.25 
   0   3  11  454.18   30.88 
   0   3  11  442.60   29.84 
   0   3  11  447.36   29.84 
   0   3  11  380.21   25.53 
   0   3  11  371.49   25.55 
   0   3  11  432.16   30.01 
   0   3  12  169.64   17.03 
   0   3  12  157.70   17.88 
   0   3  12  154.15   15.81 
   0   3  12  152.12   17.29 
   0   3  12  152.12   17.41 
   0   3  12  175.12   19.00 
   0   3  12  161.03   16.89 
   0   3  13  322.97   23.32 
   0   3  13  314.59   26.05 
   0   3  13  297.55   24.59 
   0   3  13  299.57   24.16 
   0   3  13  332.38   24.07 
   0   3  13  340.29   24.87 
   0   3  14   65.12    9.76 
   0   3  14   66.73   10.91 
   0   3  14   72.30   10.72 
   0   3  14   61.89   10.85 
   0   3  14   61.70   10.67 
   0   3  15  215.16   18.32 
   0   3  15  206.66   17.15 
   0   3  15  217.43   18.87 
   0   3  15  193.85   15.56 
   0   3  16   20.34    4.73 
   0   3  16   15.96    4.40 
   0   3  17  230.19   13.74 
   0   3  17  136.55   10.62 
   0   2  -4 2741.93   70.97 
   0   2   4 2782.57   73.85 
   0   2   4 2839.37   70.96 
   0   2   4 2686.63   73.40 
   0   2  -5  752.62   23.12 
   0   2   5  703.17   26.48 
   0   2   5  737.79   27.24 
   0   2   5  731.03   22.71 
   0   2   6  680.19   27.41 
   0   2   6  712.32   28.35 
   0   2   7 1810.33   56.94 
   0   2   7 1714.90   57.12 
   0   2   8   55.54    7.66 
   0   2   8   52.56    7.83 
   0   2   9 1309.69   51.51 
   0   2   9 1363.29   50.92 
   0   2  10  136.13   14.62 
   0   2  11  464.61   28.26 
   0   2  11  544.65   31.09 
   0   2  11  536.66   32.20 
   0   2  11  513.99   29.90 
   0   2  11  517.12   32.06 
   0   2  11  537.20   33.48 
   0   2  11  583.30   33.23 
   0   2  11  537.96   33.27 
   0   2  12  234.63   21.65 
   0   2  12  267.55   23.57 
   0   2  12  309.00   23.74 
   0   2  12  284.52   23.21 
   0   2  12  254.56   21.27 
   0   2  12  265.81   21.19 
   0   2  13   38.47    8.22 
   0   2  13   36.29    8.72 
   0   2  13   41.45    8.60 
   0   2  13   30.89    8.00 
   0   2  13   30.35    7.17 
   0   2  13   29.14    7.57 
   0   2  13   43.83    8.52 
   0   2  14  411.63   29.07 
   0   2  14  422.51   26.55 
   0   2  14  423.50   27.92 
   0   2  14  440.47   29.75 
   0   2  14  435.90   27.75 
   0   2  14  394.25   28.02 
   0   2  14  378.55   27.29 
   0   2  15    0.44    3.83 
   0   2  15   -5.63    6.77 
   0   2  15    3.38    2.29 
   0   2  15    4.05    3.48 
   0   2  16  256.29   17.46 
   0   2  16  254.98   18.62 
   0   2  16  262.68   18.80 
   0   2  17   49.94    6.21 
   0   2  17   39.63    5.79 
   0   2  18  120.46    7.94 
   0   1   2 1828.60   46.83 
   0   1   3 1371.08   37.37 
   0   1  -3 1265.90   33.67 
   0   1   3 1345.25   33.85 
   0   1   4 1918.11   46.55 
   0   1  -4 1823.71   46.37 
   0   1   5 1191.98   37.88 
   0   1   6 1508.57   48.17 
   0   1   6 1460.70   46.70 
   0   1   7   73.17    8.35 
   0   1   7   74.41    8.04 
   0   1   8 2011.95   65.85 
   0   1   8 2023.27   64.59 
   0   1   9  621.08   31.31 
   0   1  10 1226.21   50.61 
   0   1  11  603.75   35.30 
   0   1  11  592.80   33.81 
   0   1  11  598.23   34.37 
   0   1  11  661.46   35.19 
   0   1  12  458.64   29.40 
   0   1  12  451.85   29.55 
   0   1  12  429.42   29.08 
   0   1  12  411.95   28.86 
   0   1  12  444.91   30.31 
   0   1  12  410.96   28.26 
   0   1  13  827.10   43.44 
   0   1  13  833.17   43.82 
   0   1  13  829.05   42.30 
   0   1  13  802.47   41.22 
   0   1  13  791.25   42.18 
   0   1  13  814.88   40.81 
   0   1  14   47.20    9.22 
   0   1  14   61.26   10.43 
   0   1  14   46.60    8.82 
   0   1  14   37.56    8.54 
   0   1  14   46.72    8.88 
   0   1  14   40.35    7.64 
   0   1  15  440.34   26.06 
   0   1  15  423.89   27.41 
   0   1  15  456.45   27.48 
   0   1  15  437.85   29.03 
   0   1  15  401.77   26.49 
   0   1  16    1.90    2.27 
   0   1  16    1.09    2.14 
   0   1  16    1.75    2.11 
   0   1  16    2.10    2.39 
   0   1  17  227.44   14.81 
   0   1  17  218.17   15.00 
   0   1  17  225.57   14.91 
   0   1  18  130.31    8.74 
   0   0   2  461.60   13.91 
   0   0   2  421.22   13.52 
   0   0   3  262.15   10.67 
   0   0   3  259.87   10.24 
   0   0   4 2358.21   62.63 
   0   0   5 2800.35   74.67 
   0   0   5 2745.10   75.20 
   0   0   6 2497.87   69.82 
   0   0   6 2452.24   70.62 
   0   0   7 4859.31  127.75 
   0   0   8   19.09    4.27 
   0   0   9  395.45   21.91 
   0   0  -9  402.52   22.36 
   0   0  10    6.58    3.76 
   0   0  11  211.16   19.25 
   0   0  11  212.90   18.84 
   0   0  11  188.76   17.97 
   0   0  11  222.10   18.03 
   0   0  11  247.46   20.82 
   0   0  11  210.46   19.06 
   0   0  12  412.21   28.11 
   0   0  12  383.03   27.05 
   0   0  12  454.48   29.47 
   0   0  12  402.46   28.85 
   0   0  12  409.36   26.90 
   0   0  12  402.70   28.50 
   0   0  12  433.07   26.83 
   0   0  13   16.51    5.16 
   0   0  13   10.45    3.66 
   0   0  13   11.69    4.37 
   0   0  13   18.09    5.59 
   0   0  14   86.43   12.17 
   0   0  14   87.66   12.50 
   0   0  14   96.59   12.58 
   0   0  15    5.30    3.54 
   0   0  15    8.36    3.80 
   0   0  16  216.77   16.16 
   0   0  16  229.55   17.49 
   0   0  16  208.67   17.33 
   0   0  16  180.93   15.65 
   0   0  16  202.26   15.68 
   0   0  17   69.15    8.24 
   0   0  17   66.60    8.07 
   0   0  17   71.76    8.18 
   0   0  17   61.15    6.82 
   0   0  17   67.98    7.32 
   0   0  18  183.90   10.44 
   0  -1   0   -0.24    0.47 
   0  -1  -1 1450.43   37.10 
   0  -1   1 1504.41   37.16 
   0  -1   2 1647.14   41.95 
   0  -1  -2 1592.82   41.01 
   0  -1  -3 1044.86   28.98 
   0  -1   3 1069.62   28.43 
   0  -1  -4 1849.17   52.16 
   0  -1   4 2054.90   51.83 
   0  -1  -5 1048.33   33.39 
   0  -1   5 1112.55   35.92 
   0  -1   5 1075.17   32.26 
   0  -1   6 1676.65   47.00 
   0  -1   6 1615.85   51.01 
   0  -1  -6 1595.95   48.54 
   0  -1  -7   60.03    6.70 
   0  -1   7   74.15    8.25 
   0  -1  -8 2012.04   62.10 
   0  -1   8 2088.17   65.79 
   0  -1   9  628.02   30.43 
   0  -1  10 1221.62   48.66 
   0  -1  11  626.78   35.90 
   0  -1  11  673.33   33.62 
   0  -1  11  634.63   34.31 
   0  -1  11  574.84   34.61 
   0  -1  11  641.99   35.38 
   0  -1  12  473.45   29.46 
   0  -1  12  409.19   28.16 
   0  -1  12  415.29   29.69 
   0  -1  12  415.58   29.12 
   0  -1  12  419.27   28.81 
   0  -1  12  438.71   27.22 
   0  -1  13  816.61   40.51 
   0  -1  13  742.94   40.37 
   0  -1  13  771.80   41.62 
   0  -1  14   42.56    8.39 
   0  -1  14   50.21    9.23 
   0  -1  15  430.44   26.26 
   0  -1  15  398.95   25.81 
   0  -1  16    0.85    1.93 
   0  -1  16   -3.29    3.30 
   0  -1  16    7.28    3.07 
   0  -1  16    0.18    2.51 
   0  -1  16   -4.21    3.21 
   0  -1  17  236.73   16.01 
   0  -1  17  259.84   15.35 
   0  -1  17  239.22   15.67 
   0  -1  17  227.26   14.75 
   0  -1  17  219.32   14.18 
   0  -1  18   59.69    5.96 
   0  -2   0 3243.03   78.54 
   0  -2   0 3204.45   81.17 
   0  -2   1 3248.46   78.64 
   0  -2  -1 3115.64   79.66 
   0  -2   2 3174.78   77.92 
   0  -2  -2 3017.78   77.62 
   0  -2  -3 1219.69   34.98 
   0  -2   3 1256.57   36.16 
   0  -2  -4 2602.51   67.67 
   0  -2   4 2556.90   69.21 
   0  -2   5  656.90   21.66 
   0  -2  -5  586.04   21.83 
   0  -2  -6  639.49   24.33 
   0  -2   6  660.70   23.42 
   0  -2   7 1566.29   46.54 
   0  -2  -7 1521.42   48.30 
   0  -2   8   67.22    8.86 
   0  -2   9 1536.35   57.03 
   0  -2  10  133.56   14.35 
   0  -2  11  530.51   29.41 
   0  -2  11  505.16   31.03 
   0  -2  11  550.51   31.98 
   0  -2  11  448.21   31.10 
   0  -2  11  506.14   30.43 
   0  -2  12  300.83   25.57 
   0  -2  12  246.11   21.24 
   0  -2  12  250.15   21.11 
   0  -2  12  237.61   19.45 
   0  -2  13   38.95    7.91 
   0  -2  13   38.74    8.15 
   0  -2  13   35.55    8.07 
   0  -2  14  421.34   29.76 
   0  -2  14  382.71   25.79 
   0  -2  14  399.31   26.44 
   0  -2  15    2.89    3.19 
   0  -2  15   -0.72    3.57 
   0  -2  15    7.21    3.12 
   0  -2  16  238.28   17.71 
   0  -2  16  245.46   18.94 
   0  -2  16  260.39   16.88 
   0  -2  16  233.76   17.03 
   0  -2  16  250.00   18.08 
   0  -2  17   51.48    6.83 
   0  -2  17   54.98    7.32 
   0  -2  17   48.01    6.53 
   0  -2  17   46.36    6.24 
   0  -2  18   69.89    6.04 
   0  -3   0   -0.03    0.57 
   0  -3   1 7318.41  173.34 
   0  -3  -1 7064.36  175.67 
   0  -3  -1 7113.39  171.27 
   0  -3   2   53.70    4.98 
   0  -3  -2   51.94    5.07 
   0  -3   3  400.81   16.90 
   0  -3  -3  393.14   16.42 
   0  -3   4 1496.54   46.27 
   0  -3  -4 1543.18   44.86 
   0  -3  -5  192.50   11.35 
   0  -3  -6 2374.08   68.19 
   0  -3   6 2392.57   66.00 
   0  -3   6 2578.35   76.02 
   0  -3   7  124.64   12.33 
   0  -3   8 1463.68   55.30 
   0  -3   9  161.50   15.92 
   0  -3  10  480.75   29.70 
   0  -3  10  390.98   26.36 
   0  -3  11  336.97   25.81 
   0  -3  11  318.62   24.01 
   0  -3  11  349.10   25.04 
   0  -3  11  342.31   23.10 
   0  -3  12  107.73   13.57 
   0  -3  12  111.81   13.04 
   0  -3  12   84.89   11.41 
   0  -3  12  131.53   17.19 
   0  -3  13  255.84   20.53 
   0  -3  13  302.97   26.02 
   0  -3  13  339.68   24.40 
   0  -3  13  294.00   21.51 
   0  -3  14   73.30   10.66 
   0  -3  14   58.70    8.92 
   0  -3  14   54.85   10.39 
   0  -3  15  198.41   16.74 
   0  -3  15  196.76   18.42 
   0  -3  15  193.82   17.37 
   0  -3  16   23.25    5.25 
   0  -3  16   20.97    5.42 
   0  -3  16   20.62    4.55 
   0  -3  16   21.66    5.10 
   0  -3  17  144.73   10.93 
   0  -3  17  158.87   11.97 
   0  -3  17  153.44   11.17 
   0  -3  17  154.63   11.00 
   0  -4   0 2270.06   61.09 
   0  -4  -1   66.35    5.25 
   0  -4   1   63.10    5.80 
   0  -4   2  520.42   20.80 
   0  -4  -2  510.27   17.72 
   0  -4  -2  510.70   21.67 
   0  -4  -3  845.73   30.32 
   0  -4   3  838.56   29.88 
   0  -4  -3  805.88   24.76 
   0  -4  -4 1475.19   45.85 
   0  -4   4 1406.28   46.40 
   0  -4  -5 1645.56   51.20 
   0  -4   7  903.78   40.88 
   0  -4   8   43.21    8.19 
   0  -4   9  624.94   35.71 
   0  -4  10  154.32   15.67 
   0  -4  10  175.86   15.82 
   0  -4  10  176.52   20.12 
   0  -4  10  198.91   19.67 
   0  -4  10  174.97   16.10 
   0  -4  11  600.69   32.06 
   0  -4  11  597.06   32.91 
   0  -4  11  647.92   35.89 
   0  -4  11  621.43   39.64 
   0  -4  12  536.23   30.37 
   0  -4  12  619.22   38.90 
   0  -4  12  565.47   31.02 
   0  -4  12  600.70   34.20 
   0  -4  13   56.52    8.95 
   0  -4  13   64.71   10.34 
   0  -4  13   66.99   11.83 
   0  -4  14  196.39   18.24 
   0  -4  14  206.27   17.68 
   0  -4  14  223.41   20.63 
   0  -4  15    7.62    4.49 
   0  -4  15    6.38    2.79 
   0  -4  15    4.70    3.03 
   0  -4  15    1.29    2.72 
   0  -4  16  156.55   12.63 
   0  -4  16  160.48   12.60 
   0  -4  16  157.47   12.02 
   0  -4  16  168.06   13.90 
   0  -4  17   23.24    3.75 
   0  -4  17   25.75    3.72 
   0  -4  17   26.09    4.13 
   0  -5   0    0.75    0.86 
   0  -5   1 1077.36   36.36 
   0  -5  -1 1073.78   34.36 
   0  -5   2  666.57   26.60 
   0  -5  -2  647.58   23.27 
   0  -5  -3 1448.34   42.17 
   0  -5   3 1466.61   48.54 
   0  -5  -3 1539.57   50.15 
   0  -5  -4  248.01   15.79 
   0  -5   4  217.97   15.33 
   0  -5   7   35.56    7.81 
   0  -5   8 1459.98   59.51 
   0  -5   8 1257.23   59.65 
   0  -5   9  104.82   13.06 
   0  -5   9  114.06   15.05 
   0  -5   9  102.22   15.35 
   0  -5   9   91.97   11.73 
   0  -5  10  190.69   21.84 
   0  -5  10  231.11   19.80 
   0  -5  10  231.90   19.08 
   0  -5  10  225.38   18.06 
   0  -5  11   82.70   10.96 
   0  -5  11   68.29   11.27 
   0  -5  11   71.85   13.19 
   0  -5  11   59.10    9.65 
   0  -5  11   63.70    9.44 
   0  -5  12  201.47   21.19 
   0  -5  12  174.58   15.68 
   0  -5  12  208.68   17.68 
   0  -5  12  205.24   19.58 
   0  -5  12  196.11   18.42 
   0  -5  13  179.79   15.50 
   0  -5  13  215.66   20.79 
   0  -5  13  183.39   17.67 
   0  -5  13  190.87   17.29 
   0  -5  14   16.26    4.87 
   0  -5  14   19.59    5.97 
   0  -5  14   15.83    4.88 
   0  -5  15  309.12   19.20 
   0  -5  15  363.51   20.54 
   0  -5  15  358.18   22.26 
   0  -5  15  312.16   18.08 
   0  -5  16    3.58    2.15 
   0  -5  16    1.26    1.60 
   0  -5  16   -1.33    2.08 
   0  -6   0 1482.79   48.56 
   0  -6   1  308.85   17.95 
   0  -6  -1  306.91   16.51 
   0  -6   2  354.23   20.43 
   0  -6   3  109.69   11.07 
   0  -6   6    8.57    4.33 
   0  -6   7  946.37   43.40 
   0  -6   7  879.92   37.09 
   0  -6   7  877.35   47.30 
   0  -6   7  813.85   40.68 
   0  -6   7  857.59   44.83 
   0  -6   8  109.04   11.26 
   0  -6   8   95.97   15.03 
   0  -6   8  117.14   14.22 
   0  -6   8  106.54   13.35 
   0  -6   8  118.67   15.69 
   0  -6   9  147.92   15.68 
   0  -6   9  148.49   15.92 
   0  -6   9  134.80   15.56 
   0  -6   9  132.01   17.62 
   0  -6   9  148.99   12.88 
   0  -6  10   81.72   13.55 
   0  -6  10   88.10   11.81 
   0  -6  10   86.13   12.27 
   0  -6  10   67.83   11.03 
   0  -6  11  324.54   24.42 
   0  -6  11  381.60   25.53 
   0  -6  11  346.73   28.67 
   0  -6  11  385.12   24.13 
   0  -6  11  375.66   26.04 
   0  -6  12  363.17   24.63 
   0  -6  12  339.37   23.94 
   0  -6  12  344.65   27.34 
   0  -6  12  362.72   23.74 
   0  -6  12  368.70   21.87 
   0  -6  13   16.76    4.69 
   0  -6  13   13.74    4.26 
   0  -6  13   19.50    6.32 
   0  -6  13   11.57    3.88 
   0  -6  14   70.95    7.68 
   0  -6  14   76.14    8.73 
   0  -6  14   96.87   10.27 
   0  -6  15    7.93    2.74 
   0  -6  15    2.57    1.79 
   0  -6  16   94.68    6.88 
   0  -7   0    0.72    1.80 
   0  -7   1  619.03   30.07 
   0  -7   2   38.20    6.94 
   0  -7   4  198.20   17.99 
   0  -7   4  172.88   15.63 
   0  -7   4  212.44   17.77 
   0  -7   5  289.48   20.49 
   0  -7   5  316.35   23.59 
   0  -7   5  309.58   22.29 
   0  -7   5  307.60   25.49 
   0  -7   6  730.24   38.52 
   0  -7   6  697.90   35.68 
   0  -7   6  701.61   33.90 
   0  -7   6  686.74   37.28 
   0  -7   6  654.87   39.63 
   0  -7   7  137.54   13.58 
   0  -7   7  158.67   15.84 
   0  -7   7  152.41   16.19 
   0  -7   7  163.99   17.07 
   0  -7   8  183.88   18.22 
   0  -7   8  160.07   14.37 
   0  -7   8  156.99   16.72 
   0  -7   9    2.48    2.50 
   0  -7   9    4.90    4.10 
   0  -7  10  193.58   17.17 
   0  -7  10  201.59   18.47 
   0  -7  11   84.89   11.38 
   0  -7  11   77.56   10.78 
   0  -7  12  109.96   11.80 
   0  -7  12  122.79   12.73 
   0  -7  13  139.41   11.82 
   0  -7  13  164.20   13.28 
   0  -7  14    7.57    2.40 
   0  -7  14    8.13    2.55 
   0  -7  15   21.29    3.25 
   0  -8   0  101.15   11.52 
   0  -8   0  137.61   14.98 
   0  -8   1   60.73    9.30 
   0  -8   1   68.48   10.41 
   0  -8   2  212.73   18.84 
   0  -8   2  173.54   15.94 
   0  -8   3  110.11   15.14 
   0  -8   3  113.78   13.75 
   0  -8   3   80.45   10.66 
   0  -8   4   58.84   10.26 
   0  -8   4   44.97    8.12 
   0  -8   5  150.53   16.68 
   0  -8   5  162.21   16.61 
   0  -8   5  116.87   13.45 
   0  -8   6   13.74    4.53 
   0  -8   6   14.94    4.52 
   0  -8   6   17.80    5.97 
   0  -8   7  478.33   30.61 
   0  -8   7  455.73   27.90 
   0  -8   7  427.90   25.54 
   0  -8   8   67.63   10.65 
   0  -8   8   60.38    9.30 
   0  -8   9  239.96   20.16 
   0  -8  10   65.11    9.70 
   0  -8  10   69.28    9.79 
   0  -8  11  106.89   11.44 
   0  -8  11  101.36   10.96 
   0  -8  12   80.85    8.71 
   0  -8  12   78.21    8.63 
   0  -8  13   13.34    3.17 
   0  -8  13   14.13    3.10 
   0  -9   0    1.08    2.74 
   0  -9   1  323.01   24.49 
   0  -9  -1  304.60   24.13 
   0  -9   2   44.50    9.02 
   0  -9  -2   47.40    9.37 
   0  -9   3  543.28   32.16 
   0  -9  -3  500.91   31.65 
   0  -9   4  320.91   23.55 
   0  -9   4  312.13   24.60 
   0  -9  -4  259.94   22.12 
   0  -9   5   92.16   12.15 
   0  -9  -5   69.33   10.98 
   0  -9   5   76.27   11.66 
   0  -9   6  102.21   13.31 
   0  -9   6  106.53   12.72 
   0  -9  -6  110.11   12.89 
   0  -9   7    3.20    2.78 
   0  -9  -7   11.70    4.25 
   0  -9   7    7.97    4.61 
   0  -9   8   97.36   10.83 
   0  -9   8  106.02   12.61 
   0  -9   9    3.94    2.77 
   0  -9   9    0.51    2.10 
   0  -9  10   35.72    5.53 
   0  -9  10   32.60    5.99 
   0  -9  11   33.96    5.14 
   0  -9  11   37.16    5.59 
   0  -9  12   42.30    4.86 
   0  -9  12   33.18    4.35 
   0 -10   0  187.62   18.06 
   0 -10  -1    3.43    2.16 
   0 -10   1    0.14    2.93 
   0 -10   1    1.83    2.39 
   0 -10   2   41.93    8.04 
   0 -10  -2   51.78    9.33 
   0 -10   2   50.90    9.04 
   0 -10  -3   18.57    5.69 
   0 -10   3   28.38    6.94 
   0 -10   3   22.34    6.32 
   0 -10   4   71.16   10.29 
   0 -10  -4   69.94   10.48 
   0 -10   4   66.65   10.28 
   0 -10  -5  141.95   14.32 
   0 -10   5  127.21   14.11 
   0 -10   5  143.91   14.07 
   0 -10   6   20.08    5.36 
   0 -10  -6   26.84    6.04 
   0 -10   6   23.27    5.32 
   0 -10  -7   81.11    9.14 
   0 -10   7   86.67   10.32 
   0 -10   7   73.25    8.82 
   0 -10   7   83.80    9.12 
   0 -10   8    5.69    2.95 
   0 -10   8    3.40    1.90 
   0 -10   9   56.89    7.14 
   0 -10  10   13.20    3.03 
   0 -11   0   -2.46    2.50 
   0 -11   1   55.90    8.78 
   0 -11  -1   52.60    8.30 
   0 -11   2    3.59    2.62 
   0 -11   2    1.21    2.34 
   0 -11  -2    7.88    3.75 
   0 -11   3   62.72    8.43 
   0 -11  -3   74.68    9.73 
   0 -11  -4   72.35    9.12 
   0 -11   4   81.07    9.94 
   0 -11   4   82.02    9.36 
   0 -11   4   75.75    8.78 
   0 -11  -4   88.92    9.53 
   0 -11   5    6.18    2.44 
   0 -11   5    7.02    2.70 
   0 -11  -5   13.91    3.64 
   0 -11   5    6.75    2.90 
   0 -11   6   63.82    6.77 
   0 -11   6   59.49    7.14 
   0 -11   6   68.56    7.30 
   0 -11  -6   64.71    7.01 
   0 -11   7   -0.23    1.66 
   0 -11   8   64.06    5.97 
   0 -12   0   33.57    5.38 
   0 -12   0   37.83    5.96 
   0 -12  -1    7.86    2.85 
   0 -12  -1    6.29    2.67 
   0 -12   1   13.46    3.28 
   0 -12   1    9.47    3.03 
   0 -12   2   81.31    7.84 
   0 -12  -2   92.22    8.34 
   0 -12   2   81.60    8.29 
   0 -12  -2   76.09    7.65 
   0 -12   3   31.38    5.00 
   0 -12   3   24.26    3.97 
   0 -12  -3   22.03    3.85 
   1  12   3   12.25    2.80 
   1  12   2   19.09    3.76 
  -1  12   2   25.03    4.26 
  -1  12   3   14.23    3.06 
   1  11   7   15.89    3.73 
  -1  11  -7   12.35    2.64 
   1  11   6   31.48    5.42 
  -1  11  -6   21.46    3.62 
  -1  11  -5   60.97    6.78 
   1  11   5   80.61    9.12 
  -1  11  -4    2.05    1.90 
   1  11   4   -1.80    1.74 
  -1  11  -3  134.88   10.84 
  -1  11  -2   18.39    3.85 
  -1  11  -1   56.63    6.64 
  -1  11   3   52.11    7.55 
  -1  11   4  146.09   12.40 
  -1  11   5   21.17    4.56 
  -1  11   5   16.36    4.21 
  -1  11   6   43.52    6.05 
  -1  11   6   42.79    6.56 
  -1  11   7    4.57    2.53 
   1  10  10   21.40    3.63 
   1  10   9   52.87    6.63 
   1  10   8   30.50    5.98 
   1  10   7   53.65    8.06 
   1  10   6   56.14    7.81 
   1  10   6   43.53    6.94 
   1  10   6   52.29    8.45 
   1  10   5  121.11   12.28 
   1  10   5  130.93   12.63 
   1  10   4   78.67   10.17 
   1  10   3    3.65    1.85 
   1  10   2  107.43   12.10 
  -1  10  -1   34.97    6.82 
   1  10   1   37.12    7.26 
  -1  10   0  149.88   13.71 
   1  10   0  106.40   11.73 
   1  10  -1   22.23    5.32 
  -1  10   1   25.01    5.72 
   1  10  -2   80.99    9.11 
  -1  10   4    4.02    2.64 
  -1  10   5  125.62   13.70 
  -1  10   6   17.11    5.49 
  -1  10   6   18.10    5.44 
  -1  10   7   51.72    8.28 
  -1  10   7   54.93    8.39 
  -1  10   8   15.59    4.26 
  -1  10   8   13.34    3.64 
  -1  10   8   19.31    4.71 
  -1  10   9   44.86    6.55 
  -1  10   9   36.33    4.83 
  -1  10  10   70.04    6.98 
   1   9  12   79.51    6.85 
   1   9  11   23.68    4.83 
   1   9  11   18.69    3.92 
   1   9  10  140.19   12.54 
   1   9   9   23.40    5.59 
   1   9   9   17.91    4.49 
   1   9   8  138.11   12.24 
   1   9   8  167.77   14.38 
   1   9   8  161.12   15.58 
   1   9   7   35.85    6.41 
   1   9   7   32.73    7.02 
   1   9   7   32.47    6.97 
   1   9   6  172.01   15.99 
   1   9   6  156.38   14.82 
   1   9   5  133.49   14.01 
   1   9   4   48.06    8.53 
   1   9   3   72.03   10.60 
   1   9   2    0.11    2.65 
   1   9   1  158.31   15.62 
   1   9   0   15.35    4.50 
  -1   9   1   96.32   11.69 
   1   9  -1   86.05   10.81 
   1   9  -2   68.32   10.75 
  -1   9   2   76.14   10.12 
   1   9  -2   63.64    9.13 
  -1   9   3   66.49    9.15 
   1   9  -3   53.95    9.27 
   1   9  -4  111.51   12.89 
  -1   9   6  193.70   18.75 
  -1   9   7   35.64    8.01 
  -1   9   7   21.99    6.41 
  -1   9   8   53.60    9.50 
  -1   9   8   55.68    9.21 
  -1   9   9  102.74   12.43 
  -1   9   9   84.21   10.95 
  -1   9   9   99.16   10.80 
  -1   9   9  103.18   10.99 
  -1   9  10   52.43    6.86 
  -1   9  10   60.79    8.71 
  -1   9  10   56.89    7.30 
  -1   9  11  170.12   12.94 
  -1   9  11  144.84   10.21 
  -1   9  11  158.44   10.70 
  -1   9  12   18.11    3.42 
   1   8  13   41.91    5.60 
   1   8  13   49.37    5.93 
   1   8  12    5.16    2.37 
   1   8  12    5.10    2.63 
   1   8  11   67.82    8.46 
   1   8  11   57.61    7.33 
   1   8  11   78.59   10.26 
   1   8  11   71.75    8.44 
   1   8  10    3.95    3.07 
   1   8  10    1.99    2.01 
   1   8  10    6.95    2.72 
   1   8   9  137.89   14.20 
   1   8   9  115.50   11.28 
   1   8   9  135.31   15.04 
   1   8   9  143.63   12.86 
   1   8   8   12.69    4.12 
   1   8   8   18.82    5.66 
   1   8   8    9.79    4.20 
   1   8   8   18.17    4.57 
   1   8   7   78.64    9.85 
   1   8   7   54.88   10.04 
   1   8   7   77.43   10.16 
   1   8   7   56.03    9.16 
   1   8   6  158.47   15.30 
   1   8   5    0.64    2.07 
   1   8   4  738.85   37.02 
   1   8   3   10.94    4.57 
   1   8   2  644.49   33.83 
   1   8   2  603.41   34.60 
   1   8   1  140.28   18.57 
   1   8   1  161.17   15.50 
   1   8   1  121.94   14.64 
   1   8   0   88.79   12.20 
  -1   8   0   81.78   13.59 
   1   8   0   72.06   13.41 
   1   8   0   98.90   11.74 
   1   8  -1  131.64   14.71 
   1   8  -1  120.45   17.26 
   1   8  -1  128.75   13.24 
   1   8  -2  448.90   28.43 
  -1   8   2  427.55   26.54 
   1   8  -2  463.50   25.58 
   1   8  -3  641.26   34.10 
  -1   8   3  667.01   34.00 
   1   8  -4   76.75   10.61 
  -1   8   4   77.10   10.64 
  -1   8   5  578.15   30.81 
  -1   8   6   29.66    7.77 
  -1   8   7  185.17   19.12 
  -1   8   8    4.50    4.06 
  -1   8   8    2.87    3.74 
  -1   8   9  258.20   20.62 
  -1   8   9  228.38   20.68 
  -1   8   9  220.67   20.80 
  -1   8  10  115.69   12.59 
  -1   8  10  136.61   15.04 
  -1   8  10  131.16   13.43 
  -1   8  10  126.72   14.77 
  -1   8  11   47.81    7.37 
  -1   8  11   50.55    8.50 
  -1   8  11   39.99    6.66 
  -1   8  12   64.97    7.95 
  -1   8  12   73.34    9.29 
  -1   8  12   69.54    7.69 
  -1   8  13    1.29    2.51 
   1   7  14  106.65    7.89 
   1   7  14  128.77    9.95 
   1   7  14  138.98   10.61 
   1   7  13  122.69   11.87 
   1   7  13  103.12   10.39 
   1   7  13  122.75   11.71 
   1   7  12  175.36   15.65 
   1   7  12  138.40   13.25 
   1   7  12  144.25   12.96 
   1   7  12  117.14   11.78 
   1   7  12  161.37   15.00 
   1   7  11   34.11    6.56 
   1   7  11   35.30    7.94 
   1   7  11   39.23    8.54 
   1   7  11   26.17    5.73 
   1   7  11   33.60    6.88 
   1   7  10  176.27   15.60 
   1   7  10  173.62   16.72 
   1   7  10  176.18   16.60 
   1   7  10  168.74   17.35 
   1   7   9   37.24    7.82 
   1   7   9   44.12    7.80 
   1   7   9   43.77    8.69 
   1   7   9   49.29    9.66 
   1   7   9   36.82    6.53 
   1   7   8  393.21   27.34 
   1   7   8  455.62   28.77 
   1   7   8  443.80   30.03 
   1   7   8  445.23   26.04 
   1   7   8  405.16   24.02 
   1   7   7  193.37   16.45 
   1   7   7  188.02   16.23 
   1   7   7  173.93   17.41 
   1   7   6  752.19   35.68 
   1   7   6  795.44   40.01 
   1   7   5  278.40   18.69 
   1   7   5  245.87   21.39 
  -1   7  -5  221.55   20.19 
   1   7   4  149.27   16.67 
  -1   7  -4  137.81   15.75 
   1   7   3  212.27   18.50 
   1   7   3  242.83   22.04 
   1   7   2  104.04   12.56 
   1   7   2   93.30   13.77 
   1   7   1  561.47   35.91 
   1   7   0  212.18   21.09 
   1   7  -1  645.95   39.02 
  -1   7   2   39.22    7.70 
   1   7  -2   59.78   11.07 
   1   7  -3    4.06    3.77 
   1   7  -3    6.84    3.81 
  -1   7   3    3.38    1.59 
   1   7  -4  333.45   26.06 
  -1   7   4  324.66   24.79 
  -1   7   4  314.56   21.59 
   1   7  -4  290.69   21.00 
  -1   7   4  284.43   21.34 
   1   7  -5    2.25    4.09 
  -1   7   5    2.83    2.16 
  -1   7   5    7.53    3.79 
  -1   7   6  379.78   24.31 
  -1   7   7  315.48   25.89 
  -1   7   8   41.85    9.26 
  -1   7   8   50.58   10.19 
  -1   7   9  171.15   19.36 
  -1   7   9  189.26   19.94 
  -1   7  10  120.43   14.63 
  -1   7  10  133.96   15.16 
  -1   7  10  108.08   14.73 
  -1   7  10   98.03   14.06 
  -1   7  11  191.51   17.48 
  -1   7  11  179.39   14.72 
  -1   7  11  210.67   17.92 
  -1   7  11  201.07   19.58 
  -1   7  12    6.05    2.79 
  -1   7  12    5.10    2.23 
  -1   7  12    4.91    2.78 
  -1   7  12    7.92    3.86 
  -1   7  13  199.05   13.21 
  -1   7  13  249.85   18.07 
  -1   7  13  232.35   15.53 
  -1   7  13  231.48   16.11 
  -1   7  14   39.26    4.91 
  -1   7  14   47.78    5.71 
   1   6  15   21.35    4.30 
   1   6  15   17.67    3.31 
   1   6  14  105.84   10.89 
   1   6  14   92.86   10.32 
   1   6  14  115.41   11.31 
   1   6  13  179.68   15.90 
   1   6  13  181.39   16.19 
   1   6  13  197.78   16.97 
   1   6  12   81.04   12.16 
   1   6  12   53.28    9.01 
   1   6  12   36.13    7.43 
   1   6  12   71.12   12.35 
   1   6  12   57.71    9.91 
   1   6  11  190.88   18.93 
   1   6  11  189.79   18.75 
   1   6  11  188.08   17.01 
   1   6  11  196.88   18.80 
   1   6  10   42.85    9.21 
   1   6  10   45.96    9.46 
   1   6  10   54.89    9.20 
   1   6  10   50.97    9.70 
   1   6  10   58.02   10.02 
   1   6   9  217.42   19.75 
   1   6   9  270.62   22.51 
   1   6   9  207.13   20.54 
   1   6   9  222.83   18.54 
   1   6   9  222.94   20.89 
   1   6   8  345.32   25.17 
   1   6   8  322.75   25.40 
   1   6   8  302.48   23.46 
   1   6   8  372.22   22.05 
   1   6   8  338.73   22.61 
   1   6   8  293.10   24.84 
   1   6   7  165.60   17.97 
   1   6   7  172.95   16.81 
   1   6   7  201.85   18.31 
   1   6   7  205.88   16.70 
   1   6   6  272.27   22.13 
   1   6   5  113.92   12.98 
   1   6   4  650.76   34.56 
   1   6   3    9.94    3.89 
   1   6   2  463.85   29.09 
   1   6   1  302.35   23.14 
   1   6   0  619.22   34.86 
   1   6  -1  297.90   23.06 
   1   6  -2  333.53   24.35 
   1   6  -3  709.77   37.46 
   1   6  -4   33.61    7.45 
   1   6  -5 1128.42   48.68 
  -1   6   7  674.48   33.80 
  -1   6   7  622.55   36.92 
  -1   6   8  130.77   14.06 
  -1   6   8  136.08   16.78 
  -1   6   8  134.76   17.06 
  -1   6   9  278.13   24.77 
  -1   6   9  267.92   24.58 
  -1   6   9  279.19   20.70 
  -1   6  10  188.77   20.65 
  -1   6  10  194.12   20.69 
  -1   6  10  226.63   21.19 
  -1   6  11  123.52   14.77 
  -1   6  11  115.17   14.37 
  -1   6  11  112.85   15.37 
  -1   6  12  349.27   25.01 
  -1   6  12  326.98   21.63 
  -1   6  12  380.65   25.10 
  -1   6  12  380.31   27.63 
  -1   6  13   18.08    5.16 
  -1   6  13   23.68    5.35 
  -1   6  13   16.66    4.92 
  -1   6  13   20.19    5.78 
  -1   6  14  145.73   11.83 
  -1   6  14  142.11   12.86 
  -1   6  15   38.50    5.47 
  -1   6  15   34.30    4.89 
  -1   6  15   24.49    3.88 
   1   5  16   26.98    5.00 
   1   5  15   86.67    9.15 
   1   5  15   94.30    8.21 
   1   5  15   84.62    9.58 
   1   5  15   97.22   10.25 
   1   5  15  100.27    8.24 
   1   5  14   13.65    2.75 
   1   5  14   34.26    6.94 
   1   5  14   34.75    7.17 
   1   5  14   28.73    6.35 
   1   5  13  124.79   13.96 
   1   5  13   78.60   10.50 
   1   5  13  112.45   13.87 
   1   5  13   95.61   10.87 
   1   5  13   88.18   12.07 
   1   5  12  372.10   26.87 
   1   5  12  342.65   25.92 
   1   5  12  330.33   24.28 
   1   5  12  387.52   28.04 
   1   5  12  349.25   25.20 
   1   5  12  344.28   23.18 
   1   5  12  344.87   25.57 
   1   5  12  323.23   22.86 
   1   5  11   46.81    8.95 
   1   5  11   61.72   11.03 
   1   5  11   50.83    9.96 
   1   5  11   53.85   10.09 
   1   5  11   42.15    8.70 
   1   5  11   34.57    8.27 
   1   5  11   44.36    8.39 
   1   5  10  721.67   40.21 
   1   5  10  644.72   37.69 
   1   5  10  668.44   34.87 
   1   5  10  653.66   37.93 
   1   5  10  646.71   36.65 
   1   5   9   -0.18    2.70 
   1   5   9    2.29    2.69 
   1   5   9    1.08    2.22 
   1   5   9   -5.29    3.52 
   1   5   9    6.18    4.12 
   1   5   9    4.84    3.23 
   1   5   8  694.53   38.63 
   1   5   8  772.11   35.75 
   1   5   8  723.40   38.58 
   1   5   8  737.27   39.96 
   1   5   8  688.73   37.08 
   1   5   8  815.76   39.45 
   1   5   7   34.99    7.02 
   1   5   6  257.68   17.87 
   1   5   5 1313.68   49.33 
   1   5   4  136.33   13.23 
   1   5   3 1675.60   59.54 
   1   5   2  212.64   17.06 
   1   5   1 1229.96   48.80 
   1   5   0   47.96    8.15 
   1   5  -1  195.33   16.43 
   1   5  -2  881.87   39.11 
   1   5  -3  732.68   34.71 
   1   5  -4 1123.10   45.56 
   1   5  -5  159.30   14.38 
   1   5  -6  610.97   30.22 
  -1   5   8  177.69   16.22 
  -1   5   8  167.02   18.06 
  -1   5   8  167.62   18.14 
  -1   5   8  151.35   16.93 
  -1   5   9  247.54   22.82 
  -1   5   9  240.18   19.27 
  -1   5   9  247.23   23.05 
  -1   5   9  220.95   20.97 
  -1   5  10  243.29   19.42 
  -1   5  10  237.26   23.30 
  -1   5  10  256.88   21.05 
  -1   5  10  240.81   22.03 
  -1   5  10  245.77   21.98 
  -1   5  10  240.89   23.19 
  -1   5  11  628.83   38.72 
  -1   5  11  589.64   35.95 
  -1   5  11  563.08   32.87 
  -1   5  11  589.95   34.94 
  -1   5  11  576.17   31.70 
  -1   5  12   14.46    5.26 
  -1   5  12   10.08    2.97 
  -1   5  12   18.30    6.37 
  -1   5  12   13.36    4.39 
  -1   5  12   13.33    5.60 
  -1   5  13  193.84   18.19 
  -1   5  13  193.73   19.18 
  -1   5  13  177.65   15.99 
  -1   5  13  190.98   17.40 
  -1   5  14   36.05    6.57 
  -1   5  14   28.52    6.26 
  -1   5  15  194.04   14.97 
  -1   5  15  181.45   13.49 
  -1   5  15  169.32   13.90 
  -1   5  16   22.95    3.84 
  -1   5  16   24.54    4.01 
   1   4  16  122.82   10.61 
   1   4  16  146.53   10.24 
   1   4  15   37.10    5.85 
   1   4  15   61.06    8.88 
   1   4  15   52.47    7.46 
   1   4  15   49.91    7.84 
   1   4  15   41.97    5.62 
   1   4  14  131.15   13.06 
   1   4  14  138.90   14.00 
   1   4  14  160.15   15.90 
   1   4  14  130.99   14.32 
   1   4  14  153.03   14.98 
   1   4  14  140.67   14.68 
   1   4  13  255.64   20.28 
   1   4  13  270.22   22.01 
   1   4  13  317.82   24.32 
   1   4  13  277.35   22.16 
   1   4  13  258.38   20.19 
   1   4  13  293.85   23.35 
   1   4  13  295.42   23.20 
   1   4  12   74.52   11.94 
   1   4  12   71.19   10.94 
   1   4  12   89.54   13.08 
   1   4  12   78.64   12.16 
   1   4  12   70.51   10.71 
   1   4  12   97.57   13.31 
   1   4  12   82.41   12.77 
   1   4  11   70.01   11.44 
   1   4  11   66.27   11.28 
   1   4  11   67.19   11.23 
   1   4  11   59.92    9.80 
   1   4  11   72.58   11.88 
   1   4  11   66.55   10.85 
   1   4  10   30.25    7.63 
   1   4  10   41.45   13.00 
   1   4  10   31.79    7.60 
   1   4  10   34.09    8.16 
   1   4  10   29.80    7.29 
   1   4  10   38.40    7.85 
   1   4  10   35.05    8.76 
   1   4   9 1531.65   60.75 
   1   4   9 1398.36   53.29 
   1   4   9 1356.92   56.42 
   1   4   9 1328.77   56.31 
   1   4   9 1343.31   55.84 
   1   4   9 1313.38   57.78 
   1   4   8  404.11   25.52 
   1   4   7  584.20   29.99 
   1   4   6  667.80   28.61 
   1   4   5  537.85   25.24 
   1   4   4  240.64   16.09 
   1   4   3 1093.33   40.98 
   1   4   2 2982.16   87.73 
   1   4   1 1166.83   43.30 
   1   4   0  761.48   32.92 
   1   4  -1  532.94   26.24 
   1   4  -2 1267.74   44.78 
  -1   4   2 1174.62   33.80 
   1   4  -3 1152.79   42.39 
  -1   4   3 1075.97   33.08 
   1   4  -4   40.38    6.45 
  -1   4   4   48.93    5.32 
  -1   4   5 1221.81   39.29 
   1   4  -5 1144.46   42.77 
   1   4  -6   56.78    7.51 
  -1   4   6   64.01    7.22 
  -1   4   7 1017.84   38.66 
  -1   4   9  561.88   34.47 
  -1   4   9  534.79   33.20 
  -1   4   9  521.48   33.88 
  -1   4   9  602.00   34.49 
  -1   4  10  492.29   29.20 
  -1   4  10  479.21   33.03 
  -1   4  10  491.98   33.25 
  -1   4  10  509.79   32.66 
  -1   4  10  504.27   30.50 
  -1   4  10  448.72   31.03 
  -1   4  10  503.88   31.54 
  -1   4  11   53.91    9.98 
  -1   4  11   52.95    9.38 
  -1   4  11   57.25   11.43 
  -1   4  11   41.82    8.56 
  -1   4  11   39.06    8.04 
  -1   4  12  147.28   17.78 
  -1   4  12  144.14   14.34 
  -1   4  12  126.14   15.95 
  -1   4  12  140.99   15.64 
  -1   4  12  160.94   17.04 
  -1   4  13   11.52    5.32 
  -1   4  13    8.35    4.51 
  -1   4  13    7.91    4.79 
  -1   4  13    7.94    5.15 
  -1   4  14  506.88   28.93 
  -1   4  14  467.55   29.23 
  -1   4  15   48.06    7.48 
  -1   4  15   50.25    7.37 
  -1   4  15   46.90    7.86 
  -1   4  16   86.25    8.83 
  -1   4  16   77.55    8.50 
  -1   4  17   67.42    6.07 
  -1   4  17  127.73    8.78 
   1   3  17  315.26   14.64 
   1   3  16   -0.42    1.48 
   1   3  16   13.16    3.93 
   1   3  15  160.30   14.16 
   1   3  15  141.57   14.37 
   1   3  15  137.94   12.18 
   1   3  15  146.74   14.35 
   1   3  15  121.86   12.34 
   1   3  15  134.58   13.36 
   1   3  15  166.65   14.62 
   1   3  14  246.40   19.70 
   1   3  14  231.19   19.77 
   1   3  14  229.64   19.43 
   1   3  14  223.71   18.71 
   1   3  14  217.19   18.21 
   1   3  14  231.58   20.16 
   1   3  14  222.41   19.49 
   1   3  13   90.20   12.79 
   1   3  13  107.53   13.73 
   1   3  13  116.49   14.60 
   1   3  13   89.99   11.90 
   1   3  13  120.80   14.73 
   1   3  13  100.70   13.51 
   1   3  13   87.32   12.92 
   1   3  13   99.43   13.13 
   1   3  12  518.96   32.66 
   1   3  12  565.13   34.18 
   1   3  12  587.54   35.65 
   1   3  12  560.36   34.66 
   1   3  12  549.03   34.75 
   1   3  12  547.92   34.03 
   1   3  12  527.30   31.14 
   1   3  12  651.37   36.71 
   1   3  11  350.54   26.11 
   1   3  11  333.70   25.51 
   1   3  11  362.81   26.42 
   1   3  11  366.23   27.26 
   1   3  11  358.79   26.34 
   1   3  11  337.44   26.99 
   1   3  11  362.62   27.32 
   1   3  11  374.39   24.73 
   1   3  10  792.22   40.66 
   1   3  10  846.41   42.72 
   1   3  10  881.72   43.54 
   1   3  10  768.94   41.69 
   1   3  10  746.90   40.14 
   1   3  10  823.14   38.21 
   1   3  10  812.65   40.20 
   1   3  10  816.45   41.43 
   1   3   9   93.10   11.80 
   1   3   8  404.70   24.23 
   1   3   7  472.82   25.17 
   1   3   6  445.78   20.38 
   1   3   6  496.00   24.09 
   1   3   5  791.71   29.90 
   1   3   4  180.73   12.17 
   1   3   3 1595.08   50.50 
   1   3   2  211.27   13.54 
   1   3   1 1425.04   46.54 
   1   3   0  236.33   14.49 
  -1   3   1  926.73   24.76 
   1   3  -1  969.43   34.70 
  -1   3   2  281.37   10.59 
   1   3  -2  296.74   16.48 
  -1   3   3   48.81    4.36 
   1   3  -3   50.33    6.36 
   1   3  -4 3014.38   85.72 
  -1   3   4 3160.06   82.12 
  -1   3   5  127.03    9.39 
   1   3  -5  104.57    9.13 
   1   3  -6 1985.95   62.22 
  -1   3   6 2369.65   65.39 
  -1   3  10  340.72   23.26 
  -1   3  10  338.05   25.51 
  -1   3  10  327.06   25.65 
  -1   3  10  326.03   22.55 
  -1   3  10  343.90   24.43 
  -1   3  10  288.49   24.20 
  -1   3  10  300.65   23.44 
  -1   3  11 1013.57   49.51 
  -1   3  11  962.41   48.19 
  -1   3  11  984.87   46.57 
  -1   3  11 1003.07   50.35 
  -1   3  11 1016.63   47.68 
  -1   3  11  981.62   43.69 
  -1   3  12   28.86    7.37 
  -1   3  12   25.28    7.42 
  -1   3  12   33.22    8.46 
  -1   3  12   33.44    7.87 
  -1   3  12   28.87    6.10 
  -1   3  13  550.67   32.75 
  -1   3  13  503.34   33.44 
  -1   3  14   -2.49    4.92 
  -1   3  14   -4.75    6.95 
  -1   3  15  272.39   20.70 
  -1   3  15  279.01   20.14 
  -1   3  15  254.42   20.52 
  -1   3  16  111.43   10.98 
  -1   3  16  128.84   12.31 
  -1   3  17   80.79    7.80 
  -1   3  17  167.03   11.52 
   1   2  17   29.94    4.60 
   1   2  17  144.44   10.27 
   1   2  16  139.24   11.40 
   1   2  16  135.19   12.13 
   1   2  16  135.84   12.26 
   1   2  15   74.40   10.08 
   1   2  15   60.46    9.18 
   1   2  15   60.92    9.71 
   1   2  15   54.14    8.74 
   1   2  15   64.30    8.98 
   1   2  15   60.18    8.89 
   1   2  15   49.82    7.51 
   1   2  14  380.09   26.21 
   1   2  14  320.31   23.70 
   1   2  14  354.47   25.44 
   1   2  14  352.37   24.24 
   1   2  14  342.96   24.69 
   1   2  14  325.27   22.92 
   1   2  14  357.34   25.10 
   1   2  14  390.71   26.52 
   1   2  13  197.76   19.15 
   1   2  13  224.20   20.02 
   1   2  13  210.93   20.07 
   1   2  13  191.22   17.82 
   1   2  13  220.16   20.17 
   1   2  13  172.86   16.67 
   1   2  13  196.77   19.57 
   1   2  13  183.73   18.56 
   1   2  13  194.01   18.66 
   1   2  12   19.99    6.21 
   1   2  12   15.44    5.80 
   1   2  12   10.73    4.66 
   1   2  12   14.79    4.80 
   1   2  12   14.85    5.14 
   1   2  12   13.84    4.55 
   1   2  12   10.74    4.34 
   1   2  12    9.67    4.23 
   1   2  11  828.31   41.93 
   1   2  11  881.56   44.25 
   1   2  11  761.97   40.22 
   1   2  11  815.59   38.69 
   1   2  11  786.91   41.67 
   1   2  11  810.04   43.15 
   1   2  11  843.19   42.56 
   1   2  10  126.05   14.07 
   1   2   9 1792.96   63.30 
   1   2   8  481.27   25.75 
   1   2   7 1272.02   45.64 
   1   2   6  501.13   19.84 
   1   2   6  561.46   24.56 
   1   2   5  142.82    9.31 
   1   2   4 1919.13   55.01 
   1   2   3 1770.94   51.84 
   1   2   2 8513.65  209.27 
   1   2   1  476.88   19.98 
   1   2   0  386.11   17.55 
   1   2  -1  723.75   26.56 
  -1   2   2 1970.34   50.86 
   1   2  -2 2235.03   58.99 
   1   2  -3 2556.00   71.90 
  -1   2   3 2720.51   65.55 
  -1   2   3 2523.51   67.32 
  -1   2   4  413.20   15.39 
  -1   2   4  432.81   16.88 
   1   2  -4  379.40   17.51 
   1   2  -5 1250.07   39.49 
  -1   2   5 1294.10   38.82 
   1   2  -6 1050.93   34.13 
  -1   2   6 1082.23   36.21 
  -1   2   7  629.36   26.92 
  -1   2   8  363.02   20.64 
  -1   2   9  716.27   33.03 
  -1   2  10  921.52   40.71 
   1   2 -11   19.92    6.55 
  -1   2  11   24.04    7.37 
  -1   2  11   21.02    6.17 
  -1   2  11   22.66    5.87 
  -1   2  11   19.11    5.46 
  -1   2  11   27.27    6.62 
  -1   2  11   24.67    6.82 
  -1   2  11   29.03    7.66 
  -1   2  12  468.63   27.14 
  -1   2  12  401.15   28.50 
  -1   2  12  501.23   31.24 
  -1   2  12  439.22   31.14 
  -1   2  13   20.00    5.92 
  -1   2  13   13.99    4.14 
  -1   2  14  323.81   25.37 
  -1   2  14  366.31   23.69 
  -1   2  14  367.26   25.60 
  -1   2  14  328.55   25.53 
  -1   2  15  137.61   12.93 
  -1   2  15  150.00   14.85 
  -1   2  15  132.21   14.46 
  -1   2  15  143.01   16.79 
  -1   2  16  240.20   17.49 
  -1   2  16  254.71   19.17 
  -1   2  17  126.91   10.39 
   1   1  17  281.03   15.46 
   1   1  17  157.44   11.78 
   1   1  16   62.84    7.51 
   1   1  16   63.56    8.82 
   1   1  16   64.25    8.76 
   1   1  16   68.89    9.19 
   1   1  15  222.29   18.41 
   1   1  15  246.24   18.03 
   1   1  15  256.78   20.22 
   1   1  15  242.39   19.59 
   1   1  15  236.90   17.97 
   1   1  15  234.70   18.19 
   1   1  14   49.56    8.87 
   1   1  14   42.06    7.56 
   1   1  14   63.17   10.16 
   1   1  14   62.24    9.86 
   1   1  14   46.84    9.11 
   1   1  14   40.03    8.39 
   1   1  14   34.52    5.35 
   1   1  14   54.22    9.77 
   1   1  13  193.90   18.98 
   1   1  13  203.64   18.97 
   1   1  13  223.72   19.91 
   1   1  13  177.11   17.16 
   1   1  13  205.72   19.65 
   1   1  13  187.36   17.50 
   1   1  13  178.48   17.76 
   1   1  13  197.50   19.65 
   1   1  13  212.32   20.02 
   1   1  12  152.89   16.82 
   1   1  12  167.82   18.05 
   1   1  12  157.88   17.40 
   1   1  12  142.94   15.84 
   1   1  12  137.33   15.22 
   1   1  12  143.02   14.79 
   1   1  12  181.76   18.83 
   1   1  12  189.69   18.69 
   1   1  11   41.29    8.03 
   1   1  11   40.55    8.90 
   1   1  11   37.17    8.92 
   1   1  11   43.62    9.24 
   1   1  11   39.62    8.82 
   1   1  11   39.23    7.80 
   1   1  11   39.46    8.39 
   1   1  10  555.03   30.61 
   1   1  10  565.95   33.08 
   1   1   9   92.05   10.91 
   1   1   9   91.02   11.62 
   1   1   8 1199.75   44.55 
   1   1   8 1170.69   47.29 
   1   1   7 1102.26   40.03 
   1   1   7 1059.54   41.93 
   1   1   6  445.79   22.55 
   1   1   6  463.30   21.41 
   1   1   5  950.62   34.80 
   1   1   5  965.05   26.19 
   1   1   5 1023.04   33.58 
   1   1   4   36.41    4.10 
   1   1   4   41.04    5.23 
   1   1   4   39.68    5.09 
   1   1   4   36.68    2.34 
   1   1   3 1808.23   43.70 
   1   1   3 1934.79   51.36 
   1   1   2  962.02   30.16 
   1   1   2  920.49   29.76 
   1   1   1 8154.66  218.21 
   1   1   1 8051.65  220.11 
   1   1   0 4865.73  119.18 
   1   1   0 5000.03  123.41 
   1   1  -1  821.25   25.88 
   1   1  -1  704.71   20.16 
   1   1  -2 4608.97  116.35 
   1   1  -3 2446.87   65.82 
   1   1  -4 1636.40   46.76 
   1   1  -5  325.42   14.12 
   1   1  -9  398.76   25.66 
   1   1 -10  460.92   29.07 
  -1   1  10  440.63   26.31 
  -1   1  11  363.15   26.15 
  -1   1  11  392.83   24.70 
  -1   1  11  387.56   24.27 
  -1   1  11  386.56   25.73 
  -1   1  11  435.38   27.66 
   1   1 -11  395.03   27.54 
  -1   1  11  363.11   27.18 
  -1   1  12   37.44    7.54 
  -1   1  12   36.76    6.18 
  -1   1  12   49.49    8.16 
  -1   1  12   38.72    6.18 
  -1   1  13  208.07   17.57 
  -1   1  13  208.52   16.92 
  -1   1  13  192.34   19.71 
  -1   1  13  170.44   18.74 
  -1   1  14    5.84    3.82 
  -1   1  14   -2.01    6.80 
  -1   1  15  260.01   21.35 
  -1   1  15  257.01   20.08 
  -1   1  15  248.87   18.94 
  -1   1  16  106.64   10.74 
  -1   1  16  112.65   11.79 
  -1   1  17   56.30    6.05 
  -1   1  17   50.52    6.45 
  -1   1  17   48.09    5.67 
   1   0  17    1.36    1.89 
   1   0  17  208.62   13.80 
   1   0  16  156.11   14.19 
   1   0  16  201.62   16.00 
   1   0  16  146.39   12.30 
   1   0  16  187.36   15.29 
   1   0  15   56.29    8.31 
   1   0  15   62.55    9.82 
   1   0  15   44.18    7.58 
   1   0  15   51.41    8.63 
   1   0  15   50.52    7.59 
   1   0  15   58.46    9.37 
   1   0  14   98.84   13.01 
   1   0  14  108.56   12.74 
   1   0  14   75.85   11.10 
   1   0  14   94.91   12.07 
   1   0  14  102.61   13.62 
   1   0  14  133.80   15.60 
   1   0  14   96.11   11.76 
   1   0  14  109.28   13.54 
   1   0  13 1001.70   47.82 
   1   0  13  917.20   44.67 
   1   0  13  961.13   46.79 
   1   0  13  878.87   43.02 
   1   0  13  944.77   46.91 
   1   0  13 1031.12   44.84 
   1   0  13  905.00   44.45 
   1   0  12  205.20   18.54 
   1   0  12  250.46   22.21 
   1   0  12  234.46   20.66 
   1   0  12  233.77   21.63 
   1   0  12  261.37   22.70 
   1   0  12  290.91   22.19 
   1   0  12  230.97   21.07 
   1   0  12  213.11   19.45 
   1   0  11 1038.55   47.60 
   1   0  11 1019.23   45.80 
   1   0  11 1026.42   47.51 
   1   0  11  914.48   42.34 
   1   0  11  916.23   40.99 
   1   0  11  998.50   47.92 
   1   0  11 1017.23   45.67 
   1   0  10   17.41    5.52 
   1   0   9 1573.71   56.42 
   1   0   9 1639.03   60.14 
   1   0   8  130.44   11.99 
   1   0   8  138.73   13.22 
   1   0   7  614.10   29.25 
   1   0   7  671.57   28.70 
   1   0   7  618.74   27.27 
   1   0   7  670.30   24.52 
   1   0   6 1582.70   47.55 
   1   0   6 1532.14   48.72 
   1   0   6 1408.41   48.52 
   1   0   6 1392.75   42.62 
   1   0   5 2002.78   54.65 
   1   0   5 2242.84   60.44 
   1   0   5 2258.61   62.65 
   1   0   5 2053.77   61.76 
   1   0   4  216.18   12.36 
   1   0   4  245.71   11.86 
   1   0   4  226.61   12.97 
   1   0   4  239.25    9.08 
   1   0   3   55.62    5.14 
   1   0   3   57.15    4.62 
   1   0   3   52.82    4.82 
   1   0   3   54.58    3.34 
   1   0   2 1430.80   41.66 
   1   0   2 1425.79   40.08 
   1   0   2 1496.77   37.67 
   1   0   1    6.02    1.63 
   1   0   1    5.35    1.15 
   1   0   0 1461.62   38.78 
   1   0   0 1461.25   41.99 
   1   0  -1  191.88   10.14 
   1   0  -1  210.25    9.54 
   1   0  -2   40.93    4.39 
   1   0  -2   41.47    4.41 
   1   0  -3 1028.79   34.03 
   1   0  -3 1089.67   32.77 
   1   0  -4    0.67    1.46 
   1   0  -5 1335.28   44.77 
   1   0  -6   37.42    6.07 
   1   0  -7 1599.08   55.42 
   1   0  -8  350.53   22.14 
   1   0  -9  204.92   17.47 
   1   0 -10 1298.25   53.52 
  -1   0  11   42.96    8.04 
   1   0 -11   58.80    9.89 
  -1   0  11   66.95    9.69 
  -1   0  11   60.15    8.91 
  -1   0  11   46.85    7.53 
  -1   0  12 1361.09   52.50 
  -1   0  12 1325.41   55.76 
  -1   0  12 1295.08   59.00 
  -1   0  12 1237.19   57.70 
  -1   0  12 1366.70   53.91 
  -1   0  13    9.54    3.66 
  -1   0  13    8.45    3.63 
  -1   0  13   -0.54    6.58 
  -1   0  13   11.80    4.58 
  -1   0  14  749.42   38.17 
  -1   0  14  689.15   39.83 
  -1   0  15  101.52   15.37 
  -1   0  15   36.16    7.23 
  -1   0  16  245.75   17.54 
  -1   0  16  262.78   18.07 
  -1   0  17  211.30   13.71 
  -1   0  17  233.82   16.03 
  -1   0  18   51.32    5.50 
   1  -1  17  134.81   11.01 
   1  -1  17  137.57   10.07 
   1  -1  17  154.57   11.76 
   1  -1  16   60.47    7.95 
   1  -1  16   48.06    7.65 
   1  -1  16   57.00    8.31 
   1  -1  16   48.66    7.17 
   1  -1  15  216.18   17.72 
   1  -1  15  253.26   19.35 
   1  -1  15  230.99   18.80 
   1  -1  15  224.25   18.74 
   1  -1  15  226.55   18.18 
   1  -1  14   47.97    8.97 
   1  -1  14   51.53    9.53 
   1  -1  14   50.64    8.79 
   1  -1  14   53.40    9.55 
   1  -1  14   48.32    9.19 
   1  -1  13  207.64   20.54 
   1  -1  13  166.28   17.32 
   1  -1  13  146.50   16.58 
   1  -1  13  177.86   18.47 
   1  -1  13  165.99   17.79 
   1  -1  13  162.13   17.43 
   1  -1  12  186.91   16.86 
   1  -1  12  192.94   19.02 
   1  -1  12  182.10   18.32 
   1  -1  12  190.72   18.78 
   1  -1  12  198.17   19.86 
   1  -1  12  223.44   21.13 
   1  -1  11   35.54    8.05 
   1  -1  11   39.02    8.76 
   1  -1  11   32.47    6.53 
   1  -1  11   35.50    6.73 
   1  -1  11   42.97    8.47 
   1  -1  11   38.52    8.37 
   1  -1  10  538.91   30.97 
   1  -1   9  102.45   11.87 
   1  -1   9  110.18   11.26 
   1  -1   8 1057.21   41.29 
   1  -1   8 1137.16   44.40 
   1  -1   8 1147.24   40.48 
   1  -1   7 1240.85   44.82 
   1  -1   7 1173.92   42.59 
   1  -1   6  524.11   23.31 
   1  -1   6  564.89   23.23 
   1  -1   5 1058.06   34.01 
   1  -1   5  981.00   34.71 
   1  -1   5  998.88   30.67 
   1  -1   4   21.16    2.69 
   1  -1   4   23.83    3.75 
   1  -1   3 2102.75   55.01 
   1  -1   3 2060.69   53.58 
   1  -1   2  976.78   28.45 
   1  -1   2 1012.49   27.46 
   1  -1   2  977.43   29.59 
   1  -1   1 8341.63  210.64 
   1  -1   1 8471.04  209.59 
   1  -1   0 5385.27  131.79 
   1  -1  -1  815.29   25.92 
  -1  -1   1  846.84   26.23 
  -1  -1   2 4750.89  125.14 
   1  -1  -2 5207.93  125.09 
   1  -1  -3 2770.87   71.08 
  -1  -1   3 2381.56   71.01 
   1  -1  -4 1466.88   45.33 
  -1  -1   4 1419.90   46.78 
  -1  -1   5  322.35   18.35 
   1  -1  -5  311.03   17.00 
  -1  -1   6 3759.05  101.76 
   1  -1  -6 3306.66   97.70 
   1  -1  -7  988.42   39.71 
  -1  -1   7 1085.34   42.63 
   1  -1  -8 1322.61   50.20 
  -1  -1   8 1387.28   52.63 
   1  -1  -9  336.33   22.30 
  -1  -1   9  319.53   22.83 
   1  -1 -10  420.10   26.30 
  -1  -1  11  392.15   24.72 
  -1  -1  11  441.98   27.44 
  -1  -1  11  464.10   27.17 
  -1  -1  11  360.09   27.67 
  -1  -1  11  421.03   30.43 
  -1  -1  12   49.01    9.37 
  -1  -1  12   53.81    9.14 
  -1  -1  12   50.93    9.38 
  -1  -1  12   48.46    8.15 
  -1  -1  12   34.40    7.69 
  -1  -1  13  215.72   21.61 
  -1  -1  13  185.02   15.99 
  -1  -1  13  185.29   17.11 
  -1  -1  13  194.17   18.18 
  -1  -1  13  193.12   17.45 
  -1  -1  14   10.66    4.50 
  -1  -1  14   11.53    3.84 
  -1  -1  14   11.96    4.87 
  -1  -1  14    7.04    3.29 
  -1  -1  15  222.54   17.73 
  -1  -1  16  106.23   12.36 
  -1  -1  16   95.58    9.91 
  -1  -1  17   45.52    5.22 
  -1  -1  17   44.80    6.32 
  -1  -1  17   48.61    7.02 
   1  -2  17   33.20    5.14 
   1  -2  17   27.66    4.46 
   1  -2  17   28.58    4.83 
   1  -2  16  123.35   11.75 
   1  -2  16  132.09   12.21 
   1  -2  16  130.50   11.62 
   1  -2  16  141.22   12.73 
   1  -2  15   66.14    9.85 
   1  -2  15   54.83    9.13 
   1  -2  15   66.78    9.94 
   1  -2  15   55.53    8.97 
   1  -2  14  343.75   24.70 
   1  -2  14  370.54   25.38 
   1  -2  14  362.18   25.84 
   1  -2  14  369.33   26.17 
   1  -2  14  381.86   25.56 
   1  -2  13  173.88   17.43 
   1  -2  13  188.22   19.07 
   1  -2  13  164.22   15.34 
   1  -2  13  141.37   16.68 
   1  -2  13  157.87   16.93 
   1  -2  13  185.03   18.33 
   1  -2  12   10.50    5.12 
   1  -2  12    3.61    3.13 
   1  -2  12    3.17    3.52 
   1  -2  12   -1.30    5.09 
   1  -2  12   -1.88    5.73 
   1  -2  11  640.28   33.51 
   1  -2  11  596.94   32.70 
   1  -2  11  660.51   35.93 
   1  -2  11  571.91   35.22 
   1  -2  11  700.34   39.56 
   1  -2  11  671.92   33.45 
   1  -2  11  644.94   35.68 
   1  -2  10  127.24   14.00 
   1  -2   9 1797.18   62.91 
   1  -2   9 1868.69   61.77 
   1  -2   8  391.88   22.07 
   1  -2   8  434.33   23.49 
   1  -2   7 1180.36   41.79 
   1  -2   7 1095.42   38.56 
   1  -2   6  489.36   23.05 
   1  -2   6  550.00   22.04 
   1  -2   5  162.01    9.77 
   1  -2   4 1792.01   49.74 
   1  -2   3 1787.86   48.74 
   1  -2   2 8381.26  205.25 
   1  -2   1  560.47   20.89 
  -1  -2  -1  548.76   16.68 
   1  -2   0  346.31   15.31 
  -1  -2   0  373.46   13.97 
   1  -2  -1  764.49   26.63 
  -1  -2   1  808.96   26.55 
  -1  -2   2 1981.53   58.07 
   1  -2  -2 2080.53   58.29 
   1  -2  -3 3049.65   74.95 
  -1  -2   3 2321.25   74.18 
  -1  -2   4  386.86   20.56 
   1  -2  -4  466.85   20.40 
  -1  -2   5 1311.78   45.65 
   1  -2  -5 1192.74   42.46 
  -1  -2   6 1166.15   43.30 
   1  -2  -6  975.68   38.52 
  -1  -2   7  696.40   32.99 
   1  -2  -7  589.66   28.78 
   1  -2  -8  370.13   22.78 
  -1  -2   8  422.63   26.20 
   1  -2  -9  715.02   35.14 
  -1  -2   9  787.25   39.11 
  -1  -2  10  947.23   45.72 
   1  -2 -10  926.97   42.39 
  -1  -2  11    8.91    3.94 
  -1  -2  11   12.97    4.44 
  -1  -2  11    9.60    3.67 
  -1  -2  12  452.84   28.60 
  -1  -2  12  446.22   26.87 
  -1  -2  12  478.59   28.79 
  -1  -2  12  472.44   33.61 
  -1  -2  12  431.19   27.71 
  -1  -2  13   30.22    7.16 
  -1  -2  13   27.15    6.54 
  -1  -2  13   15.16    4.24 
  -1  -2  13   23.85    6.61 
  -1  -2  14  325.17   22.10 
  -1  -2  14  337.91   22.99 
  -1  -2  14  345.60   21.20 
  -1  -2  14  337.59   22.87 
  -1  -2  15  132.52   12.58 
  -1  -2  15  138.47   15.59 
  -1  -2  15   96.06   10.48 
  -1  -2  16  217.77   14.36 
  -1  -2  16  235.84   18.25 
  -1  -2  17  120.86   10.02 
  -1  -2  17  108.81    9.77 
  -1  -2  17  119.48   10.85 
   1  -3  17  189.74   11.98 
   1  -3  16    3.78    2.15 
   1  -3  16    0.16    1.44 
   1  -3  16    0.86    1.83 
   1  -3  16    0.31    2.09 
   1  -3  15  149.70   14.51 
   1  -3  15  125.03   13.22 
   1  -3  15  140.34   13.56 
   1  -3  15  156.75   14.42 
   1  -3  14  190.27   18.23 
   1  -3  14  195.57   17.55 
   1  -3  14  202.50   18.97 
   1  -3  14  180.88   16.88 
   1  -3  13   78.10   10.31 
   1  -3  13   74.77   11.36 
   1  -3  13   83.83   11.83 
   1  -3  13   71.40   10.12 
   1  -3  13   92.01   13.35 
   1  -3  13   93.52   13.73 
   1  -3  12  494.16   30.45 
   1  -3  12  516.08   33.50 
   1  -3  12  448.09   27.67 
   1  -3  12  534.48   34.55 
   1  -3  12  467.34   28.41 
   1  -3  12  435.25   29.27 
   1  -3  11  286.47   22.39 
   1  -3  11  277.63   24.91 
   1  -3  11  300.15   22.20 
   1  -3  11  282.31   21.64 
   1  -3  11  280.17   24.60 
   1  -3  11  245.93   21.80 
   1  -3  11  291.93   22.66 
   1  -3  11  292.55   20.80 
   1  -3  10  828.59   39.23 
   1  -3  10  720.33   37.18 
   1  -3  10  699.34   40.52 
   1  -3  10  683.95   34.12 
   1  -3  10  718.92   36.29 
   1  -3  10  748.34   36.96 
   1  -3   9   60.23    8.49 
   1  -3   9   74.61   10.41 
   1  -3   8  332.46   20.21 
   1  -3   7  399.15   21.04 
   1  -3   7  404.80   21.74 
   1  -3   6  439.82   20.66 
   1  -3   6  395.87   20.68 
   1  -3   5  912.86   32.08 
   1  -3   4  170.40   10.40 
   1  -3   3 1642.20   47.34 
   1  -3   2  195.99   12.64 
  -1  -3  -1 1552.85   41.35 
   1  -3   1 1419.56   46.55 
  -1  -3   0  392.95   16.05 
   1  -3   0  354.14   17.44 
   1  -3  -1  932.96   31.74 
  -1  -3   1  836.84   30.15 
   1  -3  -2  256.26   14.24 
  -1  -3   2  203.55   13.03 
  -1  -3   3   76.29    8.14 
   1  -3  -3   80.68    7.99 
  -1  -3   4 3123.88   91.09 
   1  -3  -4 3165.31   89.21 
  -1  -3   5  111.66   11.37 
   1  -3  -5  116.76   10.74 
  -1  -3   6 2050.33   68.28 
   1  -3  -6 1943.28   65.07 
  -1  -3   7   53.96    8.86 
   1  -3  -7   42.20    7.11 
  -1  -3   8  772.16   38.30 
   1  -3  -8  687.72   33.67 
   1  -3  -9  263.65   20.17 
  -1  -3   9  296.65   23.71 
  -1  -3  10  342.12   26.47 
  -1  -3  10  312.84   22.59 
  -1  -3  11 1037.92   45.81 
  -1  -3  11 1027.50   45.26 
  -1  -3  11 1003.81   50.53 
  -1  -3  12   30.21    7.00 
  -1  -3  12   30.79    7.25 
  -1  -3  12   31.38    7.13 
  -1  -3  13  543.94   31.26 
  -1  -3  13  494.56   29.31 
  -1  -3  13  531.60   28.64 
  -1  -3  13  514.86   34.33 
  -1  -3  14   -2.47    3.13 
  -1  -3  14    3.13    2.57 
  -1  -3  14   -0.89    2.51 
  -1  -3  14    5.10    2.67 
  -1  -3  15  224.74   16.73 
  -1  -3  15  245.33   20.13 
  -1  -3  16  102.12    9.43 
  -1  -3  16  111.39   11.72 
  -1  -3  17   88.49    8.02 
  -1  -3  17   84.53    8.36 
  -1  -3  17   86.41    7.88 
   1  -4  17    4.58    1.51 
   1  -4  16  106.52    9.76 
   1  -4  16   98.02    8.41 
   1  -4  16  106.18    9.56 
   1  -4  15   51.11    7.63 
   1  -4  15   50.88    7.78 
   1  -4  15   56.54    8.55 
   1  -4  15   49.16    7.23 
   1  -4  14  121.19   13.77 
   1  -4  14  127.25   13.36 
   1  -4  14  134.62   14.92 
   1  -4  14  121.28   12.65 
   1  -4  13  224.37   18.21 
   1  -4  13  251.78   19.97 
   1  -4  13  227.65   19.16 
   1  -4  13  271.04   23.30 
   1  -4  13  238.41   21.28 
   1  -4  13  236.19   17.95 
   1  -4  12   67.09   10.96 
   1  -4  12   82.56   13.12 
   1  -4  12   63.68   10.09 
   1  -4  12   67.13   10.09 
   1  -4  12   67.99   10.80 
   1  -4  12   67.19   11.67 
   1  -4  11   81.20   13.32 
   1  -4  11   83.56   11.75 
   1  -4  11   86.16   11.81 
   1  -4  11   80.59   13.30 
   1  -4  10   27.61    8.20 
   1  -4  10   34.25    7.46 
   1  -4  10   27.82    6.75 
   1  -4  10   30.90    8.29 
   1  -4  10   38.04    7.81 
   1  -4   9  990.54   50.09 
   1  -4   9 1114.46   48.69 
   1  -4   9 1179.93   49.34 
   1  -4   9 1099.60   53.99 
   1  -4   9 1186.30   51.57 
   1  -4   8  354.93   21.64 
   1  -4   7  466.23   24.75 
   1  -4   7  494.71   25.55 
   1  -4   6  653.19   29.02 
   1  -4   5  540.76   24.28 
   1  -4   4  179.18   11.91 
   1  -4   3  952.48   32.76 
   1  -4   2 2563.74   70.52 
  -1  -4  -1 1201.07   35.85 
   1  -4   1 1128.72   41.49 
  -1  -4   0 1530.25   47.41 
   1  -4   0 1603.47   51.64 
   1  -4  -1  567.56   24.54 
  -1  -4   1  426.31   21.14 
  -1  -4   2  939.67   37.06 
   1  -4  -2 1085.82   38.44 
  -1  -4   3 1015.58   38.79 
   1  -4  -3  950.94   36.99 
  -1  -4   4   49.63    7.56 
   1  -4  -4   38.69    6.36 
   1  -4  -5 1088.22   43.40 
  -1  -4   5 1270.75   48.34 
  -1  -4   6   55.94    9.02 
   1  -4  -6   50.55    7.90 
   1  -4  -7  891.60   40.26 
  -1  -4   7 1012.61   45.41 
   1  -4  -8  377.58   24.68 
  -1  -4   8  406.24   28.07 
  -1  -4   9  537.12   30.38 
  -1  -4   9  583.25   35.40 
  -1  -4  10  463.41   32.51 
  -1  -4  10  452.94   27.94 
  -1  -4  10  395.01   30.77 
  -1  -4  11   54.89    9.55 
  -1  -4  11   56.68   11.14 
  -1  -4  11   63.46    9.93 
  -1  -4  12  178.81   16.36 
  -1  -4  12  174.44   19.50 
  -1  -4  12  194.53   18.60 
  -1  -4  12  190.09   17.35 
  -1  -4  13    9.69    4.95 
  -1  -4  13    3.86    2.34 
  -1  -4  13   12.10    4.01 
  -1  -4  13    6.66    4.69 
  -1  -4  14  394.03   21.94 
  -1  -4  14  449.88   25.92 
  -1  -4  14  366.31   22.82 
  -1  -4  14  382.94   27.06 
  -1  -4  15   39.85    7.76 
  -1  -4  15   45.23    5.68 
  -1  -4  15   52.70    7.72 
  -1  -4  16   84.66    9.38 
  -1  -4  16   76.94    7.70 
  -1  -4  16   77.92    8.32 
  -1  -4  17   74.46    6.71 
   1  -5  16   14.26    2.98 
   1  -5  15   83.41    9.27 
   1  -5  15   87.85    9.13 
   1  -5  14   26.56    5.75 
   1  -5  14   19.36    4.29 
   1  -5  14   26.99    5.98 
   1  -5  14   28.88    6.42 
   1  -5  13   94.73   13.14 
   1  -5  13   86.70   10.07 
   1  -5  13   97.73   11.31 
   1  -5  13   77.07   11.14 
   1  -5  13   78.12   10.63 
   1  -5  12  278.93   20.67 
   1  -5  12  322.76   26.25 
   1  -5  12  278.70   21.53 
   1  -5  12  300.07   21.87 
   1  -5  12  293.83   23.81 
   1  -5  11   28.82    8.08 
   1  -5  11   37.30    8.02 
   1  -5  11   25.46    7.48 
   1  -5  11   34.17    7.39 
   1  -5  10  523.62   31.39 
   1  -5  10  456.91   32.44 
   1  -5  10  547.37   32.12 
   1  -5  10  552.14   37.17 
   1  -5   9   -0.09    3.56 
   1  -5   9    0.40    3.30 
   1  -5   9   -1.47    3.28 
   1  -5   9    2.12    6.42 
   1  -5   9    0.09    2.81 
   1  -5   9    5.66    2.95 
   1  -5   8  605.77   36.78 
   1  -5   8  772.71   38.50 
   1  -5   8  727.91   36.92 
   1  -5   8  746.81   42.77 
   1  -5   8  717.49   35.80 
   1  -5   7   35.25    6.91 
   1  -5   7   40.66    6.84 
   1  -5   6  304.38   19.98 
   1  -5   5 1249.10   45.47 
   1  -5   4  110.01   10.31 
   1  -5   3 1388.30   46.27 
   1  -5   2  183.79   12.32 
   1  -5   1 1241.71   40.82 
  -1  -5   0   98.59    9.04 
   1  -5   0   88.45   10.03 
   1  -5   0   95.94    8.31 
   1  -5  -1  182.93   14.53 
  -1  -5   1  130.51   11.54 
  -1  -5   2  716.49   32.61 
   1  -5  -2  796.79   34.28 
  -1  -5   3  691.14   32.92 
   1  -5  -3  701.46   32.59 
  -1  -5   4 1030.20   43.59 
   1  -5  -4  939.93   40.57 
  -1  -5   5  146.92   15.03 
   1  -5  -5  112.00   12.28 
   1  -5  -6  535.88   29.96 
  -1  -5   6  628.78   34.86 
   1  -5  -7  162.06   15.63 
  -1  -5   7  175.95   18.28 
  -1  -5   8  165.71   18.68 
  -1  -5   8  179.73   19.27 
  -1  -5   8  177.68   17.08 
  -1  -5   9  264.17   17.07 
  -1  -5   9  249.57   20.56 
  -1  -5   9  249.75   20.75 
  -1  -5   9  216.40   22.22 
  -1  -5   9  247.30   23.49 
  -1  -5  10  211.38   18.84 
  -1  -5  10  228.61   18.62 
  -1  -5  10  232.76   19.84 
  -1  -5  10  190.73   21.15 
  -1  -5  11  569.60   31.80 
  -1  -5  11  505.18   35.28 
  -1  -5  11  541.99   30.44 
  -1  -5  11  545.04   30.60 
  -1  -5  12    6.07    3.49 
  -1  -5  12   12.32    5.41 
  -1  -5  12   11.04    4.06 
  -1  -5  12    9.13    3.85 
  -1  -5  13  149.65   14.01 
  -1  -5  13  171.18   16.24 
  -1  -5  13  169.93   14.55 
  -1  -5  13  168.15   17.82 
  -1  -5  14   26.61    5.12 
  -1  -5  14   32.11    6.25 
  -1  -5  14   31.80    7.47 
  -1  -5  14   29.04    5.52 
  -1  -5  15  153.49   12.16 
  -1  -5  15  171.98   12.93 
  -1  -5  15  179.70   14.60 
  -1  -5  16   20.28    3.45 
  -1  -5  16   22.69    3.68 
  -1  -5  16   23.44    3.70 
   1  -6  15    9.56    2.66 
   1  -6  14   95.22    9.51 
   1  -6  14   86.81    8.77 
   1  -6  13  157.11   14.66 
   1  -6  13  157.73   13.65 
   1  -6  13  145.71   12.05 
   1  -6  13  136.70   12.73 
   1  -6  12   35.71    7.45 
   1  -6  12   33.74    6.70 
   1  -6  12   48.26    8.17 
   1  -6  12   44.35    7.51 
   1  -6  11  151.72   16.73 
   1  -6  11  173.94   16.46 
   1  -6  11  152.76   15.28 
   1  -6  10   37.74    8.66 
   1  -6  10   42.24    8.17 
   1  -6  10   35.92    8.54 
   1  -6  10   39.15    7.56 
   1  -6  10   35.37    7.92 
   1  -6   9  169.79   18.41 
   1  -6   9  203.53   18.90 
   1  -6   9  210.08   18.72 
   1  -6   9  217.07   22.56 
   1  -6   9  205.02   18.14 
   1  -6   8  217.60   20.65 
   1  -6   8  264.49   21.87 
   1  -6   8  246.79   20.66 
   1  -6   8  294.34   26.33 
   1  -6   8  260.50   20.75 
   1  -6   7  180.15   16.89 
   1  -6   7  162.59   17.03 
   1  -6   7  166.14   17.15 
   1  -6   6  303.88   21.60 
   1  -6   6  289.81   22.57 
   1  -6   6  279.04   21.18 
   1  -6   5   76.43    9.93 
   1  -6   4  636.49   30.49 
   1  -6   3    2.58    2.00 
   1  -6   2  388.69   21.13 
   1  -6   1  244.96   15.80 
   1  -6   0  795.74   31.85 
  -1  -6   1  236.85   17.38 
   1  -6  -1  263.52   20.00 
   1  -6  -1  256.51   15.62 
   1  -6  -2  249.14   15.31 
  -1  -6   2  236.47   18.47 
   1  -6  -2  289.94   20.90 
  -1  -6   3  651.40   34.16 
   1  -6  -3  663.50   34.13 
   1  -6  -3  644.25   27.11 
   1  -6  -4   31.19    6.71 
  -1  -6   4   36.38    7.67 
   1  -6  -5  978.88   45.41 
  -1  -6   5 1116.81   50.05 
  -1  -6   6   90.31   11.95 
  -1  -6   6  106.91   14.49 
   1  -6  -6   92.97   12.39 
  -1  -6   7  608.61   37.65 
  -1  -6   7  568.24   33.25 
  -1  -6   7  585.97   36.82 
  -1  -6   8  103.86   15.42 
  -1  -6   8  123.74   14.81 
  -1  -6   8  131.55   12.63 
  -1  -6   8  120.18   14.60 
  -1  -6   9  249.49   24.02 
  -1  -6   9  286.59   22.57 
  -1  -6   9  273.38   18.15 
  -1  -6   9  276.26   22.44 
  -1  -6  10  203.27   17.03 
  -1  -6  10  216.12   15.19 
  -1  -6  10  187.55   20.72 
  -1  -6  10  224.95   19.49 
  -1  -6  10  222.96   19.55 
  -1  -6  11   95.71   11.28 
  -1  -6  11  118.29   13.19 
  -1  -6  11  123.82   13.80 
  -1  -6  11  104.04   14.59 
  -1  -6  12  327.68   22.09 
  -1  -6  12  303.58   19.81 
  -1  -6  12  305.11   20.39 
  -1  -6  12  382.38   25.20 
  -1  -6  12  328.35   25.41 
  -1  -6  12  346.13   22.13 
  -1  -6  13   15.54    3.97 
  -1  -6  13   21.44    6.39 
  -1  -6  13   25.51    5.95 
  -1  -6  13   16.74    4.29 
  -1  -6  13   17.22    5.68 
  -1  -6  14  130.76   10.06 
  -1  -6  14  115.21    9.94 
  -1  -6  14  134.10   11.79 
  -1  -6  14  135.75   13.10 
  -1  -6  15   23.07    3.58 
  -1  -6  15   30.41    4.68 
   1  -7  14  102.32    7.96 
   1  -7  13   66.92    7.91 
   1  -7  13   71.21    7.80 
   1  -7  12  115.46   11.01 
   1  -7  12  129.84   12.43 
   1  -7  12  121.21   11.73 
   1  -7  11   26.47    6.03 
   1  -7  11   27.44    6.00 
   1  -7  10  168.56   16.42 
   1  -7  10  147.93   14.61 
   1  -7  10  139.52   14.11 
   1  -7   9   33.55    7.84 
   1  -7   9   37.52    7.79 
   1  -7   9   36.02    7.06 
   1  -7   8  375.42   26.96 
   1  -7   8  341.85   24.71 
   1  -7   8  365.24   24.91 
   1  -7   7  198.96   19.20 
   1  -7   7  193.03   18.19 
   1  -7   6  714.94   38.90 
   1  -7   6  721.84   37.71 
   1  -7   5  214.96   19.84 
   1  -7   5  201.99   18.08 
   1  -7   5  216.19   19.06 
   1  -7   4  132.08   14.02 
   1  -7   4  128.58   15.11 
   1  -7   4  144.64   15.43 
   1  -7   3  211.65   18.64 
   1  -7   3  198.54   16.72 
   1  -7   2   89.94   10.64 
   1  -7   2  108.57   12.96 
   1  -7   1  509.32   26.57 
   1  -7   0  222.90   16.19 
   1  -7  -1  641.01   29.70 
   1  -7  -2   40.93    6.54 
  -1  -7   3   -2.85    2.39 
  -1  -7   3    2.01    2.49 
  -1  -7   4  320.25   21.68 
  -1  -7   4  297.47   24.73 
  -1  -7   4  304.35   23.27 
  -1  -7   5    9.09    5.00 
  -1  -7   5    3.91    4.72 
  -1  -7   5    5.81    4.04 
  -1  -7   6  420.41   24.83 
  -1  -7   6  363.95   26.49 
  -1  -7   6  365.97   29.28 
  -1  -7   7  369.89   22.76 
  -1  -7   7  319.10   24.82 
  -1  -7   8   45.59    8.90 
  -1  -7   8   47.80    7.71 
  -1  -7   8   45.16    9.24 
  -1  -7   9  171.42   19.31 
  -1  -7   9  180.98   17.79 
  -1  -7   9  188.77   15.00 
  -1  -7   9  201.80   18.69 
  -1  -7  10  121.28   13.88 
  -1  -7  10  118.82   13.65 
  -1  -7  10   92.62    9.89 
  -1  -7  11  161.09   15.04 
  -1  -7  11  149.42   11.29 
  -1  -7  11  179.90   15.62 
  -1  -7  12    5.48    2.97 
  -1  -7  12    4.72    2.61 
  -1  -7  12    6.65    3.49 
  -1  -7  13  222.63   15.70 
  -1  -7  14   45.32    5.72 
   1  -8  13   29.00    4.24 
   1  -8  12   -1.94    2.22 
   1  -8  12    1.40    1.46 
   1  -8  12    2.28    1.63 
   1  -8  11   54.80    7.30 
   1  -8  11   46.31    7.35 
   1  -8  10    2.39    2.21 
   1  -8  10   -0.98    2.22 
   1  -8   9  121.80   13.70 
   1  -8   9  103.78   11.46 
   1  -8   9  116.43   12.41 
   1  -8   8   12.68    4.80 
   1  -8   8   26.66    6.30 
   1  -8   7   77.08   10.82 
   1  -8   7   64.71   10.58 
   1  -8   7   82.48   11.79 
   1  -8   6  133.12   15.54 
   1  -8   6  130.00   14.91 
   1  -8   6  160.17   16.96 
   1  -8   5    4.09    2.81 
   1  -8   5   -0.22    3.49 
   1  -8   4  633.39   35.62 
   1  -8   4  555.63   34.37 
   1  -8   3    2.40    3.43 
   1  -8   3    5.84    4.05 
   1  -8   2  551.63   33.41 
   1  -8   2  577.28   34.12 
   1  -8   2  561.85   31.70 
   1  -8   1  131.06   13.93 
   1  -8   1  139.82   15.84 
  -1  -8   0   85.71   10.62 
   1  -8   0   95.77   13.18 
  -1  -8   1  112.42   12.02 
   1  -8  -1  114.91   14.47 
  -1  -8   2  491.72   27.75 
   1  -8  -2  442.54   29.96 
  -1  -8   2  527.13   29.81 
  -1  -8   3  643.35   32.98 
   1  -8  -3  568.64   34.50 
  -1  -8   4   71.98   10.63 
  -1  -8   4   78.26   11.69 
  -1  -8   4   90.45   11.60 
   1  -8  -4   61.55   10.58 
  -1  -8   5  549.90   33.51 
  -1  -8   5  604.63   31.64 
  -1  -8   5  583.54   31.47 
   1  -8  -5  517.07   31.27 
  -1  -8   6   26.77    7.12 
  -1  -8   6   38.71    7.31 
  -1  -8   7  170.28   17.47 
  -1  -8   7  179.11   15.32 
  -1  -8   7  158.40   16.92 
  -1  -8   8   12.23    5.37 
  -1  -8   8    9.83    3.89 
  -1  -8   8    6.78    2.74 
  -1  -8   9  234.63   19.42 
  -1  -8   9  220.73   18.72 
  -1  -8   9  217.56   15.48 
  -1  -8  10  105.28    9.55 
  -1  -8  10  117.27   12.49 
  -1  -8  10  107.73   12.05 
  -1  -8  11   38.10    6.61 
  -1  -8  11   44.35    7.42 
  -1  -8  12   59.13    7.50 
  -1  -8  12   45.85    6.02 
  -1  -8  13    7.33    2.40 
   1  -9  12   63.23    5.68 
   1  -9  11   13.98    2.92 
   1  -9  11   13.26    3.17 
   1  -9  10  109.11   10.53 
   1  -9   9   12.83    3.86 
   1  -9   9   11.25    3.41 
   1  -9   8  165.87   15.23 
   1  -9   8  159.67   14.30 
   1  -9   7   29.95    6.54 
   1  -9   7   26.50    6.42 
   1  -9   7   32.92    6.98 
   1  -9   6  142.96   15.10 
   1  -9   6  122.41   14.44 
   1  -9   6  141.33   15.13 
   1  -9   5  135.84   15.70 
   1  -9   5  118.80   14.35 
   1  -9   5  126.77   14.88 
   1  -9   4   49.42    9.40 
   1  -9   4   55.21    9.74 
   1  -9   3   88.04   12.25 
   1  -9   3   98.63   13.27 
   1  -9   2   -0.95    3.56 
   1  -9   1  152.07   17.02 
  -1  -9   0   18.10    4.57 
   1  -9   0   16.02    5.17 
  -1  -9   1   89.17   11.90 
  -1  -9   1   78.49   10.27 
   1  -9  -1   84.25   12.68 
  -1  -9   2   58.24    9.04 
   1  -9  -2   63.20   10.89 
  -1  -9   2   63.96    9.89 
  -1  -9   3   57.40    9.02 
  -1  -9   3   71.27   10.44 
   1  -9  -3   38.89    8.59 
   1  -9  -4  143.98   16.55 
  -1  -9   4  134.11   13.84 
  -1  -9   4  154.39   15.21 
   1  -9  -4  132.26   15.08 
  -1  -9   5   42.77    7.80 
   1  -9  -5   60.49    9.80 
  -1  -9   5   41.05    7.59 
  -1  -9   6  199.38   18.44 
  -1  -9   6  171.03   15.08 
  -1  -9   7   24.32    6.03 
  -1  -9   7   32.38    6.46 
  -1  -9   8   51.99    7.28 
  -1  -9   8   52.85    8.88 
  -1  -9   9   90.31   10.62 
  -1  -9  10   43.83    6.75 
  -1  -9  10   49.00    7.30 
  -1  -9  11  125.89    9.62 
  -1  -9  11  117.44    9.81 
  -1  -9  12   17.76    3.09 
   1 -10  10   14.28    2.87 
   1 -10   9   45.78    5.87 
   1 -10   9   36.41    4.60 
   1 -10   8   23.35    4.74 
   1 -10   8   22.96    4.43 
  -1 -10  -8   30.03    4.93 
   1 -10   7   42.20    6.17 
   1 -10   7   44.85    6.97 
   1 -10   7   43.75    6.76 
  -1 -10  -7   57.04    7.66 
   1 -10   6   56.67    8.53 
   1 -10   6   45.74    7.65 
   1 -10   6   55.90    8.42 
  -1 -10  -6   60.23    8.61 
   1 -10   5  126.90   13.83 
   1 -10   5  124.59   12.80 
  -1 -10  -5  127.89   13.40 
   1 -10   5  125.85   13.30 
   1 -10   4   85.22   10.66 
   1 -10   4  106.38   13.28 
   1 -10   4   92.15   11.92 
  -1 -10  -4   94.48   11.87 
   1 -10   3    7.24    3.45 
   1 -10   3    4.96    2.69 
  -1 -10  -3    2.24    2.86 
   1 -10   2  125.29   14.65 
   1 -10   2  131.79   16.42 
  -1 -10  -2  136.28   14.86 
   1 -10   1   32.44    8.16 
   1 -10   1   56.97    9.85 
  -1 -10  -1   48.36    8.61 
  -1 -10   0  173.07   16.20 
   1 -10   0  140.77   15.80 
   1 -10   0  136.13   16.93 
   1 -10  -1   21.49    7.10 
   1 -10  -1   33.35    7.70 
  -1 -10   1   33.84    6.85 
   1 -10  -2   94.36   13.32 
   1 -10  -2   99.86   12.91 
  -1 -10   2   77.18    9.45 
  -1 -10   2  116.03   12.66 
  -1 -10   3  176.35   14.90 
   1 -10  -3  228.36   19.67 
   1 -10  -3  181.56   17.21 
  -1 -10   3  236.37   18.20 
   1 -10  -4    5.15    3.43 
  -1 -10   4    4.84    3.07 
  -1 -10   4    6.94    2.69 
   1 -10  -4    2.75    2.22 
  -1 -10   5  110.59   11.25 
  -1 -10   5  113.06   11.23 
  -1 -10   5  117.47   13.03 
   1 -10  -5  117.89   11.98 
  -1 -10   6   11.65    3.86 
  -1 -10   7   46.83    7.26 
  -1 -10   8   15.36    3.99 
  -1 -10   9   34.60    5.22 
  -1 -10   9   23.32    4.13 
  -1 -10  10   44.61    4.83 
  -1 -10  10   26.23    3.81 
   1 -11   7    7.18    2.14 
   1 -11   6   24.10    4.20 
  -1 -11  -6   32.49    4.99 
   1 -11   6   24.30    4.28 
   1 -11   6   15.67    2.95 
   1 -11   5   70.25    8.19 
  -1 -11  -5   80.66    8.81 
   1 -11   5   64.88    7.81 
   1 -11   4   -0.09    1.48 
   1 -11   4   -1.57    2.29 
   1 -11   3  137.36   13.49 
   1 -11   3  139.13   12.80 
  -1 -11  -3  136.06   12.62 
   1 -11   2   19.33    4.84 
   1 -11   2   19.88    5.76 
  -1 -11  -2   14.80    4.14 
   1 -11   1   49.22    8.62 
   1 -11   1   65.09    9.34 
  -1 -11  -1   60.09    8.54 
  -1 -11   0   10.32    3.54 
   1 -11   0   17.99    5.54 
   1 -11   0   11.84    3.76 
  -1 -11   0   14.22    4.18 
   1 -11  -1   45.19    8.32 
  -1 -11   1   38.03    6.21 
   1 -11  -1   42.81    7.72 
  -1 -11   1   47.56    7.43 
   1 -11  -2   51.97    8.62 
  -1 -11   2   46.22    7.41 
   1 -11  -2   49.11    7.78 
  -1 -11   2   59.61    7.95 
  -1 -11   3   34.59    6.16 
  -1 -11   3   45.19    6.74 
   1 -11  -3   38.55    6.49 
   1 -11  -3   54.45    7.87 
   1 -11  -4  140.94   11.71 
  -1 -11   4  124.52   10.43 
  -1 -11   4  127.33   11.64 
   1 -11  -4  140.87   11.48 
  -1 -11   5   15.92    4.02 
  -1 -11   6   44.05    6.06 
  -1 -11   7    1.12    1.55 
   1 -12   3    8.11    2.52 
   1 -12   3   10.73    2.52 
  -1 -12  -3   14.20    2.96 
   1 -12   2   14.32    3.64 
   1 -12   2   14.03    3.08 
  -1 -12  -2   18.13    3.62 
   1 -12   1    2.17    1.31 
   1 -12   1   -0.63    1.46 
  -1 -12  -1    2.71    1.25 
   1 -12   0   10.66    3.17 
   1 -12   0    6.83    2.48 
  -1 -12   0   12.19    2.96 
   1 -12  -1   20.84    4.13 
   1 -12  -1   18.12    3.48 
  -1 -12   1   19.98    3.62 
  -1 -12   2   27.40    4.41 
  -1 -12   3    5.91    2.27 
  -2  11  -5   33.64    4.41 
  -2  11  -4    7.65    2.31 
   2  11   4    8.13    2.31 
   2  11   4    7.36    2.28 
  -2  11  -3   19.04    3.86 
   2  11   3   21.47    3.91 
   2  11   3   14.21    3.25 
  -2  11  -2   10.02    3.19 
   2  11   2   10.97    2.78 
  -2  11  -1    8.89    2.81 
   2  11   1    4.24    1.67 
  -2  11   0   50.25    6.27 
   2  11   0   39.85    5.03 
  -2  11   1   17.53    3.62 
  -2  11   2   42.11    5.14 
  -2  11   3   -0.94    1.69 
  -2  11   4   59.12    7.14 
  -2  11   5   33.23    4.83 
  -2  10  -9   19.98    3.16 
  -2  10  -8   43.49    5.33 
  -2  10  -7    5.24    2.25 
   2  10   7    5.25    2.34 
   2  10   7    5.76    2.18 
   2  10   6   50.33    6.28 
   2  10   6   45.57    6.16 
  -2  10  -6   38.86    5.97 
  -2  10  -5    1.98    1.99 
   2  10   5   -1.12    1.89 
   2  10   5    0.01    1.41 
   2  10   4   78.42    9.10 
  -2  10  -4   75.02    8.88 
  -2  10  -3   67.09    9.16 
   2  10   3   71.39    8.88 
  -2  10  -3   59.99    8.00 
  -2  10  -2   58.74    8.69 
   2  10   2   55.71    7.95 
  -2  10  -2   49.27    7.09 
  -2  10  -1   14.37    3.90 
  -2  10  -1   13.71    3.90 
   2  10   1   21.05    4.97 
  -2  10   0   47.70    7.60 
   2  10   0   53.25    7.59 
  -2  10   1   47.60    7.55 
   2  10  -1   39.15    5.97 
  -2  10   2   45.25    7.39 
  -2  10   3  100.89   10.77 
  -2  10   4  139.48   12.32 
  -2  10   5   74.97    8.16 
  -2  10   5   73.37    9.53 
  -2  10   6    4.74    2.28 
  -2  10   6    5.27    2.52 
  -2  10   7   27.93    5.16 
  -2  10   8   65.44    6.97 
  -2  10   8   72.80    7.30 
  -2   9 -11    7.98    2.05 
   2   9  11    8.95    1.94 
   2   9  10   67.10    6.58 
   2   9   9    6.70    2.03 
   2   9   9   10.63    2.57 
   2   9   8   63.13    7.48 
   2   9   8   47.72    6.24 
   2   9   8   71.48    7.54 
   2   9   7   69.34    8.75 
   2   9   7   67.22    8.18 
   2   9   7   66.14    7.64 
   2   9   6   39.98    7.16 
   2   9   6   38.63    6.56 
   2   9   6   46.76    6.76 
   2   9   5  158.61   14.57 
   2   9   5  166.55   13.23 
   2   9   4   19.11    5.75 
   2   9   3  188.74   16.50 
   2   9   2  144.30   14.40 
  -2   9  -2  120.73   13.19 
  -2   9  -1   34.65    6.89 
   2   9   1   39.60    7.62 
   2   9   1   38.78    7.96 
  -2   9   0   85.13   11.63 
   2   9   0   83.10   11.83 
   2   9   0   90.01   10.72 
  -2   9   0   71.67    9.71 
  -2   9   1   79.34   11.11 
   2   9  -1   83.27   11.51 
   2   9  -1   83.99   10.07 
  -2   9   1   58.80    8.35 
  -2   9   2  310.43   22.61 
   2   9  -2  328.79   23.75 
   2   9  -2  316.53   19.51 
  -2   9   3   17.39    5.05 
   2   9  -3   18.21    5.36 
  -2   9   4  211.65   17.59 
   2   9  -4  205.53   16.94 
  -2   9   5  109.97   12.16 
   2   9  -5  122.78   12.10 
  -2   9   6   63.80    8.74 
   2   9  -6   69.54    8.32 
  -2   9   6   64.53   10.15 
  -2   9   7   10.55    3.67 
  -2   9   7    9.73    4.13 
  -2   9   8   73.61    8.07 
  -2   9   8   79.17   10.06 
  -2   9   9  129.92   11.74 
  -2   9   9  126.89   11.43 
  -2   9  10   12.10    2.87 
  -2   9  10   14.33    3.56 
  -2   9  10   11.45    2.69 
  -2   9  11   50.03    5.09 
   2   8  12   10.54    3.01 
   2   8  11  114.97    9.56 
   2   8  11  120.80    9.52 
   2   8  11  120.42   10.83 
   2   8  10   38.27    6.05 
   2   8  10   40.28    6.00 
   2   8   9   51.69    7.20 
   2   8   9   52.10    6.64 
   2   8   9   58.83    7.88 
   2   8   8  100.33   11.34 
   2   8   8  115.90   11.54 
   2   8   8   92.26    9.94 
   2   8   7   68.17    9.70 
   2   8   7   82.89   10.11 
   2   8   7   77.94    9.75 
   2   8   6  263.55   20.61 
   2   8   6  293.30   19.94 
   2   8   5   22.23    5.73 
   2   8   4  175.97   14.98 
   2   8   3   19.95    4.89 
   2   8   3   15.01    5.49 
   2   8   2  173.45   17.24 
   2   8   2  162.60   14.44 
   2   8   1   92.45   12.44 
   2   8   0  103.80   12.98 
  -2   8   0   73.50   10.54 
  -2   8   1  220.77   19.53 
   2   8  -1  258.19   20.90 
  -2   8   1  210.18   17.84 
  -2   8   2   13.14    4.44 
  -2   8   2   16.98    5.43 
   2   8  -2   21.28    6.31 
  -2   8   3  151.01   15.87 
   2   8  -3  130.96   15.38 
  -2   8   4   16.30    5.27 
   2   8  -4   13.61    4.47 
  -2   8   5  232.02   19.52 
   2   8  -5  193.86   17.24 
  -2   8   6  129.29   14.03 
   2   8  -6  130.41   13.15 
  -2   8   6  109.52   13.16 
  -2   8   7    4.32    2.41 
   2   8  -7    1.41    1.97 
  -2   8   7    4.32    2.65 
  -2   8   7    1.78    3.01 
  -2   8   8  115.79   12.21 
  -2   8   8  105.23   13.36 
  -2   8   9    3.62    2.60 
  -2   8   9    5.44    2.95 
  -2   8  10  184.17   15.55 
  -2   8  10  182.44   15.29 
  -2   8  11   37.34    5.84 
  -2   8  11   35.78    5.95 
  -2   8  11   33.22    5.33 
  -2   8  12  108.59    8.83 
   2   7  13   17.42    3.61 
   2   7  13   17.60    3.86 
   2   7  12  114.39    9.85 
   2   7  12  106.09   10.62 
   2   7  12   94.27    9.23 
   2   7  12   96.33    9.63 
   2   7  11    3.30    2.27 
   2   7  11    1.08    2.16 
   2   7  11    4.25    2.63 
   2   7  10   49.30    8.23 
   2   7  10   43.81    7.29 
   2   7   9   53.53    8.24 
   2   7   9   46.81    7.72 
   2   7   9   59.37    7.71 
   2   7   9   65.95   10.03 
   2   7   8   71.37    9.95 
   2   7   8   75.56   10.17 
   2   7   8   93.30   10.31 
   2   7   7   59.71    9.01 
   2   7   7   73.26    9.89 
   2   7   6    0.55    3.38 
   2   7   5  234.07   18.06 
   2   7   4   85.25   11.35 
   2   7   4   74.75    9.70 
   2   7   3  121.01   13.93 
   2   7   2  348.89   23.86 
   2   7   2  301.72   27.37 
   2   7   1  188.05   17.20 
   2   7   1  156.35   19.48 
   2   7   0  124.52   13.99 
   2   7   0   64.27   12.75 
   2   7  -1  106.29   12.79 
   2   7  -1  112.85   16.37 
  -2   7   1   98.49   12.02 
  -2   7   2  503.02   30.51 
   2   7  -2  583.48   32.18 
   2   7  -2  550.36   37.70 
  -2   7   2  498.92   28.78 
  -2   7   3  189.90   17.87 
   2   7  -3  187.19   21.15 
   2   7  -3  190.37   17.77 
  -2   7   3  192.34   16.54 
  -2   7   4  520.50   31.19 
   2   7  -4  495.25   29.79 
  -2   7   5  105.07   13.17 
   2   7  -5   88.25   12.07 
  -2   7   6  220.80   19.36 
  -2   7   6  212.74   19.48 
   2   7  -6  196.28   17.17 
  -2   7   7  189.80   17.84 
  -2   7   7  176.09   17.90 
   2   7  -7  171.24   15.30 
  -2   7   7  171.81   18.49 
  -2   7   8  336.01   23.88 
  -2   7   8  311.49   25.47 
  -2   7   8  339.93   24.85 
  -2   7   9  172.20   16.04 
  -2   7   9  162.26   17.40 
  -2   7  10   44.67    7.49 
  -2   7  10   55.65    9.48 
  -2   7  10   55.05    9.55 
  -2   7  11  142.36   14.26 
  -2   7  11  151.00   14.65 
  -2   7  11  126.76   12.34 
  -2   7  12   28.50    5.38 
  -2   7  12   24.35    5.33 
  -2   7  12   26.07    4.51 
  -2   7  13  117.63    8.96 
  -2   7  13  135.80    9.62 
   2   6  14    2.75    2.12 
   2   6  14    2.37    1.90 
   2   6  13   79.50    9.15 
   2   6  13   73.84    8.60 
   2   6  13   64.81    8.35 
   2   6  13   67.95    7.54 
   2   6  12   12.39    4.50 
   2   6  12    6.04    3.65 
   2   6  12   13.63    5.27 
   2   6  12   12.14    4.27 
   2   6  11  215.22   19.40 
   2   6  11  261.20   19.59 
   2   6  11  262.10   18.95 
   2   6  11  270.33   21.03 
   2   6  10   88.38   12.67 
   2   6  10   93.47   11.53 
   2   6   9  104.68   14.11 
   2   6   9  102.51   12.24 
   2   6   8  134.53   16.01 
   2   6   8  148.19   14.97 
   2   6   8  143.42   13.07 
   2   6   7  171.87   18.18 
   2   6   7  210.96   17.44 
   2   6   7  200.71   15.48 
   2   6   6  514.06   32.03 
   2   6   6  585.07   30.39 
   2   6   6  593.83   28.28 
   2   6   5   87.63   11.56 
   2   6   5   86.01   11.12 
   2   6   5   93.28   13.03 
   2   6   5   94.87   11.09 
   2   6   5  100.61   10.47 
   2   6   4  829.95   37.55 
   2   6   4  777.23   42.21 
   2   6   3  109.28   12.03 
   2   6   3  100.34   14.14 
   2   6   2  326.09   26.28 
   2   6   1  137.19   16.80 
   2   6   0  293.44   25.19 
   2   6  -1  470.62   32.72 
   2   6  -2   11.83    5.68 
  -2   6   3  517.88   30.27 
   2   6  -3  567.61   35.71 
   2   6  -3  580.64   31.51 
  -2   6   4   16.25    5.52 
   2   6  -4   18.82    5.40 
   2   6  -4   19.57    6.41 
  -2   6   4   22.54    5.93 
  -2   6   5  144.30   15.43 
   2   6  -5  123.58   15.64 
   2   6  -5  118.61   13.46 
  -2   6   6  139.25   15.37 
   2   6  -6  122.87   13.67 
  -2   6   7  169.10   16.98 
   2   6  -7  121.24   13.21 
  -2   6   7  131.48   16.17 
  -2   6   7  147.05   16.16 
  -2   6   8  236.41   20.73 
  -2   6   8  232.85   21.93 
  -2   6   8  254.61   22.03 
  -2   6   9   12.93    4.22 
  -2   6   9   17.09    6.40 
  -2   6  10   93.63   12.78 
  -2   6  10   97.20   14.00 
  -2   6  10   85.85   13.03 
  -2   6  11   20.14    5.69 
  -2   6  11   13.96    5.94 
  -2   6  11   19.55    5.11 
  -2   6  12  197.02   15.59 
  -2   6  12  209.47   17.95 
  -2   6  12  223.17   18.06 
  -2   6  13   67.67    8.76 
  -2   6  13   65.87    7.55 
  -2   6  13   62.46    7.24 
  -2   6  14   45.43    5.82 
  -2   6  14   32.56    4.47 
   2   5  15   46.69    5.88 
   2   5  14   76.32    8.50 
   2   5  14   70.38    8.88 
   2   5  13   23.75    5.66 
   2   5  13   22.35    4.88 
   2   5  13   24.62    5.74 
   2   5  13   24.99    5.95 
   2   5  13   22.68    5.22 
   2   5  12  104.44   11.86 
   2   5  12  123.31   14.27 
   2   5  12  122.14   13.77 
   2   5  12  127.60   13.20 
   2   5  12  141.72   15.15 
   2   5  11   70.08   11.28 
   2   5  11   60.80    9.56 
   2   5  11   64.83    9.86 
   2   5  10  419.60   30.07 
   2   5  10  476.77   33.07 
   2   5  10  442.42   27.45 
   2   5   9   58.40   11.21 
   2   5   9   48.52   12.17 
   2   5   9   28.98    7.70 
   2   5   9   28.99    6.45 
   2   5   8   53.42   10.09 
   2   5   8   60.83   11.87 
   2   5   8   50.29    8.65 
   2   5   8   46.79    7.60 
   2   5   8   47.96    7.58 
   2   5   7  336.02   25.50 
   2   5   7  355.86   25.18 
   2   5   7  383.59   23.70 
   2   5   7  370.31   22.03 
   2   5   7  333.81   20.69 
   2   5   6   22.95    6.64 
   2   5   6   29.60    5.90 
   2   5   6   14.51    4.15 
   2   5   6   26.26    5.56 
   2   5   5  203.54   18.19 
   2   5   4  314.51   23.49 
   2   5   3  676.36   36.75 
   2   5   2  261.21   21.69 
   2   5   1  186.17   18.18 
   2   5   0  208.68   19.47 
   2   5  -1    6.13    3.42 
   2   5  -2  763.60   40.05 
   2   5  -3  125.44   14.60 
   2   5  -4  742.37   38.72 
   2   5  -5  208.57   18.95 
  -2   5   6  418.62   26.85 
   2   5  -6  359.97   24.10 
  -2   5   7  280.06   22.20 
   2   5  -7  240.06   19.42 
  -2   5   7  279.11   22.83 
  -2   5   7  255.21   22.42 
  -2   5   8  105.21   13.78 
  -2   5   8  112.69   15.02 
  -2   5   8   83.29   12.64 
   2   5  -8   89.34   11.56 
  -2   5   9  636.65   36.42 
  -2   5   9  600.82   37.57 
  -2   5  10    8.64    3.67 
  -2   5  10   15.98    5.58 
  -2   5  10    6.85    4.73 
  -2   5  11  377.74   27.60 
  -2   5  11  371.72   27.38 
  -2   5  11  411.92   27.34 
  -2   5  11  398.24   26.95 
  -2   5  12   32.30    6.67 
  -2   5  12   34.43    7.75 
  -2   5  12   37.28    8.01 
  -2   5  12   42.17    7.95 
  -2   5  13  202.28   16.96 
  -2   5  13  187.88   15.04 
  -2   5  13  190.37   16.04 
  -2   5  13  180.19   14.95 
  -2   5  14   50.44    6.26 
  -2   5  14   33.60    5.12 
  -2   5  15   16.97    3.56 
  -2   5  15   20.76    3.79 
   2   4  15  101.82    9.85 
   2   4  14   29.25    6.18 
   2   4  14   20.52    5.20 
   2   4  14   21.54    5.33 
   2   4  14   19.96    4.64 
   2   4  13  160.83   15.94 
   2   4  13  162.39   15.32 
   2   4  13  164.67   16.69 
   2   4  13  147.43   14.12 
   2   4  13  170.08   16.38 
   2   4  13  135.44   12.82 
   2   4  12    4.52    3.35 
   2   4  12    2.48    3.28 
   2   4  12    1.87    2.45 
   2   4  12    4.06    3.06 
   2   4  12    4.86    3.06 
   2   4  11  389.81   25.80 
   2   4  11  408.26   29.05 
   2   4  11  419.01   26.21 
   2   4  11  408.28   30.44 
   2   4  10  182.79   17.41 
   2   4  10  188.04   19.48 
   2   4  10  178.82   20.13 
   2   4  10  200.63   17.67 
   2   4  10  182.07   15.22 
   2   4   9  312.56   26.82 
   2   4   9  347.21   26.89 
   2   4   9  315.66   24.61 
   2   4   9  350.28   23.65 
   2   4   9  347.76   21.51 
   2   4   9  348.51   21.27 
   2   4   8  239.15   22.30 
   2   4   8  236.75   17.17 
   2   4   8  218.87   23.22 
   2   4   8  223.18   19.50 
   2   4   8  225.62   18.08 
   2   4   8  203.04   15.83 
   2   4   7  103.86   12.47 
   2   4   7   96.91   13.79 
   2   4   7  106.53   11.63 
   2   4   7  108.28   11.37 
   2   4   7   77.11    9.29 
   2   4   6  427.55   25.26 
   2   4   5   12.69    4.86 
   2   4   4  885.91   40.27 
   2   4   3  565.75   31.11 
   2   4   2  707.64   35.73 
   2   4   1   65.98    9.78 
   2   4   0  230.32   18.97 
   2   4  -1  404.56   25.82 
   2   4  -2   51.45    8.76 
   2   4  -3  867.07   40.23 
   2   4  -4  301.89   21.52 
   2   4  -5  779.80   37.14 
   2   4  -6  100.05   11.86 
  -2   4   7  430.83   27.44 
  -2   4   8  405.33   27.74 
  -2   4   8  407.33   28.59 
   2   4  -8  317.94   22.66 
  -2   4   9  179.92   18.22 
  -2   4   9  166.32   18.32 
  -2   4  10  430.85   29.13 
  -2   4  10  437.52   30.59 
  -2   4  10  395.23   28.84 
  -2   4  10  429.22   30.20 
  -2   4  11   47.22    8.67 
  -2   4  11   66.03   10.70 
  -2   4  11   51.85   10.02 
  -2   4  11   62.37   11.23 
  -2   4  12  296.91   23.40 
  -2   4  12  303.67   22.19 
  -2   4  12  294.12   23.63 
  -2   4  12  280.51   21.77 
  -2   4  13  136.63   14.65 
  -2   4  13  113.88   12.25 
  -2   4  13  116.72   13.05 
  -2   4  13  105.67   12.47 
  -2   4  14  220.60   15.06 
  -2   4  14  203.62   16.03 
  -2   4  15   79.11    8.82 
  -2   4  15   64.77    6.08 
  -2   4  15   65.14    7.79 
  -2   4  16   25.29    4.03 
   2   3  16   25.68    4.15 
   2   3  15   11.59    3.53 
   2   3  15   11.91    3.83 
   2   3  15   10.81    3.74 
   2   3  14  240.46   19.00 
   2   3  14  213.05   16.92 
   2   3  14  240.76   19.71 
   2   3  14  256.39   19.36 
   2   3  13    6.95    4.10 
   2   3  13   10.28    4.67 
   2   3  13    4.12    3.10 
   2   3  13    2.66    2.65 
   2   3  13    6.00    3.31 
   2   3  12  126.57   14.65 
   2   3  12  120.47   15.17 
   2   3  12   92.62   12.27 
   2   3  12   98.83   14.31 
   2   3  12  124.07   13.48 
   2   3  11   96.40   13.20 
   2   3  11   85.18   13.02 
   2   3  11   48.47    8.48 
   2   3  11   86.08   13.57 
   2   3  11   97.41   12.12 
   2   3  11   88.92   10.42 
   2   3  10  357.95   28.67 
   2   3  10  397.20   22.76 
   2   3  10  375.03   22.06 
   2   3  10  386.82   24.88 
   2   3   9  529.57   35.24 
   2   3   9  563.04   31.06 
   2   3   9  554.51   32.18 
   2   3   9  583.85   30.66 
   2   3   9  659.75   29.66 
   2   3   9  583.48   28.51 
   2   3   8  180.44   18.82 
   2   3   8  183.43   16.76 
   2   3   8  202.10   16.24 
   2   3   8  210.44   15.45 
   2   3   8  197.36   16.89 
   2   3   7  823.17   37.52 
   2   3   6   41.00    6.67 
   2   3   5  678.63   31.84 
   2   3   4  557.27   28.47 
   2   3   3 2336.29   75.14 
   2   3   2 1326.32   50.43 
   2   3   1  304.67   20.40 
   2   3   0  718.67   33.97 
   2   3  -1  631.67   31.30 
   2   3  -2 1468.00   53.91 
   2   3  -3   63.24    8.99 
   2   3  -4  992.33   41.26 
   2   3  -5  106.78   11.54 
   2   3  -6  184.99   15.25 
  -2   3   8  396.57   26.82 
   2   3  -8  489.71   31.94 
  -2   3   9  632.88   35.71 
  -2   3   9  608.68   35.20 
   2   3  -9  675.80   39.98 
  -2   3   9  645.04   31.28 
  -2   3   9  632.88   36.39 
  -2   3  10   23.30    6.88 
  -2   3  10   18.83    5.87 
  -2   3  10   13.69    5.67 
  -2   3  10   16.94    5.53 
  -2   3  10   24.12    6.68 
  -2   3  10   32.34    6.68 
  -2   3  11  119.66   14.49 
  -2   3  11  111.83   14.60 
  -2   3  11  110.81   14.42 
  -2   3  11  102.50   13.72 
  -2   3  12   -4.12    4.66 
  -2   3  12    1.63    2.70 
  -2   3  12    2.98    3.26 
  -2   3  12   -6.56    7.88 
  -2   3  13  226.10   19.84 
  -2   3  13  285.63   20.61 
  -2   3  13  246.34   20.66 
  -2   3  14  155.36   13.33 
  -2   3  14  151.67   14.61 
  -2   3  15   69.89    8.94 
  -2   3  15   66.11    7.31 
  -2   3  15   69.75    9.34 
  -2   3  16  130.95   10.38 
   2   2  16  148.64   10.91 
   2   2  16  120.20    9.48 
   2   2  16  147.78   11.67 
   2   2  15  127.89   12.14 
   2   2  15  125.74   13.00 
   2   2  14   20.87    5.36 
   2   2  14   17.84    4.56 
   2   2  14   15.47    5.33 
   2   2  14   15.87    4.97 
   2   2  13   73.97   10.97 
   2   2  13  101.47   13.23 
   2   2  13   88.78   13.17 
   2   2  13  121.22   14.53 
   2   2  13   84.15   10.74 
   2   2  12   96.52   12.77 
   2   2  12  112.75   15.28 
   2   2  12  108.25   12.61 
   2   2  12   91.31   13.03 
   2   2  11  675.51   36.66 
   2   2  11  703.34   41.60 
   2   2  11  675.62   34.54 
   2   2  11  737.07   35.58 
   2   2  11  698.14   31.45 
   2   2  11  722.59   32.49 
   2   2  11  580.60   36.18 
   2   2  10  156.34   18.08 
   2   2  10  159.42   15.53 
   2   2  10  137.34   15.32 
   2   2  10  165.78   15.46 
   2   2  10  180.60   14.54 
   2   2  10  176.80   14.43 
   2   2  10  144.02   17.09 
   2   2  10  125.81   14.63 
   2   2   9  230.03   21.59 
   2   2   9  256.83   22.96 
   2   2   9  305.20   21.24 
   2   2   9  262.47   20.35 
   2   2   9  278.45   19.58 
   2   2   9  301.62   18.66 
   2   2   9  250.34   17.40 
   2   2   8  251.85   18.83 
   2   2   7  122.34   12.18 
   2   2   6  169.58   13.60 
   2   2   6  186.57   13.97 
   2   2   5  472.64   24.09 
   2   2   4 1111.77   42.28 
   2   2   3  317.06   19.27 
   2   2   3  297.36   17.37 
   2   2   2  694.98   31.39 
   2   2   2  677.13   27.56 
   2   2   1  569.09   19.28 
   2   2   1  544.46   27.34 
   2   2   1  610.68   23.46 
   2   2   0  141.18   12.85 
   2   2   0  186.72   10.51 
   2   2  -1 1081.42   43.65 
   2   2  -1 1274.85   40.15 
   2   2  -2  171.42   12.58 
   2   2  -2  179.43   14.27 
   2   2  -3 1322.71   48.46 
   2   2  -4  180.57   14.56 
   2   2  -5 1441.91   50.95 
   2   2  -6  948.35   42.11 
   2   2  -6  803.80   34.74 
   2   2  -7  812.72   40.79 
   2   2  -8  689.60   38.36 
  -2   2   9   50.26    9.13 
  -2   2   9   49.39    8.96 
  -2   2   9   42.40    8.60 
   2   2  -9   45.95    9.77 
  -2   2   9   44.74    7.52 
   2   2 -10 1020.41   51.06 
  -2   2  10  938.39   46.46 
  -2   2  10  993.74   46.79 
  -2   2  10 1001.42   46.28 
  -2   2  10 1050.55   42.89 
  -2   2  10  921.03   46.51 
  -2   2  11   49.58    9.19 
  -2   2  11   67.55   11.10 
  -2   2  11   47.48    9.19 
  -2   2  12  498.05   31.36 
  -2   2  12  532.26   30.83 
  -2   2  12  472.27   32.10 
  -2   2  12  468.69   30.76 
  -2   2  13    7.07    3.59 
  -2   2  13   -4.87    7.58 
  -2   2  14  135.45   14.20 
  -2   2  14  125.76   12.51 
  -2   2  15  222.07   16.87 
  -2   2  15  197.53   13.84 
  -2   2  15  227.38   17.83 
  -2   2  16   57.10    7.03 
  -2   2  17  116.46    8.65 
   2   1  17   52.29    5.42 
   2   1  16   58.39    6.88 
   2   1  16   63.34    7.84 
   2   1  15   40.00    7.52 
   2   1  15   47.76    7.74 
   2   1  14  191.51   17.47 
   2   1  14  185.27   17.93 
   2   1  14  185.07   16.22 
   2   1  13    3.55    3.13 
   2   1  13   -0.33    3.16 
   2   1  13    4.85    4.13 
   2   1  13   -2.31    3.33 
   2   1  12  380.80   25.57 
   2   1  12  417.71   29.96 
   2   1  12  392.38   24.33 
   2   1  12  369.28   23.74 
   2   1  12  380.54   27.46 
   2   1  12  388.23   29.16 
   2   1  11  220.41   18.77 
   2   1  11  223.88   21.80 
   2   1  11  170.10   18.44 
   2   1  11  227.90   18.34 
   2   1  11  232.47   18.13 
   2   1  11  226.69   16.31 
   2   1  11  233.08   22.06 
   2   1  11  234.95   16.66 
   2   1  10  601.53   33.07 
   2   1  10  504.61   33.65 
   2   1  10  594.30   36.72 
   2   1  10  634.59   32.77 
   2   1  10  579.39   32.67 
   2   1  10  646.01   31.59 
   2   1  10  594.10   36.76 
   2   1  10  684.29   30.10 
   2   1  10  669.07   30.11 
   2   1   9  367.17   27.05 
   2   1   9  357.31   23.10 
   2   1   9  362.37   24.92 
   2   1   8  404.42   23.55 
   2   1   7  626.74   29.53 
   2   1   7  706.68   33.89 
   2   1   6  365.88   22.15 
   2   1   6  328.65   18.77 
   2   1   5 1034.38   37.45 
   2   1   5 1087.85   42.40 
   2   1   5 1109.65   40.03 
   2   1   4  135.80   11.85 
   2   1   4  141.92   11.79 
   2   1   3 2490.10   73.16 
   2   1   3 2301.86   70.91 
   2   1   2  131.90   11.69 
   2   1   2  123.98   10.35 
   2   1   2  146.08    7.10 
   2   1   1 1058.81   31.25 
   2   1   1 1012.66   39.48 
   2   1   1 1052.37   35.76 
   2   1   0  202.46   10.79 
   2   1   0  185.59   14.11 
   2   1   0  194.18   11.48 
   2   1  -1  471.90   23.85 
   2   1  -1  433.02   17.62 
   2   1  -2  892.37   34.40 
   2   1  -2  887.26   31.69 
   2   1  -3   10.67    3.28 
   2   1  -3   10.31    3.20 
   2   1  -4  967.40   39.29 
   2   1  -4 1007.43   38.90 
   2   1  -5  419.50   24.52 
   2   1  -5  434.56   22.78 
   2   1  -6  921.58   41.43 
   2   1  -7  158.91   16.08 
   2   1  -8  178.62   17.99 
   2   1  -9 1000.78   48.95 
  -2   1  10   33.96    7.87 
   2   1 -10   42.29    9.18 
  -2   1  10   30.97    7.59 
  -2   1  10   40.35    7.96 
  -2   1  10   41.85    9.37 
  -2   1  10   41.15    7.37 
  -2   1  11  478.47   29.69 
  -2   1  11  470.38   27.18 
  -2   1  11  451.78   29.60 
  -2   1  11  464.86   31.67 
  -2   1  11  422.00   30.04 
  -2   1  12   53.62    8.58 
  -2   1  12   52.42    9.25 
  -2   1  12   26.01    6.63 
  -2   1  12   65.85   14.00 
  -2   1  13  332.03   21.73 
  -2   1  13  374.41   24.41 
  -2   1  13  344.32   25.92 
  -2   1  14  237.78   17.84 
  -2   1  14  258.72   21.28 
  -2   1  15  134.95   12.96 
  -2   1  15  121.93   11.19 
  -2   1  16  245.68   15.26 
  -2   1  16  220.38   12.27 
  -2   1  17    1.36    1.54 
   2   0  17    5.31    1.84 
   2   0  16   27.94    5.27 
   2   0  16   19.04    3.88 
   2   0  15  161.70   14.00 
   2   0  15  166.54   15.24 
   2   0  14   -2.61    1.88 
   2   0  14   -1.55    2.98 
   2   0  13  115.65   13.89 
   2   0  13  125.57   15.61 
   2   0  13  134.77   15.96 
   2   0  13  167.04   15.66 
   2   0  12  290.97   24.49 
   2   0  12  228.22   20.43 
   2   0  12  278.95   23.91 
   2   0  12  301.41   20.68 
   2   0  12  316.15   25.03 
   2   0  11  302.25   25.29 
   2   0  11  310.87   23.80 
   2   0  11  329.25   26.27 
   2   0  11  299.06   23.68 
   2   0  11  333.34   22.44 
   2   0  11  314.49   25.48 
   2   0  11  344.27   19.78 
   2   0  10   65.75   10.80 
   2   0  10   54.44   10.14 
   2   0  10   71.64    9.99 
   2   0  10   62.99   11.22 
   2   0  10   53.47    9.14 
   2   0  10   58.03   10.59 
   2   0  10   55.00    9.29 
   2   0  10   64.54    8.22 
   2   0  10   63.29    8.06 
   2   0   9  135.51   13.42 
   2   0   8  647.91   30.68 
   2   0   8  685.34   34.20 
   2   0   7   45.16    6.64 
   2   0   7   39.48    7.14 
   2   0   6  694.90   28.82 
   2   0   6  730.57   33.51 
   2   0   5  361.31   13.92 
   2   0   5  349.69   17.44 
   2   0   5  343.17   20.56 
   2   0   4 1687.95   49.43 
   2   0   4 1623.69   54.80 
   2   0   3  265.62   11.50 
   2   0   3  257.89   15.90 
   2   0   2  404.54   20.03 
   2   0   2  415.67   16.08 
   2   0   1 1897.22   52.66 
   2   0   1 1820.39   59.90 
   2   0   1 1902.95   55.98 
   2   0   0  619.80   22.96 
   2   0   0  628.18   28.22 
   2   0  -1 5526.97  142.12 
   2   0  -1 5715.09  149.00 
   2   0  -2  142.45   10.66 
   2   0  -3  779.86   31.36 
   2   0  -4   42.27    6.91 
   2   0  -5 1544.32   55.34 
   2   0  -6  309.42   21.49 
   2   0  -7  645.72   34.31 
   2   0  -8 1796.60   68.36 
   2   0  -9   56.18   10.11 
   2   0 -10  150.22   17.29 
  -2   0  10  148.50   15.84 
  -2   0  10  145.12   16.99 
  -2   0  10  148.78   18.37 
  -2   0  11  125.10   14.53 
  -2   0  11  116.01   14.44 
  -2   0  11  119.07   13.56 
  -2   0  12  264.68   21.04 
  -2   0  12  261.46   20.26 
  -2   0  12  228.45   21.57 
  -2   0  13   71.70    9.92 
  -2   0  13   86.01   11.33 
  -2   0  13   91.50   14.66 
  -2   0  14  256.44   19.37 
  -2   0  14  238.67   17.83 
  -2   0  14  244.77   18.28 
  -2   0  15   62.41    7.76 
  -2   0  15   67.68    8.65 
  -2   0  16    1.55    1.73 
  -2   0  16    4.54    2.41 
  -2   0  16    3.70    1.80 
  -2   0  17   44.50    5.74 
   2  -1  17   48.80    5.40 
   2  -1  16   50.60    5.99 
   2  -1  16   57.80    7.57 
   2  -1  15   40.24    6.57 
   2  -1  15   41.80    7.57 
   2  -1  14  180.76   17.08 
   2  -1  14  184.40   17.33 
   2  -1  13    1.71    2.51 
   2  -1  13   -0.65    3.46 
   2  -1  13    0.85    3.40 
   2  -1  13    1.33    2.52 
   2  -1  12  384.66   25.86 
   2  -1  12  337.47   25.93 
   2  -1  12  364.53   27.37 
   2  -1  12  365.09   26.94 
   2  -1  12  354.59   22.73 
   2  -1  11  230.51   22.03 
   2  -1  11  187.76   18.00 
   2  -1  11  187.18   17.93 
   2  -1  11  209.67   20.57 
   2  -1  11  171.00   18.33 
   2  -1  11  201.76   19.59 
   2  -1  11  207.78   17.14 
   2  -1  10  519.06   33.67 
   2  -1  10  605.86   33.73 
   2  -1  10  541.58   34.30 
   2  -1  10  526.15   33.62 
   2  -1  10  584.25   34.89 
   2  -1  10  628.85   31.93 
   2  -1  10  644.39   34.29 
   2  -1  10  597.18   33.09 
   2  -1   9  342.96   23.81 
   2  -1   9  319.99   22.62 
   2  -1   9  316.47   23.30 
   2  -1   9  337.83   23.53 
   2  -1   8  304.85   21.91 
   2  -1   8  365.97   23.75 
   2  -1   7  690.59   29.09 
   2  -1   7  661.19   32.55 
   2  -1   6  370.37   18.87 
   2  -1   6  358.64   22.01 
   2  -1   6  374.30   16.53 
   2  -1   5  994.73   33.48 
   2  -1   5  952.51   30.61 
   2  -1   5  879.18   37.43 
   2  -1   4  126.60    8.68 
   2  -1   4  120.51   10.90 
   2  -1   3 2398.46   63.48 
   2  -1   3 2382.66   66.50 
   2  -1   2  151.29   10.08 
   2  -1   2  164.60    7.84 
   2  -1   1  989.32   34.14 
   2  -1   1 1054.47   28.14 
   2  -1   0  217.85   12.80 
   2  -1  -1  461.60   20.53 
   2  -1  -2  946.93   34.54 
   2  -1  -3    9.52    3.00 
   2  -1  -4  889.21   36.30 
   2  -1  -5  416.38   23.77 
   2  -1  -6  727.13   34.90 
   2  -1  -7  176.02   16.37 
   2  -1  -8  137.75   15.25 
   2  -1  -9  958.10   47.19 
  -2  -1   9  982.31   44.23 
   2  -1 -10   43.29    9.35 
  -2  -1  10   37.93    7.49 
  -2  -1  10   33.69    8.73 
  -2  -1  11  438.81   27.74 
  -2  -1  11  395.68   29.70 
  -2  -1  12   53.83    9.32 
  -2  -1  12   45.84    8.46 
  -2  -1  13  394.75   24.67 
  -2  -1  13  409.31   25.81 
  -2  -1  13  372.83   24.56 
  -2  -1  14  248.41   18.59 
  -2  -1  14  249.03   18.22 
  -2  -1  15  141.26   11.87 
  -2  -1  15  114.33   11.12 
  -2  -1  16  221.73   12.67 
  -2  -1  16  238.54   16.55 
  -2  -1  17    0.15    1.58 
   2  -2  17   63.01    5.67 
   2  -2  16  147.50   11.61 
   2  -2  15   91.73   10.40 
   2  -2  14   15.16    4.67 
   2  -2  14   13.52    4.63 
   2  -2  14   15.43    5.25 
   2  -2  13   65.50   10.76 
   2  -2  13   81.19   11.55 
   2  -2  13   68.73   10.41 
   2  -2  13   78.33   11.68 
   2  -2  12   93.09   12.38 
   2  -2  12   86.54   12.95 
   2  -2  12   98.80   13.55 
   2  -2  12   99.01   13.36 
   2  -2  12   88.36   11.78 
   2  -2  12   92.92   10.73 
   2  -2  11  713.04   39.08 
   2  -2  11  578.24   33.43 
   2  -2  11  570.46   35.37 
   2  -2  11  565.10   35.88 
   2  -2  11  587.39   34.83 
   2  -2  11  620.82   31.42 
   2  -2  11  604.85   33.50 
   2  -2  10  143.70   15.66 
   2  -2  10  140.50   16.23 
   2  -2  10  128.47   15.69 
   2  -2  10  142.91   15.62 
   2  -2  10  149.96   14.53 
   2  -2  10  150.24   16.17 
   2  -2  10  141.12   15.16 
   2  -2  10  153.27   16.27 
   2  -2  10  164.43   17.17 
   2  -2   9  243.06   23.03 
   2  -2   9  225.98   19.34 
   2  -2   9  221.68   18.83 
   2  -2   9  219.26   19.77 
   2  -2   9  252.64   20.19 
   2  -2   9  236.99   20.54 
   2  -2   9  243.22   20.22 
   2  -2   9  200.15   18.19 
   2  -2   9  251.15   19.95 
   2  -2   8  195.45   16.84 
   2  -2   8  221.80   18.32 
   2  -2   7   82.96   10.19 
   2  -2   7  113.86    9.79 
   2  -2   7  113.88   12.39 
   2  -2   6  146.34   12.55 
   2  -2   6  172.28   14.71 
   2  -2   5  351.91   19.44 
   2  -2   5  383.55   22.04 
   2  -2   4 1163.99   37.17 
   2  -2   3  301.49   16.66 
   2  -2   2  675.60   27.34 
   2  -2   1  521.32   23.19 
   2  -2   0  179.38   12.45 
   2  -2  -1 1109.10   39.49 
   2  -2  -2  169.64   12.67 
   2  -2  -3 1343.36   47.28 
   2  -2  -4  213.49   16.00 
   2  -2  -5 1359.98   51.27 
   2  -2  -6  668.87   33.75 
   2  -2  -7  609.54   33.24 
   2  -2  -8  534.17   32.25 
   2  -2  -9   56.90   10.74 
  -2  -2   9   58.64    9.38 
  -2  -2   9   57.79   11.89 
  -2  -2  10  941.94   36.39 
   2  -2 -10  955.09   47.91 
  -2  -2  10  992.49   45.16 
  -2  -2  11   59.36   10.20 
  -2  -2  12  515.16   30.40 
  -2  -2  12  472.18   28.97 
  -2  -2  13   11.70    4.32 
  -2  -2  13    4.26    2.81 
  -2  -2  14  142.61   14.01 
  -2  -2  14  144.49   13.28 
  -2  -2  15  185.90   13.51 
  -2  -2  15  199.45   16.68 
  -2  -2  15  165.87   13.69 
  -2  -2  16   45.15    5.16 
  -2  -2  16   46.11    6.59 
  -2  -2  17  118.51    8.21 
   2  -3  16   31.61    4.78 
   2  -3  15    8.67    3.43 
   2  -3  14  187.58   16.64 
   2  -3  14  195.90   16.28 
   2  -3  13    4.76    2.45 
   2  -3  13    4.40    3.60 
   2  -3  13    4.33    2.62 
   2  -3  13   -0.63    3.49 
   2  -3  12  101.22   12.71 
   2  -3  12  111.91   12.89 
   2  -3  12  110.66   14.75 
   2  -3  12   97.93   12.86 
   2  -3  12   99.85   12.87 
   2  -3  11   72.61   11.27 
   2  -3  11   75.18   11.11 
   2  -3  11   75.90   11.14 
   2  -3  11   57.97   10.29 
   2  -3  11   71.81   12.10 
   2  -3  11   62.05   10.24 
   2  -3  11   66.72    9.30 
   2  -3  10  290.49   22.89 
   2  -3  10  256.52   23.73 
   2  -3  10  274.45   22.44 
   2  -3  10  285.41   22.39 
   2  -3  10  284.75   22.10 
   2  -3  10  274.35   22.19 
   2  -3  10  306.09   23.38 
   2  -3  10  279.16   21.73 
   2  -3   9  493.03   29.79 
   2  -3   9  431.58   27.23 
   2  -3   9  462.46   28.73 
   2  -3   9  454.73   28.28 
   2  -3   9  435.95   27.20 
   2  -3   8  130.54   16.02 
   2  -3   8  178.75   14.48 
   2  -3   8  174.91   16.60 
   2  -3   8  180.23   17.18 
   2  -3   7  759.50   31.69 
   2  -3   7  684.50   34.68 
   2  -3   6   29.42    6.11 
   2  -3   6   35.58    5.63 
   2  -3   5  718.45   28.65 
   2  -3   4  546.20   23.22 
   2  -3   3 2273.95   70.33 
   2  -3   2 1307.05   46.19 
   2  -3   1  266.37   16.83 
   2  -3   0 1033.45   39.04 
   2  -3  -1  735.98   31.44 
   2  -3  -2 1452.53   51.27 
   2  -3  -3   58.25    8.29 
  -2  -3   3   57.56    8.12 
   2  -3  -4  946.73   40.77 
  -2  -3   4  768.93   36.97 
   2  -3  -5  157.46   14.76 
  -2  -3   5   91.97   11.95 
   2  -3  -6  183.15   16.77 
  -2  -3   6  130.45   14.99 
   2  -3  -7  496.89   30.63 
   2  -3  -8  375.40   27.07 
  -2  -3   8  359.74   24.91 
  -2  -3   9  627.03   28.58 
   2  -3  -9  595.21   36.42 
  -2  -3   9  654.91   35.17 
  -2  -3  10   13.59    4.03 
  -2  -3  10   15.58    5.74 
  -2  -3  11  126.78   14.62 
  -2  -3  12   -0.10    3.32 
  -2  -3  12    1.28    2.89 
  -2  -3  12    3.47    2.53 
  -2  -3  12   -0.55    2.64 
  -2  -3  13  236.31   18.51 
  -2  -3  13  221.10   20.34 
  -2  -3  13  261.97   20.19 
  -2  -3  14  159.92   14.40 
  -2  -3  14  157.46   13.62 
  -2  -3  14  165.90   16.30 
  -2  -3  15   55.35    7.56 
  -2  -3  15   66.79    7.42 
  -2  -3  15   68.45    8.97 
  -2  -3  16  105.56    7.37 
  -2  -3  16  112.31    9.62 
   2  -4  16   30.59    4.27 
   2  -4  15   96.67    9.07 
   2  -4  14   15.32    3.99 
   2  -4  14   17.11    4.61 
   2  -4  13  135.15   13.00 
   2  -4  13  126.44   14.54 
   2  -4  13  120.36   12.84 
   2  -4  12   -0.41    1.92 
   2  -4  12    0.32    2.31 
   2  -4  12   -0.44    1.87 
   2  -4  12    1.84    1.87 
   2  -4  12   -1.61    1.95 
   2  -4  11  297.91   22.53 
   2  -4  11  302.44   22.85 
   2  -4  11  317.20   22.69 
   2  -4  11  275.14   24.18 
   2  -4  11  289.98   22.32 
   2  -4  10  128.32   14.59 
   2  -4  10  135.99   15.17 
   2  -4  10  120.36   16.32 
   2  -4  10  139.25   15.09 
   2  -4  10  120.81   15.56 
   2  -4  10  135.83   14.88 
   2  -4   9  254.36   21.37 
   2  -4   9  178.73   20.01 
   2  -4   9  249.25   20.43 
   2  -4   9  218.50   21.03 
   2  -4   9  239.24   20.50 
   2  -4   9  241.63   19.99 
   2  -4   8  197.88   18.56 
   2  -4   8  194.35   16.38 
   2  -4   8  172.89   17.18 
   2  -4   8  179.49   16.82 
   2  -4   8  180.43   19.35 
   2  -4   7   83.50   12.57 
   2  -4   7   98.52   12.93 
   2  -4   7  105.47   11.22 
   2  -4   7   95.90   12.23 
   2  -4   7   83.60   11.26 
   2  -4   6  411.83   22.66 
   2  -4   5    8.87    3.00 
   2  -4   4  901.82   34.50 
   2  -4   3  568.85   25.05 
   2  -4   2  651.11   31.27 
   2  -4   1   74.51    9.50 
   2  -4   0  434.36   24.41 
   2  -4  -1  500.95   26.89 
  -2  -4   2   65.01    8.42 
   2  -4  -2   57.00    8.41 
   2  -4  -3  849.47   38.02 
  -2  -4   3  810.42   36.99 
   2  -4  -4  302.80   21.39 
  -2  -4   4  248.82   19.97 
   2  -4  -5  707.96   37.06 
  -2  -4   5  573.84   33.72 
   2  -4  -6  106.66   13.66 
  -2  -4   6   85.24   12.62 
  -2  -4   7  293.72   18.57 
  -2  -4   7  330.51   23.77 
  -2  -4   7  349.40   27.14 
  -2  -4   8  335.47   20.13 
   2  -4  -8  377.25   28.40 
  -2  -4   8  327.28   24.35 
  -2  -4   8  330.08   27.49 
  -2  -4   9  165.20   13.80 
   2  -4  -9  170.36   18.93 
  -2  -4   9  163.56   16.99 
  -2  -4   9  152.45   17.48 
  -2  -4  10  394.17   26.91 
  -2  -4  10  359.61   28.04 
  -2  -4  11   50.62    8.65 
  -2  -4  11   42.77    8.87 
  -2  -4  12  280.13   21.30 
  -2  -4  12  266.88   20.43 
  -2  -4  12  252.11   20.13 
  -2  -4  12  236.29   21.46 
  -2  -4  13  122.70   13.27 
  -2  -4  13  128.84   12.84 
  -2  -4  13  131.17   12.99 
  -2  -4  13  121.36   14.07 
  -2  -4  14  211.06   15.72 
  -2  -4  14  182.12   13.52 
  -2  -4  14  211.50   15.08 
  -2  -4  14  199.52   16.40 
  -2  -4  15   65.39    7.90 
  -2  -4  15   69.96    7.09 
  -2  -4  15   61.02    7.23 
   2  -5  15   46.87    5.25 
   2  -5  14   61.26    7.04 
   2  -5  14   67.45    7.62 
   2  -5  13   10.70    3.52 
   2  -5  13   18.90    4.75 
   2  -5  12  105.67   12.13 
   2  -5  12  112.30   12.47 
   2  -5  12  106.08   11.78 
   2  -5  12  120.76   12.19 
   2  -5  11   65.55   10.02 
   2  -5  11   58.37    9.10 
   2  -5  11   48.37    8.72 
   2  -5  11   63.09    9.56 
   2  -5  11   61.00    9.65 
   2  -5  10  317.83   23.87 
   2  -5  10  325.58   22.86 
   2  -5  10  253.56   23.51 
   2  -5  10  306.55   22.36 
   2  -5  10  306.01   22.57 
   2  -5   9   16.81    6.17 
   2  -5   9   31.40    7.48 
   2  -5   9   22.48    6.27 
   2  -5   9   22.41    6.24 
   2  -5   8   31.99    8.18 
   2  -5   8   35.57    7.73 
   2  -5   8   29.73    7.20 
   2  -5   8   40.52    8.31 
   2  -5   7  302.23   23.53 
   2  -5   7  274.49   21.83 
   2  -5   7  281.92   21.95 
   2  -5   7  325.00   22.18 
   2  -5   6   29.13    6.91 
   2  -5   6   33.75    6.58 
   2  -5   6   25.89    6.18 
   2  -5   5  209.60   16.04 
   2  -5   4  324.94   19.77 
   2  -5   3  558.16   26.38 
   2  -5   2  181.21   13.52 
   2  -5   1  204.62   17.74 
   2  -5   0  435.53   26.51 
   2  -5  -1    0.29    2.20 
   2  -5  -2  708.35   36.30 
  -2  -5   2  751.93   34.20 
   2  -5  -3  113.16   13.40 
  -2  -5   3  128.97   13.72 
  -2  -5   4  461.85   29.85 
   2  -5  -4  606.54   33.37 
   2  -5  -5  189.60   18.42 
  -2  -5   5  182.43   18.70 
  -2  -5   6  352.57   21.05 
   2  -5  -6  362.32   26.99 
  -2  -5   6  381.45   28.58 
  -2  -5   6  400.70   26.34 
  -2  -5   7  232.44   16.73 
   2  -5  -7  222.36   21.29 
  -2  -5   7  215.91   19.58 
  -2  -5   7  236.87   22.98 
  -2  -5   8   86.06   10.02 
  -2  -5   8   78.50   11.82 
  -2  -5   9  481.50   32.21 
  -2  -5   9  481.97   30.38 
  -2  -5  10    8.24    4.19 
  -2  -5  10   13.77    5.99 
  -2  -5  11  354.94   26.78 
  -2  -5  11  362.56   24.60 
  -2  -5  12   45.93    8.10 
  -2  -5  12   56.10    9.04 
  -2  -5  12   49.72    8.15 
  -2  -5  12   42.49    8.19 
  -2  -5  13  193.14   15.20 
  -2  -5  13  191.56   15.32 
  -2  -5  13  198.00   16.69 
  -2  -5  13  181.58   14.66 
  -2  -5  14   48.53    6.58 
  -2  -5  14   43.91    6.02 
  -2  -5  14   43.23    6.10 
  -2  -5  14   50.08    7.03 
  -2  -5  15   19.31    3.28 
   2  -6  14    1.04    1.14 
   2  -6  13   55.16    6.93 
   2  -6  13   48.06    6.22 
   2  -6  12    2.27    2.24 
   2  -6  12    6.06    2.99 
   2  -6  12    7.08    3.33 
   2  -6  12    2.53    2.21 
   2  -6  11  180.76   15.86 
   2  -6  11  159.89   14.13 
   2  -6  11  162.42   15.35 
   2  -6  11  167.28   14.38 
   2  -6  11  178.78   15.20 
   2  -6  10   69.02    9.87 
   2  -6  10   72.63   10.84 
   2  -6  10   72.80   10.29 
   2  -6   9   75.63   11.29 
   2  -6   9   81.15   11.47 
   2  -6   8  115.15   14.35 
   2  -6   8  137.13   15.02 
   2  -6   7  174.52   18.07 
   2  -6   7  173.91   17.57 
   2  -6   6  528.97   31.36 
   2  -6   6  523.90   32.17 
   2  -6   6  500.07   31.25 
   2  -6   5  110.19   12.27 
   2  -6   5  110.02   14.19 
   2  -6   5   82.84   12.33 
   2  -6   5   81.37   11.83 
   2  -6   4  770.88   40.44 
   2  -6   4  679.99   37.15 
   2  -6   4  673.34   37.35 
   2  -6   4  715.37   38.25 
   2  -6   4  791.29   35.13 
   2  -6   3   95.96   13.53 
   2  -6   3   78.89    9.69 
   2  -6   3   90.18   12.43 
   2  -6   2  270.05   18.27 
   2  -6   1  137.63   12.42 
   2  -6   0  544.77   27.14 
   2  -6   0  611.08   34.51 
   2  -6  -1  523.34   32.06 
   2  -6  -2   20.61    6.34 
  -2  -6   3  460.47   24.28 
   2  -6  -3  460.71   30.46 
  -2  -6   4   17.64    4.94 
   2  -6  -4   14.39    5.13 
  -2  -6   4   21.77    5.61 
  -2  -6   4   12.49    5.23 
  -2  -6   5  146.49   13.22 
   2  -6  -5  130.75   16.28 
  -2  -6   5  105.21   14.88 
  -2  -6   5  151.43   15.83 
  -2  -6   6  121.33   12.01 
   2  -6  -6   82.95   13.32 
  -2  -6   6  116.43   14.09 
  -2  -6   6   97.18   14.86 
  -2  -6   7  130.51   12.58 
  -2  -6   7  123.32   14.93 
  -2  -6   8  216.76   19.90 
  -2  -6   9   12.26    4.20 
  -2  -6   9   12.92    4.78 
  -2  -6  10  100.99    9.95 
  -2  -6  10   90.92   11.99 
  -2  -6  10   74.45   11.43 
  -2  -6  11   11.73    4.34 
  -2  -6  11    8.67    3.15 
  -2  -6  11    9.90    3.92 
  -2  -6  12  183.35   14.42 
  -2  -6  12  192.62   15.88 
  -2  -6  12  184.26   15.70 
  -2  -6  12  191.01   15.31 
  -2  -6  13   49.47    6.46 
  -2  -6  13   56.93    7.44 
  -2  -6  13   60.08    7.46 
  -2  -6  14   30.80    4.39 
  -2  -6  14   34.21    4.59 
   2  -7  13    8.70    2.45 
   2  -7  13    9.29    2.52 
   2  -7  12   61.28    7.88 
   2  -7  12   72.09    7.84 
   2  -7  12   76.75    8.50 
   2  -7  11    3.96    2.01 
   2  -7  11    2.07    2.50 
   2  -7  11    3.02    2.48 
   2  -7  11    2.53    2.74 
   2  -7  11    3.16    1.61 
   2  -7  10   31.14    5.97 
   2  -7  10   36.27    7.01 
   2  -7  10   40.32    7.21 
   2  -7   9   40.19    8.16 
   2  -7   9   34.87    7.30 
   2  -7   8   66.08   10.39 
   2  -7   8   65.59   10.29 
   2  -7   7   62.04    9.57 
   2  -7   7   50.89    9.83 
   2  -7   7   60.90   10.07 
   2  -7   6    6.29    3.79 
   2  -7   6    8.81    4.47 
   2  -7   6   -1.27    2.25 
   2  -7   6    3.59    3.03 
   2  -7   5  215.39   20.24 
   2  -7   5  186.72   18.51 
   2  -7   5  187.21   18.54 
   2  -7   4   76.61   12.17 
   2  -7   4   42.02    8.98 
   2  -7   4   71.49   11.47 
   2  -7   3  136.36   17.11 
   2  -7   3  113.47   14.51 
   2  -7   2  278.21   25.12 
   2  -7   2  269.99   19.80 
   2  -7   2  326.34   25.03 
   2  -7   1  101.40   15.12 
   2  -7   1  127.46   12.81 
   2  -7   1  150.61   16.59 
   2  -7   0   76.17    9.82 
   2  -7   0   57.73   11.00 
   2  -7   0   93.65   13.23 
   2  -7  -1   92.58   10.76 
   2  -7  -1   97.91   14.74 
   2  -7  -1   88.69   12.26 
   2  -7  -2  470.18   26.30 
  -2  -7   2  535.38   26.30 
   2  -7  -2  510.15   33.89 
  -2  -7   2  547.25   29.51 
   2  -7  -2  523.76   34.24 
   2  -7  -3  146.05   13.69 
  -2  -7   3  173.47   14.47 
   2  -7  -3  172.65   18.39 
  -2  -7   3  169.94   16.33 
  -2  -7   4  485.77   26.05 
   2  -7  -4  445.63   30.21 
  -2  -7   4  508.74   30.64 
  -2  -7   5  113.57   13.94 
  -2  -7   6  185.40   18.19 
  -2  -7   7  146.26   16.00 
  -2  -7   8  424.97   23.62 
  -2  -7   8  315.61   24.17 
  -2  -7   9  173.49   16.15 
  -2  -7   9  186.37   14.18 
  -2  -7   9  176.91   17.03 
  -2  -7  10   40.84    6.76 
  -2  -7  10   43.35    7.27 
  -2  -7  10   47.23    6.47 
  -2  -7  10   57.02    9.21 
  -2  -7  11  121.28   10.74 
  -2  -7  11  118.85    9.26 
  -2  -7  11  128.95   12.45 
  -2  -7  12   24.97    4.28 
  -2  -7  12   25.82    5.02 
  -2  -7  12   30.45    5.46 
  -2  -7  13  134.66    9.85 
  -2  -7  13  135.47    9.74 
   2  -8  12    6.21    1.82 
   2  -8  11   91.10    8.81 
   2  -8  11   86.83    8.75 
   2  -8  10   30.71    5.81 
   2  -8  10   27.32    4.60 
   2  -8  10   22.27    4.83 
   2  -8   9   36.68    6.14 
   2  -8   9   37.17    6.93 
   2  -8   9   46.06    7.50 
   2  -8   8  103.83   11.98 
   2  -8   8  100.40   11.88 
   2  -8   7   72.44   10.03 
   2  -8   7   60.85    9.72 
   2  -8   7   72.84   10.59 
   2  -8   6  255.70   20.62 
   2  -8   6  237.04   20.01 
   2  -8   6  258.81   21.26 
   2  -8   5   28.28    7.55 
   2  -8   5   19.56    6.05 
   2  -8   5   22.49    7.32 
   2  -8   4  151.73   17.43 
   2  -8   4   99.06   13.14 
   2  -8   4  128.94   15.59 
   2  -8   3   28.30    8.69 
   2  -8   3   20.86    6.44 
   2  -8   2  141.22   18.27 
   2  -8   2  137.91   16.40 
   2  -8   1   46.02   10.71 
   2  -8   1   63.19   10.80 
  -2  -8   0  112.24   11.80 
   2  -8   0   88.49   13.05 
   2  -8  -1  157.73   18.95 
   2  -8  -1  150.84   17.11 
   2  -8  -2   16.16    6.21 
   2  -8  -2   11.85    5.02 
   2  -8  -3  152.38   17.77 
  -2  -8   3  183.16   15.77 
   2  -8  -4   20.61    6.87 
  -2  -8   4   18.75    6.06 
  -2  -8   5  208.31   16.80 
  -2  -8   5  176.44   17.44 
  -2  -8   6  163.86   14.48 
  -2  -8   6  118.47   14.09 
  -2  -8   7    7.35    3.02 
  -2  -8   7    9.27    4.30 
  -2  -8   8   95.57   11.76 
  -2  -8   8  117.44   11.07 
  -2  -8   8   97.19   11.95 
  -2  -8   9   -2.33    2.50 
  -2  -8   9    3.77    1.96 
  -2  -8   9    2.16    2.55 
  -2  -8  10  144.88   11.98 
  -2  -8  10  153.22   10.74 
  -2  -8  10  168.96   13.75 
  -2  -8  11   35.42    5.70 
  -2  -8  12  106.14    8.45 
   2  -9  10   47.54    5.56 
   2  -9  10   42.84    5.40 
   2  -9   9    7.91    2.70 
   2  -9   9   11.69    3.35 
   2  -9   8   47.56    7.11 
   2  -9   8   45.07    6.90 
   2  -9   7   52.87    7.81 
   2  -9   7   62.08    8.91 
   2  -9   6   32.88    6.74 
   2  -9   6   39.73    7.10 
   2  -9   6   27.54    6.16 
   2  -9   5  148.08   15.41 
   2  -9   5  124.72   12.88 
   2  -9   5  136.93   14.71 
   2  -9   4   18.53    6.37 
   2  -9   4   12.95    4.91 
   2  -9   3  190.47   19.48 
   2  -9   3  170.25   17.42 
   2  -9   2  132.25   16.75 
   2  -9   2  129.90   15.31 
   2  -9   1   31.22    8.49 
   2  -9   1   25.28    7.22 
   2  -9   0   72.94   12.45 
  -2  -9   0  101.29   10.68 
   2  -9   0   93.52   12.91 
  -2  -9   1   89.23   10.21 
   2  -9  -1   73.09   12.34 
  -2  -9   1  100.11   11.58 
   2  -9  -1   67.04   10.77 
   2  -9  -2  297.90   24.72 
  -2  -9   2  320.00   20.73 
  -2  -9   2  363.50   22.43 
   2  -9  -3   12.73    5.91 
  -2  -9   3   15.43    4.43 
  -2  -9   3   11.22    4.27 
   2  -9  -4  203.07   18.34 
  -2  -9   4  198.80   16.14 
  -2  -9   5  114.71   11.70 
  -2  -9   6   49.53    7.25 
  -2  -9   7   11.41    4.07 
  -2  -9   7    9.94    3.59 
  -2  -9   8   62.36    8.23 
  -2  -9   8   78.89    8.09 
  -2  -9   9  100.26    9.31 
  -2  -9   9   86.61    7.67 
  -2  -9  10    8.90    2.70 
  -2  -9  10    8.73    2.80 
  -2  -9  11   39.95    4.62 
   2 -10   8   40.18    5.11 
  -2 -10  -8   54.96    5.88 
   2 -10   7    6.92    2.14 
   2 -10   7    7.53    2.76 
   2 -10   6   38.17    6.21 
   2 -10   5   -0.13    2.24 
   2 -10   5   -0.20    2.09 
   2 -10   4   85.56   10.91 
   2 -10   4   79.97   10.26 
   2 -10   3   75.30   10.70 
   2 -10   3   64.35    9.62 
   2 -10   2   58.43   10.19 
  -2 -10  -2   59.64    8.61 
   2 -10   2   52.10    8.74 
   2 -10   1    8.31    4.01 
   2 -10   1    9.91    4.33 
  -2 -10  -1   18.45    4.95 
   2 -10   0   46.32    9.09 
  -2 -10   0   55.12    8.13 
   2 -10   0   35.31    7.39 
   2 -10  -1   35.99    7.69 
  -2 -10   1   39.78    5.93 
   2 -10  -1   31.68    6.79 
  -2 -10   1   39.41    6.69 
   2 -10  -2   44.33    8.75 
  -2 -10   2   39.25    5.83 
  -2 -10   2   63.83    8.13 
   2 -10  -2   42.20    7.28 
   2 -10  -3  108.11   12.04 
  -2 -10   3   82.71    9.15 
  -2 -10   3  104.80    9.91 
  -2 -10   4  112.88   10.41 
   2 -10  -4  122.91   11.91 
  -2 -10   5   73.01    9.15 
  -2 -10   5   51.47    6.81 
  -2 -10   6    3.13    1.76 
  -2 -10   6    4.52    2.09 
  -2 -10   7   24.43    4.60 
  -2 -10   7   24.09    3.93 
  -2 -10   8   62.73    6.48 
   2 -11   5   34.07    4.72 
  -2 -11  -5   47.91    5.69 
   2 -11   4    9.72    2.75 
  -2 -11  -4   13.04    3.31 
   2 -11   3   15.13    3.95 
   2 -11   3   13.47    3.47 
  -2 -11  -3   18.81    3.89 
   2 -11   2    9.30    3.40 
   2 -11   2   11.17    3.50 
  -2 -11  -2    9.11    2.71 
   2 -11   1    9.50    3.45 
   2 -11   1    6.63    2.47 
  -2 -11  -1    8.66    2.79 
   2 -11   0   37.67    6.80 
  -2 -11   0   40.86    5.69 
   2 -11   0   35.98    5.88 
   2 -11  -1   11.19    3.53 
   2 -11  -1   15.06    3.91 
  -2 -11   1   13.48    3.29 
  -2 -11   2   36.81    5.83 
  -2 -11   2   39.71    4.94 
  -2 -11   3    2.50    1.58 
  -2 -11   4   45.58    6.03 
  -2 -11   5   17.98    3.56 
  -3  10  -5   27.53    4.24 
   3  10   5   37.51    4.55 
  -3  10  -5   28.33    4.04 
  -3  10  -4   45.05    5.94 
   3  10   4   44.89    5.51 
  -3  10  -4   33.02    4.65 
  -3  10  -3   12.50    3.58 
   3  10   3   12.02    3.04 
  -3  10  -3   11.22    2.78 
  -3  10  -2   19.74    4.21 
   3  10   2   19.30    3.89 
  -3  10  -2   15.38    3.36 
  -3  10  -1   35.29    5.71 
   3  10   1   36.99    5.02 
  -3  10  -1   31.60    4.61 
   3  10   0   24.44    3.92 
  -3  10   0   21.22    3.65 
  -3  10   1   62.43    7.53 
   3  10  -1   59.23    5.76 
  -3  10   2   11.13    3.19 
  -3  10   3   80.98    8.16 
  -3  10   4   57.48    6.52 
  -3  10   5    5.82    1.97 
  -3  10   6    8.57    2.29 
  -3   9  -8    2.16    1.25 
  -3   9  -8    2.39    1.57 
   3   9   8    1.72    1.32 
  -3   9  -7   39.91    5.61 
   3   9   7   44.86    5.11 
   3   9   7   53.63    5.62 
  -3   9  -7   35.54    5.44 
  -3   9  -6    4.22    1.99 
  -3   9  -6    3.27    2.20 
   3   9   6    5.43    2.12 
   3   9   6    6.95    2.34 
  -3   9  -5   25.02    5.23 
  -3   9  -5   30.14    5.82 
   3   9   5   41.63    6.16 
   3   9   5   43.23    5.80 
  -3   9  -4   34.93    6.34 
  -3   9  -4   31.05    6.28 
   3   9   4   45.22    6.61 
   3   9   4   37.14    5.47 
  -3   9  -3   78.48   10.03 
   3   9   3   95.80   10.22 
   3   9   3   91.49    9.05 
  -3   9  -3   73.44    9.34 
  -3   9  -2   28.61    5.97 
  -3   9  -2   18.50    4.82 
   3   9   2   28.16    4.95 
  -3   9  -1   -0.33    1.59 
  -3   9  -1   -0.12    1.70 
   3   9   1    2.96    1.94 
   3   9   1    4.69    3.30 
  -3   9   0   60.75    8.96 
   3   9   0   86.19   10.46 
   3   9   0   92.81    9.74 
   3   9   0   81.66    8.71 
  -3   9   0   74.41    9.10 
  -3   9   1    5.73    2.60 
   3   9  -1   16.78    4.70 
   3   9  -1   10.49    3.46 
   3   9  -1    8.33    3.19 
  -3   9   1    8.12    3.15 
  -3   9   2  104.22   11.60 
   3   9  -2  121.53   12.21 
   3   9  -2  111.51    9.49 
  -3   9   2   92.75    9.46 
  -3   9   3   40.32    7.11 
   3   9  -3   50.12    7.70 
  -3   9   3   47.91    6.40 
  -3   9   4  128.67   12.37 
   3   9  -4  128.55   11.90 
  -3   9   5   37.29    6.22 
   3   9  -5   38.79    5.79 
  -3   9   6   12.48    3.51 
   3   9  -6   10.24    3.03 
  -3   9   7   47.66    6.22 
   3   9  -7   44.07    4.89 
  -3   9   7   47.25    6.14 
  -3   9   8   36.90    4.91 
  -3   9   8   24.83    4.20 
  -3   8 -10    9.64    2.30 
   3   8  10   15.44    3.12 
   3   8  10   11.17    2.54 
  -3   8  -9   13.48    3.50 
   3   8   9   11.58    2.55 
   3   8   8   60.87    6.53 
   3   8   8   65.85    7.35 
  -3   8  -8   44.49    6.86 
  -3   8  -7   14.68    4.25 
   3   8   7   28.80    5.05 
   3   8   7   29.32    5.26 
   3   8   6  113.34   10.72 
  -3   8  -6   69.82    9.78 
  -3   8  -5   49.60    8.53 
   3   8   5   66.88    8.37 
  -3   8  -4   10.79    3.80 
   3   8   4   14.34    4.24 
  -3   8  -3  112.48   13.38 
   3   8   3  142.77   13.70 
   3   8   3  135.40   12.76 
  -3   8  -3  118.31   13.52 
  -3   8  -2   43.02    8.10 
  -3   8  -2   33.44    7.43 
   3   8   2   38.64    7.59 
   3   8   2   39.38    6.76 
  -3   8  -1   78.45   11.24 
   3   8   1   86.46   11.29 
  -3   8  -1   69.36   10.10 
  -3   8   0   75.36   11.06 
   3   8   0   85.50   11.51 
  -3   8   0   82.55   11.00 
  -3   8   1  172.87   16.96 
   3   8  -1  219.28   18.36 
  -3   8   1  171.07   15.77 
  -3   8   2   99.90   12.60 
   3   8  -2  102.75   12.66 
  -3   8   2   94.16   11.19 
  -3   8   3   52.70    9.13 
   3   8  -3   35.83    7.29 
  -3   8   3   46.49    7.72 
  -3   8   4  140.53   14.69 
   3   8  -4  139.14   14.02 
  -3   8   4  129.53   12.16 
  -3   8   5   85.33   11.12 
   3   8  -5   83.33   10.34 
  -3   8   5   88.19    9.27 
  -3   8   6   82.99   10.48 
   3   8  -6   90.93   10.06 
  -3   8   7   60.75    8.67 
   3   8  -7   49.99    6.81 
  -3   8   8   57.10    7.78 
   3   8  -8   57.20    6.33 
  -3   8   8   62.13    7.95 
  -3   8   9   19.04    3.89 
  -3   8   9   22.55    4.48 
  -3   8   9   14.27    3.80 
  -3   8  10  114.99    8.82 
  -3   8  10   94.22    8.06 
   3   7  12   41.17    4.44 
   3   7  11   21.46    3.71 
  -3   7 -11   14.07    2.91 
   3   7  11   21.45    3.87 
   3   7  11   23.74    3.96 
  -3   7 -10   10.06    2.78 
   3   7  10   13.56    3.57 
   3   7  10   12.46    3.35 
   3   7   9   54.31    6.12 
   3   7   9   61.95    7.70 
   3   7   8   41.51    6.88 
   3   7   7  123.67   12.12 
   3   7   6   80.86    9.96 
   3   7   6   91.37    9.21 
   3   7   5  352.55   22.30 
   3   7   4   55.15    8.46 
   3   7   4   50.87    8.12 
   3   7   3   72.36   10.23 
  -3   7  -3   69.75   11.11 
  -3   7  -2   40.84    8.53 
   3   7   2   50.82    8.79 
  -3   7  -1  110.60   13.85 
   3   7   1  139.51   14.52 
  -3   7  -1  105.12   13.37 
  -3   7   0  194.07   18.73 
  -3   7   0  220.72   19.35 
  -3   7   1   33.66    7.61 
  -3   7   1   39.42    8.28 
   3   7  -1   51.59    9.47 
  -3   7   2  302.26   23.68 
   3   7  -2  366.65   25.60 
  -3   7   2  340.03   23.68 
  -3   7   3    2.96    3.16 
   3   7  -3    2.83    3.59 
  -3   7   3    1.67    1.89 
  -3   7   4   35.93    7.83 
   3   7  -4   37.78    7.91 
  -3   7   4   31.99    6.70 
  -3   7   5   49.60    9.19 
   3   7  -5   51.96    9.03 
  -3   7   5   64.23    9.06 
  -3   7   6   36.19    7.86 
   3   7  -6   27.78    6.38 
  -3   7   6   36.29    6.61 
  -3   7   7  108.95   13.14 
   3   7  -7  109.34   11.54 
  -3   7   7  121.32   11.11 
  -3   7   8   12.89    4.72 
   3   7  -8   18.49    4.44 
  -3   7   9   42.36    7.15 
  -3   7   9   51.38    7.95 
   3   7  -9   56.16    6.60 
  -3   7   9   43.91    7.67 
  -3   7  10    8.82    3.00 
  -3   7  10   12.78    3.82 
  -3   7  11   50.52    6.32 
  -3   7  11   42.81    5.95 
  -3   7  12   40.61    4.54 
   3   6  13   76.56    6.45 
   3   6  12   43.35    5.17 
   3   6  12   47.06    5.84 
   3   6  12   47.47    6.22 
   3   6  11   34.29    5.90 
   3   6  11   36.50    5.86 
   3   6  11   40.64    6.89 
   3   6  10   53.02    7.68 
   3   6   9   35.49    6.74 
   3   6   8   61.81    9.38 
   3   6   8   64.57    9.02 
   3   6   8   71.34    8.63 
   3   6   7   53.02    8.36 
   3   6   7   56.26    7.74 
   3   6   6   85.23   10.52 
   3   6   6   69.02    8.92 
   3   6   6   68.85    8.93 
   3   6   5  125.39   12.61 
   3   6   5  123.37   12.79 
   3   6   5  135.47   12.42 
   3   6   5   92.10   10.44 
   3   6   4  149.19   14.04 
   3   6   4  149.17   12.88 
   3   6   4  146.21   12.90 
   3   6   3   51.32    8.42 
  -3   6  -2   46.99    9.09 
   3   6   2   57.63    8.95 
   3   6   1  107.07   12.62 
  -3   6  -1   92.64   12.54 
  -3   6   0   64.57   10.30 
   3   6   0   92.03   11.88 
  -3   6   0   64.33   10.45 
  -3   6   1  194.83   18.49 
  -3   6   1  194.66   18.18 
  -3   6   2  158.42   16.46 
   3   6  -2  206.90   18.71 
  -3   6   2  163.27   16.33 
  -3   6   3  336.91   25.14 
   3   6  -3  400.97   27.12 
  -3   6   3  354.99   24.68 
  -3   6   4  163.77   17.16 
   3   6  -4  185.10   18.14 
  -3   6   4  183.79   16.89 
  -3   6   5   41.62    8.37 
   3   6  -5   44.72    8.62 
  -3   6   5   35.20    6.92 
  -3   6   6  295.75   23.41 
   3   6  -6  266.29   21.16 
  -3   6   6  319.04   21.69 
  -3   6   7  100.87   13.33 
   3   6  -7   85.30   11.39 
  -3   6   7   99.59   11.35 
  -3   6   8  280.58   22.40 
   3   6  -8  254.82   18.84 
  -3   6   8  297.30   19.01 
  -3   6   9   25.60    6.74 
  -3   6   9   37.18    7.44 
   3   6  -9   19.77    4.57 
  -3   6   9   27.90    6.54 
  -3   6  10  161.02   15.11 
  -3   6  10  168.52   14.93 
  -3   6  10  182.89   15.77 
  -3   6  11   86.45    9.65 
  -3   6  11   87.16    9.93 
  -3   6  12  140.58   11.00 
  -3   6  13   99.31    7.50 
   3   5  14    9.72    2.18 
   3   5  13   11.83    3.23 
   3   5  13    7.28    2.61 
   3   5  12   85.03    9.71 
   3   5  12   75.42    8.06 
   3   5  12   78.51    8.48 
   3   5  12  101.23   10.62 
   3   5  11  105.91   11.89 
   3   5  11  108.33   10.83 
   3   5  11   99.61   10.53 
   3   5  10   30.53    6.94 
   3   5  10   52.60    8.57 
   3   5  10   39.91    6.50 
   3   5   9  103.65   13.31 
   3   5   9  121.41   12.69 
   3   5   9  112.62   12.29 
   3   5   9  118.59   11.50 
   3   5   8   27.40    6.59 
   3   5   8   25.64    5.87 
   3   5   8   37.08    6.93 
   3   5   8   25.49    5.54 
   3   5   8   32.02    6.12 
   3   5   7  270.11   21.74 
   3   5   7  287.75   21.87 
   3   5   7  318.55   21.34 
   3   5   7  294.33   19.63 
   3   5   6   46.60    8.73 
   3   5   6   44.49    7.76 
   3   5   6   49.07    7.83 
   3   5   6   40.94    7.30 
   3   5   5  240.32   20.32 
   3   5   5  209.27   19.58 
   3   5   5  266.70   18.70 
   3   5   5  265.41   17.92 
   3   5   4  653.83   30.56 
   3   5   4  638.70   34.57 
   3   5   4  637.16   38.96 
   3   5   4  626.52   30.10 
   3   5   3   83.07   11.66 
   3   5   3   57.04    9.72 
   3   5   3   76.13   13.17 
   3   5   3  104.57   11.36 
   3   5   3   83.10    9.71 
   3   5   2  100.77   15.30 
   3   5   2  120.99   12.65 
   3   5   2   90.79   12.15 
   3   5   1  385.03   24.05 
   3   5   1  357.19   24.18 
   3   5   1  298.26   27.41 
  -3   5  -1  306.88   23.28 
  -3   5   0  520.64   29.96 
  -3   5   0  540.90   30.88 
  -3   5   1   76.95   10.96 
   3   5  -1   99.87   12.39 
   3   5  -1   76.49   13.19 
  -3   5   1   77.43   11.01 
  -3   5   2  131.80   14.57 
   3   5  -2  168.31   16.77 
   3   5  -2  135.15   18.01 
  -3   5   2  148.29   15.40 
  -3   5   3  224.04   19.70 
   3   5  -3  266.46   21.69 
   3   5  -3  245.42   24.15 
  -3   5   3  243.59   19.87 
  -3   5   4  154.23   16.28 
   3   5  -4  155.09   16.82 
   3   5  -4  152.23   18.60 
  -3   5   4  139.01   14.67 
  -3   5   5   91.75   12.81 
   3   5  -5   96.31   13.16 
  -3   5   5  105.55   12.77 
  -3   5   6  220.50   20.28 
   3   5  -6  229.47   20.22 
  -3   5   6  245.07   19.51 
  -3   5   7  130.39   15.84 
   3   5  -7  135.21   14.99 
  -3   5   7  142.06   14.51 
  -3   5   8   59.49   10.62 
   3   5  -8   51.89    9.05 
  -3   5   8   72.11    9.92 
  -3   5   9   71.48   11.08 
   3   5  -9   48.61    8.18 
  -3   5   9   65.65   10.27 
  -3   5   9   70.48   10.76 
  -3   5   9   64.20    8.80 
  -3   5  10   21.93    6.02 
   3   5 -10   19.19    4.63 
  -3   5  10   17.32    5.24 
  -3   5  10   28.79    6.83 
  -3   5  10   24.89    5.09 
  -3   5  11  237.39   18.63 
  -3   5  11  224.43   17.68 
  -3   5  12   49.84    7.55 
  -3   5  12   50.04    7.63 
  -3   5  13   20.90    4.29 
  -3   5  14   40.99    5.11 
   3   4  14   10.13    2.62 
   3   4  14    8.50    2.83 
   3   4  13   94.68    9.93 
   3   4  13   83.12    8.53 
   3   4  12   29.99    5.20 
   3   4  12   33.00    6.60 
   3   4  12   34.65    5.92 
   3   4  11  119.24   13.67 
   3   4  11  107.14   11.36 
   3   4  11  104.80   10.92 
   3   4  11  113.23   11.65 
   3   4  10   49.65    9.34 
   3   4  10   51.47    8.51 
   3   4  10   49.32    7.83 
   3   4  10   41.38    6.70 
   3   4  10   54.20    7.82 
   3   4   9   12.14    5.10 
   3   4   9   13.63    4.57 
   3   4   9   14.53    4.80 
   3   4   9   13.03    4.19 
   3   4   9   13.48    4.33 
   3   4   8  258.63   22.21 
   3   4   8  239.60   20.88 
   3   4   8  274.09   19.89 
   3   4   8  286.53   19.37 
   3   4   7   24.01    6.93 
   3   4   7   20.24    6.67 
   3   4   7   22.67    6.95 
   3   4   7   24.61    5.60 
   3   4   7   21.18    5.30 
   3   4   7   23.82    5.64 
   3   4   6  193.62   18.77 
   3   4   6  164.00   17.12 
   3   4   6  204.00   17.74 
   3   4   6  180.76   17.04 
   3   4   6  217.68   16.97 
   3   4   6  192.47   16.02 
   3   4   6  249.54   17.28 
   3   4   5   19.85    5.81 
   3   4   5   13.92    7.75 
   3   4   5   14.13    4.59 
   3   4   5   10.96    3.51 
   3   4   5   12.12    5.43 
   3   4   4  623.85   33.33 
   3   4   4  600.80   32.08 
   3   4   4  593.40   35.80 
   3   4   3  124.37   13.85 
   3   4   3  122.60   13.41 
   3   4   3  112.73   15.25 
   3   4   2   80.03   11.00 
   3   4   2   94.76   14.12 
   3   4   1  458.88   32.89 
   3   4   0   30.20    8.35 
   3   4  -1  339.94   27.97 
  -3   4   2    0.70    1.99 
   3   4  -2    4.29    3.39 
  -3   4   3  469.17   28.79 
   3   4  -3  567.27   31.96 
   3   4  -3  478.10   33.46 
  -3   4   3  518.75   29.55 
  -3   4   4  211.08   18.89 
   3   4  -4  200.83   18.88 
   3   4  -4  217.30   19.85 
   3   4  -4  223.19   21.94 
  -3   4   4  220.14   18.45 
  -3   4   5  296.45   22.62 
   3   4  -5  292.18   22.86 
   3   4  -5  262.85   23.40 
  -3   4   5  292.25   21.31 
  -3   4   6  222.46   20.55 
   3   4  -6  229.03   22.57 
   3   4  -6  224.86   20.24 
  -3   4   6  242.66   20.31 
  -3   4   7    6.36    4.16 
   3   4  -7    2.92    2.43 
  -3   4   7   11.57    4.67 
  -3   4   8  397.56   28.15 
  -3   4   8  345.46   25.52 
  -3   4   8  403.71   25.38 
  -3   4   9   11.90    5.63 
   3   4  -9    9.13    3.93 
  -3   4   9   10.45    4.98 
  -3   4   9   14.24    4.75 
  -3   4   9   15.29    5.02 
  -3   4  10  188.34   18.40 
  -3   4  10  183.43   17.48 
  -3   4  10  192.73   18.33 
   3   4 -10  143.62   14.00 
  -3   4  10  189.18   15.78 
   3   4 -11   32.86    5.82 
  -3   4  11   34.52    7.16 
  -3   4  11   48.63    8.58 
  -3   4  12   99.99   11.34 
  -3   4  13  134.23   11.68 
  -3   4  14    4.40    2.11 
   3   3  15    2.26    1.27 
   3   3  14   99.20    9.57 
   3   3  14  110.71    9.87 
   3   3  13    3.46    2.04 
   3   3  13    3.73    2.71 
   3   3  12  126.37   13.64 
   3   3  12  111.38   11.26 
   3   3  12  121.72   14.43 
   3   3  12  104.73   10.85 
   3   3  11  118.87   14.33 
   3   3  11  108.87   12.61 
   3   3  11  119.24   15.16 
   3   3  11  123.28   12.44 
   3   3  11  132.61   11.78 
   3   3  11  123.76   11.63 
   3   3  10   75.56   11.83 
   3   3  10   81.64   11.68 
   3   3  10   69.52   12.20 
   3   3  10   74.07   10.06 
   3   3  10   78.39    9.69 
   3   3  10   82.08    9.73 
   3   3   9  161.14   17.48 
   3   3   9  171.74   19.66 
   3   3   9  166.14   16.11 
   3   3   9  172.39   15.41 
   3   3   9  199.91   15.80 
   3   3   9  148.71   13.77 
   3   3   8   36.67    8.62 
   3   3   8   27.16    6.84 
   3   3   8   39.48    9.54 
   3   3   8   41.21    8.12 
   3   3   8   46.28    7.76 
   3   3   8   45.96    7.71 
   3   3   8   44.78    7.44 
   3   3   7   94.49   13.45 
   3   3   7  114.59   15.73 
   3   3   7   90.74   12.01 
   3   3   7  107.91   13.16 
   3   3   7  104.19   12.70 
   3   3   7  112.01   12.02 
   3   3   7   71.45    9.69 
   3   3   7  110.65   11.34 
   3   3   6  111.06   14.30 
   3   3   6  113.16   14.82 
   3   3   6  128.46   14.20 
   3   3   6  118.03   13.29 
   3   3   6  107.89   12.17 
   3   3   6  111.97   11.63 
   3   3   5  277.47   22.92 
   3   3   5  255.27   24.39 
   3   3   5  338.66   23.65 
   3   3   5  269.23   22.62 
   3   3   5  300.34   23.57 
   3   3   4  126.02   15.32 
   3   3   3  310.23   25.02 
   3   3   2  253.03   22.58 
   3   3   1   49.31    9.81 
   3   3   0  272.96   23.72 
   3   3  -1   -7.54    4.04 
   3   3  -2  404.06   29.26 
   3   3  -3  179.68   16.48 
   3   3  -3  170.41   18.38 
   3   3  -4   75.13   10.93 
   3   3  -4   72.67   12.33 
  -3   3   5  400.11   26.84 
   3   3  -5  411.69   27.63 
   3   3  -5  412.60   28.53 
  -3   3   5  424.67   25.72 
  -3   3   6   97.55   13.38 
   3   3  -6   79.00   12.64 
   3   3  -6   99.70   13.26 
  -3   3   6  109.71   13.16 
  -3   3   7  739.03   39.75 
   3   3  -7  699.21   41.81 
   3   3  -7  625.78   36.74 
  -3   3   7  666.10   37.23 
  -3   3   7  756.28   37.13 
  -3   3   8   45.02    9.47 
   3   3  -8   44.03    8.74 
  -3   3   8   54.26    9.75 
  -3   3   8   64.07   11.07 
  -3   3   8   58.69    9.54 
  -3   3   9  331.46   25.79 
  -3   3   9  343.25   24.99 
  -3   3   9  329.69   25.58 
   3   3  -9  303.73   23.07 
  -3   3   9  356.82   23.85 
   3   3 -10   15.07    5.06 
  -3   3  10   16.83    5.47 
  -3   3  10   16.48    5.29 
  -3   3  10    9.71    4.36 
   3   3 -11   76.86    9.98 
  -3   3  11   75.23   10.78 
  -3   3  11   83.04   11.58 
  -3   3  12  269.89   19.97 
  -3   3  13  138.31   12.74 
  -3   3  14  185.95   12.87 
  -3   3  15   30.85    4.28 
  -3   3  15   25.34    3.54 
   3   2  15   19.38    3.56 
   3   2  14   12.99    3.68 
   3   2  14   10.09    3.37 
   3   2  14   12.88    4.11 
   3   2  13   74.54   10.00 
   3   2  13   63.30    8.12 
   3   2  13   84.51   11.10 
   3   2  13   57.12    7.22 
   3   2  12   51.41    9.05 
   3   2  12   37.45    7.01 
   3   2  12   36.83    8.65 
   3   2  12   35.78    6.50 
   3   2  11   75.65   11.26 
   3   2  11   85.28   13.22 
   3   2  11   77.11   10.38 
   3   2  11   91.28   10.51 
   3   2  11   93.46    9.92 
   3   2  11   88.81    9.87 
   3   2  10  167.81   18.07 
   3   2  10  166.34   19.25 
   3   2  10  213.02   18.28 
   3   2  10  226.73   17.19 
   3   2  10  219.55   16.28 
   3   2  10  209.48   16.06 
   3   2   9   24.73    7.06 
   3   2   9   20.88    6.52 
   3   2   9   31.89    7.93 
   3   2   9   27.89    6.59 
   3   2   9   27.02    6.31 
   3   2   9   26.61    6.12 
   3   2   9   19.89    4.93 
   3   2   8  195.32   20.50 
   3   2   8  197.07   20.67 
   3   2   8  175.83   16.94 
   3   2   8  232.52   19.46 
   3   2   8  235.28   17.24 
   3   2   8  148.94   14.27 
   3   2   8  275.97   18.27 
   3   2   7    2.71    2.96 
   3   2   7    0.99    2.96 
   3   2   7    3.97    2.47 
   3   2   7    4.59    3.37 
   3   2   7    1.68    2.17 
   3   2   7    6.28    3.39 
   3   2   6  512.38   32.83 
   3   2   6  550.11   33.85 
   3   2   6  639.80   32.01 
   3   2   6  571.75   31.37 
   3   2   6  538.01   28.50 
   3   2   6  533.67   27.00 
   3   2   5   28.13    5.52 
   3   2   4  262.11   21.61 
   3   2   3  665.20   37.12 
   3   2   2  489.44   31.39 
   3   2   1  591.99   35.12 
   3   2   0   76.90   11.76 
   3   2  -1  366.41   26.93 
   3   2  -2  240.61   16.84 
   3   2  -2  212.97   20.21 
   3   2  -3  507.88   28.07 
   3   2  -3  516.80   32.45 
   3   2  -4  117.00   13.49 
   3   2  -4  105.20   14.06 
   3   2  -5  280.71   22.79 
  -3   2   6  261.05   20.69 
   3   2  -6  224.07   21.30 
  -3   2   6  268.81   20.07 
  -3   2   7  363.79   25.90 
   3   2  -7  346.55   27.79 
  -3   2   7  352.72   25.88 
  -3   2   7  393.39   25.17 
  -3   2   8   92.96   13.16 
  -3   2   8  101.53   12.71 
  -3   2   8   97.56   13.13 
  -3   2   8   95.18   12.16 
  -3   2   9  148.17   16.91 
   3   2  -9  120.85   14.72 
  -3   2   9  144.67   15.60 
  -3   2   9  154.85   16.95 
  -3   2   9  150.41   15.28 
   3   2 -10  225.41   19.31 
  -3   2  10  256.82   20.89 
  -3   2  10  251.65   21.48 
  -3   2  10  286.05   21.17 
   3   2 -11    6.10    3.30 
  -3   2  11   19.78    6.39 
   3   2 -12   63.48    8.26 
  -3   2  12   85.13   11.05 
  -3   2  13   95.59   10.95 
  -3   2  14   25.82    4.79 
  -3   2  15  113.05    8.58 
  -3   2  15  109.86    8.43 
   3   1  15   28.02    4.53 
   3   1  15   22.25    4.35 
   3   1  14   19.60    4.16 
   3   1  14   15.80    4.18 
   3   1  14   12.98    3.36 
   3   1  14   24.64    5.39 
   3   1  13   44.25    7.94 
   3   1  13   35.66    6.65 
   3   1  13   32.68    7.09 
   3   1  12  264.82   21.15 
   3   1  12  306.80   24.28 
   3   1  12  290.85   19.88 
   3   1  12  326.58   18.07 
   3   1  11  103.63   14.25 
   3   1  11   91.60   11.41 
   3   1  11  112.08   10.86 
   3   1  11  104.14   10.74 
   3   1  10   73.96   12.22 
   3   1  10   79.95   10.94 
   3   1  10   72.40    9.48 
   3   1  10   74.41    9.33 
   3   1   9  126.71   16.27 
   3   1   9   93.04   11.62 
   3   1   9  150.39   15.32 
   3   1   9   97.28   11.37 
   3   1   9  128.07   12.34 
   3   1   8    6.88    3.11 
   3   1   8    7.63    3.38 
   3   1   8    5.94    3.46 
   3   1   8   13.16    3.73 
   3   1   7  147.00   15.35 
   3   1   7  148.31   17.35 
   3   1   7  183.39   15.71 
   3   1   7  150.12   15.54 
   3   1   6   61.78   10.23 
   3   1   5  776.35   38.62 
   3   1   4  218.20   18.12 
   3   1   3   91.13   11.31 
   3   1   2  263.34   18.45 
   3   1   1  127.34   11.89 
   3   1   1  126.85   14.91 
   3   1   0  796.83   32.59 
   3   1   0  767.76   40.57 
   3   1  -1  383.29   20.38 
   3   1  -1  349.29   25.75 
   3   1  -2  312.54   19.72 
   3   1  -3  196.50   16.44 
   3   1  -4  716.68   36.02 
   3   1  -5  192.98   18.24 
   3   1  -6  135.51   16.03 
  -3   1   7  768.45   39.39 
   3   1  -7  772.41   43.13 
  -3   1   7  787.72   40.21 
  -3   1   7  846.39   38.87 
  -3   1   8  488.54   30.52 
   3   1  -8  466.93   33.32 
  -3   1   8  448.01   29.58 
  -3   1   8  487.94   28.70 
  -3   1   9  179.24   16.96 
  -3   1   9  175.38   18.00 
  -3   1   9  164.23   16.35 
  -3   1  10    1.57    2.44 
  -3   1  10    3.59    2.91 
  -3   1  11  524.47   31.36 
   3   1 -12   60.55    8.72 
  -3   1  12   81.02   10.96 
  -3   1  13   83.87   10.40 
  -3   1  14  106.08   10.11 
  -3   1  14   93.11    9.82 
  -3   1  15    6.76    2.50 
   3   0  15   39.81    5.49 
   3   0  15   38.79    5.62 
   3   0  14   12.25    3.92 
   3   0  14    4.13    2.33 
   3   0  14   12.77    3.94 
   3   0  13  122.12   13.49 
   3   0  13  111.00   10.73 
   3   0  12  127.46   15.00 
   3   0  12  129.05   12.85 
   3   0  12  139.95   11.00 
   3   0  11   27.75    7.62 
   3   0  11   26.48    6.07 
   3   0  11   29.18    5.45 
   3   0  11   29.83    5.54 
   3   0  10  177.47   19.23 
   3   0  10  196.67   17.58 
   3   0  10  188.43   14.93 
   3   0  10  218.67   15.65 
   3   0   9   41.90    8.50 
   3   0   9   44.14    8.55 
   3   0   9   35.50    8.80 
   3   0   9   44.17    8.40 
   3   0   9   30.15    6.11 
   3   0   9   38.79    6.61 
   3   0   8  223.12   20.19 
   3   0   8  200.85   18.55 
   3   0   8  174.67   18.98 
   3   0   8  233.40   17.79 
   3   0   8  211.12   18.56 
   3   0   8  247.05   21.49 
   3   0   8  270.64   17.57 
   3   0   7    2.70    2.89 
   3   0   7    2.20    2.69 
   3   0   7   -2.93    4.00 
   3   0   7    3.79    1.74 
   3   0   7    3.06    1.98 
   3   0   6  238.29   20.34 
   3   0   5  211.94   18.61 
   3   0   4  417.85   26.10 
   3   0   3   31.68    6.41 
   3   0   2   37.20    6.98 
   3   0   1  604.66   29.40 
   3   0   0  128.15   10.88 
   3   0   0  118.04   11.37 
   3   0  -1  648.11   28.82 
   3   0  -1  590.69   27.44 
   3   0  -2   37.55    6.65 
   3   0  -3  174.26   15.43 
   3   0  -4  114.83   13.30 
   3   0  -5   93.66   12.59 
   3   0  -6  284.39   23.64 
   3   0  -7   76.67   12.68 
  -3   0   7   97.40   12.67 
  -3   0   7   91.66   11.31 
   3   0  -8  982.65   51.43 
  -3   0   8 1015.26   47.39 
  -3   0   8 1065.59   45.64 
  -3   0   9   25.24    7.01 
  -3   0   9   25.66    6.50 
  -3   0  10    1.44    3.19 
  -3   0  11  186.63   16.56 
  -3   0  11  183.53   17.69 
  -3   0  12  106.94   11.54 
  -3   0  12  103.74   12.56 
   3   0 -13  263.73   17.39 
  -3   0  13  299.79   18.38 
  -3   0  13  335.22   21.34 
  -3   0  14   55.02    6.46 
  -3   0  14   78.54    8.91 
  -3   0  15  184.02   11.91 
  -3   0  15  170.06   11.71 
   3  -1  15   20.71    3.88 
   3  -1  15   16.62    3.22 
   3  -1  15   23.30    4.31 
   3  -1  14   19.79    4.69 
   3  -1  14    8.79    3.27 
   3  -1  13   38.67    7.20 
   3  -1  13   33.14    5.52 
   3  -1  12  275.42   21.88 
   3  -1  12  282.05   19.06 
   3  -1  11   99.27   12.52 
   3  -1  11   89.83   13.05 
   3  -1  11   92.53   11.31 
   3  -1  10   71.17   11.05 
   3  -1  10   66.54   10.28 
   3  -1  10   53.29   10.41 
   3  -1  10   63.30    9.70 
   3  -1  10   57.86    7.95 
   3  -1   9  133.96   15.45 
   3  -1   9  117.89   14.13 
   3  -1   9  108.84   14.41 
   3  -1   9  120.51   13.71 
   3  -1   8    3.21    3.05 
   3  -1   8    2.24    2.51 
   3  -1   8    9.00    4.73 
   3  -1   8    5.65    3.92 
   3  -1   8    9.99    3.32 
   3  -1   7  169.38   17.02 
   3  -1   7  145.39   15.38 
   3  -1   7  157.43   17.01 
   3  -1   6   57.09    9.77 
   3  -1   5  640.49   34.32 
   3  -1   4  210.73   17.89 
   3  -1   3  117.00   12.77 
   3  -1   2  252.69   18.49 
   3  -1   1  149.63   12.08 
   3  -1   1  132.07   13.04 
   3  -1   0  901.13   36.36 
   3  -1  -1  363.45   21.56 
   3  -1  -2  342.95   21.69 
   3  -1  -3  179.36   15.95 
   3  -1  -4  701.69   36.12 
   3  -1  -5  196.64   18.53 
   3  -1  -6  144.35   16.54 
   3  -1  -7  747.27   42.77 
  -3  -1   7  780.20   40.15 
  -3  -1   7  844.97   36.24 
  -3  -1   7  836.64   38.34 
  -3  -1   8  521.78   25.02 
   3  -1  -8  418.07   31.60 
  -3  -1   8  461.96   30.11 
  -3  -1   8  511.97   29.09 
  -3  -1   9  167.53   17.27 
  -3  -1  10   11.89    4.80 
  -3  -1  11  482.23   29.56 
  -3  -1  12   87.92   11.01 
  -3  -1  12   87.81   11.41 
  -3  -1  13   85.59   10.00 
  -3  -1  13   91.51   10.81 
  -3  -1  14   88.76    8.84 
  -3  -1  14  106.57   10.38 
  -3  -1  14  105.12   10.30 
  -3  -1  15    5.57    2.40 
   3  -2  15   12.36    2.82 
   3  -2  15   14.74    3.03 
   3  -2  15   14.64    3.13 
   3  -2  15   14.17    2.79 
   3  -2  14   11.08    3.06 
   3  -2  14   10.78    3.23 
   3  -2  13   65.43    8.98 
   3  -2  13   66.07    7.55 
   3  -2  12   31.79    6.71 
   3  -2  12   26.52    6.66 
   3  -2  12   27.12    5.60 
   3  -2  11   86.85   11.58 
   3  -2  11   86.00   11.31 
   3  -2  11   82.03   11.74 
   3  -2  11   71.19    9.75 
   3  -2  10  165.86   16.81 
   3  -2  10  165.87   16.44 
   3  -2  10  159.18   17.03 
   3  -2  10  151.76   15.16 
   3  -2   9   23.56    6.42 
   3  -2   9   32.41    7.78 
   3  -2   9   21.69    6.07 
   3  -2   8  204.32   19.22 
   3  -2   8  177.33   17.25 
   3  -2   8  187.23   18.75 
   3  -2   7    1.62    2.59 
   3  -2   7    0.04    2.60 
   3  -2   7    0.54    1.99 
   3  -2   6  527.58   31.09 
   3  -2   6  455.60   29.48 
   3  -2   6  510.79   31.34 
   3  -2   5   22.21    4.32 
   3  -2   5   18.87    5.73 
   3  -2   4  249.10   19.85 
   3  -2   4  268.85   15.65 
   3  -2   3  554.39   30.11 
   3  -2   2  450.22   24.08 
   3  -2   1  617.38   29.55 
   3  -2   0   89.23   10.37 
   3  -2  -1  324.52   21.33 
   3  -2  -2  238.61   18.87 
   3  -2  -3  501.07   29.53 
   3  -2  -4  130.18   14.75 
   3  -2  -5  322.24   24.92 
   3  -2  -6  228.46   21.65 
  -3  -2   6  216.15   18.99 
  -3  -2   6  256.60   18.27 
  -3  -2   6  268.90   19.34 
   3  -2  -7  285.30   25.26 
  -3  -2   7  320.18   23.80 
  -3  -2   7  339.31   21.27 
  -3  -2   8  100.90   10.47 
  -3  -2   8   93.72   12.94 
  -3  -2   8   80.96   10.61 
  -3  -2   9  121.41   11.63 
  -3  -2   9  139.78   15.74 
  -3  -2  10  265.76   17.26 
  -3  -2  10  288.25   22.66 
  -3  -2  11   23.60    6.33 
  -3  -2  12  110.94   12.69 
  -3  -2  12   89.98   11.43 
  -3  -2  13   78.84    9.68 
  -3  -2  13   86.29   10.25 
  -3  -2  14   22.62    4.64 
  -3  -2  14   23.20    4.44 
  -3  -2  15  102.71    8.20 
   3  -3  15    0.92    1.03 
   3  -3  15   -1.09    1.11 
   3  -3  14   88.66    8.11 
   3  -3  14   72.25    8.21 
   3  -3  13    2.92    1.50 
   3  -3  13    2.13    1.38 
   3  -3  13    6.04    3.10 
   3  -3  12   89.12   10.89 
   3  -3  12   92.07   10.78 
   3  -3  12   96.43   11.16 
   3  -3  12   87.95    9.41 
   3  -3  11  100.57   12.27 
   3  -3  11  105.84   12.36 
   3  -3  11  103.73   12.35 
   3  -3  11  115.84   11.97 
   3  -3  10   62.99   10.18 
   3  -3  10   61.17    9.98 
   3  -3  10   56.94    8.75 
   3  -3   9  130.37   15.04 
   3  -3   9  133.76   15.06 
   3  -3   8   38.23    7.74 
   3  -3   8   45.52    8.87 
   3  -3   8   38.44    8.11 
   3  -3   7   77.06   11.45 
   3  -3   7   80.38   11.96 
   3  -3   7   65.70   10.69 
   3  -3   6   73.49   11.09 
   3  -3   6   91.84   12.68 
   3  -3   6   88.97   12.56 
   3  -3   5  235.70   15.67 
   3  -3   5  205.62   19.02 
   3  -3   5  233.74   19.67 
   3  -3   4  121.30   10.87 
   3  -3   4  107.62   13.03 
   3  -3   3  229.72   17.79 
   3  -3   2  264.58   19.29 
   3  -3   1   65.27    9.33 
   3  -3   0  362.19   23.41 
   3  -3  -1   -0.41    2.12 
   3  -3  -2  391.38   25.76 
   3  -3  -3  200.89   18.48 
   3  -3  -4   69.94   11.28 
   3  -3  -5  395.37   28.98 
  -3  -3   5  421.86   24.74 
   3  -3  -6   91.39   13.93 
  -3  -3   6   92.49   12.65 
  -3  -3   6  105.74   11.92 
  -3  -3   7  730.04   31.53 
   3  -3  -7  557.14   37.90 
  -3  -3   7  558.80   33.87 
  -3  -3   7  662.31   31.98 
  -3  -3   8   60.54    8.35 
  -3  -3   8   57.36   10.25 
  -3  -3   8   61.38    8.74 
  -3  -3   9  315.82   19.78 
  -3  -3   9  338.36   25.00 
  -3  -3  10   10.19    3.57 
  -3  -3  10    5.68    4.69 
  -3  -3  11   76.30   10.97 
  -3  -3  12  277.23   20.22 
  -3  -3  12  231.30   18.24 
  -3  -3  13  139.49   12.78 
  -3  -3  13  133.35   12.28 
  -3  -3  14  152.57   11.65 
  -3  -3  14  166.42   11.99 
  -3  -3  15   31.39    3.98 
   3  -4  14    5.10    2.21 
   3  -4  13   76.94    9.59 
   3  -4  12   33.33    6.07 
   3  -4  12   35.98    6.47 
   3  -4  12   32.00    5.01 
   3  -4  12   32.70    7.27 
   3  -4  11   98.30   11.69 
   3  -4  11   83.70   10.65 
   3  -4  11   82.77    9.47 
   3  -4  10   42.08    7.87 
   3  -4  10   43.40    8.04 
   3  -4   9    4.25    2.93 
   3  -4   9    7.77    4.13 
   3  -4   9   12.88    4.87 
   3  -4   8  207.50   19.49 
   3  -4   8  173.19   17.66 
   3  -4   8  203.10   18.95 
   3  -4   7   12.72    5.56 
   3  -4   7   13.55    4.80 
   3  -4   6  168.33   17.36 
   3  -4   6  166.11   17.36 
   3  -4   6  184.54   18.49 
   3  -4   6  191.73   15.47 
   3  -4   5    6.92    3.93 
   3  -4   5    9.53    4.33 
   3  -4   5   12.26    4.45 
   3  -4   5   11.83    4.14 
   3  -4   5   10.39    3.41 
   3  -4   4  510.39   25.77 
   3  -4   4  442.20   30.68 
   3  -4   4  475.55   30.69 
   3  -4   3   77.96   11.71 
   3  -4   3   70.14   11.20 
   3  -4   3   86.13    9.67 
   3  -4   2   65.08   10.05 
   3  -4   1  420.38   27.12 
   3  -4   0   59.62    9.94 
   3  -4  -1  410.15   27.40 
   3  -4  -2    6.33    3.73 
  -3  -4   2    6.43    3.25 
   3  -4  -3  471.71   31.07 
  -3  -4   3  524.14   28.52 
   3  -4  -4  175.01   18.57 
  -3  -4   4  195.56   16.70 
   3  -4  -5  240.03   23.11 
  -3  -4   5  252.03   20.38 
  -3  -4   6  287.63   18.92 
  -3  -4   6  283.75   20.74 
  -3  -4   7    4.99    3.09 
  -3  -4   7    3.29    3.95 
  -3  -4   8  290.69   19.35 
  -3  -4   8  298.23   23.57 
  -3  -4   9    9.12    3.31 
  -3  -4   9    7.71    4.00 
  -3  -4  10  171.63   13.68 
  -3  -4  10  162.61   16.20 
  -3  -4  11   46.38    8.12 
  -3  -4  12  109.82   11.79 
  -3  -4  12   96.69   10.88 
  -3  -4  13  156.47   12.89 
  -3  -4  13  138.67   11.77 
  -3  -4  14   11.20    2.94 
  -3  -4  14    7.95    2.32 
   3  -5  14    2.14    1.29 
   3  -5  13    2.91    1.50 
   3  -5  12   55.04    7.30 
   3  -5  12   57.81    7.30 
   3  -5  12   72.17    9.69 
   3  -5  11   76.44    9.73 
   3  -5  11   65.03    8.80 
   3  -5  11   60.10   10.03 
   3  -5  11   69.54    7.66 
   3  -5  10   15.28    4.73 
   3  -5  10   20.60    5.61 
   3  -5  10   20.21    6.32 
   3  -5   9   74.61   11.43 
   3  -5   9   73.61   10.41 
   3  -5   9   43.25    9.92 
   3  -5   9   73.98   10.64 
   3  -5   8   23.45    6.21 
   3  -5   8   19.93    6.84 
   3  -5   8   18.37    5.66 
   3  -5   7  222.95   20.18 
   3  -5   7  226.87   22.77 
   3  -5   7  217.13   20.00 
   3  -5   6   27.25    7.07 
   3  -5   6   32.30    8.39 
   3  -5   6   38.33    8.30 
   3  -5   5  230.68   22.11 
   3  -5   5  222.28   20.27 
   3  -5   4  500.23   32.86 
   3  -5   4  492.99   31.66 
   3  -5   3   65.68    8.85 
   3  -5   3   64.73   11.00 
   3  -5   3   52.77   10.15 
   3  -5   2   88.16   10.15 
   3  -5   2   87.28   13.43 
   3  -5   2   77.05   11.73 
   3  -5   2   83.12   12.48 
   3  -5   1  344.89   25.57 
   3  -5   1  241.27   23.73 
   3  -5   1  362.73   25.74 
  -3  -5  -1  423.69   24.53 
   3  -5   1  273.99   23.06 
   3  -5   0  566.07   34.35 
   3  -5   0  476.19   33.77 
   3  -5  -1   86.14   12.69 
   3  -5  -1   74.94   12.51 
  -3  -5   1   98.27   11.93 
   3  -5  -2  153.27   17.38 
  -3  -5   2  180.18   16.32 
   3  -5  -3  236.05   22.79 
  -3  -5   3  309.26   21.82 
  -3  -5   4  197.56   15.42 
  -3  -5   4  190.80   17.07 
  -3  -5   5   84.62   10.02 
  -3  -5   5   84.72   11.76 
  -3  -5   6  194.79   15.74 
  -3  -5   6  214.80   19.07 
  -3  -5   7  124.68   12.22 
  -3  -5   7  116.70   14.05 
  -3  -5   8   46.37    7.51 
  -3  -5   8   50.57    9.52 
  -3  -5   9   55.14    7.83 
  -3  -5   9   46.29    8.69 
  -3  -5  10   20.42    5.55 
  -3  -5  11  199.80   16.14 
  -3  -5  12   41.59    6.59 
  -3  -5  12   32.81    5.77 
  -3  -5  13   16.66    3.70 
  -3  -5  13   14.39    3.57 
  -3  -5  14   34.97    4.21 
  -3  -5  14   36.24    4.21 
   3  -6  13   55.52    5.68 
   3  -6  12   39.45    5.47 
   3  -6  12   36.12    5.89 
   3  -6  11   25.68    4.71 
   3  -6  11   26.12    5.06 
   3  -6  11   14.81    4.09 
   3  -6  10   36.52    6.30 
   3  -6  10   41.41    7.00 
   3  -6  10   32.50    7.14 
   3  -6  10   30.86    5.11 
   3  -6   9   26.40    5.70 
   3  -6   9   28.54    6.33 
   3  -6   9   21.61    6.40 
   3  -6   9   34.81    6.95 
   3  -6   8   45.66    8.39 
   3  -6   8   51.42    9.96 
   3  -6   8   46.67    8.61 
   3  -6   7   35.14    7.13 
   3  -6   7   38.09    8.49 
   3  -6   7   31.81    7.21 
   3  -6   6   48.71    8.93 
   3  -6   6   55.05   10.36 
   3  -6   6   60.56   10.28 
   3  -6   5  106.66   14.45 
   3  -6   5  108.73   14.06 
   3  -6   4   95.56   13.39 
   3  -6   4  109.02   14.26 
   3  -6   3   47.30   10.33 
   3  -6   3   40.05    8.53 
   3  -6   3   36.88    8.63 
   3  -6   2   34.63    8.42 
   3  -6   2   43.57    8.87 
   3  -6   2   39.65    8.50 
   3  -6   1   45.15   10.91 
   3  -6   1   61.98   10.76 
  -3  -6   0   75.08    8.96 
   3  -6   0   58.43   11.81 
  -3  -6   1  233.23   16.65 
   3  -6  -1  197.64   21.39 
  -3  -6   2  182.00   14.86 
   3  -6  -2  172.65   19.27 
  -3  -6   3  307.87   19.92 
  -3  -6   4  136.33   13.07 
  -3  -6   4  182.29   16.51 
  -3  -6   5   35.59    6.62 
  -3  -6   5   42.32    8.26 
  -3  -6   6  252.82   18.01 
  -3  -6   6  266.58   21.29 
  -3  -6   7   96.93   10.64 
  -3  -6   7   86.91   11.93 
  -3  -6   8  253.92   20.27 
  -3  -6   9   29.77    6.57 
  -3  -6  10  145.92   11.01 
  -3  -6  10  130.85   12.93 
  -3  -6  11   69.69    8.39 
  -3  -6  11   79.34    8.22 
  -3  -6  11   80.63    9.00 
  -3  -6  12  115.99    9.41 
  -3  -6  12  112.17    9.60 
  -3  -6  13   77.91    6.23 
  -3  -6  13  102.46    7.44 
   3  -7  12   37.23    4.17 
   3  -7  11   16.03    3.01 
   3  -7  11   16.75    3.58 
   3  -7  11   10.93    2.98 
   3  -7  10    4.53    1.93 
   3  -7  10    5.73    2.02 
   3  -7  10    8.20    3.21 
   3  -7   9   45.84    7.18 
   3  -7   9   39.76    6.52 
   3  -7   9   33.76    6.61 
   3  -7   9   39.72    6.70 
   3  -7   8   24.75    6.10 
   3  -7   8   31.76    6.42 
   3  -7   7   88.65   10.87 
   3  -7   7   96.71   12.27 
   3  -7   7   98.89   12.20 
   3  -7   6   54.62    9.22 
   3  -7   6   70.82   10.76 
   3  -7   6   65.98   10.27 
   3  -7   5  270.81   21.88 
   3  -7   5  264.51   21.92 
   3  -7   4   39.64    8.14 
   3  -7   4   34.01    7.87 
   3  -7   3   75.31   12.47 
   3  -7   3   66.39   10.28 
   3  -7   3   53.71   10.06 
   3  -7   2   40.68    9.69 
   3  -7   2   43.03    9.13 
   3  -7   1   57.38   11.91 
   3  -7   1   83.95   12.80 
   3  -7   0  169.54   19.70 
   3  -7   0   92.71   13.07 
  -3  -7   1   34.48    6.11 
   3  -7  -1   37.43    9.62 
  -3  -7   2  318.81   19.98 
   3  -7  -2  335.40   26.75 
  -3  -7   3    1.24    1.71 
  -3  -7   4   30.59    5.95 
  -3  -7   4   33.08    6.93 
  -3  -7   5   57.16    8.13 
  -3  -7   5   58.56    9.40 
  -3  -7   6   31.15    6.58 
  -3  -7   7   91.51   11.06 
  -3  -7   8   14.91    4.63 
  -3  -7   9   55.04    6.64 
  -3  -7   9   56.30    7.92 
  -3  -7  10   11.90    3.44 
  -3  -7  10   14.18    2.81 
  -3  -7  10   17.91    3.91 
  -3  -7  11   33.31    4.57 
  -3  -7  11   31.47    4.46 
  -3  -7  11   33.76    5.04 
   3  -8  10    8.87    2.08 
   3  -8  10    8.20    2.34 
   3  -8   9   15.05    3.34 
   3  -8   9   17.70    3.79 
   3  -8   8   37.13    6.08 
   3  -8   8   33.15    5.62 
   3  -8   8   50.26    7.24 
   3  -8   7   25.14    5.68 
   3  -8   6   86.31   10.83 
   3  -8   5   46.05    8.57 
   3  -8   4    5.34    4.15 
   3  -8   3  109.54   13.62 
   3  -8   2   36.19    9.07 
   3  -8   2   32.02    7.74 
   3  -8   1   39.11    9.17 
   3  -8   1   49.41    8.96 
   3  -8   0   55.40   11.03 
   3  -8   0   35.10    8.01 
   3  -8  -1  185.37   19.57 
  -3  -8   6  119.69   11.09 
  -3  -8   7   53.18    7.40 
  -3  -8   7   71.54    7.92 
  -3  -8   8   46.29    6.04 
  -3  -8   8   66.58    6.98 
  -3  -8   9   21.65    3.41 
  -3  -8  10  105.46    7.93 
  -3  -8  10   92.21    6.23 
   3  -9   8    1.43    1.05 
   3  -9   8   -0.40    1.08 
   3  -9   7   31.69    5.20 
   3  -9   7   40.36    5.27 
   3  -9   7   40.50    5.77 
   3  -9   6    3.58    2.27 
   3  -9   5   29.48    5.86 
   3  -9   4   31.51    5.95 
   3  -9   3   57.33    8.88 
   3  -9   2    9.38    3.98 
   3  -9   1    1.43    2.24 
   3  -9   0   52.37    7.97 
  -3  -9   1   12.05    4.14 
  -3  -9   2   88.58    9.17 
  -3  -9   3   40.31    6.18 
  -3  -9   4  119.15   10.54 
  -3  -9   5   38.76    5.69 
  -3  -9   6   15.02    3.85 
  -3  -9   6   11.03    3.05 
  -3  -9   7   35.77    4.89 
  -3  -9   7   46.21    5.40 
  -3  -9   8   32.01    3.89 
  -3 -10  -5   37.43    4.92 
   3 -10   5   27.52    4.29 
   3 -10   4   30.92    5.04 
  -3 -10  -4   50.84    5.92 
   3 -10   3   10.68    3.35 
  -3 -10  -3   15.58    3.59 
   3 -10   2   10.28    3.35 
  -3 -10  -2   15.47    3.32 
  -3 -10  -1   35.61    5.04 
   3 -10   1   21.59    4.36 
  -3 -10   2   10.95    2.34 
  -3 -10   3   63.77    5.94 
  -3 -10   4   45.39    4.97 
  -3 -10   5    8.61    2.46 
  -3 -10   5    8.50    2.31 
   4   9   4   14.46    2.51 
  -4   9  -4    7.75    1.97 
   4   9   3   26.54    3.67 
  -4   9  -3   18.81    3.30 
  -4   9  -2   52.56    5.77 
   4   9   2   76.89    6.42 
   4   9   2   69.90    5.60 
  -4   9  -2   48.41    5.58 
  -4   9  -1    7.27    2.54 
   4   9   1    7.28    1.97 
   4   9   1    7.53    2.41 
  -4   9  -1    5.62    1.85 
  -4   9   0   34.26    4.89 
   4   9   0   28.47    3.61 
   4   9   0   29.29    3.62 
  -4   9   0   28.51    4.13 
  -4   9   1   31.34    4.72 
  -4   9   1   25.45    3.63 
  -4   9   2   23.72    4.05 
   4   9  -2   22.66    3.78 
  -4   9   3   87.91    7.56 
   4   9  -3   89.02    7.29 
  -4   9   4    2.15    1.66 
   4   8   7   44.13    4.42 
   4   8   6   24.84    3.60 
   4   8   6   26.24    3.80 
  -4   8  -6   17.82    3.55 
  -4   8  -5   12.77    2.99 
   4   8   5   13.77    2.95 
  -4   8  -5   12.50    3.29 
  -4   8  -4    5.56    2.64 
   4   8   4   11.33    2.90 
  -4   8  -4    6.90    2.69 
  -4   8  -3   51.48    6.86 
   4   8   3   72.04    7.44 
  -4   8  -3   58.14    7.54 
  -4   8  -2    1.46    2.77 
   4   8   2    1.69    1.48 
  -4   8  -2   -0.04    1.41 
  -4   8  -1   19.22    4.53 
   4   8   1   19.93    4.20 
   4   8   1   21.87    4.28 
  -4   8  -1   25.71    5.15 
  -4   8   0   27.40    5.28 
   4   8   0   39.82    6.07 
   4   8   0   34.54    5.44 
  -4   8   0   29.36    5.48 
  -4   8   1   29.00    5.75 
   4   8  -1   25.06    4.92 
  -4   8   1   27.54    5.16 
  -4   8   2   98.68   10.31 
   4   8  -2  108.22   10.26 
  -4   8   2   90.19    9.11 
  -4   8   3   16.95    4.23 
   4   8  -3   17.20    4.15 
  -4   8   3   11.21    2.83 
  -4   8   3   18.74    4.05 
  -4   8   4   54.71    7.13 
   4   8  -4   55.23    6.87 
  -4   8   4   61.02    6.48 
  -4   8   5   57.77    6.98 
   4   8  -5   56.84    6.53 
  -4   8   5   43.94    5.58 
  -4   8   5   52.18    5.30 
  -4   8   6   18.37    3.75 
   4   8  -6   21.53    3.63 
  -4   8   6   18.62    3.59 
  -4   8   7   19.93    3.50 
   4   7   9   20.97    3.08 
   4   7   8   -0.22    0.98 
  -4   7  -8    1.61    1.36 
   4   7   7   50.87    6.02 
  -4   7  -7   35.36    5.24 
   4   7   6   86.71    8.24 
  -4   7  -6   57.64    7.60 
  -4   7  -5   15.49    4.09 
  -4   7  -5   20.17    4.08 
   4   7   5   27.45    5.09 
  -4   7  -4    7.80    3.55 
  -4   7  -4    4.32    1.64 
   4   7   4   12.26    3.70 
  -4   7  -3    9.65    3.62 
   4   7   3   13.51    3.64 
   4   7   3    8.82    3.09 
  -4   7  -3    8.95    3.40 
  -4   7  -2   14.38    4.28 
   4   7   2   19.60    4.35 
   4   7   2   15.85    4.17 
  -4   7  -2   14.94    4.95 
  -4   7  -1   31.38    6.58 
   4   7   1   43.24    6.81 
  -4   7  -1   38.28    7.24 
  -4   7   0  117.16   12.63 
   4   7   0  124.82   12.20 
  -4   7   0  114.50   12.50 
  -4   7   1   46.69    8.12 
   4   7  -1   46.68    7.59 
  -4   7   1   41.42    7.24 
  -4   7   2   44.16    7.64 
   4   7  -2   47.70    7.79 
  -4   7   2   40.44    7.04 
  -4   7   3   11.36    4.37 
   4   7  -3   10.08    3.60 
  -4   7   3    7.89    3.07 
  -4   7   4   74.13    9.60 
   4   7  -4   65.18    8.81 
  -4   7   4   45.05    6.17 
  -4   7   4   72.53    8.60 
  -4   7   5   70.93    9.17 
   4   7  -5   63.21    8.36 
  -4   7   5   56.41    7.77 
  -4   7   5   63.06    7.66 
  -4   7   6   39.31    6.71 
   4   7  -6   38.69    6.07 
  -4   7   6   33.72    5.76 
  -4   7   6   32.00    4.97 
  -4   7   7   84.34    9.06 
   4   7  -7   81.73    7.97 
  -4   7   7   71.57    7.87 
  -4   7   7   83.07    7.17 
   4   7  -8    5.08    1.92 
  -4   7   8    4.92    2.48 
  -4   7   9   64.35    5.93 
   4   6  10   22.27    3.31 
   4   6  10   34.65    4.46 
   4   6   9   16.81    3.39 
  -4   6  -8   19.53    4.16 
   4   6   8   25.85    4.55 
   4   6   8   18.12    3.60 
  -4   6  -7   15.28    4.15 
   4   6   7   23.46    4.49 
   4   6   7   25.16    4.25 
   4   6   6  114.80   10.63 
   4   6   6  114.24    9.67 
   4   6   5  140.49   12.00 
   4   6   5  109.44    9.84 
  -4   6  -4   14.58    4.53 
  -4   6  -4   16.59    4.97 
   4   6   4   19.36    4.41 
   4   6   4   16.54    3.89 
  -4   6  -3   38.08    7.54 
  -4   6  -3   44.76    8.10 
   4   6   3   53.67    7.16 
   4   6   3   51.46    6.82 
  -4   6  -2   26.40    6.24 
   4   6   2   21.98    4.69 
   4   6   2   30.12    5.25 
  -4   6  -2   19.31    5.34 
  -4   6  -1  130.38   13.80 
   4   6   1  158.43   14.12 
  -4   6  -1  125.30   14.17 
  -4   6   0   38.09    7.62 
   4   6   0   38.14    7.18 
  -4   6   0   28.20    6.62 
  -4   6   1  176.34   16.54 
   4   6  -1  217.80   17.67 
  -4   6   1  185.63   16.98 
  -4   6   2  169.11   16.31 
   4   6  -2  195.81   17.11 
  -4   6   2  158.81   15.43 
  -4   6   3   13.02    4.76 
   4   6  -3   15.82    4.84 
  -4   6   3   13.27    4.46 
  -4   6   4   57.73    9.23 
   4   6  -4   66.16   10.05 
  -4   6   4   52.42    7.55 
  -4   6   4   76.01    9.85 
  -4   6   5    8.98    4.14 
   4   6  -5    8.40    3.79 
  -4   6   5    8.10    4.70 
  -4   6   5    5.12    1.72 
  -4   6   5    8.92    3.34 
  -4   6   6   78.24   10.31 
   4   6  -6   67.36    9.31 
  -4   6   6   69.00    9.26 
  -4   6   6   71.26    8.79 
  -4   6   7   16.57    4.65 
   4   6  -7   23.58    5.19 
  -4   6   7   15.27    4.59 
  -4   6   7   21.12    4.56 
  -4   6   8   46.16    7.01 
   4   6  -8   40.62    6.04 
  -4   6   8   50.00    7.76 
  -4   6   8   49.78    6.24 
   4   6  -9   21.44    3.97 
  -4   6   9   26.99    4.96 
  -4   6  10    3.97    1.83 
   4   5  11    5.31    1.75 
   4   5  10   19.04    3.50 
   4   5   9   72.11    7.71 
   4   5   9   80.79    7.61 
  -4   5  -8    5.14    1.93 
   4   5   8    6.82    2.82 
   4   5   8    7.45    2.63 
  -4   5  -7   26.05    5.63 
   4   5   7   38.65    6.22 
   4   5   7   39.51    5.98 
   4   5   7   31.26    5.43 
  -4   5  -6    4.25    3.30 
   4   5   6    9.40    3.56 
   4   5   6    9.67    3.11 
   4   5   6    6.49    2.53 
  -4   5  -5   14.94    4.40 
   4   5   5   29.53    5.71 
   4   5   5   28.51    5.66 
   4   5   5   31.84    5.70 
  -4   5  -4   38.85    7.84 
   4   5   4   32.83    7.39 
   4   5   4   48.62    7.49 
   4   5   4   48.37    7.08 
   4   5   4   56.38    7.77 
  -4   5  -3   22.45    6.24 
   4   5   3   19.68    5.72 
   4   5   3   36.00    6.18 
  -4   5  -2  185.24   16.67 
   4   5   2  209.89   15.85 
   4   5   2  145.09   15.69 
  -4   5  -2  167.29   16.83 
  -4   5  -1   28.97    6.27 
   4   5   1   31.87    6.52 
   4   5   1   23.92    6.26 
  -4   5  -1   24.74    6.60 
  -4   5   0    2.88    2.56 
   4   5   0    8.80    4.42 
   4   5   0    6.06    3.52 
  -4   5   0    5.49    3.22 
  -4   5   1   11.79    4.74 
   4   5  -1   15.90    5.29 
  -4   5   1   10.87    4.60 
  -4   5   2   49.25    8.73 
   4   5  -2   53.22    9.32 
  -4   5   2   48.51    8.79 
  -4   5   3  237.90   20.04 
   4   5  -3  257.58   20.99 
  -4   5   3  252.24   20.17 
  -4   5   4   99.43   12.59 
   4   5  -4  116.77   13.97 
  -4   5   4   85.26   10.58 
  -4   5   4  116.13   13.03 
  -4   5   5  100.36   12.65 
   4   5  -5   91.02   12.41 
  -4   5   5  101.24   12.54 
  -4   5   5   91.46   10.34 
  -4   5   5  118.11   12.95 
  -4   5   6   11.22    3.97 
   4   5  -6    8.53    3.76 
  -4   5   6    7.85    4.05 
  -4   5   6   12.23    4.27 
  -4   5   7   34.78    7.28 
   4   5  -7   34.66    6.99 
  -4   5   7   43.84    8.11 
  -4   5   7   41.13    7.04 
  -4   5   8   64.59    9.42 
   4   5  -8   59.26    8.50 
  -4   5   8   61.76    9.21 
  -4   5   8   67.11    8.49 
   4   5  -9   47.24    6.54 
  -4   5   9   54.78    7.80 
  -4   5   9   59.01    7.31 
   4   5 -10   78.11    7.50 
  -4   5  10  128.16   10.74 
  -4   5  11  114.97    8.92 
   4   4  12   17.96    3.39 
   4   4  11    4.39    1.81 
   4   4  11    5.17    1.99 
   4   4  10   72.85    8.00 
   4   4  10   75.92    8.44 
   4   4  10   78.97    7.64 
   4   4  10   78.69    7.55 
   4   4   9   14.14    4.29 
   4   4   9   13.90    3.63 
   4   4   9   13.72    3.41 
   4   4   9   11.42    3.19 
   4   4   8  102.83   12.04 
   4   4   8  102.15   10.13 
   4   4   8  106.94   10.32 
   4   4   8   87.31    9.35 
   4   4   7   56.37    9.66 
   4   4   7   55.14    7.80 
   4   4   7   47.67    7.21 
   4   4   7   49.13    7.19 
  -4   4  -6   17.87    4.98 
   4   4   6   28.55    6.94 
   4   4   6   27.83    6.94 
   4   4   6   37.44    6.33 
   4   4   6   36.88    6.57 
   4   4   6   44.61    7.01 
  -4   4  -5   48.72    8.66 
   4   4   5   94.87   12.74 
   4   4   5   71.32   10.79 
   4   4   5   77.22    9.49 
   4   4   5   84.12   10.29 
  -4   4  -4   34.99    7.62 
   4   4   4   54.73    9.73 
   4   4   4   63.35   10.48 
   4   4   4   29.53    6.04 
  -4   4  -3   25.69    6.41 
   4   4   3   31.50    7.66 
   4   4   3   24.76    6.74 
   4   4   3   16.46    4.64 
  -4   4  -2    7.15    4.08 
   4   4   2   12.52    3.99 
   4   4   2   12.11    4.49 
   4   4   1  267.57   19.41 
   4   4   1  278.27   21.80 
  -4   4  -1  236.59   20.43 
  -4   4   0  297.58   22.14 
   4   4   0  336.11   22.63 
   4   4   0  293.43   22.41 
  -4   4   0  283.08   22.52 
  -4   4   1  129.42   14.36 
   4   4  -1  155.87   15.80 
   4   4  -1  121.56   13.81 
  -4   4   1  128.85   14.67 
  -4   4   2   22.55    6.01 
   4   4  -2   27.57    6.36 
  -4   4   2   19.88    5.59 
  -4   4   3   36.84    7.83 
   4   4  -3   54.48    9.87 
  -4   4   3   46.62    8.47 
  -4   4   4   38.10    7.79 
   4   4  -4   56.01   10.06 
  -4   4   4   47.48    8.59 
  -4   4   4   36.34    7.20 
  -4   4   4   49.85    8.83 
  -4   4   5   83.51   11.78 
   4   4  -5   81.33   12.04 
  -4   4   5   72.46   10.84 
  -4   4   5   67.80    9.35 
  -4   4   5   85.27   11.31 
  -4   4   6  215.95   19.09 
   4   4  -6  203.93   18.90 
  -4   4   6  210.06   18.76 
  -4   4   6  206.87   15.87 
  -4   4   6  237.53   18.96 
  -4   4   7   -1.99    2.06 
   4   4  -7    5.02    3.37 
  -4   4   7    1.21    2.96 
  -4   4   7    1.13    2.60 
  -4   4   8  129.38   14.60 
   4   4  -8  114.15   12.89 
  -4   4   8  129.95   13.87 
  -4   4   8  145.00   14.00 
   4   4  -9    3.66    2.02 
  -4   4   9    5.51    3.06 
  -4   4   9    7.03    3.21 
   4   4 -10   43.79    6.53 
  -4   4  10   61.89    8.22 
   4   4 -11   37.38    4.87 
  -4   4  11   58.65    7.03 
  -4   4  12    6.34    2.06 
   4   3  12    5.05    1.70 
   4   3  12    6.36    1.84 
   4   3  11   42.49    6.29 
   4   3  11   41.91    6.03 
   4   3  10   25.89    5.61 
   4   3  10   31.39    6.13 
   4   3  10   22.76    4.31 
   4   3  10   29.29    4.97 
   4   3  10   32.15    5.15 
   4   3   9   27.15    6.15 
   4   3   9   30.77    6.74 
   4   3   9   29.88    5.32 
   4   3   9   26.93    4.96 
   4   3   9   32.11    5.59 
   4   3   8   20.71    5.43 
   4   3   8   15.42    4.92 
   4   3   8   11.43    4.05 
   4   3   8   16.70    4.28 
   4   3   8   14.70    3.99 
   4   3   8   11.81    3.51 
   4   3   7   56.73   10.04 
   4   3   7   32.22    7.34 
   4   3   7   54.21    8.52 
   4   3   7   64.39    8.22 
   4   3   7   52.73    7.97 
   4   3   7   66.08    8.57 
   4   3   6  211.54   19.85 
   4   3   6  192.48   17.48 
   4   3   6  192.19   16.55 
   4   3   6  201.02   15.19 
   4   3   5  115.94   14.98 
   4   3   5  114.07   13.67 
   4   3   5   94.26   11.55 
   4   3   5  107.83   11.31 
  -4   3  -4   54.88    9.26 
   4   3   4   79.93   12.38 
   4   3   4   75.38   11.14 
   4   3   3  238.99   20.92 
   4   3   3  261.82   20.92 
   4   3   2  212.30   19.56 
   4   3   2  259.26   20.96 
  -4   3  -2  195.54   18.16 
   4   3   1  285.07   19.96 
   4   3   1  272.55   22.17 
   4   3   1  278.34   21.94 
  -4   3  -1  236.67   20.35 
   4   3   0  120.85   13.25 
  -4   3   0  116.18   14.04 
   4   3  -1   40.55    7.50 
  -4   3   1   33.99    7.59 
  -4   3   2  225.85   18.99 
   4   3  -2  261.74   21.46 
  -4   3   2  219.86   19.23 
  -4   3   3   53.95    9.24 
   4   3  -3   44.33    8.93 
  -4   3   3   41.45    7.96 
  -4   3   3   57.91    9.51 
  -4   3   4   41.75    8.11 
   4   3  -4   44.92    9.46 
  -4   3   4   41.07    7.75 
  -4   3   4   46.71    8.69 
  -4   3   5  254.88   21.20 
   4   3  -5  267.45   22.75 
  -4   3   5  234.95   20.39 
  -4   3   5  236.00   18.80 
  -4   3   5  283.63   21.58 
  -4   3   6   49.11    9.45 
   4   3  -6   49.18    9.50 
  -4   3   6   44.55    8.46 
  -4   3   6   55.13    8.34 
  -4   3   6   61.30    9.65 
  -4   3   7  115.29   14.19 
   4   3  -7  108.51   13.71 
  -4   3   7  117.60   13.99 
  -4   3   7  124.10   13.71 
  -4   3   8   58.37    9.79 
   4   3  -8   68.79   10.45 
  -4   3   8   72.62   10.38 
  -4   3   8   71.59    9.96 
   4   3  -9   85.77   10.96 
  -4   3   9   87.50   11.20 
  -4   3   9   97.29   11.15 
   4   3 -10   50.51    7.60 
  -4   3  10   44.56    7.20 
   4   3 -11    1.16    2.27 
  -4   3  11    5.23    2.25 
   4   3 -12   53.59    5.30 
  -4   3  12   95.20    8.45 
  -4   3  13   25.39    3.68 
   4   2  13   13.91    2.74 
   4   2  12   45.02    6.08 
   4   2  12   34.76    5.15 
   4   2  11   36.77    6.34 
   4   2  11   35.77    6.18 
   4   2  11   42.61    5.40 
   4   2  11   35.79    5.06 
   4   2  10   67.00    9.48 
   4   2  10   65.42    9.48 
   4   2  10   66.48    7.64 
   4   2  10   70.25    7.80 
   4   2   9   18.58    5.76 
   4   2   9   19.92    5.01 
   4   2   9   21.61    4.83 
   4   2   9   12.20    3.54 
   4   2   8   98.22   13.45 
   4   2   8   75.31   10.30 
   4   2   8   92.24   11.41 
   4   2   8   81.35    9.72 
   4   2   8  105.20   10.53 
   4   2   7   -0.07    2.20 
   4   2   7    1.96    2.54 
   4   2   7    1.62    1.85 
   4   2   7    1.78    2.10 
   4   2   7   -2.47    2.12 
   4   2   7    3.03    2.47 
   4   2   6  126.95   15.81 
   4   2   6  156.26   15.59 
   4   2   6  149.76   15.43 
   4   2   6  150.81   12.79 
   4   2   5   10.52    5.21 
   4   2   5    5.15    3.17 
   4   2   5    4.31    3.50 
   4   2   5    2.65    2.08 
   4   2   4  150.01   16.80 
   4   2   4  189.83   17.38 
   4   2   4  149.51   15.02 
   4   2   3  329.00   25.05 
   4   2   2   55.76    9.62 
  -4   2  -2   53.57    9.03 
   4   2   1   81.99   11.62 
  -4   2  -1   80.08   11.23 
   4   2   0   24.31    6.46 
   4   2   0   22.41    6.72 
  -4   2   0   18.61    5.38 
   4   2  -1   34.16    7.50 
  -4   2   1   22.10    5.57 
   4   2  -2   85.54   12.35 
  -4   2   2   80.53   11.56 
  -4   2   2   92.07   11.95 
   4   2  -3   30.68    7.43 
  -4   2   3   24.57    6.20 
  -4   2   3   25.50    6.63 
  -4   2   4  200.99   18.33 
   4   2  -4  227.07   21.27 
  -4   2   4  196.95   17.95 
  -4   2   4  220.53   19.00 
  -4   2   5   64.37   10.10 
   4   2  -5   67.25   11.47 
  -4   2   5   65.64   10.67 
  -4   2   5   53.82    8.89 
  -4   2   5   59.58    9.68 
  -4   2   6  168.59   16.99 
   4   2  -6  148.19   17.21 
  -4   2   6  163.61   16.49 
  -4   2   6  161.16   14.87 
  -4   2   6  162.81   16.25 
  -4   2   7   71.50   10.72 
   4   2  -7   81.85   12.53 
  -4   2   7   81.43   11.76 
  -4   2   7   77.13    9.53 
  -4   2   7   81.20   11.26 
   4   2  -8   61.07   10.39 
  -4   2   8   60.67    9.78 
  -4   2   8   58.95    9.17 
   4   2  -9   47.05    8.73 
  -4   2   9   60.18    9.43 
  -4   2   9   78.31   10.32 
   4   2 -10  100.65   11.38 
  -4   2  10  120.36   12.51 
   4   2 -11   72.89    8.58 
  -4   2  11   82.48    9.62 
   4   2 -12   23.42    4.01 
  -4   2  12   39.36    5.93 
  -4   2  13   87.62    7.35 
   4   1  13   33.26    4.63 
   4   1  13   24.02    3.70 
   4   1  12    2.42    1.58 
   4   1  12    2.57    1.84 
   4   1  11   21.41    5.20 
   4   1  11   18.99    4.48 
   4   1  11   25.28    4.19 
   4   1  11   17.98    3.55 
   4   1  10   16.35    5.37 
   4   1  10   14.82    4.30 
   4   1  10   21.08    4.39 
   4   1  10   19.81    4.19 
   4   1   9   68.07   10.96 
   4   1   9   54.94    8.17 
   4   1   9   76.36   10.00 
   4   1   9   61.82    8.07 
   4   1   9   54.00    7.27 
   4   1   8    2.28    2.61 
   4   1   8    6.20    3.27 
   4   1   8    3.06    2.19 
   4   1   8    2.36    1.81 
   4   1   8    6.93    3.16 
   4   1   7  106.73   14.65 
   4   1   7  138.89   13.82 
   4   1   7  105.05   12.98 
   4   1   6   62.42   11.31 
   4   1   6   78.97   10.66 
   4   1   6   66.52   10.33 
   4   1   5   37.58    8.65 
   4   1   5   43.58    8.10 
   4   1   5   39.67    7.78 
  -4   1  -5   24.19    5.75 
   4   1   4   89.97   12.75 
   4   1   4  104.67   12.87 
  -4   1  -4   77.27   10.88 
   4   1   3   44.12    8.82 
   4   1   3   45.45    8.44 
  -4   1  -3   32.56    7.14 
   4   1   2  332.02   23.77 
  -4   1  -2  255.73   21.54 
   4   1   1   70.51   10.39 
  -4   1  -1   50.67    9.31 
   4   1   0  168.06   15.81 
  -4   1   0  129.05   14.95 
  -4   1   0  148.38   14.71 
   4   1  -1   34.94    7.37 
   4   1  -1   26.05    6.45 
  -4   1   1   34.93    7.68 
  -4   1   1   36.56    7.25 
   4   1  -2  137.09   15.19 
  -4   1   2  130.84   14.74 
  -4   1   2  129.78   13.93 
   4   1  -3  121.44   14.93 
  -4   1   3  115.85   13.74 
  -4   1   3  119.72   13.48 
   4   1  -4   72.93   11.82 
  -4   1   4   72.61   10.74 
  -4   1   4   63.88    9.95 
  -4   1   5  197.57   17.29 
  -4   1   5  184.07   17.16 
  -4   1   6  159.89   16.13 
  -4   1   6  142.50   14.21 
  -4   1   6  160.13   16.07 
   4   1  -7  172.82   18.32 
  -4   1   7  189.64   18.03 
  -4   1   7  183.44   15.60 
  -4   1   7  187.62   17.35 
   4   1  -8   41.67    8.76 
  -4   1   8   53.68    9.11 
  -4   1   8   50.41    8.92 
   4   1  -9   91.76   12.32 
  -4   1   9  111.52   13.06 
  -4   1   9  116.49   12.89 
   4   1 -10   63.27    9.42 
  -4   1  10   82.97   10.63 
   4   1 -11   26.67    5.46 
  -4   1  11   27.87    5.68 
   4   1 -12   23.94    4.45 
  -4   1  12   22.91    4.54 
  -4   1  13    1.07    1.62 
   4   0  13   47.35    5.72 
   4   0  13   41.95    5.22 
   4   0  12   58.42    7.58 
   4   0  12   49.28    6.09 
   4   0  11   20.92    5.16 
   4   0  11   28.68    5.44 
   4   0  11   27.28    4.33 
   4   0  10   83.03   11.50 
   4   0  10   76.51   10.19 
   4   0  10   73.93    9.51 
   4   0  10   84.59    8.48 
   4   0  10   83.56    8.10 
   4   0   9    0.96    2.50 
   4   0   9    0.12    1.76 
   4   0   9   -0.14    3.20 
   4   0   9   -0.80    1.89 
   4   0   9    0.80    1.55 
   4   0   9    0.65    1.18 
   4   0   8    1.65    2.28 
   4   0   8    1.36    1.73 
   4   0   8    0.86    2.73 
   4   0   8    3.08    2.52 
   4   0   8    4.54    2.55 
   4   0   7   13.26    4.74 
   4   0   7   17.01    6.20 
   4   0   7   12.23    4.65 
   4   0   7    4.04    3.40 
   4   0   7   18.80    5.36 
   4   0   6  128.20   14.17 
   4   0   6  117.42   15.60 
   4   0   6  129.81   15.67 
   4   0   6  143.57   14.32 
   4   0   6  119.89   14.10 
   4   0   5  275.16   23.42 
   4   0   5  292.10   23.60 
   4   0   5  240.71   20.48 
   4   0   4  372.61   26.76 
   4   0   4  390.70   27.48 
  -4   0  -4  331.42   23.63 
   4   0   3   19.75    5.95 
  -4   0  -3   13.13    4.75 
   4   0   2    4.46    3.03 
  -4   0  -2    4.14    2.98 
   4   0   1  147.79   14.71 
  -4   0  -1  142.34   15.54 
   4   0   0  204.00   17.32 
  -4   0   0  192.90   18.20 
   4   0  -1   81.86   11.37 
  -4   0   1   79.65   11.57 
  -4   0   1   98.30   11.59 
  -4   0   2   47.92    8.75 
  -4   0   2   39.52    7.72 
  -4   0   3  154.13   15.86 
  -4   0   3  154.48   15.20 
  -4   0   4   73.64   10.87 
  -4   0   4   70.89   10.31 
  -4   0   5    3.02    2.71 
  -4   0   5    9.63    4.53 
  -4   0   6  322.03   23.76 
  -4   0   6  353.70   23.02 
  -4   0   6  342.17   23.93 
  -4   0   7   77.59   11.45 
  -4   0   7   76.79   10.08 
  -4   0   7   79.24   11.20 
  -4   0   8    5.91    2.80 
  -4   0   8    7.08    3.26 
  -4   0   8    5.17    3.18 
  -4   0   9    0.93    2.33 
   4   0 -10   32.56    6.63 
  -4   0  10   36.25    7.06 
   4   0 -11   84.95   10.22 
  -4   0  11  124.00   11.88 
   4   0 -12   21.44    4.46 
  -4   0  12   33.20    5.52 
   4   0 -13   50.08    5.35 
  -4   0  13   97.96    8.18 
   4  -1  13   32.40    4.80 
   4  -1  13   23.79    4.03 
   4  -1  12    2.52    1.59 
   4  -1  12    4.72    2.12 
   4  -1  12    3.14    1.67 
   4  -1  11   22.93    5.62 
   4  -1  11    9.81    3.28 
   4  -1  11   20.57    4.41 
   4  -1  11   19.05    3.34 
   4  -1  10   16.78    5.08 
   4  -1  10   16.70    5.10 
   4  -1  10   16.11    4.48 
   4  -1  10   15.50    3.58 
   4  -1   9   49.04    9.59 
   4  -1   9   55.84    8.69 
   4  -1   9   45.01    8.71 
   4  -1   9   36.31    6.30 
   4  -1   9   61.80    7.02 
   4  -1   8    1.41    2.60 
   4  -1   8   -1.09    2.42 
   4  -1   8    5.87    3.38 
   4  -1   8    3.54    3.32 
   4  -1   8    2.82    2.25 
   4  -1   8    2.99    1.97 
   4  -1   7  104.11   12.61 
   4  -1   7   81.30   12.88 
   4  -1   7  107.32   14.72 
   4  -1   7  117.97   12.25 
   4  -1   7  101.37   12.44 
   4  -1   6   77.75   10.97 
   4  -1   6   62.45   10.98 
   4  -1   6   67.95   11.60 
   4  -1   5   38.31    7.50 
   4  -1   5   37.75    8.80 
   4  -1   5   38.28    9.26 
   4  -1   4   71.34   11.15 
   4  -1   4   69.20   11.65 
   4  -1   3   37.45    7.80 
   4  -1   3   39.15    9.06 
  -4  -1  -3   47.40    8.55 
   4  -1   3   41.50    9.35 
   4  -1   2  307.77   22.25 
  -4  -1  -2  324.90   23.67 
  -4  -1  -1   66.84   10.52 
  -4  -1   0  140.48   15.41 
  -4  -1   1   41.93    8.27 
  -4  -1   2  155.24   16.05 
  -4  -1   3  108.60   13.16 
  -4  -1   3  102.11   12.26 
  -4  -1   4   77.98   10.96 
  -4  -1   4   68.03   10.20 
  -4  -1   5  207.91   18.01 
  -4  -1   5  177.16   16.78 
  -4  -1   6  147.40   15.45 
  -4  -1   6  167.89   15.84 
  -4  -1   6  165.49   15.83 
  -4  -1   7  161.92   16.31 
  -4  -1   7  172.49   15.43 
  -4  -1   8   54.56    7.37 
  -4  -1   8   38.94    7.98 
  -4  -1   8   41.91    6.99 
  -4  -1   9   78.50    8.30 
  -4  -1   9   77.51   10.42 
  -4  -1   9   88.37    9.41 
  -4  -1  10   92.24   11.20 
  -4  -1  11   28.86    5.22 
  -4  -1  11   32.14    5.96 
   4  -1 -12   20.44    4.55 
  -4  -1  12   22.87    3.91 
  -4  -1  12   25.51    4.85 
   4  -1 -13    1.18    1.16 
  -4  -1  13    2.47    1.30 
   4  -2  13    7.69    2.23 
   4  -2  12   25.66    4.80 
   4  -2  12   29.81    4.88 
   4  -2  12   27.79    4.24 
   4  -2  11   32.65    6.28 
   4  -2  11   27.37    5.53 
   4  -2  11   30.34    5.21 
   4  -2  10   49.35    8.64 
   4  -2  10   47.79    8.43 
   4  -2  10   53.03    7.58 
   4  -2   9   10.97    3.96 
   4  -2   9   11.29    4.84 
   4  -2   9   10.91    3.89 
   4  -2   9    5.48    2.60 
   4  -2   8   94.86   12.31 
   4  -2   8   89.47   11.48 
   4  -2   8   60.21   10.94 
   4  -2   8   86.84   11.13 
   4  -2   7   -0.42    2.69 
   4  -2   7   -6.24    3.37 
   4  -2   7    1.32    2.50 
   4  -2   6   98.81   12.49 
   4  -2   6  103.34   12.70 
   4  -2   6  112.63   14.40 
   4  -2   6  115.82   15.59 
   4  -2   5    4.62    3.37 
   4  -2   5    1.94    2.96 
   4  -2   5    0.43    2.18 
   4  -2   4  104.77   12.73 
   4  -2   4  106.87   13.40 
   4  -2   4  133.95   16.31 
   4  -2   3  332.51   26.20 
  -4  -2  -3  368.73   23.80 
  -4  -2  -2   47.38    8.65 
   4  -2   2   53.42   10.68 
  -4  -2  -1   94.55   12.30 
  -4  -2   0   23.27    6.25 
  -4  -2   1   21.74    5.99 
  -4  -2   2  108.01   13.22 
  -4  -2   3   24.45    6.15 
  -4  -2   4  251.96   20.12 
  -4  -2   4  238.22   18.85 
  -4  -2   5   70.05   10.15 
  -4  -2   6  172.56   15.78 
  -4  -2   7   70.46   10.39 
  -4  -2   7   71.96    9.78 
  -4  -2   8   83.03    9.42 
  -4  -2   8   85.44   11.30 
  -4  -2   8   90.72   10.65 
  -4  -2   9   50.00    6.76 
  -4  -2   9   50.69    8.80 
  -4  -2  10  130.37   10.05 
  -4  -2  10  126.75   12.67 
  -4  -2  11   91.48    9.78 
  -4  -2  11   91.63    9.93 
  -4  -2  12   27.90    4.75 
  -4  -2  12   32.93    5.13 
   4  -2 -13   39.45    4.67 
  -4  -2  13   76.92    6.67 
   4  -3  13   16.62    2.75 
   4  -3  12    1.97    1.51 
   4  -3  12    2.36    1.39 
   4  -3  11   39.81    6.44 
   4  -3  11   41.00    6.78 
   4  -3  11   28.55    4.77 
   4  -3  10   22.94    5.14 
   4  -3  10   24.52    5.59 
   4  -3  10   18.07    4.87 
   4  -3  10   22.80    4.69 
   4  -3   9   24.73    5.89 
   4  -3   9   27.22    5.85 
   4  -3   9   16.03    5.29 
   4  -3   9   23.55    5.20 
   4  -3   8   15.58    4.80 
   4  -3   8   15.27    5.06 
   4  -3   8    5.37    3.64 
   4  -3   7   62.19    9.65 
   4  -3   7   49.62    8.68 
   4  -3   7   55.30   10.64 
   4  -3   6  152.80   15.54 
   4  -3   6  130.30   14.50 
   4  -3   6  167.33   18.88 
   4  -3   5   69.76   10.85 
   4  -3   5   81.52   13.09 
   4  -3   4   84.78   13.25 
   4  -3   3  230.42   22.00 
  -4  -3  -2  221.24   18.38 
  -4  -3  -1  246.16   19.80 
  -4  -3   0   98.83   12.57 
  -4  -3   1   28.09    6.69 
  -4  -3   2  255.13   20.76 
  -4  -3   3   51.70    8.89 
  -4  -3   4   54.85    9.14 
  -4  -3   5  271.31   20.54 
  -4  -3   6   54.98    8.81 
  -4  -3   7  113.64   11.43 
  -4  -3   7  100.16   11.24 
  -4  -3   8   62.12    8.05 
  -4  -3   8   73.85   10.19 
  -4  -3   9   77.59    8.52 
  -4  -3   9   75.05    9.85 
  -4  -3  10   55.83    6.57 
  -4  -3  10   48.13    7.57 
  -4  -3  11    1.29    2.00 
  -4  -3  11    1.93    1.64 
  -4  -3  12   89.97    8.08 
  -4  -3  12   84.61    7.89 
  -4  -3  13   24.55    3.27 
   4  -4  12    9.85    2.41 
   4  -4  12   11.32    2.66 
   4  -4  11   -0.80    1.38 
   4  -4  11    1.20    1.49 
   4  -4  11    1.43    1.04 
   4  -4  10   57.54    7.54 
   4  -4  10   50.23    6.96 
   4  -4  10   42.32    6.59 
   4  -4  10   51.84    8.19 
   4  -4  10   43.68    6.08 
   4  -4   9   10.57    3.84 
   4  -4   9    5.43    2.70 
   4  -4   9    8.86    3.64 
   4  -4   9    6.63    2.95 
   4  -4   8   74.48   10.06 
   4  -4   8   73.25    9.76 
   4  -4   8   49.51    9.38 
   4  -4   7   40.14    7.52 
   4  -4   7   40.27    7.84 
   4  -4   7   44.88    9.28 
   4  -4   6   21.64    5.50 
   4  -4   6   38.06    7.79 
   4  -4   6   18.49    5.57 
   4  -4   6   26.42    7.54 
   4  -4   5   64.92    9.81 
   4  -4   5   86.49   13.52 
   4  -4   4   43.30    9.56 
   4  -4   3   18.14    6.31 
  -4  -4  -2   13.61    4.55 
  -4  -4  -1  260.76   20.21 
  -4  -4   0  312.04   22.61 
  -4  -4   1  152.09   15.74 
  -4  -4   2   28.40    6.89 
  -4  -4   3   40.53    8.00 
  -4  -4   4   68.13   10.09 
  -4  -4   5   91.40   10.40 
  -4  -4   5  100.06   12.23 
  -4  -4   6  254.22   17.71 
  -4  -4   6  283.02   20.02 
  -4  -4   7   -1.65    1.84 
  -4  -4   7   -0.20    2.30 
  -4  -4   8  136.62   11.82 
  -4  -4   8  118.73   12.16 
  -4  -4   9    3.44    1.84 
  -4  -4   9    1.99    1.96 
  -4  -4  10   58.86    7.56 
  -4  -4  11   56.12    6.97 
  -4  -4  11   54.23    6.48 
  -4  -4  12    2.90    1.42 
  -4  -4  12    5.44    2.08 
   4  -5  11    6.83    2.41 
   4  -5  11    3.21    1.34 
   4  -5  10   20.01    4.13 
   4  -5  10   15.10    3.48 
   4  -5  10    9.91    2.82 
   4  -5  10   14.41    4.02 
   4  -5  10    8.86    2.32 
   4  -5   9   66.16    7.98 
   4  -5   9   67.75    8.03 
   4  -5   9   36.48    5.69 
   4  -5   9   54.16    8.59 
   4  -5   9   36.69    5.48 
   4  -5   8    2.42    1.81 
   4  -5   8    4.96    2.88 
   4  -5   8   -1.14    2.75 
   4  -5   7   26.11    5.89 
   4  -5   7   32.45    6.57 
   4  -5   7   31.12    7.20 
   4  -5   6    9.51    3.85 
   4  -5   6   13.33    5.01 
   4  -5   5   21.42    5.82 
   4  -5   5   19.28    6.25 
   4  -5   4   38.31    8.73 
   4  -5   4   27.05    7.23 
   4  -5   3   16.15    5.56 
   4  -5   2   86.20   11.97 
  -4  -5  -1   37.07    7.22 
  -4  -5   0   11.49    4.44 
  -4  -5   1   16.20    5.39 
  -4  -5   2   46.04    8.46 
  -4  -5   3  260.64   18.04 
  -4  -5   3  275.43   20.77 
  -4  -5   4  118.36   11.73 
  -4  -5   5   87.64    9.90 
  -4  -5   6    6.86    2.96 
  -4  -5   7   51.17    7.07 
  -4  -5   7   51.93    7.55 
  -4  -5   8   50.74    6.77 
  -4  -5   8   50.45    7.03 
  -4  -5   9   39.14    5.98 
  -4  -5  10  101.04    8.80 
  -4  -5  11   99.71    8.25 
  -4  -5  11   98.91    7.54 
   4  -6  10   11.10    2.55 
   4  -6   9   12.57    3.30 
   4  -6   9   11.36    2.91 
   4  -6   9    6.45    2.46 
   4  -6   9    3.38    1.33 
   4  -6   8   21.45    4.38 
   4  -6   8   16.56    4.08 
   4  -6   8   15.51    4.35 
   4  -6   7   13.30    3.74 
   4  -6   7   16.53    4.05 
   4  -6   7   18.71    5.39 
   4  -6   6  134.40   12.41 
   4  -6   6   86.32   11.47 
   4  -6   5   96.05   10.67 
   4  -6   5  111.55   12.55 
   4  -6   4   14.28    4.84 
   4  -6   3   28.16    6.64 
   4  -6   2    3.55    3.38 
  -4  -6   0   29.27    5.24 
  -4  -6   1  161.86   13.23 
  -4  -6   2  164.93   13.53 
  -4  -6   3   11.43    3.53 
  -4  -6   4   58.59    7.74 
  -4  -6   5   10.62    3.38 
  -4  -6   6   68.34    7.97 
  -4  -6   7   14.43    3.37 
  -4  -6   9   43.13    4.97 
  -4  -6   9   20.95    3.58 
  -4  -6  10    4.76    1.94 
   4  -7   9   14.91    2.72 
   4  -7   8   -2.03    1.54 
   4  -7   8    1.61    1.53 
   4  -7   8    0.19    0.92 
   4  -7   7   42.53    5.84 
   4  -7   7   36.62    5.59 
   4  -7   6   51.26    6.55 
   4  -7   6   55.09    7.27 
   4  -7   4    0.50    1.95 
   4  -7   3    4.82    2.31 
  -4  -7   1   46.08    6.14 
  -4  -7   2   45.46    6.36 
  -4  -7   3    8.58    2.80 
  -4  -7   4   58.85    7.02 
  -4  -7   8    3.79    1.57 
   4  -8   7   23.89    3.46 
   4  -8   6   10.78    2.78 
  -4  -8   1   28.37    4.72 
  -4  -8   2   73.59    7.33 
  -4  -8   3   25.76    4.59 
  -4  -8   4   61.47    6.65 
  -4  -8   5   67.99    6.60 
  -4  -8   6   26.05    3.83 
  -4  -8   7   19.14    2.86 
   5   7   2    1.31    1.23 
  -5   7  -2   -0.22    0.91 
  -5   7  -1    8.85    2.27 
  -5   7  -1   10.56    2.41 
   5   7   0   34.79    4.06 
  -5   7   0   27.37    3.78 
   5   7  -1   33.04    3.91 
  -5   7   1   18.77    3.10 
   5   7  -2    4.44    1.58 
  -5   7   2    3.91    1.67 
   5   6   5   24.17    3.16 
   5   6   4   10.76    2.30 
  -5   6  -4    8.88    2.48 
  -5   6  -4    8.28    2.28 
   5   6   3    9.21    2.34 
  -5   6  -3    3.07    1.89 
  -5   6  -3    4.76    1.64 
  -5   6  -2    2.13    1.33 
   5   6   2    4.52    1.85 
  -5   6  -2    2.49    1.71 
  -5   6  -1    7.20    2.54 
   5   6   1   11.72    2.87 
  -5   6  -1   11.99    3.04 
   5   6   0    4.21    1.75 
  -5   6   0    3.31    1.90 
   5   6   0    5.27    2.00 
  -5   6   0    3.40    1.89 
   5   6  -1   13.12    2.80 
  -5   6   1   12.63    3.13 
  -5   6   1   18.78    3.92 
   5   6  -2   12.06    2.89 
  -5   6   2    9.37    2.54 
  -5   6   2   11.13    3.11 
   5   6  -3   14.81    3.13 
  -5   6   3   15.14    2.88 
  -5   6   3   15.05    3.19 
   5   6  -4   35.51    4.73 
  -5   6   4   34.07    4.75 
   5   6  -5    5.05    1.69 
  -5   6   5    2.34    1.21 
   5   5   7   25.30    3.03 
   5   5   6    2.15    1.39 
   5   5   6   -0.39    0.93 
   5   5   5    1.07    1.06 
  -5   5  -5    2.39    1.53 
   5   5   5    3.22    1.26 
   5   5   4   22.39    3.65 
  -5   5  -4   15.97    3.74 
   5   5   4   14.83    3.06 
  -5   5  -4   13.73    3.23 
  -5   5  -3   29.91    5.39 
   5   5   3   38.08    5.10 
  -5   5  -3   25.28    4.72 
   5   5   2   58.72    6.58 
   5   5   2   65.80    6.74 
  -5   5  -2   47.95    6.82 
  -5   5  -1    7.27    3.09 
   5   5   1    9.58    2.89 
  -5   5  -1    6.74    3.00 
   5   5   0   25.36    4.17 
  -5   5   0   20.78    4.82 
  -5   5   0   29.38    5.57 
   5   5  -1   88.51    8.48 
  -5   5   1   71.04    8.68 
  -5   5   1   98.73    9.97 
   5   5  -2   30.18    5.05 
  -5   5   2   19.82    4.40 
  -5   5   2   33.61    5.80 
   5   5  -3   43.35    6.26 
  -5   5   3   33.24    5.30 
  -5   5   3   38.52    6.05 
   5   5  -4   39.94    5.88 
  -5   5   4   29.29    4.51 
  -5   5   4   38.02    5.76 
   5   5  -5   12.62    3.43 
  -5   5   5    8.89    2.21 
  -5   5   5    9.14    2.62 
   5   5  -6   -0.89    1.08 
  -5   5   6   -0.46    1.25 
   5   5  -7   26.19    4.05 
  -5   5   7   26.99    3.83 
   5   4   8   10.98    2.20 
   5   4   7   39.82    4.42 
   5   4   7   39.77    4.62 
   5   4   6    3.55    1.50 
  -5   4  -6    1.36    1.07 
   5   4   6    2.45    1.24 
   5   4   6    1.04    0.99 
   5   4   5   47.03    5.33 
   5   4   5   55.30    5.98 
   5   4   5   42.54    5.46 
   5   4   4    9.72    3.29 
  -5   4  -4    9.48    3.14 
   5   4   4   12.88    2.86 
   5   4   4    9.13    2.54 
   5   4   4   11.10    3.00 
   5   4   3   67.58    9.11 
   5   4   3   97.88    8.83 
  -5   4  -3   67.81    8.78 
   5   4   3   94.36    8.51 
  -5   4  -3   58.63    7.57 
   5   4   2   10.80    3.79 
  -5   4  -2    5.89    3.07 
  -5   4  -2   12.22    3.58 
   5   4   1    1.08    1.85 
  -5   4  -1    2.36    2.08 
  -5   4  -1    4.03    2.51 
   5   4   0   14.45    3.46 
   5   4   0    5.90    3.12 
  -5   4   0    5.40    2.45 
  -5   4   0    7.28    3.16 
   5   4  -1   21.46    4.46 
   5   4  -1    3.68    2.34 
  -5   4   1   11.78    4.05 
  -5   4   1   26.69    5.71 
   5   4  -2   45.83    6.89 
  -5   4   2   30.63    6.10 
  -5   4   2   49.19    7.58 
   5   4  -3    4.18    2.07 
  -5   4   3    3.53    2.20 
  -5   4   3    3.03    2.35 
   5   4  -4  123.28   11.62 
  -5   4   4  115.69   10.47 
  -5   4   4  133.25   11.92 
   5   4  -5   31.20    5.66 
  -5   4   5   19.66    3.94 
  -5   4   5   33.35    5.73 
   5   4  -6    2.18    2.02 
  -5   4   6    1.17    0.90 
  -5   4   6    0.09    1.46 
   5   4  -7    0.57    1.15 
  -5   4   7    2.41    1.53 
   5   4  -8    0.29    0.96 
   5   3   9   10.92    2.09 
   5   3   8   12.39    2.47 
   5   3   8   10.61    2.24 
   5   3   7    1.53    1.56 
   5   3   7    1.43    1.16 
   5   3   6   44.06    6.61 
   5   3   6   50.96    6.30 
   5   3   6   43.62    5.54 
   5   3   5   30.72    6.03 
  -5   3  -5   39.48    5.75 
   5   3   5   45.09    6.14 
   5   3   4   23.37    5.35 
  -5   3  -4   14.95    3.84 
   5   3   4   27.95    4.38 
   5   3   4   16.38    4.09 
   5   3   3    1.78    2.22 
  -5   3  -3    2.29    2.37 
   5   3   3    2.83    2.05 
   5   3   3   -1.17    2.32 
   5   3   2    7.46    3.53 
  -5   3  -2    7.32    3.13 
  -5   3  -2    7.21    3.52 
   5   3   1   77.23   10.24 
  -5   3  -1   62.12    9.35 
  -5   3  -1   75.53    9.41 
   5   3   0   67.09    9.42 
  -5   3   0   55.49    8.98 
  -5   3   0   72.55    9.39 
   5   3  -1    5.29    2.47 
   5   3  -1    6.64    3.32 
  -5   3   1    7.76    3.83 
  -5   3   1   12.57    3.93 
   5   3  -2   58.64    8.22 
   5   3  -2   36.09    6.80 
  -5   3   2   53.33    8.37 
  -5   3   2   59.85    8.82 
   5   3  -3   19.91    4.98 
  -5   3   3   15.28    4.47 
  -5   3   3   16.32    4.60 
   5   3  -4    8.22    3.63 
  -5   3   4    9.12    3.28 
  -5   3   4   10.98    3.86 
   5   3  -5   31.13    6.15 
  -5   3   5   33.48    5.56 
  -5   3   5   31.12    5.61 
   5   3  -6   37.51    6.52 
  -5   3   6   42.83    5.60 
  -5   3   6   45.50    6.72 
   5   3  -7   45.97    6.73 
  -5   3   7   46.88    6.55 
   5   3  -8   26.15    4.63 
   5   3  -9   15.84    3.18 
   5   2   9   12.65    3.16 
   5   2   9   12.07    2.37 
   5   2   9   13.65    2.47 
   5   2   8   52.68    7.07 
   5   2   8   55.99    5.80 
   5   2   8   45.95    5.10 
   5   2   7   -0.55    1.31 
   5   2   7   -1.14    1.66 
   5   2   7    3.19    1.68 
   5   2   7    1.64    1.26 
   5   2   6    2.22    1.86 
   5   2   6    1.45    1.84 
   5   2   6    0.97    1.22 
   5   2   6    2.86    1.43 
   5   2   5   13.18    4.21 
   5   2   5   10.16    3.49 
  -5   2  -5   10.97    3.30 
   5   2   5    6.13    2.70 
   5   2   4    3.39    2.83 
   5   2   4   -1.38    1.93 
  -5   2  -4    1.17    1.78 
   5   2   3  212.95   16.94 
  -5   2  -3  156.48   14.67 
   5   2   2   33.86    6.88 
  -5   2  -2   22.59    5.70 
   5   2   1    5.56    3.33 
  -5   2  -1    8.66    4.15 
  -5   2  -1    4.80    2.61 
   5   2   0   13.63    4.59 
  -5   2   0   22.15    5.93 
  -5   2   0   22.78    5.57 
   5   2  -1   10.14    3.13 
   5   2  -1    9.36    3.62 
  -5   2   1   14.39    4.46 
  -5   2   1   15.59    4.47 
   5   2  -2   64.13    8.95 
  -5   2   2   60.17    9.21 
  -5   2   2   68.85    9.35 
   5   2  -3    5.48    2.49 
  -5   2   3   12.13    4.57 
  -5   2   3    5.70    2.91 
   5   2  -4  122.87   13.06 
  -5   2   4  116.56   12.01 
  -5   2   4  131.47   12.84 
   5   2  -5    5.50    3.00 
  -5   2   5    6.84    2.61 
  -5   2   5    5.21    2.32 
   5   2  -6   38.10    7.07 
  -5   2   6   45.95    6.28 
  -5   2   6   58.13    7.94 
   5   2  -7   14.56    4.19 
  -5   2   7   13.77    3.00 
  -5   2   7   13.98    3.86 
   5   2  -8   47.84    6.91 
   5   2  -9   21.80    4.14 
   5   2 -10    6.99    2.12 
   5   1  10   15.86    3.02 
   5   1   9   13.47    3.37 
   5   1   9   11.51    2.30 
   5   1   9   15.95    2.54 
   5   1   8    6.61    2.64 
   5   1   8    4.85    1.82 
   5   1   8    4.68    1.69 
   5   1   7    2.11    1.83 
   5   1   7    4.38    2.11 
   5   1   7    7.01    2.29 
   5   1   7    3.79    2.22 
   5   1   7    5.99    2.08 
   5   1   6   15.63    4.39 
   5   1   6   13.98    3.84 
   5   1   6    9.80    3.45 
   5   1   6    9.42    2.78 
   5   1   6   22.02    4.28 
   5   1   5   20.54    5.30 
   5   1   5   14.27    4.16 
   5   1   5   11.12    3.60 
  -5   1  -5   14.79    3.90 
   5   1   4  253.01   19.35 
   5   1   4  255.42   18.28 
  -5   1  -4  202.44   15.65 
   5   1   3   26.48    6.13 
   5   1   3   15.04    4.77 
  -5   1  -3   20.55    5.02 
  -5   1  -2   25.48    6.13 
  -5   1  -1    6.61    3.39 
  -5   1   0    3.58    2.92 
  -5   1   1   32.28    6.93 
  -5   1   1   35.75    6.62 
   5   1  -2   25.30    5.57 
  -5   1   2   28.75    6.50 
  -5   1   2   24.00    5.55 
   5   1  -3  146.03   14.25 
  -5   1   3  170.63   15.55 
  -5   1   3  161.44   14.47 
   5   1  -4    8.98    3.68 
  -5   1   4    6.02    3.17 
  -5   1   4    8.35    3.38 
   5   1  -5   36.77    6.97 
  -5   1   5   47.01    7.24 
  -5   1   5   41.16    7.05 
   5   1  -6    3.57    2.48 
  -5   1   6    6.58    2.83 
  -5   1   6    6.94    2.96 
   5   1  -7   11.26    3.86 
  -5   1   7    4.71    2.36 
   5   1  -8   16.45    4.29 
   5   1  -9   10.20    3.25 
   5   1 -10   10.35    2.62 
   5   0  10    7.52    2.22 
   5   0   9    1.54    1.45 
   5   0   9    0.91    0.93 
   5   0   9   -0.12    0.74 
   5   0   9   -0.74    0.88 
   5   0   8   -0.36    1.04 
   5   0   8   -0.19    1.03 
   5   0   8    2.58    1.57 
   5   0   8   -0.52    0.99 
   5   0   8    0.67    1.04 
   5   0   7   19.70    4.86 
   5   0   7   27.47    4.81 
   5   0   7   30.62    5.35 
   5   0   7   16.84    3.78 
   5   0   7   34.59    4.71 
   5   0   6    4.29    2.41 
   5   0   6   10.02    3.17 
   5   0   6    9.54    2.93 
   5   0   6   11.73    3.04 
   5   0   5   10.14    3.59 
   5   0   5    8.66    3.49 
   5   0   5    6.80    2.74 
   5   0   4   10.50    3.90 
   5   0   4   14.38    4.40 
   5   0   4    7.79    2.99 
  -5   0  -4    2.08    1.44 
   5   0   3   11.71    4.32 
  -5   0  -3   14.01    4.25 
   5   0   2   41.20    7.19 
  -5   0  -2   31.48    6.60 
  -5   0  -1   15.31    4.96 
  -5   0   0   71.92   10.37 
  -5   0   1   81.85   11.14 
   5   0  -2    4.27    3.73 
  -5   0   2    1.99    2.43 
   5   0  -3    2.31    1.64 
  -5   0   3    0.23    1.63 
  -5   0   3    3.70    2.53 
   5   0  -4   11.20    4.04 
  -5   0   4   15.90    4.88 
  -5   0   4   12.87    3.99 
   5   0  -5   27.52    6.45 
  -5   0   5   28.38    5.70 
  -5   0   5   38.43    6.71 
   5   0  -6   62.59    9.34 
  -5   0   6   84.97    9.24 
  -5   0   7   21.26    3.53 
   5   0  -7   21.18    5.34 
  -5   0   7   19.55    4.13 
   5   0  -8   45.12    7.10 
  -5   0   8   46.74    5.36 
   5   0  -9   32.67    5.51 
   5   0 -10    8.16    2.46 
   5  -1  10   12.39    2.62 
   5  -1   9   10.64    2.76 
   5  -1   9    8.24    2.30 
   5  -1   9    7.71    1.86 
   5  -1   8    2.79    1.53 
   5  -1   8    4.35    1.80 
   5  -1   7    1.81    1.14 
   5  -1   7    2.33    1.19 
   5  -1   7    7.33    2.71 
   5  -1   7    2.96    1.61 
   5  -1   7    3.60    1.74 
   5  -1   6   12.50    3.87 
   5  -1   6   15.51    4.04 
   5  -1   6   14.78    4.07 
   5  -1   6   21.58    3.93 
   5  -1   5   14.01    4.07 
   5  -1   5   12.51    3.74 
   5  -1   5   15.85    4.30 
   5  -1   4  219.50   16.28 
   5  -1   4  149.27   13.95 
   5  -1   3   19.64    4.59 
   5  -1   3   13.82    4.73 
  -5  -1  -3   19.53    4.97 
  -5  -1  -2   32.91    6.78 
  -5  -1  -1   15.86    4.60 
  -5  -1   0    4.03    3.12 
  -5  -1   1   36.00    7.36 
  -5  -1   2   29.18    6.61 
   5  -1  -3  105.96   11.93 
  -5  -1   3  166.20   15.21 
   5  -1  -4    4.30    2.80 
  -5  -1   4   10.46    3.53 
   5  -1  -5   38.83    7.50 
  -5  -1   5   43.13    7.08 
   5  -1  -6    8.00    3.86 
  -5  -1   6   10.89    3.36 
  -5  -1   7   11.18    2.62 
   5  -1  -7    5.13    3.01 
  -5  -1   7   10.72    3.13 
  -5  -1   8   12.74    2.66 
   5  -1  -8   14.78    4.20 
   5  -1  -9   10.44    3.23 
   5  -1 -10   11.18    2.79 
   5  -2  10    3.05    1.38 
   5  -2   9    9.68    2.47 
   5  -2   9    8.07    2.35 
   5  -2   8   26.57    4.40 
   5  -2   8   29.49    4.65 
   5  -2   8   20.43    3.27 
   5  -2   7    1.84    1.53 
   5  -2   7    2.09    1.84 
   5  -2   6    3.19    1.88 
   5  -2   6    1.45    1.32 
   5  -2   6    2.22    1.82 
   5  -2   5   17.03    4.04 
   5  -2   5    9.75    3.19 
   5  -2   5    7.33    2.98 
   5  -2   4    2.94    2.06 
  -5  -2  -3  203.94   15.00 
  -5  -2  -2   25.49    5.66 
  -5  -2  -1    5.25    2.60 
  -5  -2   0   12.99    4.20 
  -5  -2   1   11.67    4.19 
  -5  -2   2   70.60    9.85 
   5  -2  -3    4.70    2.63 
  -5  -2   3    1.72    2.20 
   5  -2  -4   92.79   10.91 
  -5  -2   4  147.02   13.60 
   5  -2  -5    5.27    2.92 
  -5  -2   5    7.76    3.35 
  -5  -2   6   51.04    6.47 
  -5  -2   6   40.43    6.60 
  -5  -2   7    6.84    2.42 
   5  -2  -7    6.10    2.84 
  -5  -2   7    9.99    2.93 
  -5  -2   8   51.06    5.29 
   5  -2  -8   39.36    6.27 
   5  -2  -9   17.43    3.76 
   5  -2 -10    2.36    1.31 
   5  -3   9    4.32    1.36 
   5  -3   8    2.61    1.21 
   5  -3   7    1.00    1.08 
   5  -3   7   -0.15    0.98 
   5  -3   6   17.37    4.11 
   5  -3   5   34.19    5.24 
   5  -3   5   23.75    4.96 
  -5  -3  -2    4.96    2.26 
  -5  -3  -1   86.82   10.18 
  -5  -3   0   76.80    9.76 
  -5  -3   1    6.36    2.87 
  -5  -3   2   57.22    8.53 
  -5  -3   3   24.00    5.55 
   5  -3  -4    3.77    2.55 
  -5  -3   4    6.86    3.14 
  -5  -3   5   37.83    5.81 
  -5  -3   5   39.62    6.68 
  -5  -3   6   51.33    6.34 
  -5  -3   7   57.14    6.00 
   5  -3  -7   35.84    6.16 
  -5  -3   8   36.37    4.28 
   5  -3  -8   20.24    4.42 
   5  -3  -9   14.95    3.15 
   5  -4   8    1.40    0.88 
   5  -4   7   11.67    2.79 
   5  -4   6    2.32    1.49 
   5  -4   6    2.11    1.16 
  -5  -4  -1    3.85    1.96 
  -5  -4   0   14.39    4.00 
  -5  -4   1   25.19    5.33 
  -5  -4   2   50.94    7.73 
  -5  -4   3    8.39    3.08 
  -5  -4   4  131.93   10.74 
  -5  -4   5   24.21    4.43 
  -5  -4   6    2.63    1.48 
  -5  -4   7    3.60    1.45 
   5  -4  -7    1.70    1.61 
   5  -4  -8    1.49    1.60 
   5  -5   7    2.27    1.11 
   5  -5   6   -1.42    1.19 
  -5  -5  -1   13.72    3.31 
  -5  -5   0   26.80    4.41 
  -5  -5   1   94.18    8.62 
  -5  -5   2   35.69    5.28 
  -5  -5   3   35.89    5.20 
  -5  -5   4   36.95    5.14 
  -5  -5   5    8.78    2.34 
  -5  -5   6   -0.14    0.94 
   5  -5  -6    3.08    1.77 
   5  -6   5   -1.13    0.96 
  -5  -6   1   14.95    2.78 
  -5  -6   2    9.89    2.58 
  -5  -6   3   21.02    3.48 
  -5  -6   4   33.34    4.01 
   6   2   2    2.94    1.33 
  -6   2  -1    9.04    1.96 
   6   2   1   11.75    2.42 
  -6   2   0    0.63    1.23 
  -6   2   1    2.89    1.44 
  -6   2   2   27.79    3.56 
   6   1   3    1.85    1.27 
   6   1   3    1.30    1.06 
   6   1   2   -1.63    1.28 
   6   1   2    0.80    0.82 
   6   1   1    1.19    1.31 
  -6   1  -1    2.94    1.21 
   6   1   0   -0.90    1.09 
  -6   1   0    1.10    1.09 
   6   1  -1    1.33    1.48 
  -6   1   1    5.78    2.04 
  -6   1   2    2.88    1.43 
  -6   1   3    4.20    1.69 
   6   0   3    0.27    0.83 
   6   0   3   -1.30    1.16 
   6   0   2    1.69    1.59 
   6   0   2   -1.24    0.89 
   6   0   2   -1.34    1.06 
   6   0   1   -1.27    0.99 
  -6   0  -1    3.39    1.39 
   6   0   0    3.05    1.74 
  -6   0   0    8.30    2.29 
   6   0  -1    3.27    1.57 
  -6   0   1    5.47    1.83 
   6   0  -2    5.49    2.09 
  -6   0   2   20.11    3.43 
  -6   0   3   35.81    4.23 
   6  -1   3   -0.39    0.77 
   6  -1   2   -0.71    1.14 
   6  -1   1    2.44    1.41 
   6  -1   0    1.24    1.03 
  -6  -1   0    0.01    0.80 
   6  -1  -1    0.69    1.28 
  -6  -1   1    6.23    1.94 
   6  -1  -2    0.50    1.05 
  -6  -1   2    1.05    0.75 
  -6  -1   3    3.01    1.26 
  -6  -1   3    1.75    1.17 
   6  -2   1    2.78    1.23 
  -6  -2   0    4.04    1.48 
   6  -2   0    0.85    1.07 
  -6  -2   1    2.55    1.27 
   6  -2  -1    1.36    1.12 
  -6  -2   2   28.10    3.34 
   0   0   0    0.00    0.00 
;
_shelx_hkl_checksum              75581
loop_
_space_group_symop_operation_xyz
'x, y, z'
'-x, y+1/2, -z'
loop_
_atom_site_label
_atom_site_type_symbol
_atom_site_fract_x
_atom_site_fract_y
_atom_site_fract_z
_atom_site_U_iso_or_equiv
_atom_site_adp_type
_atom_site_occupancy
_atom_site_site_symmetry_order
_atom_site_calc_flag
_atom_site_refinement_flags_posn
_atom_site_refinement_flags_adp
Br1 Br 0.07549(17) 0.25505(8) 1.21689(4) 0.0538(2) Uani 1 1 d . .
O1 O -0.1001(8) 0.4532(5) 0.6241(3) 0.0450(12) Uani 1 1 d . .
N1 N 0.3354(9) 0.3863(5) 0.6518(3) 0.0282(9) Uani 1 1 d . .
H1A H 0.532(13) 0.392(7) 0.636(4) 0.034 Uiso 1 1 d . U
C1 C 0.1772(14) 0.3074(6) 1.0947(4) 0.0374(14) Uani 1 1 d . .
C2 C 0.3801(13) 0.2344(8) 1.0510(4) 0.0404(16) Uani 1 1 d . .
H2 H 0.4676 0.1627 1.0811 0.048 Uiso 1 1 calc R U
C3 C 0.4529(11) 0.2692(9) 0.9612(4) 0.0355(13) Uani 1 1 d . .
H3 H 0.5917 0.2210 0.9316 0.043 Uiso 1 1 calc R U
C4 C 0.3210(11) 0.3747(6) 0.9153(4) 0.0303(12) Uani 1 1 d . .
C5 C 0.1167(13) 0.4455(6) 0.9616(4) 0.0362(13) Uani 1 1 d . .
H5 H 0.0271 0.5168 0.9317 0.043 Uiso 1 1 calc R U
C6 C 0.0421(14) 0.4124(7) 1.0518(4) 0.0398(14) Uani 1 1 d . .
H6 H -0.0958 0.4604 1.0821 0.048 Uiso 1 1 calc R U
C7 C 0.3994(13) 0.4151(6) 0.8180(4) 0.0321(12) Uani 1 1 d . .
H7A H 0.5982 0.4125 0.8129 0.039 Uiso 1 1 calc R U
H7B H 0.3413 0.5083 0.8075 0.039 Uiso 1 1 calc R U
C8 C 0.2743(12) 0.3242(6) 0.7415(4) 0.0278(12) Uani 1 1 d . .
H8 H 0.0742 0.3232 0.7493 0.033 Uiso 1 1 calc R U
C9 C 0.3729(15) 0.1833(7) 0.7458(5) 0.0372(15) Uani 1 1 d . .
C10 C 0.4594(19) 0.0721(8) 0.7490(5) 0.057(2) Uani 1 1 d . .
H10 H 0.5280 -0.0162 0.7515 0.068 Uiso 1 1 calc R U
C11 C 0.1441(11) 0.4543(6) 0.6037(3) 0.0277(11) Uani 1 1 d . .
C12 C 0.2535(11) 0.5383(6) 0.5235(4) 0.0302(12) Uani 1 1 d . .
H12 H 0.4196 0.4938 0.5000 0.036 Uiso 1 1 calc R U
C13 C 0.0471(17) 0.5497(11) 0.4448(5) 0.068(3) Uani 1 1 d . .
H13A H -0.1201 0.5897 0.4673 0.101 Uiso 1 1 calc R U
H13B H 0.0089 0.4607 0.4205 0.101 Uiso 1 1 calc R U
H13C H 0.1220 0.6061 0.3968 0.101 Uiso 1 1 calc R U
C14 C 0.333(2) 0.6785(8) 0.5603(5) 0.062(2) Uani 1 1 d . .
H14A H 0.1734 0.7227 0.5850 0.094 Uiso 1 1 calc R U
H14B H 0.4070 0.7325 0.5110 0.094 Uiso 1 1 calc R U
H14C H 0.4693 0.6686 0.6081 0.094 Uiso 1 1 calc R U
loop_
_atom_site_aniso_label
_atom_site_aniso_U_11
_atom_site_aniso_U_22
_atom_site_aniso_U_33
_atom_site_aniso_U_23
_atom_site_aniso_U_13
_atom_site_aniso_U_12
Br1 0.0828(5) 0.0519(4) 0.0266(3) 0.0015(3) 0.0071(3) -0.0231(5)
O1 0.0208(19) 0.070(3) 0.044(3) 0.025(2) 0.0074(17) 0.002(2)
N1 0.021(2) 0.037(3) 0.027(2) 0.0057(19) 0.0050(17) 0.0028(19)
C1 0.048(4) 0.039(3) 0.025(3) -0.001(2) 0.000(2) -0.022(3)
C2 0.049(3) 0.040(4) 0.032(2) 0.007(3) -0.006(2) -0.003(3)
C3 0.039(3) 0.034(3) 0.033(2) 0.002(3) 0.001(2) 0.008(3)
C4 0.033(3) 0.029(3) 0.028(3) 0.001(2) 0.000(2) -0.007(2)
C5 0.040(3) 0.033(3) 0.035(3) 0.001(2) 0.001(2) 0.003(3)
C6 0.044(3) 0.041(3) 0.035(3) -0.003(3) 0.007(3) -0.004(3)
C7 0.038(3) 0.031(3) 0.028(3) 0.000(2) 0.003(2) -0.008(2)
C8 0.027(3) 0.033(3) 0.024(3) 0.003(2) 0.003(2) -0.002(2)
C9 0.047(4) 0.034(3) 0.031(3) 0.000(2) 0.002(3) 0.000(3)
C10 0.088(6) 0.037(4) 0.046(4) 0.003(3) 0.006(4) 0.017(4)
C11 0.024(3) 0.035(3) 0.024(2) 0.001(2) 0.0046(19) -0.001(2)
C12 0.027(3) 0.036(3) 0.028(3) 0.006(2) 0.006(2) 0.000(2)
C13 0.056(5) 0.108(8) 0.039(4) 0.032(4) -0.009(3) -0.020(5)
C14 0.097(7) 0.041(4) 0.049(4) 0.008(3) 0.016(4) -0.017(4)
loop_
_atom_type_symbol
_atom_type_description
_atom_type_scat_dispersion_real
_atom_type_scat_dispersion_imag
_atom_type_scat_source
C C 0.0181 0.0091 'International Tables Vol C Tables 4.2.6.8 and 6.1.1.4'
H H 0.0000 0.0000 'International Tables Vol C Tables 4.2.6.8 and 6.1.1.4'
N N 0.0311 0.0180 'International Tables Vol C Tables 4.2.6.8 and 6.1.1.4'
O O 0.0492 0.0322 'International Tables Vol C Tables 4.2.6.8 and 6.1.1.4'
Br Br -0.6763 1.2805 'International Tables Vol C Tables 4.2.6.8 and 6.1.1.4'
loop_
_geom_angle_atom_site_label_1
_geom_angle_atom_site_label_2
_geom_angle_atom_site_label_3
_geom_angle
C11 N1 C8 121.8(4)
C11 N1 H1A 122(4)
C8 N1 H1A 115(4)
C6 C1 C2 121.8(6)
C6 C1 Br1 119.8(5)
C2 C1 Br1 118.4(5)
C1 C2 C3 119.2(6)
C1 C2 H2 120.4
C3 C2 H2 120.4
C4 C3 C2 120.9(6)
C4 C3 H3 119.6
C2 C3 H3 119.6
C3 C4 C5 118.2(5)
C3 C4 C7 121.6(5)
C5 C4 C7 120.1(5)
C4 C5 C6 121.7(6)
C4 C5 H5 119.2
C6 C5 H5 119.2
C1 C6 C5 118.3(6)
C1 C6 H6 120.9
C5 C6 H6 120.9
C4 C7 C8 114.6(5)
C4 C7 H7A 108.6
C8 C7 H7A 108.6
C4 C7 H7B 108.6
C8 C7 H7B 108.6
H7A C7 H7B 107.6
C9 C8 N1 111.3(6)
C9 C8 C7 112.8(6)
N1 C8 C7 108.3(5)
C9 C8 H8 108.1
N1 C8 H8 108.1
C7 C8 H8 108.1
C10 C9 C8 178.1(8)
C9 C10 H10 180.0
O1 C11 N1 122.8(5)
O1 C11 C12 122.1(5)
N1 C11 C12 115.1(5)
C13 C12 C11 112.3(5)
C13 C12 C14 111.2(6)
C11 C12 C14 108.2(5)
C13 C12 H12 108.4
C11 C12 H12 108.4
C14 C12 H12 108.4
C12 C13 H13A 109.5
C12 C13 H13B 109.5
H13A C13 H13B 109.5
C12 C13 H13C 109.5
H13A C13 H13C 109.5
H13B C13 H13C 109.5
C12 C14 H14A 109.5
C12 C14 H14B 109.5
H14A C14 H14B 109.5
C12 C14 H14C 109.5
H14A C14 H14C 109.5
H14B C14 H14C 109.5
loop_
_geom_bond_atom_site_label_1
_geom_bond_atom_site_label_2
_geom_bond_distance
Br1 C1 1.908(6)
O1 C11 1.224(7)
N1 C11 1.339(7)
N1 C8 1.465(7)
N1 H1A 0.98(7)
C1 C6 1.370(9)
C1 C2 1.375(9)
C2 C3 1.391(8)
C2 H2 0.9300
C3 C4 1.387(9)
C3 H3 0.9300
C4 C5 1.387(8)
C4 C7 1.512(8)
C5 C6 1.395(8)
C5 H5 0.9300
C6 H6 0.9300
C7 C8 1.545(8)
C7 H7A 0.9700
C7 H7B 0.9700
C8 C9 1.465(8)
C8 H8 0.9800
C9 C10 1.171(10)
C10 H10 0.9300
C11 C12 1.521(7)
C12 C13 1.520(9)
C12 C14 1.526(9)
C12 H12 0.9800
C13 H13A 0.9600
C13 H13B 0.9600
C13 H13C 0.9600
C14 H14A 0.9600
C14 H14B 0.9600
C14 H14C 0.9600
loop_
_geom_hbond_atom_site_label_D
_geom_hbond_atom_site_label_H
_geom_hbond_atom_site_label_A
_geom_hbond_distance_DH
_geom_hbond_distance_HA
_geom_hbond_distance_DA
_geom_hbond_angle_DHA
_geom_hbond_site_symmetry_A
N1 H1A O1 0.98(7) 1.90(7) 2.852(6) 163(6) 1_655
