#------------------------------------------------------------------------------
#$Date: 2017-10-04 18:17:41 +0300 (Wed, 04 Oct 2017) $
#$Revision: 201646 $
#$URL: file:///home/coder/svn-repositories/cod/cif/4/12/65/4126554.cif $
#------------------------------------------------------------------------------
#
# This file is available in the Crystallography Open Database (COD),
# http://www.crystallography.net/
#
# All data on this site have been placed in the public domain by the
# contributors.
#
data_4126554
loop_
_publ_author_name
'Morrison, Gregory'
'Latshaw, Allison M.'
'Spagnuolo, Nicholas R.'
'Zur Loye, Hans-Conrad'
_publ_section_title
;
 Observation of Intense X-ray Scintillation in a Family of Mixed Anion
 Silicates, Cs3RESi4O10F2 (RE = Y, Eu-Lu), Obtained via an Enhanced Flux
 Crystal Growth Technique.
;
_journal_name_full               'Journal of the American Chemical Society'
_journal_paper_doi               10.1021/jacs.7b08559
_journal_year                    2017
_chemical_formula_moiety         'Cs3 F2 Lu O10 Si4'
_chemical_formula_sum            'Cs3 F2 Lu O10 Si4'
_chemical_formula_weight         884.06
_space_group_crystal_system      triclinic
_space_group_IT_number           2
_space_group_name_Hall           '-P 1'
_space_group_name_H-M_alt        'P -1'
_symmetry_space_group_name_Hall  '-P 1'
_symmetry_space_group_name_H-M   'P -1'
_audit_creation_date             2017-05-23
_audit_creation_method
;
Olex2 1.2
(compiled 2015.09.30 svn.r3233 for OlexSys, GUI svn.r5103)
;
_cell_angle_alpha                95.912(3)
_cell_angle_beta                 90.043(3)
_cell_angle_gamma                119.874(3)
_cell_formula_units_Z            2
_cell_length_a                   7.0668(6)
_cell_length_b                   7.1082(6)
_cell_length_c                   16.0471(12)
_cell_measurement_reflns_used    9901
_cell_measurement_temperature    302(2)
_cell_measurement_theta_max      36.2672
_cell_measurement_theta_min      3.3270
_cell_volume                     693.99(10)
_computing_cell_refinement       'SAINT v7.60A (Bruker, 2013)'
_computing_data_collection       'Bruker APEXIII v2016.5-0 (Bruker, 2016)'
_computing_data_reduction        'SAINT v7.60A (Bruker, 2013)'
_computing_molecular_graphics    'Olex2 (Dolomanov et al., 2009)'
_computing_publication_material  'Olex2 (Dolomanov et al., 2009)'
_computing_structure_refinement  'ShelXL (Sheldrick, 2015)'
_computing_structure_solution    'ShelXT (Sheldrick, 2015)'
_diffrn_ambient_temperature      302.01
_diffrn_measured_fraction_theta_full 0.997
_diffrn_measured_fraction_theta_max 0.987
_diffrn_measurement_device_type  'Bruker APEX-II CCD'
_diffrn_measurement_method       '\f and \w scans'
_diffrn_radiation_type           MoK\a
_diffrn_radiation_wavelength     0.71073
_diffrn_reflns_av_R_equivalents  0.0439
_diffrn_reflns_av_unetI/netI     0.0338
_diffrn_reflns_Laue_measured_fraction_full 0.997
_diffrn_reflns_Laue_measured_fraction_max 0.987
_diffrn_reflns_limit_h_max       11
_diffrn_reflns_limit_h_min       -11
_diffrn_reflns_limit_k_max       11
_diffrn_reflns_limit_k_min       -11
_diffrn_reflns_limit_l_max       26
_diffrn_reflns_limit_l_min       -26
_diffrn_reflns_number            6361
_diffrn_reflns_point_group_measured_fraction_full 0.997
_diffrn_reflns_point_group_measured_fraction_max 0.987
_diffrn_reflns_theta_full        25.242
_diffrn_reflns_theta_max         36.410
_diffrn_reflns_theta_min         2.557
_exptl_absorpt_coefficient_mu    15.276
_exptl_absorpt_correction_T_max  0.4977
_exptl_absorpt_correction_T_min  0.3923
_exptl_absorpt_correction_type   multi-scan
_exptl_absorpt_process_details
;
 TWINABS-2012/1 (Bruker,2012) was used for absorption correction.
 
For component 1:
 wR2(int) was 0.0813 before and 0.0676 after correction.
 The Ratio of minimum to maximum transmission is 0.79.
 The \l/2 correction factor is Not present

Final HKLF 4 output contains 40455 reflections, Rint = 0.0439
 (28082 with I > 3sig(I), Rint = 0.0422)
;
_exptl_crystal_colour            colourless
_exptl_crystal_density_diffrn    4.231
_exptl_crystal_description       'hexagonal plate'
_exptl_crystal_F_000             780
_exptl_crystal_size_max          0.06
_exptl_crystal_size_mid          0.06
_exptl_crystal_size_min          0.02
_refine_diff_density_max         2.775
_refine_diff_density_min         -2.389
_refine_diff_density_rms         0.497
_refine_ls_extinction_coef       0.0019(2)
_refine_ls_extinction_expression Fc^*^=kFc[1+0.001xFc^2^\l^3^/sin(2\q)]^-1/4^
_refine_ls_extinction_method     'SHELXL-2014/7 (Sheldrick 2014'
_refine_ls_goodness_of_fit_ref   1.141
_refine_ls_hydrogen_treatment    undef
_refine_ls_matrix_type           full
_refine_ls_number_parameters     186
_refine_ls_number_reflns         6361
_refine_ls_number_restraints     0
_refine_ls_restrained_S_all      1.141
_refine_ls_R_factor_all          0.0635
_refine_ls_R_factor_gt           0.0518
_refine_ls_shift/su_max          0.001
_refine_ls_shift/su_mean         0.000
_refine_ls_structure_factor_coef Fsqd
_refine_ls_weighting_details
'w=1/[\s^2^(Fo^2^)+35.0000P] where P=(Fo^2^+2Fc^2^)/3'
_refine_ls_weighting_scheme      calc
_refine_ls_wR_factor_gt          0.1170
_refine_ls_wR_factor_ref         0.1239
_reflns_Friedel_coverage         0.000
_reflns_number_gt                5747
_reflns_number_total             6361
_reflns_threshold_expression     'I > 2\s(I)'
_cod_data_source_file            ja7b08559_si_011.cif
_cod_data_source_block           Cs3LuSi4O10F2
_cod_database_code               4126554
_shelx_space_group_comment
;
The symmetry employed for this shelxl refinement is uniquely defined
by the following loop, which should always be used as a source of
symmetry information in preference to the above space-group names.
They are only intended as comments.
;
_shelx_estimated_absorpt_t_max   0.750
_shelx_estimated_absorpt_t_min   0.461
_olex2_refinement_description
;
1. Twinned data refinement
 Scales: 0.700(3) 0.300(3)
2. Others
 Fixed X: Lu1(0.5)
 Fixed Y: Lu1(0)
 Fixed Z: Lu1(0)
;
_shelx_res_file
;
    mor1206e.res created by SHELXL-2014/7

TITL mor1206e_a.res in P-1
REM Old TITL MOR1206e in P1 #1
REM SHELXT solution in P-1
REM R1 0.129, Rweak 0.021, Alpha 0.106, Orientation as input
REM Formula found by SHELXT: O10 F Si4 Cs3 Lu
CELL 0.71073 7.0668 7.1082 16.0471 95.912 90.043 119.874
ZERR 2 0.0006 0.0006 0.0012 0.003 0.003 0.003
LATT 1
SFAC O F Si Cs Lu
UNIT 20 4 8 6 2

L.S. 4
PLAN  20
SIZE 0.02 0.06 0.06
TEMP 28.86
BOND $H
LIST 6
fmap 2 53
acta
TWIN 1 0 0 -1 -1 0 0 0 -1 2
REM <olex2.extras>
REM <HklSrc "%.\\MOR1206e.hkl">
REM </olex2.extras>

WGHT    0.000000   35.000000
EXTI    0.001910
BASF   0.30040
FVAR       0.29334
LU1   5   10.500000   10.000000   10.000000    10.50000    0.00916    0.00714 =
         0.00777    0.00085    0.00094    0.00453
LU2   5    0.500000    1.000000    0.500000    10.50000    0.01482    0.01597 =
         0.00938    0.00254    0.00226    0.00907
CS1   4   -0.155754    0.683959    1.050948    11.00000    0.01738    0.01833 =
         0.01860    0.00321    0.00135    0.00971
CS2   4    1.127129    1.265552    0.681510    11.00000    0.02439    0.02523 =
         0.02399   -0.00448   -0.00126    0.01262
CS3   4    1.184962    1.357005    0.417802    11.00000    0.04341    0.02904 =
         0.03599    0.00104   -0.00149    0.01563
SI1   3    0.448937    0.904293    0.713757    11.00000    0.00932    0.00649 =
         0.00832    0.00164   -0.00055    0.00420
SI2   3   -0.374219    0.708882    0.834389    11.00000    0.00619    0.00656 =
         0.00982    0.00009   -0.00040    0.00383
SI3   3   -0.292545    0.334890    0.829206    11.00000    0.00568    0.00545 =
         0.01099    0.00257    0.00120    0.00223
SI4   3    0.079229    0.790353    0.827711    11.00000    0.00599    0.00573 =
         0.01241    0.00253    0.00054    0.00269
O1    1   -0.115825    0.848672    0.815745    11.00000    0.00352    0.00930 =
         0.02722    0.00343    0.00308    0.00484
O2    1    0.220834    0.880313    0.745406    11.00000    0.01015    0.01905 =
         0.02660    0.01309    0.01062    0.00987
O3    1   -0.442045    0.449525    0.819045    11.00000    0.01691    0.00476 =
         0.02322    0.00117    0.00238    0.00838
O4    1   -0.354601    0.151849    0.748990    11.00000    0.00842    0.01163 =
         0.01968   -0.00101    0.00133    0.00162
O5    1   -0.423851    0.770918    0.925336    11.00000    0.01797    0.01849 =
         0.01362    0.00127    0.00702    0.00914
O6    1    0.442434    0.852720    0.616143    11.00000    0.03155    0.01981 =
         0.00855    0.00267    0.00168    0.01139
O7    1   -0.041835    0.520333    0.813605    11.00000    0.00381    0.00416 =
         0.01831    0.00031    0.00106   -0.00081
O8    1    0.206265    0.889534    0.915478    11.00000    0.01715    0.02285 =
         0.01728   -0.00591   -0.01065    0.01146
O9    1   -0.304699    0.250787    0.917168    11.00000    0.02211    0.01688 =
         0.01600    0.01213    0.00955    0.00774
O10   1    0.488956    0.731577    0.758889    11.00000    0.01414    0.01718 =
         0.01642    0.00098   -0.00528    0.00850
F1    2    0.392588    1.224329    0.551428    11.00000    0.04333    0.03972 =
         0.02499   -0.00673    0.00243    0.03331
F2    2    0.832963    1.232931    0.542961    11.00000    0.01763    0.03835 =
         0.03437    0.01294   -0.00159    0.00875
HKLF 4

REM  mor1206e_a.res in P-1
REM R1 =  0.0518 for    5747 Fo > 4sig(Fo)  and  0.0635 for all    6361 data
REM    186 parameters refined using      0 restraints

END

WGHT      0.0000     29.5708

REM Highest difference peak  2.775,  deepest hole -2.389,  1-sigma level  0.497
Q1    1   0.4766  1.2269  0.5009  11.00000  0.05    2.77
Q2    1   0.7255  1.2162  0.5013  11.00000  0.05    2.63
Q3    1   0.1400  0.6971  0.6746  11.00000  0.05    2.47
Q4    1   1.1637  1.4731  0.4155  11.00000  0.05    2.38
Q5    1  -0.1167  0.7572  1.0956  11.00000  0.05    2.21
Q6    1   1.2042  1.3324  0.6600  11.00000  0.05    2.11
Q7    1   1.1751  1.2430  0.4395  11.00000  0.05    1.98
Q8    1   0.0000  0.5000  1.0000  10.50000  0.05    1.94
Q9    1   0.2868  1.0431  0.7785  11.00000  0.05    1.93
Q10   1   1.1913  1.3989  0.4547  11.00000  0.05    1.93
Q11   1  -0.4258  0.9029  0.9386  11.00000  0.05    1.91
Q12   1   0.5159  1.0166  0.7593  11.00000  0.05    1.87
Q13   1  -0.1361  0.5247  0.8421  11.00000  0.05    1.87
Q14   1  -0.5986  0.2547  0.9034  11.00000  0.05    1.83
Q15   1  -0.0179  0.4414  0.7585  11.00000  0.05    1.81
Q16   1   0.0581  0.5385  0.8573  11.00000  0.05    1.77
Q17   1   0.4140  0.8878  0.5253  11.00000  0.05    1.74
Q18   1   0.7414  0.8630  0.7418  11.00000  0.05    1.74
Q19   1   1.0998  1.2384  0.7401  11.00000  0.05    1.70
Q20   1   0.9232  1.4145  0.5564  11.00000  0.05    1.69
;
_shelx_res_checksum              33368
_shelx_hkl_file
;
   1   0   0  116.40    1.66
   2   0   0  199.32    2.74
   3   0   0 7687.43  107.38
   4   0   0   80.53    1.99
   5   0   0  427.14    8.66
   6   0   0 1355.94   22.02
   7   0   0   10.92    1.77
   8   0   0  169.17    8.79
   9   0   0  264.59   12.03
  10   0   0   29.21    5.78
 -10   1   0  183.92   13.99
  -9   1   0    2.48    5.62
  -8   1   0  849.18   24.49
  -7   1   0  475.95   13.99
  -6   1   0   14.93    2.99
  -5   1   0 4752.49   65.28
  -4   1   0  273.41    4.47
  -3   1   0   20.43    0.78
  -1   1   0  123.57    1.32
   0   1   0  226.01    2.42
   2   1   0   19.06    0.68
   3   1   0  887.38    9.07
   4   1   0 3012.12   49.89
   5   1   0   27.07    2.10
   6   1   0  305.17   10.52
   7   1   0  289.04   14.93
   8   1   0   23.64    6.76
   9   1   0  153.27   18.05
 -11   2   0   12.77    6.24
 -10   2   0  262.45    8.46
  -9   2   0  124.70    6.33
  -8   2   0    8.60    2.28
  -7   2   0 1830.93   26.38
  -6   2   0  121.03    3.74
  -5   2   0   42.15    1.93
  -4   2   0 9999.00  151.19
  -3   2   0   19.69    0.77
  -2   2   0  177.29    2.59
   0   2   0 1469.27   15.57
   1   2   0  236.50    5.46
   2   2   0 5096.92   49.44
   3   2   0   22.09    1.15
   4   2   0  457.10    6.30
   5   2   0  669.85   11.03
   6   2   0  116.49    3.60
   7   2   0  166.59    5.75
   8   2   0  108.62    5.57
   9   2   0   16.09    6.02
 -10   3   0    7.25    7.65
  -9   3   0 1097.81   43.30
  -8   3   0  194.52    9.06
  -7   3   0   55.86    4.60
  -6   3   0 3782.30   68.87
  -5   3   0   66.79    2.10
  -4   3   0  486.20    5.97
  -3   3   0 7773.45  124.27
  -2   3   0   15.87    0.73
  -1   3   0  711.31    7.02
   0   3   0 3816.18   34.47
   1   3   0   27.06    1.13
   2   3   0  138.75    3.02
   3   3   0 1065.13   18.06
   4   3   0    4.26    2.54
   5   3   0  301.98    7.82
   6   3   0  296.00   15.98
   7   3   0   90.65    6.62
 -11   4   0  353.05   23.86
 -10   4   0   81.70    5.54
  -9   4   0   90.23    6.81
  -8   4   0 1378.56   18.75
  -7   4   0   93.95    2.74
  -6   4   0  297.78    8.76
  -5   4   0 4855.29   53.77
  -4   4   0   92.55    1.73
  -3   4   0  285.86   10.55
  -2   4   0 5735.12   59.44
  -1   4   0   13.26    1.01
   0   4   0  843.20   13.31
   1   4   0 1543.22   16.15
   2   4   0  116.48    3.43
   3   4   0  577.28   10.34
   4   4   0  387.10    9.96
   5   4   0   76.85    6.53
   6   4   0   95.45    7.68
 -11   5   0   20.43    9.46
  -9   5   0   69.95    8.81
  -8   5   0  114.54    8.46
  -7   5   0 2146.47   71.82
  -6   5   0   13.11    2.19
  -5   5   0  438.08   13.57
  -4   5   0 3139.45   35.75
  -3   5   0    8.74    1.00
  -2   5   0  367.88    9.32
  -1   5   0 1296.71   18.88
   0   5   0    6.12    1.17
   1   5   0  387.97    7.84
   2   5   0  840.94   12.70
   3   5   0  120.62    5.05
   4   5   0  190.96    8.31
   5   5   0  212.85   15.23
   6   5   0   61.01    6.92
 -11   6   0   40.69    5.52
 -10   6   0  119.50    6.25
  -9   6   0 1028.53   23.78
  -8   6   0   19.35    2.23
  -7   6   0  302.49    6.83
  -6   6   0 1567.81   18.93
  -5   6   0   15.74    1.43
  -4   6   0  316.63    6.20
  -3   6   0 1349.19   17.56
  -2   6   0   49.88    2.34
  -1   6   0  346.57    9.89
   0   6   0  642.27   10.83
   1   6   0  134.32    4.11
   2   6   0  240.97    6.08
   3   6   0  103.92    9.22
   4   6   0  181.13    9.29
   5   6   0  150.83    9.79
  -9   7   0   84.37   11.49
  -8   7   0 1179.96   33.77
  -7   7   0    7.74    3.10
  -6   7   0  509.91    9.85
  -5   7   0  844.78   14.33
  -4   7   0   20.88    2.33
  -3   7   0  475.50   10.85
  -2   7   0  808.06   13.76
  -1   7   0  192.79    4.65
   0   7   0  242.96    6.57
   1   7   0  328.72    6.93
   2   7   0  167.65    6.45
   3   7   0  106.43    5.75
   4   7   0  127.06    9.74
 -11   8   0  101.98    7.81
 -10   8   0  331.86   21.95
  -9   8   0   11.89    3.94
  -8   8   0  198.18    7.18
  -7   8   0  658.65   15.37
  -6   8   0   38.50    5.46
  -5   8   0  283.77    9.49
  -4   8   0  671.04   17.65
  -3   8   0  122.77    6.84
  -2   8   0  244.84    9.51
  -1   8   0  175.41   11.94
   0   8   0  225.55   19.09
   1   8   0  199.52   15.69
   2   8   0  150.76   12.19
 -11   9   0    0.00   13.44
 -10   9   0  152.32   13.87
  -9   9   0  328.23   10.73
  -8   9   0    2.25    3.67
  -7   9   0  158.03    6.35
  -6   9   0  247.04    7.70
  -5   9   0   50.99    3.78
  -4   9   0  291.74    9.74
  -3   9   0  180.74   10.32
  -2   9   0  242.74   13.92
  -1   9   0  165.49    9.71
   0   9   0  276.99   11.84
   1   9   0  152.59    8.81
   2   9   0   28.74    6.36
 -10  10   0   30.08    9.90
  -9  10   0  199.37   12.94
  -8  10   0  186.08   13.43
  -7  10   0   70.99    7.78
  -6  10   0  109.19    7.99
  -5  10   0  170.78    9.19
  -4  10   0  132.63   11.02
  -3  10   0  126.86   10.99
  -2  10   0  164.04   15.95
  -1  10   0  157.84   15.77
   0  10   0   94.48   20.86
  -8  11   0  172.22   17.32
  -7  11   0   97.42   10.29
  -6  11   0   68.53    6.37
  -5  11   0  136.40    7.38
  -4  11   0  191.45    7.94
  -3  11   0  161.19   10.87
  -2  11   0   44.21    9.45
   2 -11   1   16.94   12.39
   3 -11   1   63.09    7.91
   4 -11   1   11.75    5.59
   5 -11   1   37.31    5.42
   6 -11   1  136.42    6.68
   7 -11   1   45.35    7.07
   8 -11   1    0.00    7.06
   9 -11   1   47.53   10.50
   0 -10   1   48.91   13.60
   1 -10   1  124.91   13.74
   2 -10   1   48.23    8.46
   3 -10   1   57.99    6.77
   4 -10   1  176.78   18.72
   5 -10   1   46.40    9.08
   6 -10   1    6.76    6.21
   7 -10   1  111.75    8.07
   8 -10   1   69.49    8.24
   9 -10   1    2.87    9.08
  10 -10   1   24.20   11.75
  -2  -9   1    4.46    7.73
  -1  -9   1  127.90    8.09
   0  -9   1   23.97    4.51
   1  -9   1  107.53    6.96
   2  -9   1  199.50   10.30
   3  -9   1   65.23    6.12
   4  -9   1   87.69    5.10
   5  -9   1  279.31    6.84
   6  -9   1  327.50    8.85
   7  -9   1    0.00    3.41
   8  -9   1  133.65    5.73
   9  -9   1   80.93    5.49
  10  -9   1    0.00    9.05
  11  -9   1    1.08   12.83
  -2  -8   1   47.69    6.91
  -1  -8   1  158.19   11.74
   0  -8   1  312.14   22.58
   1  -8   1   81.84    5.68
   2  -8   1   33.77    5.75
   3  -8   1  436.53   13.35
   4  -8   1  205.69    6.13
   5  -8   1    9.68    2.42
   6  -8   1   86.66    6.27
   7  -8   1  342.42   12.44
   8  -8   1   15.59    3.01
   9  -8   1   39.09    4.17
  10  -8   1  124.87   10.27
  11  -8   1   27.34    5.25
  -4  -7   1   23.52    8.71
  -3  -7   1   39.37    4.66
  -2  -7   1  212.14    8.70
  -1  -7   1   35.21    4.48
   0  -7   1   38.85    4.41
   1  -7   1  698.14   11.39
   2  -7   1  430.23   12.07
   3  -7   1  161.32    9.89
   4  -7   1  503.57    9.68
   5  -7   1  286.51   10.55
   6  -7   1   24.70    4.89
   7  -7   1   39.79    3.57
   8  -7   1  399.88   17.95
   9  -7   1    0.00    7.23
  -5  -6   1   66.13    7.27
  -4  -6   1  132.65    7.45
  -3  -6   1   61.65   10.57
  -2  -6   1   82.34    4.48
  -1  -6   1  873.21   13.47
   0  -6   1  322.25    7.32
   1  -6   1  107.03   10.37
   2  -6   1  391.04    8.09
   3  -6   1  802.30   13.30
   4  -6   1   19.56    5.95
   5  -6   1   59.30    2.05
   6  -6   1  264.32    8.21
   7  -6   1  124.43    5.97
   8  -6   1   11.05    2.32
   9  -6   1  170.92    8.94
  10  -6   1   22.25    4.29
  11  -6   1   33.63    4.87
  -6  -5   1  137.14    8.05
  -5  -5   1   90.17    7.79
  -4  -5   1   27.66    4.30
  -3  -5   1  450.38    8.76
  -2  -5   1  443.19    8.02
  -1  -5   1   90.50    2.72
   0  -5   1  632.58    9.48
   1  -5   1  799.16   12.60
   2  -5   1   21.05    1.99
   3  -5   1  251.41    4.45
   4  -5   1 1095.87   14.11
   5  -5   1   10.93    2.60
   6  -5   1   99.49    4.35
   7  -5   1  183.23   11.39
   8  -5   1   47.39    5.84
   9  -5   1   93.09   21.50
  11  -5   1   40.31   10.99
  -6  -4   1   47.63    5.52
  -5  -4   1  408.06   14.94
  -4  -4   1  144.84    4.64
  -3  -4   1   68.52    3.44
  -2  -4   1  392.42    6.44
  -1  -4   1 1191.45   13.73
   0  -4   1    0.00    1.03
   1  -4   1  138.30    2.88
   2  -4   1 1524.82   17.49
   3  -4   1  284.36    3.62
   4  -4   1  106.00    1.76
   5  -4   1  241.83    6.90
   6  -4   1   99.97    3.50
   7  -4   1  255.73    4.96
   8  -4   1   21.93    2.54
   9  -4   1   55.59    5.42
  10  -4   1   10.64    3.04
  11  -4   1    9.36    4.88
  -7  -3   1  166.85    9.11
  -6  -3   1  315.46   24.75
  -5  -3   1    0.00    2.74
  -4  -3   1  449.32    8.40
  -3  -3   1  844.18   22.65
  -2  -3   1   51.42    1.54
  -1  -3   1  292.71    4.69
   0  -3   1  841.38   11.66
   1  -3   1   20.43    0.74
   2  -3   1   30.47    1.12
   3  -3   1   38.29    1.17
   4  -3   1  100.37    2.03
   5  -3   1  217.53    4.31
   6  -3   1   10.12    3.03
   7  -3   1  177.35    8.04
   8  -3   1   47.22    4.40
   9  -3   1   43.27    7.16
  10  -3   1    0.00    5.94
  -9  -2   1   53.37    6.06
  -8  -2   1   30.73    7.04
  -7  -2   1    0.00    2.61
  -6  -2   1  139.78    3.60
  -5  -2   1  385.92   11.49
  -4  -2   1  109.90    2.99
  -3  -2   1  204.00    3.07
  -2  -2   1 1596.75   37.93
  -1  -2   1   37.04    0.88
   0  -2   1  170.66    2.63
   1  -2   1  283.76   31.17
   2  -2   1  879.03   12.16
   3  -2   1 1110.98   10.82
   4  -2   1  261.52   14.15
   5  -2   1   59.57    1.63
   6  -2   1   31.17    3.75
   7  -2   1  138.93    5.51
   8  -2   1    0.90    2.02
   9  -2   1    0.00    4.49
  10  -2   1   31.72    3.64
  11  -2   1    0.00    5.20
  -9  -1   1   34.62    7.24
  -8  -1   1  108.34    8.51
  -7  -1   1  434.25   14.94
  -6  -1   1   39.67    3.41
  -5  -1   1  118.46    3.55
  -4  -1   1  895.48   12.25
  -3  -1   1  130.17    2.14
  -2  -1   1   35.30    0.83
  -1  -1   1  365.81    5.40
   0  -1   1   30.58    0.55
   1  -1   1   39.21    0.56
   2  -1   1  123.30    1.59
   3  -1   1  184.59    2.50
   4  -1   1  133.33    2.82
   5  -1   1  280.75    7.81
   6  -1   1   76.57    3.44
   7  -1   1  130.34    6.89
   8  -1   1   35.23    5.92
   9  -1   1   13.47    4.92
  10  -1   1    3.98    6.16
 -10   0   1   19.09    5.22
  -9   0   1   90.51    6.52
  -8   0   1   15.29    3.55
  -7   0   1   45.03    2.40
  -6   0   1  294.14    6.56
  -5   0   1   11.50    1.29
  -4   0   1   68.18    1.79
  -3   0   1   58.01    1.24
  -2   0   1  875.10   10.02
  -1   0   1   33.76    0.62
   1   0   1   18.11    0.49
   2   0   1 1182.50   13.70
   3   0   1  557.77    7.02
   4   0   1   84.26    2.03
   5   0   1   86.79    2.67
   6   0   1  118.32    3.42
   7   0   1    2.99    1.31
   8   0   1    5.68    2.68
   9   0   1   13.33    3.04
  10   0   1    4.27    3.25
 -10   1   1    0.00    3.91
  -9   1   1   85.51    9.66
  -8   1   1  199.09   13.50
  -7   1   1   93.75   10.38
  -6   1   1   63.78    6.85
  -5   1   1  619.81   12.19
  -4   1   1  180.78    3.13
  -3   1   1  501.20    5.99
  -2   1   1  239.77    3.32
  -1   1   1   20.46    0.45
   0   1   1   40.48    0.64
   1   1   1 1361.00   13.35
   2   1   1  289.47    3.42
   3   1   1  167.54    2.52
   4   1   1  189.29    5.50
   5   1   1   32.93    2.59
   6   1   1   94.84    4.06
   7   1   1   36.77    4.89
   8   1   1    5.12    4.44
   9   1   1   18.79    6.46
 -11   2   1    6.42    5.13
 -10   2   1  101.42    6.46
  -9   2   1   12.72    2.85
  -8   2   1   44.01    5.14
  -7   2   1  186.14    6.99
  -6   2   1  103.65    3.12
  -5   2   1   57.69    5.66
  -4   2   1  122.47    5.61
  -3   2   1  357.50    4.15
  -2   2   1 1192.94   20.26
  -1   2   1 1014.39   11.86
   0   2   1  384.73    5.47
   1   2   1  381.89    6.50
   2   2   1  620.65   10.43
   3   2   1  103.88    3.47
   4   2   1   59.22    3.04
   5   2   1    0.00    5.00
   6   2   1   81.70    3.61
   7   2   1   43.52    5.01
   8   2   1   16.44    6.72
   9   2   1    0.79    5.98
 -10   3   1   36.17    6.22
  -9   3   1  328.72   16.84
  -8   3   1   53.07    4.58
  -7   3   1  142.71    8.00
  -6   3   1   16.07    3.25
  -5   3   1  113.23    2.57
  -4   3   1  237.80    3.90
  -3   3   1  491.42    5.79
  -2   3   1  151.48    1.99
  -1   3   1  648.69    7.70
   0   3   1  437.89    5.58
   1   3   1  191.60    2.80
   2   3   1  299.29    5.50
   3   3   1  110.91    8.54
   4   3   1   48.68    3.00
   5   3   1   82.66    5.54
   7   3   1   13.36    4.75
 -11   4   1   60.19    9.00
 -10   4   1   14.65    2.82
  -9   4   1   37.76    3.24
  -8   4   1    3.41    1.48
  -7   4   1  137.20    3.58
  -6   4   1   76.83    3.55
  -5   4   1  165.28    3.29
  -4   4   1   80.55    1.62
  -3   4   1  175.62    5.09
  -2   4   1  644.11    6.69
  -1   4   1   80.26    1.86
   0   4   1  234.23    4.29
   1   4   1  288.69    4.99
   2   4   1   41.87    1.75
   3   4   1   43.33    2.48
   4   4   1   63.07    4.18
   5   4   1    6.35    3.95
   6   4   1   13.39    6.47
 -11   5   1   35.82   10.99
 -10   5   1   97.49   13.42
  -9   5   1  134.61   12.40
  -8   5   1   21.61    5.00
  -7   5   1  133.93    4.53
  -6   5   1  117.28    4.26
  -5   5   1   95.16    4.67
  -4   5   1  430.11    6.31
  -3   5   1  281.97    3.85
  -2   5   1  254.10    6.03
  -1   5   1  255.00    4.38
   0   5   1    5.73    1.32
   1   5   1   56.31    3.52
   2   5   1   51.06    4.08
   3   5   1    4.75    2.97
   4   5   1   82.29    5.11
   5   5   1   38.56    6.40
   6   5   1   12.62    5.06
 -11   6   1   36.45    6.91
 -10   6   1   28.24    3.73
  -9   6   1   60.97    5.58
  -8   6   1   29.10    3.39
  -7   6   1   53.02    3.41
  -6   6   1  119.44    4.53
  -5   6   1   28.34    1.78
  -4   6   1   84.55    3.40
  -3   6   1  173.78    6.10
  -2   6   1   26.54    1.69
  -1   6   1   29.41    4.87
   0   6   1   62.16    7.10
   1   6   1   26.11    2.12
   2   6   1    0.00    6.45
   3   6   1   47.00   12.62
   4   6   1   30.27    4.78
   5   6   1   27.72    7.36
  -9   7   1    0.00    6.13
  -8   7   1   24.61    7.93
  -7   7   1    1.05    4.44
  -6   7   1  171.78    5.46
  -5   7   1   89.26    4.31
  -4   7   1   57.44    2.92
  -3   7   1    0.00    3.79
  -2   7   1    0.00    5.59
  -1   7   1   28.22    2.35
   0   7   1   65.66    5.13
   1   7   1  142.64    5.81
   2   7   1   20.20    2.70
   3   7   1   93.40    7.01
   4   7   1   61.53   10.81
 -11   8   1   18.16    5.30
 -10   8   1   20.36    5.21
  -9   8   1    1.15    5.06
  -8   8   1    0.00    3.43
  -7   8   1   55.26    5.08
  -6   8   1   55.03    5.15
  -5   8   1   39.49    3.45
  -4   8   1   61.65    6.72
  -3   8   1   20.00    4.92
  -2   8   1  107.33    6.20
  -1   8   1   34.96    4.39
   0   8   1   43.47   11.37
   1   8   1   37.76    5.48
   2   8   1   29.19    5.37
   3   8   1   17.44    8.77
  -9   9   1    9.69    5.30
  -8   9   1    7.83    3.96
  -7   9   1   18.56    3.25
  -6   9   1   32.28    4.85
  -5   9   1   22.33    3.81
  -4   9   1   63.49    5.61
  -3   9   1   39.98    5.88
  -2   9   1   23.71    5.73
  -1   9   1   75.25    7.52
   0   9   1   96.46    6.41
   1   9   1   18.54    5.89
   2   9   1   40.92    6.22
  -9  10   1   20.17   13.16
  -8  10   1   45.05   13.73
  -7  10   1    2.05    5.20
  -6  10   1   73.36    9.34
  -5  10   1   49.59    5.65
  -4  10   1   25.80    9.88
  -3  10   1   91.02   12.13
  -2  10   1   33.63    8.97
  -1  10   1   14.67    6.30
   0  10   1   61.97   16.92
  -8  11   1    1.92   13.69
  -7  11   1    0.00    9.80
  -6  11   1   10.95    4.90
  -5  11   1    2.52    8.03
  -4  11   1   47.98    7.89
  -3  11   1    0.00    6.40
  -2  11   1   39.12    4.97
   2 -11   2   84.13   14.93
   3 -11   2   29.14    7.60
   4 -11   2  256.30    9.91
   5 -11   2   52.34    4.64
   6 -11   2   70.58    5.33
   7 -11   2  370.89   14.93
   8 -11   2   23.87    6.56
   0 -10   2   48.11   11.76
   1 -10   2   21.34    6.85
   2 -10   2  329.17   23.86
   3 -10   2   28.80    6.63
   4 -10   2  208.76   19.10
   5 -10   2  395.20   28.54
   6 -10   2   53.22    7.92
   7 -10   2  273.47   12.55
   8 -10   2  395.08   16.85
   9 -10   2   42.89    6.81
  -2  -9   2   67.96    9.25
  -1  -9   2   45.20    5.62
   0  -9   2  284.66   11.16
   1  -9   2   54.92    7.88
   2  -9   2  295.70   12.66
   3  -9   2  680.92   20.41
   4  -9   2    0.00    6.74
   5  -9   2  413.07   10.21
   6  -9   2  958.76   20.11
   7  -9   2   37.40    5.31
   8  -9   2  394.13   10.82
   9  -9   2  226.45    8.11
  10  -9   2    0.00    9.78
  -3  -8   2    8.27    6.87
  -2  -8   2  289.92   16.77
  -1  -8   2   89.37   11.31
   0  -8   2  293.91   23.31
   1  -8   2  838.80   27.48
   2  -8   2    0.00    9.13
   3  -8   2  726.08   15.64
   4  -8   2  598.73   13.38
   5  -8   2   59.03    5.94
   6  -8   2  771.19   19.84
   7  -8   2  370.25   14.54
   8  -8   2   66.86    6.25
   9  -8   2  290.09    9.92
  10  -8   2  230.80   20.06
  11  -8   2    6.25    5.64
  -4  -7   2  230.48   16.28
  -3  -7   2   26.36    3.70
  -2  -7   2  276.20    8.11
  -1  -7   2  581.85   12.70
   0  -7   2    5.90    2.53
   1  -7   2  647.26   13.81
   2  -7   2 1018.66   19.01
   3  -7   2   29.52    4.00
   4  -7   2 1571.60   26.20
   5  -7   2  979.80   17.67
   6  -7   2   56.87    5.33
   7  -7   2  571.12   11.84
   8  -7   2  370.30   10.78
   9  -7   2   83.78    9.39
  -5  -6   2   40.03    5.84
  -4  -6   2  186.30    8.46
  -3  -6   2  790.17   30.00
  -2  -6   2   65.47    3.57
  -1  -6   2  614.30   12.64
   0  -6   2  846.33   14.27
   1  -6   2   36.22    2.58
   2  -6   2 1786.77   28.57
   3  -6   2  987.65   15.53
   4  -6   2   38.43    2.78
   5  -6   2 1505.70   20.13
   6  -6   2  525.36    9.53
   7  -6   2   45.72    5.80
   8  -6   2  300.28    7.05
   9  -6   2  204.59    7.55
  10  -6   2   79.03    5.35
  11  -6   2  118.05    8.20
  -6  -5   2  103.30    6.93
  -5  -5   2  489.04   21.22
  -4  -5   2   21.42    4.50
  -3  -5   2  771.41   12.48
  -2  -5   2  885.91   19.01
  -1  -5   2   31.49    1.57
   0  -5   2 3032.08   56.50
   1  -5   2 1628.25   25.65
   2  -5   2    5.94    1.01
   3  -5   2 1421.84   17.38
   4  -5   2  803.67   11.70
   5  -5   2    8.70    1.31
   6  -5   2  844.48   16.13
   7  -5   2  519.14   19.19
   8  -5   2   64.86    8.38
   9  -5   2  229.70   13.34
  11  -5   2   36.12   12.93
  -6  -4   2  103.78    6.76
  -5  -4   2  295.44   21.00
  -4  -4   2  600.31   16.95
  -3  -4   2   13.20    2.06
  -2  -4   2 1336.60   18.18
  -1  -4   2 1655.72   30.38
   0  -4   2    4.48    1.25
   1  -4   2 3609.20   34.17
   2  -4   2 1481.01   27.41
   3  -4   2   68.85    1.46
   4  -4   2 1564.96   17.21
   5  -4   2  397.88    9.35
   6  -4   2   67.23    2.25
   7  -4   2  325.81    7.59
   8  -4   2  639.66   11.76
   9  -4   2   48.99    4.71
  10  -4   2   75.95    6.13
  11  -4   2  156.53   10.20
  -7  -3   2  257.46   11.75
  -6  -3   2  661.15   19.71
  -5  -3   2   25.83    3.03
  -4  -3   2 1690.51   28.18
  -3  -3   2  965.33   14.51
  -2  -3   2    0.00    1.11
  -1  -3   2 2646.31   25.86
   0  -3   2  755.67    8.61
   1  -3   2  128.72    2.06
   2  -3   2 2958.07   29.51
   3  -3   2  962.98    9.80
   4  -3   2  123.12    2.40
   5  -3   2  825.31   10.49
   6  -3   2  841.97   19.71
   7  -3   2   59.38    3.39
   8  -3   2  174.05    9.38
   9  -3   2  251.98   14.87
  10  -3   2   71.02    8.18
  11  -3   2  114.28   16.24
  -9  -2   2  165.18   11.92
  -8  -2   2  299.29   13.55
  -7  -2   2   22.36    2.42
  -6  -2   2  550.49    9.58
  -5  -2   2  901.69   12.76
  -4  -2   2   25.44    1.84
  -3  -2   2 1866.20   19.44
  -2  -2   2 1702.35   17.17
  -1  -2   2   19.95    1.54
   0  -2   2 3982.11   56.55
   1  -2   2 1043.31   15.74
   2  -2   2  550.78    6.30
   3  -2   2 1194.34   12.13
   4  -2   2 1564.83   16.21
   5  -2   2  531.80    6.84
   6  -2   2  386.79    7.45
   7  -2   2 1256.88   17.42
   8  -2   2  129.85    4.23
   9  -2   2  131.73    7.99
  10  -2   2  477.85   13.69
  -9  -1   2   49.19    9.07
  -8  -1   2  345.77   17.94
  -7  -1   2  590.70   23.22
  -6  -1   2   21.53    3.08
  -5  -1   2 1439.13   22.43
  -4  -1   2  474.85   10.00
  -3  -1   2   37.11    1.39
  -2  -1   2 3850.91   38.03
  -1  -1   2 1319.76   15.56
   0  -1   2  330.44    4.22
   1  -1   2 1003.31    9.42
   2  -1   2 2198.14   20.38
   3  -1   2   65.14    1.38
   4  -1   2  385.21    5.58
   5  -1   2 1285.26   20.17
   6  -1   2   55.99    3.58
   7  -1   2  287.87   10.95
   8  -1   2  644.68   22.46
   9  -1   2   73.29    7.82
  10  -1   2   69.88    9.50
 -10   0   2  161.66   11.29
  -9   0   2  227.94    8.51
  -8   0   2   54.58    3.80
  -7   0   2  513.34   10.57
  -6   0   2  461.22    9.29
  -5   0   2    7.53    1.49
  -4   0   2 1627.63   21.40
  -3   0   2  830.32   10.52
  -2   0   2  544.95    7.27
  -1   0   2  973.49   17.55
   0   0   2 1215.92   27.08
   1   0   2  387.54    4.51
   2   0   2 2092.54   24.47
   3   0   2 4544.97   47.20
   4   0   2   52.34    1.48
   5   0   2  166.09    3.96
   6   0   2 1973.42   30.91
   7   0   2   19.18    1.68
   8   0   2   96.32    6.34
   9   0   2  502.10   16.43
  10   0   2    5.27    4.60
 -10   1   2   13.46    5.83
  -9   1   2  340.46   23.80
  -8   1   2  220.92   12.21
  -7   1   2   67.20    5.10
  -6   1   2  971.21   28.19
  -5   1   2  541.47   11.08
  -4   1   2  229.39    3.51
  -3   1   2 1082.83   11.76
  -2   1   2 1668.01   16.59
  -1   1   2  376.88    3.87
   0   1   2  492.91    4.76
   1   1   2 5324.65   70.86
   2   1   2  183.47    2.44
   3   1   2  497.72    6.33
   4   1   2 3364.09   55.43
   5   1   2   91.69    3.76
   6   1   2  440.56   12.75
   7   1   2  560.88   25.78
   8   1   2   29.77    5.67
   9   1   2  114.33   14.95
 -11   2   2  181.72   10.36
 -10   2   2  180.02    6.76
  -9   2   2   58.01    3.99
  -8   2   2  395.11    8.33
  -7   2   2  531.05    9.18
  -6   2   2  160.81    3.84
  -5   2   2  824.79   10.59
  -4   2   2 1379.92   13.13
  -3   2   2   32.56    1.04
  -2   2   2 2310.97   22.80
  -1   2   2 5226.97  229.61
   0   2   2   21.45    0.77
   1   2   2  424.21    5.88
   2   2   2 3713.41   35.21
   3   2   2   32.35    1.45
   4   2   2  442.28    6.95
   5   2   2 2020.01   25.72
   6   2   2   11.94    2.25
   7   2   2  374.10   19.54
   8   2   2  586.93   20.91
 -11   3   2    3.18    8.28
 -10   3   2   98.35   11.41
  -9   3   2  196.74   19.29
  -8   3   2   61.12    5.19
  -7   3   2  540.71   20.28
  -6   3   2  595.99   16.74
  -5   3   2  339.74    5.56
  -4   3   2  468.85    6.82
  -3   3   2 4478.63   45.75
  -2   3   2  249.55    3.04
  -1   3   2  363.99    4.54
   0   3   2 6496.99   76.97
   1   3   2   61.50    1.58
   2   3   2  887.91   11.48
   3   3   2 2449.53   47.72
   4   3   2   83.72    4.38
   5   3   2  250.73    7.51
   6   3   2  536.69   33.78
   7   3   2    4.81    4.62
 -11   4   2   77.97   10.14
 -10   4   2  113.87    6.12
  -9   4   2  197.44    7.95
  -8   4   2  403.19    9.16
  -7   4   2   24.97    1.95
  -6   4   2  382.35    7.41
  -5   4   2 1821.08   23.02
  -4   4   2   56.63    1.54
  -3   4   2  660.50   10.15
  -2   4   2 3315.73   32.55
  -1   4   2   39.38    1.17
   0   4   2  925.84   18.42
   1   4   2 3503.37   38.75
   2   4   2   33.86    2.00
   3   4   2  258.28    9.50
   4   4   2 1240.78   18.34
   5   4   2   17.29    3.46
   6   4   2  295.61   20.80
 -11   5   2  144.13   16.19
 -10   5   2  262.76   22.31
  -9   5   2   43.36    7.07
  -8   5   2  255.10   10.68
  -7   5   2 1000.25   25.62
  -6   5   2   91.17    3.93
  -5   5   2  187.03    6.69
  -4   5   2 2391.74   31.30
  -3   5   2   59.89    1.73
  -2   5   2  595.46   12.49
  -1   5   2 4415.86   49.76
   0   5   2    5.05    1.32
   1   5   2  293.83   10.02
   2   5   2 1539.22   21.06
   3   5   2    7.46    2.22
   4   5   2  496.45   15.77
   5   5   2  349.11   14.62
   6   5   2   10.00    5.11
 -11   6   2   57.45    6.37
 -10   6   2   80.29    4.62
  -9   6   2  380.33    9.56
  -8   6   2  210.78    6.16
  -7   6   2  425.65    8.33
  -6   6   2 1953.70   27.57
  -5   6   2   93.78    5.69
  -4   6   2  642.41    8.68
  -3   6   2 2502.76   29.61
  -2   6   2   14.69    2.77
  -1   6   2  401.23    7.29
   0   6   2 1440.89   20.58
   1   6   2   21.15    3.00
   2   6   2  448.20   12.14
   3   6   2  573.70   23.28
   4   6   2   14.84    5.97
   5   6   2  178.78   13.00
  -9   7   2  133.12   14.49
  -8   7   2  527.94   35.12
  -7   7   2   25.49    5.53
  -6   7   2  321.72    7.36
  -5   7   2 2236.35   41.04
  -4   7   2   11.44    3.85
  -3   7   2  312.80    5.83
  -2   7   2 1537.10   23.03
  -1   7   2   92.64    3.85
   0   7   2  402.14    7.37
   1   7   2  691.60   11.18
   2   7   2   21.33    3.37
   3   7   2  294.01    9.51
   4   7   2   99.52   11.55
 -11   8   2  146.98   10.50
 -10   8   2  428.86   13.85
  -9   8   2   54.09    4.70
  -8   8   2   96.36    5.99
  -7   8   2  742.52   14.75
  -6   8   2   10.42    4.03
  -5   8   2  326.70   13.58
  -4   8   2 1267.18   30.11
  -3   8   2    2.35    3.96
  -2   8   2  589.73   16.70
  -1   8   2  705.44   18.60
   0   8   2   22.22   10.86
   1   8   2  208.29   12.81
   2   8   2  136.90    8.78
   3   8   2   12.46    7.53
 -10   9   2  117.21   17.12
  -9   9   2  551.77   25.39
  -8   9   2   82.39    4.79
  -7   9   2  352.43   11.59
  -6   9   2  620.46   15.66
  -5   9   2    0.00    4.34
  -4   9   2  290.77   15.02
  -3   9   2  701.34   22.38
  -2   9   2   24.45    4.72
  -1   9   2  324.36   19.33
   0   9   2  232.03   10.74
   1   9   2   25.88    6.54
 -10  10   2   17.17   10.01
  -9  10   2  147.44   17.86
  -8  10   2  553.60   25.35
  -7  10   2    0.44    3.87
  -6  10   2  466.86   17.84
  -5  10   2  492.01   18.12
  -4  10   2    0.00    4.51
  -3  10   2  244.47   14.51
  -2  10   2  112.32   13.17
  -1  10   2   13.40    5.54
   0  10   2  170.34   19.85
  -8  11   2  138.61   17.30
  -7  11   2  203.27   17.28
  -6  11   2    4.59    4.60
  -5  11   2  179.58   11.64
  -4  11   2  157.82   10.24
  -3  11   2    6.12    8.82
   2 -11   3   20.43   15.19
   3 -11   3    0.00    5.06
   4 -11   3   90.42    7.51
   5 -11   3    9.88    4.29
   6 -11   3    2.80    3.51
   7 -11   3   20.03    6.04
   8 -11   3    6.93    6.72
   9 -11   3    0.00   11.33
   0 -10   3   10.73    5.47
   1 -10   3    6.46    4.56
   2 -10   3  109.96   12.34
   3 -10   3    5.79    4.16
   4 -10   3   47.75   10.42
   5 -10   3   81.37   18.01
   6 -10   3   20.40   11.90
   7 -10   3   50.57    6.20
   8 -10   3   21.72    7.24
   9 -10   3   12.56    8.25
  -2  -9   3    2.99    6.03
  -1  -9   3   16.01    4.93
   0  -9   3   86.99    6.02
   1  -9   3   16.88    4.43
   2  -9   3   52.54    9.81
   3  -9   3  195.14   11.50
   4  -9   3   38.16    7.54
   5  -9   3   22.25    3.45
   6  -9   3   56.76    3.79
   7  -9   3   15.66    3.92
   8  -9   3   28.72    3.76
   9  -9   3    0.67    3.13
  10  -9   3    0.00    6.80
  11  -9   3   13.61    9.42
  -3  -8   3    7.34    7.45
  -2  -8   3   97.07    9.11
  -1  -8   3   48.09    7.04
   0  -8   3    8.01    9.26
   1  -8   3  341.29   15.53
   2  -8   3   16.82    4.24
   3  -8   3   35.29    3.14
   4  -8   3   22.53    4.05
   5  -8   3   16.14    5.09
   6  -8   3  122.18    5.68
   7  -8   3   34.94    4.03
   8  -8   3    0.00    5.68
   9  -8   3   24.19    4.21
  10  -8   3   72.86    6.26
  11  -8   3    3.46    4.79
  -4  -7   3  141.85   20.78
  -3  -7   3   15.23    4.51
  -2  -7   3   22.88    4.22
  -1  -7   3  152.71    9.55
   0  -7   3    9.65    2.53
   1  -7   3   55.59    4.83
   2  -7   3   19.71    5.97
   3  -7   3   19.65    2.12
   4  -7   3  126.77    5.16
   5  -7   3  174.86    8.31
   6  -7   3   23.21    3.26
   7  -7   3  189.83    6.12
   8  -7   3   15.00    5.63
   9  -7   3   18.15    6.86
  -5  -6   3    0.00    6.05
  -4  -6   3   23.32    4.32
  -2  -6   3    0.20    2.23
  -1  -6   3  116.66    4.80
   0  -6   3   56.36    9.20
   1  -6   3   21.73    2.41
   2  -6   3  343.48    8.89
   3  -6   3   42.07    6.08
   4  -6   3   83.20    2.70
   5  -6   3  421.64    7.88
   6  -6   3  184.94    6.09
   7  -6   3   29.43    2.55
   8  -6   3  100.35    4.91
   9  -6   3   73.85    4.91
  10  -6   3   52.94    5.05
  11  -6   3    5.70    5.66
  -6  -5   3   19.92    5.35
  -5  -5   3   38.08    5.25
  -4  -5   3    3.25    3.67
  -3  -5   3   24.54    2.27
  -2  -5   3   48.24    2.62
  -1  -5   3    4.52    1.81
   0  -5   3  470.37   10.74
   1  -5   3  163.68    5.01
   2  -5   3   63.85    2.17
   3  -5   3 1158.60   13.62
   4  -5   3  146.18    3.26
   5  -5   3   26.89    1.42
   6  -5   3  374.21    8.06
   7  -5   3  339.66   12.22
   8  -5   3   29.19    5.55
   9  -5   3   18.45    8.25
  11  -5   3   17.89    9.71
  -6  -4   3    5.64    3.34
  -5  -4   3   22.65    3.87
  -4  -4   3   50.24    2.84
  -3  -4   3   46.83    2.94
  -2  -4   3  418.64    6.40
  -1  -4   3  141.87    3.35
   0  -4   3   13.42    1.27
   1  -4   3 1281.84   14.69
   2  -4   3  273.39    4.81
   3  -4   3  141.03    2.28
   4  -4   3  483.79    6.01
   5  -4   3  439.44    6.07
   6  -4   3   34.61    1.59
   7  -4   3   71.58    2.73
   8  -4   3  374.78    7.47
   9  -4   3   55.08    5.08
  10  -4   3  137.79    7.41
  11  -4   3   28.32    4.82
  -7  -3   3   42.53    5.74
  -6  -3   3   48.12    5.97
  -5  -3   3    4.25    2.44
  -4  -3   3   71.14    5.45
  -3  -3   3  204.84    6.78
  -2  -3   3  185.34    4.04
  -1  -3   3 1487.45   17.00
   0  -3   3 1049.35   14.96
   1  -3   3   30.44    0.94
   2  -3   3 1520.32   16.52
   3  -3   3 1807.51   23.03
   4  -3   3  106.65    1.95
   5  -3   3  134.25    3.90
   6  -3   3  498.48   17.84
   7  -3   3   84.95    5.06
   8  -3   3   36.76    5.79
   9  -3   3   69.74   10.21
  10  -3   3   46.69    6.70
  11  -3   3   63.08   13.84
  -9  -2   3   26.64   10.25
  -8  -2   3   27.83    5.96
  -7  -2   3   13.22    2.70
  -6  -2   3   97.90    4.73
  -5  -2   3  113.70    4.51
  -4  -2   3   26.05    1.98
  -3  -2   3  893.13   11.79
  -2  -2   3  298.18    8.08
  -1  -2   3   68.20    1.27
   0  -2   3  791.11   13.75
   1  -2   3 2305.63   39.72
   2  -2   3    2.77    0.53
   3  -2   3  681.53    7.49
   4  -2   3  548.82   12.75
   5  -2   3   56.14    1.58
   6  -2   3  174.10    5.25
   7  -2   3  288.80   11.73
   8  -2   3   90.83    3.36
   9  -2   3  142.31    8.21
  10  -2   3   43.46    7.63
  -9  -1   3   11.51    7.01
  -8  -1   3   21.10    4.25
  -7  -1   3   14.76    4.84
  -6  -1   3   30.57    4.25
  -5  -1   3  389.20    8.07
  -4  -1   3  154.42    4.10
  -3  -1   3   78.13    1.70
  -2  -1   3 1524.59   18.24
  -1  -1   3 2323.63   31.56
   0  -1   3   10.45    0.56
   1  -1   3  900.84    9.71
   2  -1   3 2813.74   26.38
   3  -1   3  168.37    2.50
   4  -1   3  115.65    2.64
   5  -1   3  361.43    8.86
   6  -1   3  238.36    8.84
   7  -1   3   45.95    8.02
   8  -1   3   21.61    5.44
   9  -1   3   29.66    6.08
  10  -1   3   14.05    7.29
 -10   0   3    7.66    3.77
  -9   0   3    5.13    2.25
  -8   0   3    3.78    1.67
  -7   0   3  176.10    5.34
  -6   0   3  162.81    4.98
  -5   0   3   20.69    1.53
  -4   0   3  494.37    7.89
  -3   0   3 1722.93   21.77
  -2   0   3    3.42    0.43
  -1   0   3  913.50   16.41
   0   0   3  138.79    1.87
   1   0   3   39.98    0.80
   2   0   3  343.17    4.62
   3   0   3  802.11    9.29
   4   0   3   72.42    1.80
   5   0   3   93.27    2.82
   6   0   3  193.22    5.12
   7   0   3  112.51    3.94
   8   0   3  137.43    7.62
   9   0   3   32.46    4.19
  10   0   3   29.43    5.00
 -10   1   3    9.65    5.05
  -9   1   3   44.40   10.53
  -8   1   3  118.72   17.10
  -7   1   3    7.01    3.72
  -6   1   3  419.74   15.59
  -5   1   3  325.07   10.94
  -4   1   3  104.92    2.27
  -3   1   3  634.97    7.93
  -2   1   3 2947.06   30.05
  -1   1   3   43.77    0.83
   0   1   3   37.41    0.82
   1   1   3 1376.06   12.63
   2   1   3  583.82    6.14
   3   1   3  143.45    2.77
   4   1   3   91.84    4.13
   5   1   3  106.42    7.93
   6   1   3  395.44   10.94
   7   1   3   11.68    4.04
   8   1   3   31.86    5.49
   9   1   3   40.96    9.13
 -11   2   3   10.54    4.21
 -10   2   3   29.93    4.64
  -9   2   3    0.00    2.11
  -8   2   3  123.06    4.32
  -7   2   3  419.58   11.05
  -6   2   3   26.93    1.47
  -5   2   3  224.76    8.57
  -4   2   3  801.65   12.40
  -3   2   3  160.62    2.70
  -2   2   3  457.39   18.79
  -1   2   3 1513.89   19.26
   0   2   3   88.24    2.59
   1   2   3  132.27   11.58
   2   2   3   43.61    2.27
   3   2   3  306.76    5.44
   4   2   3  243.91   12.80
   5   2   3   46.38    2.43
   6   2   3  196.06    4.44
   7   2   3  135.93   16.28
   8   2   3   22.87    6.57
 -11   3   3    6.62    4.08
 -10   3   3   54.35    8.29
  -8   3   3   23.93    3.45
  -7   3   3   68.83    7.47
  -6   3   3  474.59   17.42
  -5   3   3   28.41    1.75
  -4   3   3  164.97    3.48
  -3   3   3  899.28   11.25
  -2   3   3  542.34    5.90
  -1   3   3  157.95    3.57
   0   3   3   23.58    1.58
   1   3   3  532.78    6.31
   2   3   3 1324.90   33.83
   3   3   3   44.50    6.75
   4   3   3   48.12    3.14
   5   3   3  190.32   10.15
   7   3   3   14.61    4.32
   8   3   3   23.07   12.41
 -11   4   3   32.82    5.96
 -10   4   3   15.06    4.27
  -9   4   3   43.51    3.78
  -8   4   3  369.12    8.41
  -7   4   3  201.36    5.58
  -6   4   3  100.07    4.46
  -5   4   3  765.26   10.04
  -4   4   3   74.14    3.02
  -3   4   3  248.90    4.57
  -2   4   3   61.45    1.33
  -1   4   3  389.35    5.74
   0   4   3  256.98    4.07
   1   4   3   10.19    1.14
   2   4   3  105.83    3.43
   3   4   3  242.91    5.67
   4   4   3  148.72    5.61
   5   4   3    4.94    4.92
   6   4   3  170.20   17.02
 -11   5   3    8.37    4.85
 -10   5   3  159.05   15.00
  -9   5   3   20.04    4.82
  -8   5   3   29.66    4.37
  -7   5   3  374.43   13.44
  -6   5   3  100.21    9.21
  -5   5   3   64.97    4.05
  -4   5   3   32.02    2.79
  -3   5   3  658.85    8.76
  -2   5   3  796.27   11.13
  -1   5   3   58.57    2.34
   0   5   3   32.52    1.98
   1   5   3  562.31   10.01
   2   5   3  388.47    7.08
   3   5   3   14.57    2.43
   4   5   3  142.43    8.81
   5   5   3   82.98    6.60
   6   5   3    0.31    6.49
 -11   6   3   23.20    6.22
 -10   6   3   54.89    6.28
  -9   6   3  166.34    5.97
  -8   6   3   91.90    4.34
  -7   6   3  183.01    7.00
  -6   6   3  273.21    7.28
  -5   6   3  156.49    6.52
  -4   6   3  294.31    6.10
  -3   6   3   17.33    1.49
  -2   6   3   99.49    4.42
  -1   6   3  399.37    9.30
   0   6   3  321.30    6.34
   1   6   3   72.26    4.13
   2   6   3  162.37    6.95
   3   6   3   89.85    9.58
   4   6   3    7.20    5.57
   5   6   3   47.89    8.98
  -9   7   3  151.19   20.60
  -8   7   3   27.77    6.02
  -7   7   3  120.16    6.51
  -6   7   3  121.65    7.31
  -5   7   3   37.10    2.85
  -4   7   3   91.36    5.72
  -3   7   3  353.87    7.69
  -2   7   3  292.38    6.03
  -1   7   3   44.18    3.90
   0   7   3  216.51    7.08
   1   7   3  239.25    6.78
   2   7   3   10.57    3.65
   3   7   3   62.38    5.68
   4   7   3   55.69   12.55
 -11   8   3   12.27    7.39
 -10   8   3  154.51    8.71
  -9   8   3   71.69    4.72
  -8   8   3  114.41    5.76
  -7   8   3   13.96    3.45
  -6   8   3  126.94    6.99
  -5   8   3  214.66    7.57
  -4   8   3  157.93    7.20
  -3   8   3    0.00    2.58
  -2   8   3  196.69    6.62
  -1   8   3  157.15    9.08
   0   8   3   28.62    5.24
   1   8   3   73.62    7.31
   2   8   3  105.57   13.64
   3   8   3    9.97    5.19
  -9   9   3   16.77    8.21
  -8   9   3   21.46    3.74
  -7   9   3  179.24    6.59
  -6   9   3   84.84    6.48
  -5   9   3   24.87    3.51
  -4   9   3  116.98    6.96
  -3   9   3   96.51    5.46
  -2   9   3    4.35    4.12
  -1   9   3   81.08    8.90
   0   9   3  113.85    7.34
   1   9   3    5.66    6.03
 -10  10   3   56.69   12.95
  -9  10   3   42.80   10.59
  -8  10   3    0.00   10.52
  -7  10   3   40.01    4.38
  -6  10   3  122.97   12.56
  -5  10   3  120.81   11.90
  -4  10   3   21.93    5.57
  -3  10   3   57.19    7.49
  -2  10   3  101.69   12.65
  -1  10   3    7.06    5.80
   0  10   3   50.19    9.12
  -8  11   3    0.00   12.14
  -7  11   3   16.51   11.27
  -6  11   3    0.00    5.44
  -5  11   3   59.91    9.13
  -4  11   3   46.61   10.01
  -3  11   3    0.00    7.49
   2 -11   4  187.50   13.85
   3 -11   4   77.04    8.64
   4 -11   4  140.68    8.27
   5 -11   4   78.98    7.22
   6 -11   4   95.80    5.58
   7 -11   4  127.39    6.56
   8 -11   4   28.84    7.94
   9 -11   4    0.00   10.78
   0 -10   4  203.20   13.22
   1 -10   4  112.53   12.62
   2 -10   4   48.23    6.65
   3 -10   4  194.49   13.73
   4 -10   4   89.90    8.68
   5 -10   4  185.52   18.51
   6 -10   4  109.47   16.27
   7 -10   4   41.42    7.55
   8 -10   4  277.50   13.15
   9 -10   4    0.00    9.33
  -2  -9   4  153.56   14.10
  -1  -9   4  109.67    8.43
   0  -9   4  135.91    8.41
   1  -9   4  165.08    7.37
   2  -9   4   58.20    9.01
   3  -9   4  321.03   14.03
   4  -9   4   91.72    5.49
   5  -9   4   71.62    5.49
   6  -9   4  183.37    7.15
   7  -9   4   41.83    4.75
   8  -9   4  257.31    8.86
   9  -9   4  385.07   10.93
  10  -9   4    0.00    9.27
  -3  -8   4   71.74   10.15
  -2  -8   4   59.62    7.63
  -1  -8   4  113.04    9.62
   1  -8   4  221.32   10.73
   2  -8   4  414.13    8.73
   3  -8   4  175.12    5.94
   4  -8   4  510.33   13.42
   5  -8   4   76.32    4.36
   6  -8   4  271.93    8.82
   7  -8   4  707.77   19.78
   8  -8   4    7.82    5.29
   9  -8   4  336.42   12.73
  10  -8   4  339.97   11.32
  11  -8   4   39.23    6.35
  -4  -7   4  170.63   18.10
  -3  -7   4  212.47    8.71
  -2  -7   4   39.21    4.17
  -1  -7   4  321.40    8.59
   0  -7   4  230.12    6.30
   1  -7   4  197.25    6.06
   2  -7   4  464.34    9.43
   3  -7   4   44.82    2.43
   4  -7   4  549.30    9.07
   5  -7   4 1182.81   22.06
   6  -7   4   56.42    3.00
   7  -7   4  790.76   16.17
   8  -7   4  546.45   12.46
   9  -7   4    9.70    5.29
  10  -7   4  464.30   23.04
  -5  -6   4   73.83   11.10
  -4  -6   4   40.44    4.22
  -3  -6   4  225.08   18.65
  -2  -6   4  324.90    9.79
  -1  -6   4  334.77    8.87
   0  -6   4  562.91   10.53
   1  -6   4   46.71    2.69
   2  -6   4  396.11    6.87
   3  -6   4  912.51   13.77
   4  -6   4   14.57    1.80
   5  -6   4  780.99   10.83
   6  -6   4 1214.06   16.76
   7  -6   4   18.39    2.09
   8  -6   4 1222.50   21.66
   9  -6   4  386.59   10.22
  10  -6   4    2.56    2.94
  11  -6   4  326.10   17.99
  -6  -5   4   94.01   11.17
  -5  -5   4  114.93    7.43
  -4  -5   4  119.29    7.24
  -3  -5   4  105.08    4.90
  -2  -5   4  555.43   12.03
  -1  -5   4   47.65    2.47
   0  -5   4  511.50   13.19
   1  -5   4 1951.67   31.83
   2  -5   4  120.20    2.45
   3  -5   4 2808.72   34.09
   4  -5   4 1142.73   24.20
   5  -5   4   62.47    2.31
   6  -5   4 1715.22   28.85
   7  -5   4  566.50   17.67
   8  -5   4   11.85    4.49
   9  -5   4  762.13   47.20
  -6  -4   4   77.51    5.56
  -5  -4   4  140.26    7.58
  -4  -4   4  650.90   14.22
  -3  -4   4   83.34    3.21
  -2  -4   4  411.56    7.45
  -1  -4   4 1048.21   16.56
   0  -4   4   17.09    1.14
   1  -4   4 2062.68   21.02
   2  -4   4 2274.83   28.59
   3  -4   4   32.49    1.20
   4  -4   4 4291.56   42.09
   5  -4   4 2073.28   28.42
   6  -4   4   33.89    1.56
   7  -4   4 1435.19   18.22
   8  -4   4  312.13   10.84
   9  -4   4   17.25    3.11
  10  -4   4  656.72   20.80
  11  -4   4   79.05    8.40
  -7  -3   4   47.12    4.70
  -6  -3   4  213.50    9.09
  -5  -3   4  105.99    4.42
  -4  -3   4  382.74    8.41
  -3  -3   4 1081.87   14.68
  -2  -3   4  207.18    3.90
  -1  -3   4 2208.46   28.06
   0  -3   4 2347.21   26.15
   1  -3   4  164.42    2.48
   2  -3   4 4428.20   47.66
   3  -3   4 1800.57   17.64
   4  -3   4   45.68    1.55
   5  -3   4 5247.07   61.35
   6  -3   4  376.09   11.55
   7  -3   4   42.96    4.12
   8  -3   4 1030.12   30.50
   9  -3   4   96.15   19.91
  10  -3   4    7.48    5.02
  11  -3   4  167.61   18.23
  -8  -2   4  260.88   10.55
  -7  -2   4  102.37    4.71
  -6  -2   4  186.56    5.31
  -5  -2   4  983.87   15.65
  -4  -2   4   14.17    1.22
  -3  -2   4 2241.57   22.06
  -2  -2   4 1922.44   21.28
  -1  -2   4  119.50    2.35
   0  -2   4 5921.91  120.15
   1  -2   4 2441.91   27.67
   2  -2   4  504.63    5.05
   3  -2   4 4621.06   39.95
   4  -2   4  459.52    4.93
   5  -2   4  461.35    6.19
   6  -2   4 2573.88   33.17
   7  -2   4  179.76    4.25
   8  -2   4   22.15    3.08
   9  -2   4  684.32   19.54
  10  -2   4   54.06    4.83
  -9  -1   4   12.07    7.16
  -8  -1   4  158.74   10.15
  -7  -1   4  419.63   19.20
  -6  -1   4   97.78    6.51
  -5  -1   4  795.15   22.81
  -4  -1   4 1675.21   25.71
  -3  -1   4   47.09    1.56
  -2  -1   4 3527.87   47.85
  -1  -1   4 2396.26   31.74
   0  -1   4  254.68    4.06
   2  -1   4  697.94    6.86
   3  -1   4   87.85    1.79
   4  -1   4 5387.37   68.61
   5  -1   4   36.40    2.24
   6  -1   4   35.51    3.33
   7  -1   4  981.04   24.66
   8  -1   4   22.03    4.71
   9  -1   4   81.93    8.51
  10  -1   4  230.24   21.67
 -10   0   4   50.05    4.88
  -9   0   4  379.75   13.31
  -8   0   4   16.64    2.29
  -7   0   4  652.82   14.13
  -6   0   4 1219.92   22.03
  -5   0   4   46.62    2.20
  -4   0   4 3866.38   55.11
  -3   0   4 1755.30   24.50
  -2   0   4  451.86    7.44
   0   0   4  816.73    9.17
   1   0   4  794.29    9.66
   2   0   4 9107.92  256.18
   3   0   4  416.96    5.71
   4   0   4   25.75    1.24
   5   0   4 2749.88   37.03
   6   0   4   82.31    3.12
   7   0   4   45.66    2.47
   8   0   4  703.16   22.04
   9   0   4   11.30    2.93
  10   0   4   37.13   13.16
  -9   1   4  318.10   23.25
  -8   1   4  776.20   28.19
  -7   1   4   13.49    9.37
  -6   1   4 1348.68   42.71
  -5   1   4 1518.88   32.45
  -4   1   4   50.72    1.84
  -3   1   4 4717.47   54.52
  -2   1   4  736.01    8.32
  -1   1   4  784.44    8.04
   1   1   4  114.25    1.84
   2   1   4   32.96    1.07
   3   1   4 4501.54   61.42
   4   1   4   74.06    3.06
   5   1   4  173.85    8.43
   6   1   4  969.37   33.87
   7   1   4  123.62    8.14
   8   1   4   77.74    7.64
   9   1   4  160.93   20.86
 -10   2   4  334.99   10.79
  -9   2   4    0.10    2.71
  -8   2   4  823.09   14.68
  -7   2   4  691.00   11.98
  -6   2   4   42.80    3.56
  -5   2   4 5561.21   56.16
  -4   2   4  481.80    5.32
  -3   2   4  166.88    3.44
  -1   2   4  166.09    2.12
   0   2   4   18.49    0.82
   1   2   4 5214.14   47.51
   2   2   4   44.20    1.35
   3   2   4   50.69    1.82
   4   2   4 1609.75   23.43
   5   2   4   54.89    2.25
   6   2   4   41.03    2.39
   7   2   4  282.72   16.16
   8   2   4   40.32    6.71
 -11   3   4   35.59    8.90
 -10   3   4  396.15   26.26
  -8   3   4    4.82    3.19
  -7   3   4 1269.58   41.22
  -6   3   4  511.70   18.66
  -5   3   4  192.82    6.03
  -4   3   4 4494.17   58.12
  -3   3   4  422.12    5.52
  -2   3   4   57.45    1.49
  -1   3   4 5977.62   53.76
   0   3   4   12.60    1.08
   1   3   4   85.00    2.60
   2   3   4 2140.54   26.04
   3   3   4  135.76    6.06
   4   3   4  255.36    7.54
   5   3   4  461.97   11.48
   6   3   4  110.84   14.07
   7   3   4   78.87    6.53
   8   3   4   82.32   11.38
 -11   4   4  158.14   15.64
 -10   4   4   11.31    3.22
  -9   4   4  946.53   28.85
  -8   4   4  476.02    9.05
  -7   4   4    0.00    3.61
  -6   4   4 2500.93   30.81
  -5   4   4   32.18    1.47
  -4   4   4   17.94    4.02
  -3   4   4 5409.87   55.32
  -2   4   4   87.16    1.88
  -1   4   4  149.84    4.35
   0   4   4 2475.20   24.42
   1   4   4  324.33    5.28
   2   4   4  164.47    5.21
   3   4   4  936.43   18.51
   4   4   4   75.93    4.30
   5   4   4   75.84   11.89
   6   4   4  307.89   26.83
 -11   5   4  261.06   21.16
 -10   5   4  228.25   18.47
  -9   5   4   35.59    6.43
  -8   5   4 1087.32   38.35
  -7   5   4  222.60   11.68
  -6   5   4   80.37    6.38
  -5   5   4 2929.42   45.79
  -4   5   4  114.14    2.74
  -3   5   4   46.28    3.56
  -2   5   4 1875.67   21.64
  -1   5   4  108.76    2.88
   0   5   4  209.03    6.34
   1   5   4 1280.42   22.73
   2   5   4  122.84    4.40
   3   5   4  111.30    4.63
   4   5   4  276.00   12.60
   5   5   4  172.85   11.77
   6   5   4   34.24   11.76
 -11   6   4    4.41    4.71
 -10   6   4  529.33   13.62
  -9   6   4   54.21    3.59
  -8   6   4   76.11    3.64
  -7   6   4 1504.63   25.67
  -6   6   4   90.93    3.39
  -5   6   4  143.37    4.32
  -4   6   4 1735.18   23.94
  -3   6   4   70.11    2.97
  -2   6   4  127.93    4.29
  -1   6   4 1041.51   14.81
   0   6   4  106.45    4.05
   1   6   4   81.49    4.50
   2   6   4  346.74    9.01
   3   6   4  267.81   14.38
   4   6   4  148.87   11.40
   5   6   4  177.03   13.42
  -8   7   4   76.50    7.26
  -7   7   4   41.42    6.26
  -6   7   4  851.14   14.16
  -5   7   4   35.47    2.46
  -4   7   4  169.62    4.85
  -3   7   4 1414.28   19.82
  -2   7   4  181.01    4.55
  -1   7   4  100.38    5.45
   0   7   4  512.83    9.03
   1   7   4  258.24    6.74
   2   7   4  115.89    5.48
   3   7   4  170.47    7.08
   4   7   4  126.50   18.24
 -11   8   4  262.05   14.30
 -10   8   4   80.19    8.06
  -9   8   4   53.06    5.82
  -8   8   4  787.02   21.95
  -7   8   4   96.34    6.40
  -6   8   4   45.91    3.36
  -5   8   4  545.90   15.27
  -4   8   4   67.78    6.35
  -3   8   4  116.94    4.92
  -2   8   4  247.76   12.85
  -1   8   4  413.53   13.81
   0   8   4  260.02   12.78
   1   8   4  333.84   20.43
   2   8   4  266.03   23.62
   3   8   4   44.65   12.31
  -8   9   4   89.26    5.98
  -7   9   4  435.43   12.31
  -6   9   4  172.04    9.88
  -5   9   4   98.26    5.07
  -4   9   4  369.52   13.92
  -3   9   4  155.64    7.73
  -2   9   4  108.65    7.27
  -1   9   4  269.08   14.79
   0   9   4  177.58    7.82
   1   9   4   35.83    5.81
  -9  10   4  191.06   20.21
  -8  10   4   10.01    7.18
  -7  10   4   59.71    5.74
  -6  10   4  218.61   14.19
  -5  10   4  185.43   18.34
  -4  10   4  159.96   11.57
  -3  10   4  211.18   13.96
  -2  10   4  272.16   17.03
  -1  10   4   21.88    7.92
  -8  11   4  119.10   12.17
  -7  11   4   90.43   12.63
  -6  11   4   55.85   12.66
  -5  11   4  248.67   16.15
  -4  11   4  185.64   14.31
  -3  11   4   26.09    8.24
   2 -11   5   70.20    9.69
   3 -11   5    0.00    8.98
   4 -11   5   95.75    8.74
   5 -11   5  123.90    7.89
   6 -11   5   20.47    5.63
   7 -11   5   42.51    6.53
   8 -11   5   58.70    7.46
   0 -10   5   26.64    6.88
   1 -10   5    3.98    3.88
   2 -10   5   78.34    9.04
   3 -10   5  122.11   10.73
   4 -10   5    9.96    6.02
   5 -10   5  185.17   20.13
   7 -10   5   46.47   12.85
   8 -10   5  101.92    9.63
   9 -10   5   76.98   11.43
  10 -10   5   57.84   17.04
  -2  -9   5   67.44   11.08
  -1  -9   5    0.40    5.23
   0  -9   5  182.86    7.86
   1  -9   5  225.19    9.44
   2  -9   5   30.94    6.49
   3  -9   5  237.83    8.60
   4  -9   5  212.58    8.59
   5  -9   5   72.04    4.93
   6  -9   5  108.02    5.22
   7  -9   5  133.86    5.10
   8  -9   5   89.61    4.53
   9  -9   5   85.92    5.00
  10  -9   5    4.29    8.74
  -2  -8   5  104.44    9.19
  -1  -8   5  233.28   13.64
   0  -8   5   41.69   10.70
   1  -8   5  219.10    7.78
   2  -8   5  246.17    8.37
   3  -8   5  104.05    4.27
   4  -8   5  474.05    9.80
   5  -8   5  302.03    6.85
   6  -8   5  204.74    6.21
   7  -8   5  159.02    7.52
   8  -8   5  116.60    8.28
   9  -8   5  145.97    7.72
  10  -8   5    0.00    3.70
  11  -8   5    1.18    5.03
  -4  -7   5  118.51   17.64
  -3  -7   5  108.47    6.50
  -2  -7   5    8.47    3.95
  -1  -7   5  365.59   10.87
   0  -7   5  412.46    8.51
   1  -7   5  218.09    7.09
   2  -7   5  624.83   16.69
   3  -7   5  667.95    9.95
   4  -7   5  140.34    5.22
   5  -7   5  178.29   10.47
   6  -7   5  159.21    5.14
   7  -7   5  142.17    5.91
   8  -7   5   35.02    6.20
   9  -7   5   72.45    8.45
  10  -7   5   84.31   17.97
  -5  -6   5   72.72   11.13
  -4  -6   5    0.00    3.83
  -3  -6   5  120.22   17.12
  -2  -6   5  313.77    9.40
  -1  -6   5  158.59    8.08
   0  -6   5  816.11   18.96
   1  -6   5  669.40   11.65
   2  -6   5  307.47    6.62
   3  -6   5  357.53   19.48
   4  -6   5  458.99    7.74
   5  -6   5  282.32    6.86
   6  -6   5   20.05    6.76
   7  -6   5  158.07    4.37
   8  -6   5  216.82    8.14
   9  -6   5    4.40    5.54
  10  -6   5   34.70    3.77
  11  -6   5    9.28    7.66
  -6  -5   5   14.93    8.38
  -5  -5   5  161.39    7.54
  -4  -5   5  248.59    8.93
  -3  -5   5   79.70    3.00
  -2  -5   5  705.34   12.37
  -1  -5   5  880.97   14.40
   0  -5   5  225.43    5.12
   1  -5   5  532.24    8.52
   2  -5   5  795.80   11.25
   3  -5   5 1187.09   16.62
   4  -5   5  230.13    4.93
   5  -5   5  111.40    3.37
   6  -5   5  104.71    7.21
   7  -5   5    0.00    3.68
   8  -5   5   33.56    4.66
  -6  -4   5  200.25    7.51
  -5  -4   5   66.09    4.91
  -4  -4   5  516.75   12.08
  -3  -4   5  414.18    8.01
  -2  -4   5  507.44    8.19
  -1  -4   5  252.02    7.24
   0  -4   5  519.35    7.21
   1  -4   5  569.96    7.85
   2  -4   5   14.49    1.05
   3  -4   5  738.59   10.15
   4  -4   5  195.60    3.79
   5  -4   5   10.09    1.02
   6  -4   5   58.49    2.03
   7  -4   5   94.84    4.21
   8  -4   5   75.45    3.63
   9  -4   5   10.39    3.39
  10  -4   5   20.09    6.11
  11  -4   5   12.51    8.15
  -8  -3   5   43.77    8.67
  -7  -3   5   65.41   11.40
  -6  -3   5  194.67    8.39
  -5  -3   5  346.82    7.81
  -4  -3   5  159.67   10.38
  -3  -3   5  325.56    6.96
  -2  -3   5 1210.78   16.45
  -1  -3   5  977.33   19.47
   0  -3   5  426.28    6.18
   1  -3   5  600.71    7.03
   2  -3   5   43.00    1.64
   3  -3   5   90.03    1.64
   4  -3   5  282.97    4.43
   5  -3   5  137.83    4.59
   6  -3   5   17.75    2.70
   7  -3   5   17.63    4.12
   8  -3   5    6.68    3.79
   9  -3   5   34.33    9.79
  10  -3   5    0.00    5.15
  -9  -2   5   20.06    3.70
  -8  -2   5  101.47    6.90
  -7  -2   5  120.20    4.20
  -6  -2   5  309.52    8.86
  -5  -2   5  126.96    5.42
  -4  -2   5  441.42    6.91
  -3  -2   5  674.79   21.12
  -2  -2   5    4.78    1.97
  -1  -2   5  466.15    6.33
   0  -2   5  733.98   33.78
   1  -2   5   44.33    1.29
   2  -2   5    9.80    0.62
   3  -2   5  280.12   15.24
   4  -2   5   28.88    1.06
   5  -2   5   94.72    2.04
   6  -2   5   55.00    6.54
   7  -2   5   22.87    2.14
   8  -2   5   21.91    2.47
   9  -2   5   49.63    6.43
  10  -2   5    8.54    3.17
  -8  -1   5  109.18    6.89
  -7  -1   5   83.85    6.25
  -6  -1   5  275.48   12.49
  -5  -1   5  292.59    8.70
  -4  -1   5  384.86    6.96
  -3  -1   5  614.76   10.26
  -2  -1   5   90.93    2.42
  -1  -1   5   34.41    1.37
   0  -1   5  969.15   13.18
   1  -1   5   25.97    0.83
   2  -1   5   18.36    0.74
   3  -1   5  317.07    4.32
   4  -1   5   32.37    1.57
   5  -1   5  142.17    5.21
   6  -1   5   48.36    4.76
   7  -1   5   30.47    6.85
   8  -1   5   14.41    4.40
   9  -1   5    4.84    5.02
  10  -1   5   42.98   13.88
 -10   0   5   45.29    5.78
  -9   0   5   99.93    7.07
  -8   0   5  141.37    5.25
  -7   0   5  167.69    5.82
  -6   0   5   31.64    2.14
  -5   0   5  147.79    4.01
  -4   0   5  232.49    4.50
  -3   0   5   61.13    1.64
  -2   0   5   11.03    0.86
  -1   0   5   39.85    1.10
   0   0   5   56.94    1.13
   1   0   5   49.66    1.12
   2   0   5  227.27    3.33
   3   0   5    4.81    0.57
   4   0   5   30.28    1.28
   5   0   5   39.15    1.88
   6   0   5    7.01    1.44
   7   0   5   15.90    1.98
   8   0   5   20.95    3.15
   9   0   5   16.28    3.63
  -9   1   5   86.94   10.41
  -8   1   5   77.15   10.08
  -7   1   5  149.92   10.79
  -6   1   5  204.31    9.02
  -5   1   5   24.33    2.77
  -4   1   5  520.81    9.00
  -3   1   5  157.70    3.00
  -2   1   5   30.22    0.88
  -1   1   5   64.55    1.36
   0   1   5  170.40    2.48
   1   1   5    6.67    0.68
   2   1   5  225.95    3.28
   3   1   5  238.65    4.17
   4   1   5  103.97    4.25
   5   1   5   19.45    2.81
   6   1   5   16.45    7.04
   7   1   5   73.31    6.97
   8   1   5   42.31    7.03
 -10   2   5   11.35    3.53
  -9   2   5   93.00    4.68
  -8   2   5  109.41    6.53
  -7   2   5   16.89    1.66
  -6   2   5   47.63    4.26
  -5   2   5  286.97    6.62
  -4   2   5   15.77    1.37
  -3   2   5   51.43    7.16
  -2   2   5  229.92    6.91
  -1   2   5    5.30    1.09
   0   2   5  296.64    5.92
   1   2   5   17.17    5.58
   2   2   5  250.92    5.05
   3   2   5   15.03    1.81
   4   2   5   62.56    6.38
   5   2   5   69.75    3.63
   6   2   5   26.76    2.58
   7   2   5    0.00    7.59
   8   2   5    0.00    6.01
 -11   3   5   11.93    5.32
 -10   3   5  134.87   13.54
  -9   3   5   30.92    7.46
  -8   3   5   60.39    5.16
  -7   3   5   43.16    4.86
  -6   3   5   20.50    2.61
  -5   3   5   81.67    4.09
  -4   3   5   21.34    1.79
  -3   3   5    5.00    0.73
  -2   3   5  261.81    4.89
  -1   3   5  174.79    4.20
   0   3   5   14.46    0.98
   1   3   5   85.02    3.27
   2   3   5  405.50    8.88
   3   3   5   62.45    5.27
   4   3   5  111.24    5.88
   5   3   5   22.20    6.41
   6   3   5   46.11    9.68
   7   3   5    0.00    5.88
   8   3   5   49.25   12.09
 -10   4   5   56.13    4.26
  -9   4   5  122.23   10.12
  -8   4   5   51.08    2.34
  -7   4   5    4.46    1.67
  -6   4   5   78.54    2.84
  -5   4   5  167.75    4.75
  -4   4   5   16.72    4.48
  -3   4   5  203.30    3.31
  -2   4   5  252.77    4.46
  -1   4   5   79.79    4.19
   0   4   5  287.15    4.53
   1   4   5  188.37    3.51
   2   4   5   29.26    3.06
   3   4   5   36.08    5.31
   4   4   5   43.99    3.27
   6   4   5   44.98   11.56
 -11   5   5   19.22    7.12
 -10   5   5   30.94    7.35
  -8   5   5    6.68    2.37
  -7   5   5   28.41    3.60
  -6   5   5   30.51    3.92
  -5   5   5   44.78    2.92
  -4   5   5  146.04    3.71
  -3   5   5   61.64    5.81
  -2   5   5  397.78    5.82
  -1   5   5   23.78    3.02
   0   5   5   88.13    4.34
   1   5   5   21.40    4.35
   2   5   5   66.96    4.47
   3   5   5    0.00    4.51
   4   5   5   27.69    8.29
   5   5   5   14.52    4.01
   6   5   5    4.89    8.60
 -11   6   5    0.00    4.06
 -10   6   5   66.52    4.73
  -9   6   5   39.75    7.82
  -8   6   5   39.65    2.46
  -7   6   5   34.51    3.92
  -6   6   5    0.00    3.35
  -5   6   5   64.43    3.08
  -4   6   5   60.82    7.24
  -3   6   5  175.43    4.34
  -2   6   5    0.00    2.19
  -1   6   5   33.93    7.01
   0   6   5  220.07    5.89
   1   6   5    9.96    4.86
   2   6   5  117.24   11.02
   3   6   5   10.78    7.93
   4   6   5   52.02    8.84
   5   6   5   81.59    9.76
  -7   7   5   22.99    6.13
  -6   7   5   14.73    4.17
  -5   7   5    9.62    4.25
  -4   7   5   13.14    2.68
  -3   7   5   85.27    6.70
  -2   7   5  126.94    4.18
  -1   7   5   77.00    3.62
   0   7   5   69.77    8.59
   1   7   5    5.80    2.58
   2   7   5    8.97    5.21
   3   7   5   51.90    7.19
   4   7   5   12.16    6.77
 -11   8   5   18.12    6.67
 -10   8   5   13.59    4.31
  -9   8   5    0.00    6.72
  -8   8   5   23.32    5.21
  -7   8   5   58.58    3.90
  -6   8   5   11.85    2.82
  -5   8   5   40.98    7.60
  -4   8   5   65.66    5.97
  -3   8   5   13.39    2.59
  -2   8   5   13.68    4.16
  -1   8   5   11.23    4.26
   0   8   5    2.58    3.14
   1   8   5  142.31   11.16
   2   8   5   14.08    9.96
 -10   9   5   39.64   11.55
  -9   9   5    5.83    6.74
  -8   9   5   15.49    4.47
  -7   9   5   31.75    4.30
  -6   9   5   67.95    6.30
  -5   9   5   20.01    3.42
  -4   9   5   82.37    5.97
  -3   9   5   12.48    3.47
  -2   9   5   10.55    3.53
  -1   9   5   69.20    6.62
   0   9   5   18.79    4.32
   1   9   5    8.02    5.65
  -9  10   5   61.23   15.20
  -8  10   5    0.00   10.79
  -7  10   5   25.57    5.90
  -6  10   5   29.52    7.65
  -5  10   5    9.32    7.79
  -4  10   5    1.39    6.77
  -3  10   5   51.89    7.37
  -2  10   5    3.46    4.86
  -1  10   5    5.91    5.23
  -8  11   5   49.20   11.25
  -7  11   5    0.51    7.78
  -6  11   5    0.00   10.28
  -5  11   5   21.88   11.59
  -4  11   5   45.88   13.68
   2 -11   6   12.83    9.34
   3 -11   6  239.03   23.01
   4 -11   6  137.54    9.41
   5 -11   6   51.30    6.62
   6 -11   6  292.73   11.18
   7 -11   6  128.26    7.85
   8 -11   6   96.42    6.72
   0 -10   6   55.21    8.25
   1 -10   6  220.44   18.04
   2 -10   6  284.21   13.49
   3 -10   6   82.94    8.82
   4 -10   6  294.32   16.87
   5 -10   6  164.63    9.75
   8 -10   6   72.92   12.30
   9 -10   6  162.30   12.73
  10 -10   6  263.29   23.84
  -2  -9   6    8.51    3.13
  -1  -9   6  202.67   14.39
   0  -9   6  325.89   13.45
   1  -9   6  109.68    6.24
   2  -9   6  729.75   24.87
   3  -9   6  104.70    9.20
   4  -9   6  337.19   11.22
   5  -9   6  755.98   18.92
   6  -9   6   63.99    7.09
   7  -9   6  107.55    5.44
   8  -9   6  233.84    8.69
   9  -9   6   90.70    6.22
  10  -9   6   75.64   13.14
  -2  -8   6  315.74   19.79
  -1  -8   6  146.50    9.09
   0  -8   6  232.77   21.18
   1  -8   6   74.95    8.30
   2  -8   6  205.91    6.62
   3  -8   6  629.62   11.76
   4  -8   6  164.63    9.67
   5  -8   6  386.39    9.92
   6  -8   6  563.11   15.08
   7  -8   6   50.74    7.86
   8  -8   6  205.95    9.24
   9  -8   6  142.06    6.73
  10  -8   6    6.95    4.68
  11  -8   6   50.04    6.40
  -4  -7   6  162.14   18.08
  -3  -7   6  116.56    7.20
  -2  -7   6  595.51   13.91
  -1  -7   6  129.31    5.27
   0  -7   6  213.50    6.94
   1  -7   6 1059.99   17.69
   2  -7   6   80.81    3.06
   3  -7   6  468.76    8.85
   4  -7   6  530.69   10.52
   5  -7   6   44.08    3.50
   6  -7   6  444.87    9.29
   7  -7   6  450.29   10.95
   8  -7   6  118.66    6.57
   9  -7   6   82.07    5.15
  10  -7   6  157.49   12.19
  -5  -6   6   12.85   10.51
  -4  -6   6  398.18   10.79
  -3  -6   6   88.08    7.45
  -2  -6   6  205.25    5.73
  -1  -6   6  742.06   13.47
   0  -6   6  290.93    7.26
   1  -6   6  978.06   13.65
   2  -6   6  731.70   10.74
   3  -6   6   55.41    2.23
   4  -6   6  663.57   15.07
   5  -6   6  672.30   12.46
   6  -6   6   15.49    3.11
   7  -6   6  241.31    5.79
   8  -6   6  302.32    8.93
   9  -6   6  179.35    6.30
  10  -6   6  151.13    5.93
  11  -6   6  172.77   10.24
  -6  -5   6  313.99   25.74
  -5  -5   6  179.75    9.29
  -4  -5   6  208.22    7.22
  -3  -5   6  696.04   15.06
  -2  -5   6   96.17    3.91
  -1  -5   6  719.20   12.18
   0  -5   6 1093.74   26.19
   1  -5   6   14.65    2.01
   2  -5   6  824.83   11.74
   3  -5   6 1452.08   23.61
   4  -5   6  283.59    5.84
   5  -5   6  747.14   11.76
   6  -5   6  446.14   12.11
   7  -5   6  144.37    6.63
   8  -5   6  152.29    6.56
   9  -5   6  344.51   27.55
  -6  -4   6   71.60    5.19
  -5  -4   6  497.03   18.67
  -4  -4   6  131.50    6.38
  -3  -4   6  602.60    9.83
  -2  -4   6  818.28   19.15
  -1  -4   6   28.39    1.84
   0  -4   6 1096.40   13.49
   1  -4   6  888.65   22.79
   2  -4   6  116.81    2.74
   3  -4   6  990.86   16.85
   4  -4   6  618.16   12.90
   5  -4   6  208.12    4.22
   6  -4   6  396.99    6.06
   7  -4   6  997.02   16.88
   8  -4   6  140.33    4.59
   9  -4   6   51.22    4.74
  10  -4   6  255.55   17.93
  11  -4   6  111.67   11.88
  -8  -3   6  106.19   11.27
  -7  -3   6  355.30   14.23
  -6  -3   6  103.29    4.56
  -5  -3   6  359.49    7.93
  -4  -3   6  631.13   10.88
  -3  -3   6   31.17    1.60
  -2  -3   6  552.08    7.87
  -1  -3   6 1345.65   16.76
   0  -3   6   20.88    0.99
   1  -3   6 2316.31   25.79
   2  -3   6 1227.56   14.23
   3  -3   6   12.27    0.87
   4  -3   6  629.21    8.64
   5  -3   6  615.15    9.90
   6  -3   6  559.32   13.08
   7  -3   6  277.73   19.87
   8  -3   6  597.89   20.08
   9  -3   6  217.97   21.25
  10  -3   6   79.72    8.65
  -8  -2   6   64.40    5.27
  -7  -2   6   79.81    4.26
  -6  -2   6  677.29   12.10
  -5  -2   6   38.00    1.92
  -4  -2   6  783.91   10.96
  -3  -2   6  949.61   12.66
  -2  -2   6  163.44    2.97
  -1  -2   6 2626.20   28.96
   0  -2   6 1742.80   19.55
   1  -2   6  202.27    2.35
   2  -2   6 1171.63   11.80
   3  -2   6 2349.74   21.73
   4  -2   6  586.69    6.54
   5  -2   6  151.50    2.57
   6  -2   6 1198.10   14.69
   7  -2   6  244.49    5.78
   8  -2   6   66.10    3.33
   9  -2   6  544.54   18.67
  10  -2   6  103.89    6.33
  -8  -1   6  320.66   15.62
  -7  -1   6   90.09    6.09
  -6  -1   6  294.89   10.75
  -5  -1   6  495.11   13.22
  -4  -1   6   99.69    4.61
  -3  -1   6 1275.61   23.91
  -2  -1   6 1496.02   26.85
  -1  -1   6  206.05    4.83
   0  -1   6 1185.67   17.26
   1  -1   6 1084.11   11.78
   2  -1   6  484.09    6.21
   3  -1   6  771.64    9.66
   4  -1   6 1348.35   19.46
   5  -1   6  554.02   11.22
   6  -1   6  134.92    7.60
   7  -1   6  987.20   24.80
   8  -1   6  166.80   11.54
   9  -1   6   33.70    9.52
  10  -1   6  431.31   33.10
 -10   0   6  235.37   11.79
  -9   0   6  104.52    7.18
  -8   0   6  193.07    5.90
  -7   0   6  397.35    9.60
  -6   0   6   17.28    1.59
  -5   0   6  814.29   14.97
  -4   0   6  555.69    7.84
  -3   0   6    9.83    0.72
  -2   0   6 1167.15   17.80
  -1   0   6  965.98   13.27
   0   0   6  590.52    6.98
   1   0   6  198.89    2.85
   2   0   6 3757.20   40.99
   3   0   6  378.44    5.24
   4   0   6   20.32    1.21
   5   0   6 2645.63   37.33
   6   0   6  136.32    4.67
   7   0   6   42.99    2.74
   8   0   6  729.05   22.02
   9   0   6   91.74    6.79
  -9   1   6  131.95    9.51
  -8   1   6   65.65    9.51
  -7   1   6  349.71   15.29
  -6   1   6  611.80   21.45
  -5   1   6  476.81   14.06
  -4   1   6  626.03   11.72
  -3   1   6 1809.31   26.85
  -2   1   6  387.87    5.28
  -1   1   6  209.91    3.46
   0   1   6 1057.22   12.23
   1   1   6  107.51    3.35
   2   1   6  213.02    4.04
   3   1   6 2598.06   34.69
   4   1   6  472.57   12.75
   5   1   6   71.53    4.66
   6   1   6 1198.12   48.42
   7   1   6   77.06    7.25
   8   1   6   91.03    8.05
 -10   2   6   38.96    3.24
  -9   2   6  108.43    5.02
  -8   2   6  241.17    5.78
  -7   2   6   62.37    2.96
  -6   2   6  464.98    8.62
  -5   2   6  521.59    8.05
  -4   2   6  632.40    8.30
  -3   2   6  892.71   11.52
  -2   2   6 3679.05   35.67
  -1   2   6  423.70    5.34
   0   2   6  142.20    5.85
   1   2   6 5789.66   52.42
   2   2   6  299.08    4.08
   3   2   6  196.04    4.78
   4   2   6 3032.51   46.22
   5   2   6   31.01    2.69
   6   2   6  116.65    5.87
   7   2   6  714.94   19.75
   8   2   6   11.69    5.42
 -11   3   6   62.81    9.19
 -10   3   6  157.52   14.61
  -9   3   6  217.38   16.70
  -8   3   6  170.25    9.35
  -7   3   6  623.96   22.19
  -6   3   6  374.99   12.11
  -5   3   6  125.62    5.73
  -4   3   6 1317.38   17.01
  -3   3   6  436.16    6.59
  -2   3   6  185.67    3.94
  -1   3   6 5512.59   52.35
   0   3   6  878.44    9.73
   1   3   6  182.46    5.67
   2   3   6 2333.51   36.51
   3   3   6   87.53    3.24
   4   3   6   18.45    3.36
   5   3   6 1180.37   27.72
   7   3   6   59.91    6.41
 -10   4   6   98.01    4.87
  -9   4   6  253.85    9.00
  -8   4   6  146.29    4.61
  -7   4   6  479.85    8.11
  -6   4   6 1176.06   21.38
  -5   4   6  296.01    7.86
  -4   4   6   28.79    1.75
  -3   4   6 2125.90   27.18
  -2   4   6  249.36    3.60
  -1   4   6    0.00    4.19
   0   4   6 4612.16   51.98
   1   4   6   14.74    1.34
   2   4   6   65.63    5.40
   3   4   6 2190.77   32.54
   4   4   6    9.54    2.79
   5   4   6   59.17   15.78
   6   4   6  378.98   20.38
 -10   5   6  101.05   14.48
  -8   5   6  518.12   16.66
  -7   5   6  362.92   14.32
  -6   5   6   83.66    4.34
  -5   5   6 2563.78   51.96
  -4   5   6  694.27   11.03
  -3   5   6  365.24    6.80
  -2   5   6 2702.49   30.60
  -1   5   6   16.67    1.25
   0   5   6    0.00    4.54
   1   5   6 2208.07   41.55
   2   5   6   20.98    2.45
   3   5   6   66.08    7.00
   4   5   6  766.74   32.83
   5   5   6    5.12    3.46
   6   5   6   79.42   14.93
 -10   6   6  354.57   10.70
  -9   6   6  266.30   11.58
  -8   6   6  107.90    3.46
  -7   6   6  679.74   13.28
  -6   6   6  150.83    6.53
  -5   6   6  140.06    4.64
  -4   6   6 2805.43   44.71
  -3   6   6  126.81    4.64
  -2   6   6   80.85    2.68
  -1   6   6 2548.26   34.25
   0   6   6   21.84    2.60
   1   6   6   83.86    4.19
   2   6   6  802.22   21.64
   4   6   6  104.73   14.62
   5   6   6  283.39   34.66
  -8   7   6  243.31   10.98
  -7   7   6   42.66    3.99
  -6   7   6 1386.23   30.65
  -5   7   6   60.57    4.95
  -4   7   6   16.72    2.30
  -3   7   6 1899.41   28.11
  -2   7   6   24.28    2.81
  -1   7   6  178.55    4.80
   0   7   6 1021.49   19.47
   1   7   6   41.98    4.06
   2   7   6   78.04    5.57
   3   7   6  411.11   12.70
   4   7   6    5.90    4.32
 -11   8   6  219.81   15.59
 -10   8   6   79.35    6.07
  -9   8   6   84.70    5.75
  -8   8   6  737.24   17.84
  -7   8   6  138.79    7.50
  -6   8   6   60.89    6.70
  -5   8   6 1203.72   24.35
  -4   8   6   38.98    3.76
  -3   8   6   33.56    4.19
  -2   8   6  853.76   18.18
  -1   8   6   58.93    4.78
   0   8   6   23.17    4.23
   1   8   6  424.33   31.59
   2   8   6   13.84   11.05
 -10   9   6  388.80   22.68
  -9   9   6  124.32    9.55
  -8   9   6   30.64    5.55
  -7   9   6  618.39   18.97
  -6   9   6    9.48    4.49
  -5   9   6  129.14    7.51
  -4   9   6  882.24   17.00
  -3   9   6   25.54    3.62
  -2   9   6   78.96    5.93
  -1   9   6  386.15   13.64
   0   9   6    0.27    4.67
   1   9   6  126.12   13.00
  -9  10   6  410.47   20.65
  -8  10   6   25.91    9.49
  -7  10   6   10.27    6.72
  -6  10   6  519.34   34.54
  -5  10   6    0.00    9.10
  -4  10   6   60.28    7.00
  -3  10   6  365.53   27.86
  -1  10   6  129.99   13.45
  -7  11   6    6.92   12.75
  -6  11   6   99.27   10.85
  -5  11   6  190.78   14.72
  -4  11   6    0.00    9.49
   2 -11   7    4.39    3.87
   3 -11   7   82.94   16.81
   4 -11   7    0.00    8.08
   5 -11   7    1.61    5.76
   6 -11   7    9.68    6.54
   7 -11   7    0.00    5.23
   8 -11   7    4.50    5.41
   0 -10   7    3.43    3.46
   2 -10   7   47.87    8.10
   3 -10   7   24.97    5.70
   4 -10   7   38.01   11.16
   5 -10   7    5.46    3.44
   6 -10   7   68.05   10.62
   7 -10   7   20.29    7.49
   8 -10   7   18.91    7.32
   9 -10   7   44.88    9.40
  -2  -9   7    6.23    3.16
  -1  -9   7   26.04   12.37
   0  -9   7    8.05    3.58
   1  -9   7   22.95    3.73
   2  -9   7  113.73    6.66
   3  -9   7   27.09    6.15
   4  -9   7   33.00    4.73
   5  -9   7   48.66    4.17
   6  -9   7   34.56    3.96
   7  -9   7  107.43    5.88
   8  -9   7    0.00    2.86
   9  -9   7    0.00    4.48
  10  -9   7   55.23   14.04
  -3  -8   7   92.95    8.89
  -2  -8   7    6.99    6.98
  -1  -8   7    1.04    3.70
   0  -8   7   85.51    7.30
   1  -8   7    5.33    3.56
   2  -8   7  289.86   10.45
   3  -8   7   16.35    3.69
   4  -8   7   12.81    3.31
   5  -8   7  161.95    5.51
   6  -8   7   32.52    3.97
   7  -8   7   58.53    4.42
   8  -8   7   27.32    3.91
   9  -8   7   24.63    3.76
  10  -8   7    0.00    6.06
  11  -8   7    1.27    8.81
  -4  -7   7   10.44   11.55
  -3  -7   7   24.66    4.30
  -2  -7   7  146.32    7.55
  -1  -7   7    0.00    4.64
   0  -7   7   74.17    3.72
   1  -7   7   94.65    7.07
   2  -7   7   29.86    2.35
   3  -7   7  142.94    4.36
   4  -7   7    0.00    6.39
   5  -7   7   36.23    3.47
   6  -7   7  334.93    8.08
   7  -7   7   86.87    5.97
   8  -7   7  136.13    7.28
   9  -7   7   79.85    7.31
  10  -7   7   67.88    9.88
  -4  -6   7  174.67   10.99
  -3  -6   7    7.96    3.44
  -2  -6   7  172.93    5.12
  -1  -6   7    0.00    7.51
   0  -6   7   43.98    2.97
   1  -6   7  198.25    4.41
   2  -6   7   85.01    7.42
   3  -6   7  213.07    4.08
   4  -6   7  406.74    8.45
   5  -6   7  308.67    9.60
   6  -6   7   70.37    3.28
   7  -6   7  310.86    8.34
   8  -6   7   48.54    5.62
   9  -6   7   12.55    5.34
  10  -6   7   26.96    5.22
  11  -6   7  117.01   12.06
  -6  -5   7   16.89    8.39
  -5  -5   7    2.68    2.88
  -4  -5   7   43.28    3.74
  -3  -5   7   30.59    2.18
  -2  -5   7   16.57    2.00
  -1  -5   7  193.51    4.53
   0  -5   7   78.98    2.58
   1  -5   7  138.23    4.79
   2  -5   7 1322.25   25.47
   3  -5   7   58.77    3.38
   4  -5   7  526.35   15.64
   5  -5   7  588.36   11.35
   6  -5   7  394.23    7.44
   7  -5   7   84.81    4.44
   8  -5   7  235.86    8.13
   9  -5   7  267.32   12.98
  -6  -4   7   29.98    3.50
  -5  -4   7    8.22    3.23
  -4  -4   7   22.24    2.44
  -3  -4   7  125.13    3.86
  -2  -4   7   68.12    2.38
  -1  -4   7  264.92    6.05
   0  -4   7 1218.53   14.25
   1  -4   7  189.64    3.58
   2  -4   7  499.93    7.77
   3  -4   7 1184.07   15.51
   4  -4   7  243.25    4.40
   5  -4   7   77.36    2.79
   6  -4   7  361.14    6.35
   7  -4   7  600.43    9.52
   8  -4   7   17.50    2.31
   9  -4   7   40.81    4.14
  10  -4   7  156.50   16.78
  11  -4   7   33.03   10.63
  -8  -3   7   11.64    5.15
  -7  -3   7    3.49    4.30
  -6  -3   7   28.86    4.49
  -5  -3   7  105.26    4.30
  -4  -3   7  207.07    7.05
  -3  -3   7  165.84    5.46
  -2  -3   7 1324.31   17.99
  -1  -3   7  168.58    6.29
   0  -3   7  394.24    6.76
   1  -3   7 1331.58   16.75
   2  -3   7 1732.24   22.01
   3  -3   7  316.24    5.60
   4  -3   7 1351.24   22.21
   5  -3   7  488.44   12.83
   6  -3   7   31.16    3.57
   7  -3   7  177.81   10.75
   8  -3   7  312.51   17.28
   9  -3   7   15.18   11.45
  10  -3   7   38.45    6.83
  -8  -2   7    0.00    3.67
  -7  -2   7   79.59    4.10
  -6  -2   7   39.84    3.51
  -5  -2   7   88.24    2.75
  -4  -2   7  340.01    7.50
  -3  -2   7   49.11    3.97
  -2  -2   7  429.61    9.41
  -1  -2   7 1274.98   18.30
   0  -2   7 1063.23   22.54
   1  -2   7  409.29    5.38
   2  -2   7 1856.08   17.13
   3  -2   7 1934.58   29.46
   4  -2   7   94.25    2.60
   5  -2   7  201.88    3.77
   6  -2   7  532.79   15.86
   7  -2   7  106.73    3.37
   8  -2   7    5.11    3.17
   9  -2   7   71.51    9.51
  10  -2   7   42.94    5.40
  -8  -1   7   19.65    4.89
  -7  -1   7  104.18    7.10
  -6  -1   7  336.88   10.00
  -5  -1   7  150.57    7.42
  -4  -1   7  227.60   10.23
  -3  -1   7 1292.43   31.63
  -2  -1   7 1684.08   33.04
  -1  -1   7  319.70    7.25
   0  -1   7 2685.02   39.01
   1  -1   7  820.27   10.99
   2  -1   7   60.26    1.46
   3  -1   7 1230.15   15.34
   4  -1   7  891.72   19.13
   5  -1   7   54.98    3.49
   6  -1   7  108.31    6.73
   7  -1   7  302.71   25.36
   8  -1   7   95.19    9.50
   9  -1   7    0.00    8.18
 -10   0   7    8.00    6.34
  -9   0   7    7.27    2.47
  -8   0   7   27.04    2.19
  -7   0   7   70.64    3.25
  -6   0   7   60.52    2.58
  -5   0   7  611.44   11.08
  -4   0   7  199.65    4.08
  -3   0   7  302.82    4.95
  -2   0   7 1815.90   24.99
  -1   0   7  787.84   11.94
   0   0   7  102.20    1.73
   1   0   7  727.15    9.37
   2   0   7 1608.30   18.66
   3   0   7   96.89    1.94
   4   0   7  147.18    3.24
   5   0   7  427.33    8.59
   6   0   7  126.50    4.23
   7   0   7   32.19    2.77
   8   0   7   29.77    4.62
   9   0   7   23.30    3.35
  -9   1   7   19.22   11.57
  -8   1   7   65.09    8.40
  -7   1   7  333.87   14.26
  -6   1   7  401.30   21.03
  -5   1   7  182.78    6.88
  -4   1   7 1081.06   18.57
  -3   1   7 2230.10   37.54
  -2   1   7   93.16    1.99
  -1   1   7  845.13   11.13
   0   1   7 1796.47   19.24
   1   1   7    2.28    0.74
   2   1   7  378.23    8.29
   3   1   7  596.39   10.79
   4   1   7   83.25    3.43
   5   1   7   44.07    4.11
   6   1   7   83.99    7.64
   7   1   7  203.34   12.22
   8   1   7   38.57    9.66
 -10   2   7    0.94    3.23
  -9   2   7   76.60    3.78
  -8   2   7  115.17    5.32
  -7   2   7   34.00    3.28
  -6   2   7  397.40    6.66
  -5   2   7  247.91    9.29
  -4   2   7  202.43    3.77
  -3   2   7 1096.94   14.54
  -2   2   7 1642.90   24.55
  -1   2   7    2.33    0.57
   0   2   7  559.65   10.05
   1   2   7  899.63   12.87
   2   2   7  307.47    4.57
   3   2   7    0.81    8.10
   4   2   7  112.75    5.79
   5   2   7  164.21    4.83
   6   2   7   72.55    8.22
   7   2   7   15.40    4.43
   8   2   7    4.80    5.31
 -11   3   7   30.62    8.20
 -10   3   7   47.81    8.02
  -9   3   7   56.47    7.21
  -8   3   7  219.34   15.78
  -7   3   7  547.27   21.27
  -6   3   7   10.31    3.57
  -5   3   7  347.75   12.59
  -4   3   7 1272.09   24.20
  -3   3   7   76.06    1.90
  -2   3   7  501.12    8.07
  -1   3   7  765.64   12.40
   0   3   7   47.96    1.58
   1   3   7   96.41    5.04
   2   3   7  106.96    6.23
   3   3   7  309.81    7.80
   4   3   7    0.00    6.20
   5   3   7    0.00    9.01
   7   3   7   22.40   11.87
 -11   4   7   15.70    3.74
 -10   4   7   38.03    3.22
  -9   4   7  116.92    5.62
  -8   4   7   14.96    2.45
  -7   4   7  173.14    4.42
  -6   4   7  865.12   15.29
  -5   4   7   22.54    3.23
  -4   4   7  226.33    4.22
  -3   4   7  521.00    7.63
  -2   4   7  326.31    6.86
  -1   4   7   56.94    1.78
   0   4   7  182.16    3.51
   1   4   7  486.42    7.65
   2   4   7   57.34    2.51
   3   4   7   30.42    3.23
   4   4   7   41.67    3.54
   5   4   7  108.25   13.93
   6   4   7   59.45    8.08
 -11   5   7  104.96   12.30
 -10   5   7   31.72    8.69
  -8   5   7  365.61   22.00
  -7   5   7   35.13    7.34
  -6   5   7  172.47    5.75
  -5   5   7  526.69   16.35
  -4   5   7  182.59    4.71
  -3   5   7  148.24    3.55
  -2   5   7  245.01    5.34
  -1   5   7  263.36    6.15
   0   5   7   31.99    2.16
   1   5   7   31.93    4.36
   2   5   7   67.86    4.29
   3   5   7  121.70    6.02
   4   5   7    9.33    4.21
   5   5   7   13.92    4.23
 -11   6   7   30.44   10.68
 -10   6   7  158.18    8.43
  -9   6   7   18.40    3.24
  -8   6   7   40.52    5.83
  -7   6   7  237.56    6.89
  -6   6   7  122.86    5.35
  -5   6   7   52.68    3.87
  -4   6   7  153.44    4.90
  -3   6   7  304.45    7.05
  -2   6   7    6.22    3.02
  -1   6   7   33.15    2.55
   0   6   7   93.46    5.61
   1   6   7  191.01    6.47
   2   6   7   26.29    6.09
   4   6   7   32.07   11.17
   5   6   7    0.00    4.70
  -9   7   7  212.53   14.75
  -8   7   7   90.70    9.33
  -7   7   7   30.75    8.11
  -6   7   7  155.10    6.18
  -5   7   7  159.03    5.77
  -4   7   7   20.24    3.83
  -3   7   7   49.09    3.09
  -2   7   7   83.11    3.86
  -1   7   7  208.94    7.16
   0   7   7   39.57    3.35
   1   7   7   36.16    3.55
   2   7   7   75.47    6.20
   3   7   7   25.18    6.19
 -10   8   7   48.75    5.28
  -9   8   7   15.77    3.11
  -8   8   7   44.30    4.56
  -7   8   7  119.03    6.02
  -6   8   7   41.59    3.77
  -5   8   7   14.75    3.06
  -4   8   7   29.68    3.67
  -3   8   7  114.38    5.09
  -2   8   7   49.67    3.87
  -1   8   7   27.02    4.13
   0   8   7   35.46    6.10
   1   8   7   10.55    9.23
   2   8   7   23.98   10.84
 -10   9   7   65.70   14.40
  -9   9   7   20.81    5.38
  -8   9   7    6.29    6.48
  -7   9   7    4.63    3.39
  -6   9   7  137.13    5.71
  -5   9   7   71.17    4.56
  -4   9   7   12.61    2.78
  -3   9   7    0.00    3.76
  -2   9   7   87.42    5.43
  -1   9   7   10.61    4.19
   0   9   7    7.55    6.42
  -9  10   7    0.00    7.17
  -8  10   7   54.61   11.09
  -7  10   7    5.25    7.32
  -5  10   7    0.00    8.59
  -4  10   7   40.55    9.40
  -3  10   7   13.71    6.79
  -6  11   7   44.71   15.36
   3 -11   8   64.82   13.08
   4 -11   8  140.61   17.14
   5 -11   8   51.28    6.59
   6 -11   8   70.71    7.69
   7 -11   8  155.69    8.50
   8 -11   8    3.95    4.93
   2 -10   8  247.79   14.99
   3 -10   8   26.29    6.65
   4 -10   8  244.78   12.80
   5 -10   8  190.25    9.31
   6 -10   8   33.67    6.67
   7 -10   8  169.96   17.64
   8 -10   8   77.69    8.66
   9 -10   8   27.35    9.54
  -1  -9   8   23.66   12.69
   0  -9   8  129.55    6.30
   1  -9   8   42.99    4.22
   2  -9   8  111.98    6.68
   3  -9   8  346.89   18.42
   4  -9   8   33.26    7.64
   5  -9   8  300.19    9.75
   6  -9   8  322.93    9.86
   7  -9   8   65.53    5.47
   8  -9   8  461.84   12.63
   9  -9   8   28.13    5.83
  10  -9   8    0.00    9.08
  -3  -8   8   16.12    8.53
  -2  -8   8  212.05   13.66
  -1  -8   8   60.68    6.10
   0  -8   8  221.09   15.16
   2  -8   8    8.66    2.46
   3  -8   8  340.90   11.45
   4  -8   8  242.84    5.97
   5  -8   8   81.12    3.90
   6  -8   8  663.87   14.54
   7  -8   8  150.64    8.62
   8  -8   8  229.07   10.87
   9  -8   8  493.07   13.21
  10  -8   8   46.96    6.87
  -3  -7   8   26.29    3.85
  -2  -7   8  179.75    5.87
  -1  -7   8  420.24   14.55
   0  -7   8   83.41    4.20
   1  -7   8  374.72    7.32
   2  -7   8  427.97    8.11
   3  -7   8  240.21    5.43
   4  -7   8 1072.03   17.86
   5  -7   8  180.77    5.33
   6  -7   8  105.60    4.74
   7  -7   8 1136.19   18.92
   8  -7   8   54.04    4.11
   9  -7   8  278.94   12.55
  10  -7   8  461.80   31.44
  11  -7   8   25.67    9.62
  -5  -6   8   53.65    7.31
  -4  -6   8  143.32    6.68
  -3  -6   8  467.79   12.08
  -2  -6   8   12.19    2.44
  -1  -6   8  355.49    7.47
   0  -6   8  499.25   10.10
   1  -6   8  137.73    3.60
   2  -6   8 1393.70   20.12
   3  -6   8  343.87    7.23
   4  -6   8  309.56    5.59
   5  -6   8 1383.69   21.69
   6  -6   8  141.56    5.43
   7  -6   8  446.69   10.54
   8  -6   8  521.99   15.44
   9  -6   8   39.57    5.50
  10  -6   8  195.08    8.72
  11  -6   8  214.27   20.54
  -6  -5   8   99.67   10.57
  -5  -5   8  202.64    8.49
  -4  -5   8   27.82    3.06
  -3  -5   8  368.57    9.32
  -2  -5   8  335.17    8.61
  -1  -5   8  220.17    5.48
   0  -5   8 1465.32   30.24
   1  -5   8  337.71    7.79
   2  -5   8  429.48   17.92
   3  -5   8 1227.29   38.33
   4  -5   8   21.40    2.88
   5  -5   8  840.03   13.15
   6  -5   8 1777.39   36.69
   7  -5   8   22.36    3.26
   8  -5   8  377.38   21.57
   9  -5   8  498.72   25.11
  10  -5   8   10.56    7.45
  11  -5   8  113.14   16.34
  -7  -4   8  172.74   19.81
  -6  -4   8   62.43    4.26
  -5  -4   8  294.67    8.96
  -4  -4   8  257.47    6.07
  -3  -4   8   73.41    4.09
  -2  -4   8 1147.05   17.44
  -1  -4   8  639.08   10.07
   0  -4   8  120.06    2.71
   1  -4   8 1975.16   29.90
   2  -4   8  105.91    3.29
   3  -4   8 1427.82   16.10
   4  -4   8 2599.82   42.78
   5  -4   8   23.02    1.60
   6  -4   8  938.95   14.08
   7  -4   8  733.50   19.26
   8  -4   8   39.07    3.42
   9  -4   8  451.14   11.97
  10  -4   8  212.98   16.75
  11  -4   8    1.18    9.36
  -8  -3   8   13.73    4.50
  -7  -3   8  171.33    7.14
  -6  -3   8  256.35    7.68
  -5  -3   8   66.21    4.34
  -4  -3   8 1194.93   21.44
  -3  -3   8  489.63    9.77
  -2  -3   8  612.29   13.02
  -1  -3   8 1391.59   23.35
   0  -3   8   10.07    1.07
   1  -3   8 1424.38   21.47
   2  -3   8 3217.08   36.77
   3  -3   8   13.12    1.30
   4  -3   8 1923.48   28.27
   5  -3   8 1276.75   17.95
   6  -3   8   66.19    4.06
   7  -3   8  785.11   29.60
   8  -3   8  301.84   14.20
   9  -3   8    5.96   11.22
  10  -3   8  227.62   14.52
  -8  -2   8  104.50    4.62
  -7  -2   8   35.54    2.80
  -6  -2   8  433.04    9.07
  -5  -2   8  335.98    6.93
  -4  -2   8  202.34    6.54
  -3  -2   8 1465.15   22.55
  -2  -2   8   78.50    3.95
  -1  -2   8 1045.35   17.12
   0  -2   8 4299.63   51.20
   1  -2   8    5.65    0.54
   2  -2   8 2031.28   19.06
   3  -2   8 1935.51   21.28
   4  -2   8  257.14    4.40
   5  -2   8 2206.79   23.55
   6  -2   8  601.61    9.77
   7  -2   8   20.89    3.40
   8  -2   8  479.94   10.15
   9  -2   8  140.09    7.00
  10  -2   8   35.97    6.33
  -9  -1   8   22.59    5.93
  -8  -1   8  358.75   15.62
  -6  -1   8  189.81    7.72
  -5  -1   8 1357.16   50.11
  -4  -1   8   28.28    3.21
  -3  -1   8  738.55   25.38
  -2  -1   8 2643.52   63.80
  -1  -1   8   12.40    1.61
   0  -1   8 4988.40   75.63
   1  -1   8 2549.63   29.58
   2  -1   8   66.00    1.57
   3  -1   8 2736.47   39.64
   4  -1   8  737.47   15.00
   5  -1   8  139.00    5.69
   6  -1   8  878.76   22.55
   7  -1   8  220.68   10.96
   8  -1   8    3.85    7.22
   9  -1   8  400.53   29.35
  -9   0   8   61.74    4.55
  -8   0   8  195.88    7.09
  -7   0   8 1113.21   23.57
  -6   0   8  218.73    5.91
  -5   0   8  656.09   11.63
  -4   0   8 2527.87   34.79
  -3   0   8   18.16    1.11
  -2   0   8 1790.57   24.76
  -1   0   8 2512.02   34.52
   0   0   8 1141.36   13.03
   1   0   8 5044.76   57.48
   2   0   8 1473.98   17.29
   3   0   8  158.86    2.73
   4   0   8 2425.75   31.81
   5   0   8  189.52    5.19
   6   0   8   11.42    1.71
   7   0   8  598.28   16.06
   8   0   8  143.59    7.70
   9   0   8   41.39    4.27
 -10   1   8   23.43    7.30
  -9   1   8  514.34   31.31
  -8   1   8   60.95    6.82
  -7   1   8  228.73   14.81
  -6   1   8 1401.87   60.26
  -5   1   8    0.00    7.99
  -4   1   8 2367.55   43.10
  -3   1   8 2356.60   41.18
  -2   1   8   47.71    1.39
  -1   1   8 5204.27   58.33
   0   1   8 1106.29   14.00
   1   1   8  182.55    3.45
   2   1   8 2151.99   29.09
   3   1   8  264.71    6.44
   4   1   8   27.65    3.29
   5   1   8 1007.19   33.59
   6   1   8  210.94   11.20
   7   1   8   56.76    6.25
   8   1   8  274.94   17.81
 -10   2   8   80.07    4.31
  -9   2   8  229.31    6.57
  -8   2   8  731.52   15.38
  -7   2   8   13.95    2.25
  -6   2   8  768.22   10.74
  -5   2   8 1059.98   15.57
  -4   2   8  259.88    7.26
  -3   2   8 2514.08   26.37
  -2   2   8 1520.96   16.28
  -1   2   8  130.10    3.17
   0   2   8 3793.01   34.87
   1   2   8  184.09    2.83
   2   2   8  308.29    4.64
   3   2   8 1639.11   18.93
   4   2   8  146.81    3.93
   5   2   8   42.60    3.25
   6   2   8  397.15    9.25
   7   2   8  217.77    9.05
   8   2   8   85.66    7.62
 -10   3   8  349.65   23.51
  -9   3   8   34.94    7.71
  -8   3   8  359.99   21.91
  -7   3   8 1068.26   35.00
  -6   3   8   61.67    4.46
  -5   3   8 1893.39   48.05
  -4   3   8  645.85   11.24
  -3   3   8  194.42    4.40
  -2   3   8 2377.66   27.16
  -1   3   8  135.85    3.16
   0   3   8   20.08    1.38
   1   3   8 1900.08   24.38
   2   3   8  634.22    9.69
   3   3   8   62.21    3.68
   4   3   8  637.57   21.79
   5   3   8  188.77   12.38
   7   3   8  172.20   12.16
 -11   4   8    4.80    3.46
 -10   4   8  234.78    9.88
  -9   4   8  466.40   11.93
  -8   4   8    0.00    2.82
  -7   4   8  648.57   11.47
  -6   4   8  664.04   11.50
  -5   4   8  139.86    5.65
  -4   4   8 2484.81   33.77
  -3   4   8  454.44    7.38
  -2   4   8  265.56    5.49
  -1   4   8 1880.57   21.16
   0   4   8  195.04    4.45
   1   4   8   26.73    3.46
   2   4   8 1100.35   17.13
   3   4   8  278.73    8.29
   4   4   8  181.69    6.93
   5   4   8  360.81   28.68
   6   4   8  185.31   15.11
 -11   5   8  291.88   21.96
 -10   5   8   14.07    6.20
  -8   5   8  285.58   18.45
  -7   5   8   34.06    9.02
  -6   5   8  961.19   28.53
  -5   5   8  217.69    5.64
  -4   5   8    0.00    4.09
  -3   5   8 1780.91   26.35
  -2   5   8  485.65    7.83
  -1   5   8  146.49    4.64
   0   5   8  846.72   12.33
   1   5   8  255.32    8.57
   2   5   8  104.37    5.49
   3   5   8  435.79   14.16
   4   5   8  310.12   14.39
   5   5   8   55.45    6.72
 -11   6   8  118.39    7.77
 -10   6   8  173.34    7.82
  -9   6   8    3.77    2.93
  -8   6   8  548.17   14.21
  -7   6   8  215.82    6.09
  -6   6   8    3.28    2.01
  -5   6   8  892.75   14.63
  -4   6   8  224.88    5.81
  -3   6   8   54.77    3.76
  -2   6   8 1123.84   15.01
  -1   6   8  299.00    8.04
   0   6   8  100.15    5.23
   1   6   8  777.86   15.36
   2   6   8  372.77   12.58
   4   6   8  105.86   15.94
 -11   7   8   48.96    8.97
 -10   7   8  263.75   21.66
  -9   7   8  223.62   15.59
  -7   7   8  630.07   15.71
  -6   7   8  187.07    6.17
  -5   7   8   44.65    4.18
  -4   7   8  809.78   14.69
  -3   7   8  165.96    6.16
  -2   7   8   78.90    4.11
  -1   7   8  586.46   11.88
   0   7   8  529.67   13.45
   1   7   8  121.87    5.54
   2   7   8  185.48    8.17
   3   7   8  180.88   11.60
 -10   8   8   20.31    5.46
  -9   8   8  349.20   10.55
  -8   8   8  147.67    9.95
  -7   8   8   61.15    4.27
  -6   8   8  538.59   14.49
  -5   8   8  202.38   10.87
  -4   8   8   95.84    5.42
  -3   8   8  514.73   15.08
  -2   8   8  469.66   15.22
  -1   8   8  139.84    6.96
   0   8   8  183.65   23.71
   1   8   8  155.50   19.12
   2   8   8   32.74   11.65
 -10   9   8  105.19   17.70
  -9   9   8   59.22    8.52
  -8   9   8  464.09   15.35
  -7   9   8  178.10   11.08
  -6   9   8   50.43    4.70
  -5   9   8  337.99    9.75
  -4   9   8  229.71    8.15
  -3   9   8  144.03    6.47
  -2   9   8  167.20    7.89
  -1   9   8  218.22   12.42
   0   9   8   19.06    4.72
  -8  10   8   61.81    9.12
  -7  10   8  165.70   19.00
  -6  10   8  205.03   21.20
  -5  10   8   80.16   13.95
  -4  10   8  167.04   16.96
  -2  10   8    2.23    5.89
   3 -11   9   53.25    7.75
   4 -11   9    0.00   11.13
   5 -11   9   14.04    5.71
   6 -11   9  121.98    8.40
   7 -11   9    0.00    4.00
   8 -11   9   27.07    9.39
   0 -10   9   26.68    5.31
   2 -10   9   29.81    6.25
   3 -10   9   22.73    6.42
   4 -10   9  342.25   15.19
   5 -10   9   31.63    5.51
   6 -10   9    0.30    6.66
   7 -10   9  145.41   12.89
   8 -10   9    5.75    6.40
   9 -10   9    0.46    8.34
  -1  -9   9  104.31   10.73
   0  -9   9   36.90    3.84
   1  -9   9   24.66    3.53
   2  -9   9  167.31    6.61
   3  -9   9   31.07    4.18
   4  -9   9   31.60    6.57
   5  -9   9  293.50   16.06
   6  -9   9   70.00    4.81
   7  -9   9   35.68    4.07
   8  -9   9  238.33    8.66
   9  -9   9   48.38    6.57
  10  -9   9   11.03    6.90
  -3  -8   9   34.98    6.77
  -2  -8   9   11.12    5.31
  -1  -8   9   36.44    5.11
   0  -8   9  460.20   16.26
   1  -8   9   40.33    6.78
   2  -8   9    3.56    3.13
   3  -8   9  547.38   13.67
   4  -8   9  185.17    5.17
   5  -8   9    5.06    2.24
   6  -8   9  236.43    7.73
   7  -8   9  124.98    7.69
   8  -8   9   15.79    2.98
   9  -8   9   86.15    6.07
  10  -8   9   44.23    8.78
  -4  -7   9    4.16   14.16
  -3  -7   9   19.98    3.88
  -2  -7   9  245.73   10.04
  -1  -7   9   47.09    6.20
   0  -7   9   13.27    2.45
   1  -7   9  480.81   11.51
   2  -7   9  213.52    4.99
   3  -7   9   24.69    2.85
   4  -7   9  712.62   18.86
   5  -7   9  174.61    4.56
   6  -7   9   21.51    3.72
   7  -7   9   85.23    7.67
   8  -7   9  164.79    7.40
   9  -7   9   30.58    5.16
  10  -7   9    1.67   13.38
  11  -7   9   10.44    8.79
  -5  -6   9   44.25   11.20
  -4  -6   9  190.64    7.94
  -3  -6   9   35.11    5.26
  -2  -6   9    8.23    2.81
  -1  -6   9  701.73   14.50
   0  -6   9  530.73   10.27
   1  -6   9   14.08    2.15
   2  -6   9 1030.81   22.81
   3  -6   9  504.26    9.65
   4  -6   9   74.30    3.22
   5  -6   9  220.96   14.35
   6  -6   9   69.79    3.93
   7  -6   9   77.86    3.88
   8  -6   9   29.77    7.88
   9  -6   9   97.80    6.50
  10  -6   9   11.89    4.65
  11  -6   9    0.00   13.13
  -6  -5   9  136.91   16.21
  -5  -5   9   33.21    3.85
  -4  -5   9   20.01    2.49
  -3  -5   9  522.83   11.74
  -2  -5   9  294.94    6.71
  -1  -5   9    1.43    2.17
   0  -5   9 1115.35   17.74
   1  -5   9  253.43    5.53
   2  -5   9  110.34    4.82
   3  -5   9  326.74    9.51
   4  -5   9  616.96   12.38
   5  -5   9   11.16    2.03
   6  -5   9  105.26    4.67
   7  -5   9   64.98    4.38
   8  -5   9    8.15    5.98
   9  -5   9   26.34    5.00
  11  -5   9    0.00   11.68
  -7  -4   9    7.66    7.54
  -6  -4   9    9.02    4.42
  -5  -4   9  408.74   10.26
  -4  -4   9  165.77    4.32
  -3  -4   9   27.21    2.64
  -2  -4   9  840.41   14.57
  -1  -4   9  401.39    5.93
   0  -4   9   92.95    3.25
   1  -4   9  601.73   11.61
   2  -4   9  888.90   12.17
   3  -4   9   89.84    2.44
   4  -4   9  160.14    4.13
   5  -4   9  262.45    6.14
   6  -4   9   11.49    2.13
   7  -4   9   54.02    2.96
   8  -4   9    7.53    2.54
   9  -4   9    0.05    3.91
  10  -4   9   27.20    7.34
  -8  -3   9   16.23    7.74
  -7  -3   9  197.07   11.07
  -6  -3   9  115.52    7.05
  -5  -3   9    0.00    4.46
  -4  -3   9  532.17   21.68
  -3  -3   9  391.00   12.38
  -2  -3   9  312.57   21.06
  -1  -3   9  525.11   11.04
   0  -3   9  769.29   11.19
   1  -3   9   88.03    3.01
   2  -3   9  180.72    2.98
   3  -3   9   84.56    2.11
   4  -3   9   43.26    3.62
   5  -3   9   38.55    4.02
   6  -3   9   76.19    5.52
   7  -3   9   66.18   18.06
   8  -3   9    9.68    5.21
   9  -3   9    6.33   10.08
  10  -3   9    4.64    6.54
  -8  -2   9   11.48    4.47
  -7  -2   9   22.11    3.31
  -6  -2   9  116.93    7.82
  -5  -2   9  202.60    6.57
  -4  -2   9   78.15    7.37
  -3  -2   9  500.21   17.38
  -2  -2   9  841.55   16.44
  -1  -2   9   26.35    9.70
   0  -2   9  208.89    6.99
   1  -2   9  394.32    5.05
   2  -2   9   79.07   11.82
   3  -2   9   51.38    1.79
   4  -2   9  153.85    3.56
   5  -2   9   47.68    6.40
   6  -2   9   51.29    3.48
   7  -2   9   23.03    2.55
   8  -2   9   40.54    4.87
   9  -2   9   28.68    5.27
  10  -2   9    0.00    5.60
  -9  -1   9    2.67    3.75
  -8  -1   9  193.62    8.52
  -7  -1   9  141.76    8.74
  -6  -1   9   95.49    5.60
  -5  -1   9  464.19   11.83
  -4  -1   9  473.98   17.35
  -3  -1   9   49.38    3.86
  -2  -1   9  130.43    5.52
  -1  -1   9  309.91    6.91
   0  -1   9   14.40    0.95
   1  -1   9  133.50    2.99
   2  -1   9   81.71    2.09
   3  -1   9  197.34    4.90
   4  -1   9  159.28    5.28
   5  -1   9    6.90    1.62
   6  -1   9   34.25   15.15
   7  -1   9   63.47    7.57
   8  -1   9    0.00    6.80
   9  -1   9   66.74   15.15
  -9   0   9   49.18    3.90
  -8   0   9    9.78    1.82
  -7   0   9  143.78    5.10
  -6   0   9   76.33    2.86
  -5   0   9   16.81    1.28
  -4   0   9  164.22    4.15
  -3   0   9  115.82    2.81
  -2   0   9  100.61    2.11
  -1   0   9  108.38    2.12
   0   0   9  601.57    7.52
   1   0   9  251.04    4.02
   2   0   9   13.55    0.91
   3   0   9   50.46    1.47
   4   0   9   39.31    1.59
   5   0   9    5.59    1.31
   6   0   9   24.64    2.22
   7   0   9   15.98    2.12
   8   0   9   81.89    6.01
   9   0   9    4.16    3.19
 -10   1   9   13.39    4.96
  -9   1   9  142.87    9.32
  -8   1   9  149.64    9.07
  -7   1   9   41.94    5.48
  -6   1   9   35.46    7.59
  -5   1   9  530.22   16.97
  -4   1   9   31.41    2.25
  -3   1   9   42.51    1.99
  -2   1   9  106.45    2.37
  -1   1   9  266.49    4.06
   0   1   9  169.55    3.09
   1   1   9   69.17    2.17
   2   1   9  199.49    4.40
   3   1   9  270.27    6.31
   4   1   9   32.85    2.95
   5   1   9   32.48    4.96
   6   1   9  158.44    8.85
   7   1   9   18.04    7.25
   8   1   9   12.92    6.77
 -10   2   9    8.88    6.54
  -9   2   9   12.84    3.46
  -8   2   9   18.69    2.97
  -7   2   9   74.54    3.29
  -6   2   9   26.01    2.72
  -5   2   9   84.59    3.40
  -4   2   9  262.18    6.91
  -3   2   9  207.10    4.35
  -2   2   9    3.24    1.71
  -1   2   9    0.00    4.75
   0   2   9   48.26    4.99
   1   2   9  184.60    4.59
   2   2   9  149.15    3.79
   3   2   9  185.85    5.25
   4   2   9  149.98    7.31
   5   2   9   49.09    3.70
   6   2   9    0.61    4.40
   7   2   9   79.21    9.33
   8   2   9    0.00    6.96
 -10   3   9   32.59    7.71
  -9   3   9  142.55   12.70
  -8   3   9   11.25    4.23
  -7   3   9   30.11    3.38
  -6   3   9   74.31    6.42
  -5   3   9   63.77    5.58
  -4   3   9   72.45    3.07
  -3   3   9   39.72    2.85
  -2   3   9  168.64    3.92
  -1   3   9  102.52    2.83
   0   3   9  107.88    4.38
   1   3   9  145.70    4.58
   2   3   9  539.29   11.84
   3   3   9   94.57    4.56
   4   3   9    0.00    8.22
   5   3   9   77.74   13.05
   7   3   9    3.13    7.56
 -11   4   9   19.91    6.90
 -10   4   9   27.21    3.59
  -9   4   9   13.28    2.32
  -8   4   9   24.30    2.38
  -7   4   9   27.01    1.95
  -6   4   9   14.93    2.07
  -5   4   9    2.21    2.81
  -4   4   9   28.64    1.57
  -3   4   9  524.28    9.61
  -2   4   9  109.79    4.50
  -1   4   9  133.90    3.48
   0   4   9  210.21    5.34
   1   4   9   90.91    4.90
   2   4   9  117.87    4.43
   3   4   9  118.23    5.31
   4   4   9    0.00    5.20
   5   4   9   17.45    5.20
   6   4   9   77.48    9.08
 -11   5   9   20.11    6.26
 -10   5   9   21.82    7.22
  -8   5   9   38.64    7.87
  -7   5   9   13.58    8.50
  -6   5   9   60.29    3.71
  -5   5   9    5.12    1.96
  -4   5   9   27.90    4.17
  -3   5   9  237.77    5.84
  -2   5   9  345.05    8.88
  -1   5   9   60.78    4.00
   0   5   9   40.08    2.71
   1   5   9  224.91    7.23
   2   5   9   28.34    3.95
   3   5   9    1.86    4.20
   4   5   9   50.44    4.98
   5   5   9   32.99    5.76
 -11   6   9    2.92    4.67
 -10   6   9   11.05    5.01
  -9   6   9   17.50    2.94
  -8   6   9   26.39    4.87
  -7   6   9  100.60    6.27
  -6   6   9   19.93    2.66
  -5   6   9    8.41    4.57
  -4   6   9  291.75   10.00
  -3   6   9   12.86    2.60
  -2   6   9  117.79    6.27
  -1   6   9  179.02    6.32
   0   6   9    6.33    2.44
   1   6   9   80.76    6.73
   2   6   9  135.88    8.31
   4   6   9   13.52   15.11
 -10   7   9   20.22    9.38
  -9   7   9   42.12   14.10
  -7   7   9   14.46    4.47
  -6   7   9   37.82   11.50
  -5   7   9   62.60    4.13
  -4   7   9   33.07    5.49
  -3   7   9  184.90    6.91
  -2   7   9   21.06    2.84
  -1   7   9    0.00    6.14
   0   7   9  112.62    7.39
   1   7   9   21.39    4.05
   2   7   9   24.02    6.56
   3   7   9   17.44    5.58
 -10   8   9   12.26    5.64
  -9   8   9   15.94    4.50
  -8   8   9   84.92    5.48
  -7   8   9    5.62    3.39
  -6   8   9   40.46    4.91
  -5   8   9  154.46    5.70
  -4   8   9   52.59    5.15
  -3   8   9    0.00    5.07
  -2   8   9   90.33    5.56
  -1   8   9    7.02    4.10
   0   8   9   35.58    7.98
   1   8   9    5.76   10.16
   2   8   9   34.72    9.74
  -9   9   9    0.00    6.76
  -8   9   9   25.67    5.62
  -7   9   9  115.44    8.17
  -6   9   9    4.43    4.46
  -5   9   9    4.35    5.10
  -4   9   9   24.51    3.39
  -3   9   9    4.74    3.39
  -2   9   9   21.50    4.86
  -1   9   9    6.65    4.35
   0   9   9    4.02    5.34
  -8  10   9    0.00    5.82
  -7  10   9    7.05   11.58
  -4  10   9   26.52    7.65
  -2  10   9   11.71    7.66
   3 -11  10  271.66   11.16
   4 -11  10   56.24    6.57
   5 -11  10    6.68   11.32
   6 -11  10  204.89   10.04
   7 -11  10   27.19    5.29
   2 -10  10   51.97    7.46
   3 -10  10  182.92   16.79
   4 -10  10  216.44   13.91
   5 -10  10  128.97    7.47
   6 -10  10  324.86   16.65
   7 -10  10  159.61   12.20
   8 -10  10   96.77    9.94
   9 -10  10  108.15    9.57
  -1  -9  10  351.71   20.67
   0  -9  10  107.35    5.74
   1  -9  10  163.26    6.61
   2  -9  10  275.65   11.02
   3  -9  10  141.30    5.65
   4  -9  10  269.70   12.54
   5  -9  10  257.42   20.44
   6  -9  10   76.55    6.59
   7  -9  10  255.14   10.57
   8  -9  10  176.37   10.67
   9  -9  10   76.46    7.09
  10  -9  10  114.97   10.88
  -3  -8  10  247.07   20.64
  -2  -8  10   87.32   10.97
  -1  -8  10   94.84    8.65
   0  -8  10  329.73   17.10
   1  -8  10  116.01    8.01
   2  -8  10  471.20   16.46
   3  -8  10  212.86   10.81
   4  -8  10  262.24    7.22
   5  -8  10  287.43    7.51
   6  -8  10   87.81    7.10
   7  -8  10  144.19    8.69
   8  -8  10   86.62    4.87
   9  -8  10   92.78    9.75
  10  -8  10  117.66   12.73
  -4  -7  10   31.44   14.87
  -3  -7  10  233.03    8.28
  -2  -7  10  225.28    7.71
  -1  -7  10  162.69    6.17
   0  -7  10  325.98    7.82
   1  -7  10  268.35    6.71
   2  -7  10  205.95    6.08
   3  -7  10  274.12    6.48
   4  -7  10  205.62    5.42
   5  -7  10  257.25    6.64
   6  -7  10  317.83    8.14
   7  -7  10   86.66    4.31
   8  -7  10   85.71    5.10
   9  -7  10  103.72    6.45
  10  -7  10   97.34   19.02
  -5  -6  10   73.78   15.23
  -4  -6  10  227.02    8.47
  -3  -6  10  138.21    5.31
  -2  -6  10  334.84   17.39
  -1  -6  10  352.34    8.13
   0  -6  10  310.74    6.87
   1  -6  10  365.86    7.09
   2  -6  10  172.04    5.31
   3  -6  10  436.86    9.98
   4  -6  10  399.11    8.76
   5  -6  10  113.24    4.46
   6  -6  10  361.16    8.80
   7  -6  10  264.89    6.78
   8  -6  10  337.58    9.18
   9  -6  10  105.93    5.81
  10  -6  10   88.18    6.76
  -6  -5  10  237.84   17.52
  -5  -5  10   93.26    5.93
  -4  -5  10  370.19   17.07
  -3  -5  10  244.82    7.93
  -2  -5  10  188.12    4.41
  -1  -5  10  361.39   11.03
   0  -5  10  151.39    4.68
   1  -5  10  812.35   12.42
   2  -5  10  731.34   20.06
   3  -5  10  397.06   10.51
   4  -5  10  392.43    7.23
   5  -5  10  275.77    9.04
   6  -5  10  264.94    9.42
   7  -5  10  218.25    9.02
   8  -5  10  319.50   16.32
   9  -5  10  198.70   10.13
  -7  -4  10   58.64    9.21
  -6  -4  10  248.48   12.54
  -5  -4  10  340.79   13.03
  -4  -4  10  342.17    8.13
  -3  -4  10  265.61    8.67
  -2  -4  10  165.43    6.35
  -1  -4  10  562.08    8.81
   0  -4  10  650.73   17.93
   1  -4  10  102.46    6.39
   2  -4  10  471.26   10.53
   3  -4  10  339.91   11.97
   4  -4  10  331.60    6.27
   5  -4  10  509.56    8.18
   6  -4  10  298.14    9.39
   7  -4  10  334.67    7.57
   8  -4  10   93.20    5.25
   9  -4  10  249.12    9.28
  10  -4  10  317.87   18.71
  -7  -3  10  168.08   10.56
  -6  -3  10   34.67    7.84
  -5  -3  10  247.73   12.91
  -4  -3  10  118.37   11.94
  -3  -3  10  354.18   14.50
  -2  -3  10  756.62   25.58
  -1  -3  10  275.94    7.30
   0  -3  10  884.99   12.37
   1  -3  10  341.76    6.26
   2  -3  10  147.93    3.15
   3  -3  10  710.35   11.22
   4  -3  10  505.38   10.09
   5  -3  10  776.91   18.99
   6  -3  10  300.88   10.34
   7  -3  10  702.69   38.67
   8  -3  10  471.87   22.76
   9  -3  10   41.69   10.91
  10  -3  10  163.43   19.66
  -8  -2  10  137.51   16.29
  -7  -2  10  249.44    9.38
  -6  -2  10  117.32    7.48
  -5  -2  10  213.72    8.36
  -4  -2  10  270.86    6.84
  -3  -2  10  252.16    7.26
  -2  -2  10  473.73   11.59
  -1  -2  10  391.12    7.70
   0  -2  10  340.38    4.75
   1  -2  10 1250.93   14.70
   2  -2  10 1511.19   14.99
   3  -2  10  661.57    8.21
   4  -2  10  316.49    5.08
   5  -2  10  455.50    6.83
   6  -2  10  936.43   13.90
   7  -2  10  119.31    4.53
   8  -2  10  412.76    9.78
   9  -2  10  363.89   12.86
  10  -2  10   33.61    6.07
  -8  -1  10  142.50    9.56
  -7  -1  10   83.46    7.38
  -6  -1  10  398.89   11.92
  -5  -1  10  164.72    8.30
  -4  -1  10  627.34   24.33
  -3  -1  10  327.38   15.89
  -2  -1  10   63.22    4.16
  -1  -1  10 1066.19   35.61
   0  -1  10  397.57    7.03
   1  -1  10 1299.96   20.78
   2  -1  10  810.53   13.19
   3  -1  10 1230.00   23.23
   4  -1  10 1299.11   26.76
   5  -1  10  153.18    6.83
   6  -1  10  867.26   32.33
   7  -1  10  283.06   13.41
   8  -1  10   28.99    7.04
   9  -1  10  358.99   27.38
  -9   0  10   68.46    5.09
  -8   0  10   63.24    3.54
  -7   0  10   92.08    4.84
  -6   0  10  377.10    8.78
  -5   0  10  271.56    6.36
  -4   0  10  321.63    6.92
  -3   0  10  771.63   13.98
  -2   0  10 1398.52   19.77
  -1   0  10 1204.03   17.40
   0   0  10  355.89    5.99
   1   0  10  614.13    9.54
   2   0  10  865.47   12.32
   3   0  10  157.78    3.36
   4   0  10 1452.09   21.29
   5   0  10  812.73   13.85
   6   0  10   17.54    2.10
   7   0  10  448.30   10.57
   8   0  10  225.72   12.10
   9   0  10   10.68    3.33
 -10   1  10   76.72    8.64
  -9   1  10   98.50    7.20
  -8   1  10  124.36   11.70
  -7   1  10  229.66   14.56
  -6   1  10  153.05   14.10
  -5   1  10  403.44   19.87
  -4   1  10  377.97   12.48
  -3   1  10  832.92   14.17
  -2   1  10 1087.98   17.75
  -1   1  10  646.84    8.66
   0   1  10 1736.77   21.04
   1   1  10  259.18    5.69
   2   1  10 1521.67   23.59
   3   1  10  925.03   16.64
   4   1  10   59.14    5.03
   5   1  10 1024.08   41.08
   6   1  10  205.99   11.90
   7   1  10   45.18    9.87
   8   1  10  394.09   33.30
 -10   2  10   86.31    8.45
  -9   2  10  100.02    4.52
  -8   2  10  205.03    6.35
  -7   2  10  278.86    5.47
  -6   2  10  275.05    6.25
  -5   2  10  967.18   17.82
  -4   2  10  431.97    8.95
  -3   2  10 1103.35   13.70
  -2   2  10  870.15   12.13
  -1   2  10  258.56    6.53
   0   2  10 3375.98   34.18
   1   2  10 1484.38   19.70
   2   2  10   32.89    3.42
   3   2  10 1336.99   16.95
   4   2  10  364.59    8.30
   5   2  10   34.34    3.50
   6   2  10  602.99   13.88
   7   2  10   54.82    6.10
 -10   3  10  171.94   14.82
  -9   3  10   88.09    9.44
  -8   3  10  261.67   17.97
  -7   3  10  447.07   19.20
  -6   3  10  532.09   26.44
  -5   3  10  515.94   14.58
  -4   3  10 1252.19   21.37
  -3   3  10  202.37    6.70
  -2   3  10 1302.56   19.18
  -1   3  10 1365.57   21.29
   0   3  10   46.84    6.93
   1   3  10 1688.16   27.18
   2   3  10  370.19    9.78
   3   3  10   26.35    4.46
   4   3  10 1212.46   36.44
   5   3  10   84.12    7.34
   6   3  10    6.26    6.76
   7   3  10  273.75   16.78
 -10   4  10   66.64    5.01
  -9   4  10  253.88    8.93
  -8   4  10  218.76    7.27
  -7   4  10  476.37   11.93
  -6   4  10  700.43   14.85
  -5   4  10   82.49    3.66
  -4   4  10 1362.46   20.21
  -3   4  10  997.56   15.49
  -2   4  10   25.39    2.57
  -1   4  10 2073.97   27.08
   0   4  10  280.89    4.90
   1   4  10   20.85    2.78
   2   4  10 1289.32   24.51
   3   4  10  113.70    4.91
   4   4  10   19.13    3.63
   5   4  10  516.29   23.12
   6   4  10   28.86   11.40
 -10   5  10   72.83   11.41
  -9   5  10  339.91   29.09
  -7   5  10  120.63    9.03
  -6   5  10  712.83   18.04
  -5   5  10  767.42   19.93
  -4   5  10   99.38    4.25
  -3   5  10 1004.10   19.04
  -2   5  10  461.15   10.30
  -1   5  10   14.49    2.65
   0   5  10 1756.56   33.95
   1   5  10  167.33    7.13
   2   5  10   16.96    3.09
   3   5  10  752.58   23.26
   4   5  10   26.85    4.29
   5   5  10   27.13   10.20
 -10   6  10  274.57    9.68
  -9   6  10   70.53    4.27
  -8   6  10  276.76   12.00
  -7   6  10  425.63   10.85
  -6   6  10    9.45    3.05
  -5   6  10 1043.34   16.87
  -4   6  10  339.57    8.02
  -3   6  10    6.98    2.17
  -2   6  10 1466.68   21.69
  -1   6  10  115.58    4.09
   0   6  10   19.65    3.43
   1   6  10  826.52   17.83
   2   6  10   52.51    5.77
   4   6  10  518.99   36.94
  -9   7  10  403.57   21.83
  -8   7  10   74.01    8.06
  -7   7  10  414.61   17.39
  -6   7  10  200.20    9.50
  -5   7  10   17.77    2.60
  -4   7  10 1023.10   19.87
  -3   7  10  193.07    5.61
  -2   7  10   16.11    2.80
  -1   7  10  728.38   16.28
   0   7  10   13.66    3.85
   1   7  10   12.66    3.45
   2   7  10  590.06   17.14
   3   7  10   23.41    6.06
 -10   8  10   19.77    8.18
  -9   8  10  314.63   12.29
  -8   8  10  277.83   12.65
  -7   8  10    0.00    5.44
  -6   8  10  648.56   19.59
  -5   8  10  140.36    6.07
  -4   8  10   29.29    3.70
  -3   8  10  743.30   16.79
  -2   8  10    0.00    4.59
  -1   8  10   17.08    4.44
   0   8  10  577.60   36.66
   1   8  10    0.00    7.79
  -9   9  10    0.00    6.85
  -8   9  10  347.80   20.34
  -7   9  10  108.91    9.03
  -6   9  10   52.55    6.95
  -5   9  10  566.44   16.12
  -4   9  10   27.10    3.85
  -3   9  10    0.00    5.73
  -2   9  10  596.13   14.26
  -1   9  10    4.59    5.18
   0   9  10   34.90   10.79
  -7  10  10  365.74   27.41
  -4  10  10  519.79   32.28
   4 -11  11    4.39    3.14
   5 -11  11    0.00    3.69
   6 -11  11   15.58    5.88
   7 -11  11   33.41    6.53
   1 -10  11   26.76   10.22
   3 -10  11   57.09    9.55
   4 -10  11    2.11    4.23
   5 -10  11   10.40    3.98
   6 -10  11   11.21    4.63
   7 -10  11   72.13   12.33
   8 -10  11   16.29    5.75
   9 -10  11    0.00    6.25
  -1  -9  11   36.64    6.08
   0  -9  11    4.04    5.12
   1  -9  11   25.80    3.80
   2  -9  11   37.86    3.79
   3  -9  11   71.38    4.96
   4  -9  11    6.72    3.92
   5  -9  11   29.73    4.84
   6  -9  11  124.32    6.86
   7  -9  11    6.19    3.11
   8  -9  11   43.37    4.98
   9  -9  11    7.09    3.90
  -2  -8  11   10.48    5.90
  -1  -8  11   13.97    3.55
   0  -8  11    0.00    3.12
   1  -8  11  125.54    6.89
   2  -8  11   11.78    5.45
   3  -8  11   25.93    3.62
   4  -8  11   51.14    3.70
   5  -8  11   18.45    4.21
   6  -8  11   98.01    6.06
   7  -8  11   80.14    5.67
   8  -8  11   21.24    4.43
   9  -8  11   59.51    7.36
  10  -8  11   44.72    7.33
  -3  -7  11   31.84    7.37
  -2  -7  11    0.00    3.57
  -1  -7  11   58.53    3.71
   0  -7  11   43.62    6.68
   1  -7  11   64.40    3.83
   2  -7  11  134.34    4.25
   3  -7  11   13.16    2.74
   4  -7  11  159.61    5.53
   5  -7  11  161.93    5.52
   6  -7  11   71.68    4.62
   7  -7  11  173.61    8.47
   8  -7  11   80.12    5.12
   9  -7  11    0.00    3.70
  -5  -6  11   48.34   13.79
  -4  -6  11   38.35    7.09
  -3  -6  11   99.20    4.52
  -2  -6  11    6.72    6.95
  -1  -6  11   64.20    3.91
   0  -6  11  104.14    3.44
   1  -6  11   58.71    6.09
   2  -6  11   86.01    4.24
   3  -6  11  271.39    6.31
   4  -6  11    7.05    6.31
   5  -6  11  310.92    7.38
   6  -6  11  229.83    7.93
   7  -6  11   36.56    6.05
   8  -6  11  293.03    8.03
   9  -6  11   65.79    4.76
  10  -6  11   75.11    7.12
  -6  -5  11   15.98    7.82
  -5  -5  11    0.00    6.01
  -4  -5  11    3.02    4.00
  -3  -5  11   10.17    3.24
  -2  -5  11   99.57    6.29
  -1  -5  11   36.78    2.60
   0  -5  11   84.78    2.61
   1  -5  11  480.84    7.90
   2  -5  11   17.56    2.84
   3  -5  11  995.30   24.25
   4  -5  11  486.79    8.27
   5  -5  11   32.11    2.51
   6  -5  11  311.93    8.52
   7  -5  11  273.94    9.91
   8  -5  11  109.96    6.19
   9  -5  11   37.67    5.76
  -7  -4  11   21.76   12.18
  -6  -4  11   24.97    6.36
  -5  -4  11    3.64    5.08
  -4  -4  11   37.35    3.39
  -3  -4  11    9.20    2.12
  -2  -4  11  140.73    4.24
  -1  -4  11  473.74    6.67
   0  -4  11   20.64    1.41
   1  -4  11  707.60   13.18
   2  -4  11  616.83    9.12
   3  -4  11   94.36    3.05
   4  -4  11  479.74    7.76
   5  -4  11  427.20    7.42
   6  -4  11  185.51    4.72
   7  -4  11  123.60    4.48
   8  -4  11  332.50    9.97
   9  -4  11  138.28    6.59
  10  -4  11   36.65    9.80
  -7  -3  11   35.64   12.12
  -6  -3  11   63.62    5.83
  -5  -3  11   13.46    5.85
  -4  -3  11   74.38   10.46
  -3  -3  11  240.14   15.18
  -2  -3  11   10.00    6.20
  -1  -3  11 1022.40   32.92
   0  -3  11  731.85   15.45
   1  -3  11  200.09    8.29
   2  -3  11 1336.33   20.91
   3  -3  11 1156.66   17.97
   4  -3  11  495.84   16.12
   5  -3  11  442.15   13.64
   6  -3  11  396.19   12.25
   7  -3  11  179.16   29.93
   8  -3  11   46.74   10.56
   9  -3  11   68.62   11.52
  10  -3  11   75.27   16.48
  -8  -2  11   20.80    9.83
  -7  -2  11   14.26    4.56
  -6  -2  11  188.74   10.11
  -5  -2  11  140.96    6.78
  -4  -2  11   24.43    5.33
  -3  -2  11  654.96   29.22
  -2  -2  11  479.36   11.69
  -1  -2  11  151.96    6.77
   0  -2  11  685.69   10.47
   1  -2  11 1215.98   15.13
   2  -2  11  965.42   18.36
   3  -2  11  724.83   12.75
   4  -2  11  607.71    8.47
   5  -2  11  140.29    7.06
   6  -2  11   19.76    3.76
   7  -2  11  188.12    5.66
   8  -2  11  162.05    8.68
   9  -2  11   39.21    3.91
  -9  -1  11    4.56    3.81
  -8  -1  11   24.56    4.66
  -7  -1  11   91.02    6.47
  -6  -1  11   38.19    6.79
  -5  -1  11  306.54   16.43
  -3  -1  11  174.68    8.22
  -2  -1  11 1103.03   40.02
  -1  -1  11 1566.65   43.35
   0  -1  11  228.44    5.68
   1  -1  11 1207.72   20.99
   2  -1  11 1991.35   32.91
   3  -1  11  443.40   12.33
   4  -1  11  140.59    4.80
   5  -1  11  488.76   12.33
   6  -1  11  282.31   23.34
   7  -1  11   22.10    6.70
   8  -1  11   59.55   11.45
   9  -1  11   10.34   15.95
  -9   0  11    8.45    4.46
  -8   0  11   17.62    2.52
  -7   0  11  166.80    6.33
  -6   0  11  222.22    7.28
  -5   0  11   21.58    2.97
  -4   0  11  473.86    9.58
  -3   0  11 1056.85   19.63
  -2   0  11  941.39   13.89
  -1   0  11 1129.01   15.26
   0   0  11  449.48    6.31
   1   0  11  411.34    5.92
   2   0  11   13.35    1.13
   3   0  11 1039.24   16.44
   4   0  11  237.78    4.61
   5   0  11   11.48    1.70
   6   0  11  199.47    6.09
   7   0  11   87.36    3.97
   8   0  11   25.02    4.54
   9   0  11    3.01    4.64
  -9   1  11   49.03    6.76
  -8   1  11   49.59    4.85
  -7   1  11  153.99   10.97
  -6   1  11  340.95   18.10
  -5   1  11  511.12   16.96
  -4   1  11  205.10   11.72
  -3   1  11  899.83   22.67
  -2   1  11 1795.96   31.13
  -1   1  11  479.55    7.27
   0   1  11  320.56    5.96
   1   1  11 1542.52   23.58
   2   1  11  604.76   10.70
   3   1  11   47.25    3.79
   4   1  11  321.78   10.26
   5   1  11  147.05   12.55
   6   1  11   72.88    6.50
   7   1  11   29.28    9.72
   8   1  11   42.14    7.74
 -10   2  11   45.01    5.98
  -9   2  11    0.00    3.36
  -8   2  11  179.03    9.61
  -7   2  11  244.26    5.36
  -6   2  11   79.95    5.77
  -5   2  11  486.90   10.98
  -4   2  11  553.60    9.29
  -3   2  11  671.89   16.26
  -2   2  11   21.95    1.46
  -1   2  11 1685.64   21.39
   0   2  11  283.41    9.15
   1   2  11    5.57    1.42
   2   2  11  187.75    6.19
   3   2  11  226.02    6.72
   4   2  11   35.14    2.90
   5   2  11   50.72    4.16
   6   2  11   82.49    6.45
   7   2  11   16.96    4.21
 -10   3  11   82.15   12.75
  -9   3  11   53.38    7.43
  -8   3  11   63.93    7.69
  -7   3  11   89.12    8.17
  -6   3  11  466.48   26.14
  -5   3  11  337.01   14.45
  -4   3  11  265.72    6.93
  -3   3  11 1166.34   17.90
  -2   3  11  337.88   16.44
  -1   3  11   46.53    3.81
   0   3  11  870.23   17.83
   1   3  11  144.75    9.33
   2   3  11  229.89    6.15
   3   3  11   19.48    5.80
   4   3  11   89.98   13.59
   5   3  11   17.50    4.67
   6   3  11    0.00    8.43
   7   3  11   31.05    9.32
 -10   4  11   35.73    8.04
  -9   4  11  102.29    4.34
  -8   4  11  236.23    6.05
  -7   4  11  211.98    7.08
  -6   4  11   64.55    3.02
  -5   4  11  792.39   11.49
  -4   4  11  237.77    5.64
  -3   4  11   78.22    3.10
  -2   4  11  248.83    5.33
  -1   4  11  313.54    7.64
   0   4  11   28.60    2.48
   1   4  11   32.48    2.70
   2   4  11   91.50    3.56
   3   4  11   13.23    3.33
   4   4  11    6.92    2.93
   5   4  11    8.84    5.24
   6   4  11    5.78    6.36
  -9   5  11  115.61   14.44
  -8   5  11   60.70    6.85
  -7   5  11  209.65    8.59
  -6   5  11  276.81   13.84
  -5   5  11   19.89    2.52
  -4   5  11  284.97    7.23
  -3   5  11  213.96    6.62
  -2   5  11  127.02    6.19
  -1   5  11   75.74    3.31
   0   5  11  173.57    6.69
   1   5  11   16.85    3.14
   2   5  11   75.44    4.21
   3   5  11   24.13    3.27
   4   5  11   23.75    5.18
   5   5  11   20.03    9.35
 -10   6  11   77.26   10.82
  -9   6  11   87.87    5.50
  -8   6  11  125.51    8.37
  -7   6  11   15.70    4.72
  -6   6  11  229.99    6.54
  -5   6  11  270.60    6.41
  -4   6  11   27.44    5.14
  -3   6  11   46.40    3.19
  -2   6  11   81.07    4.44
  -1   6  11   31.25    5.12
   0   6  11   25.62    3.60
   1   6  11   11.54    6.82
   2   6  11   11.52    7.65
   3   6  11    7.80    8.98
   4   6  11   29.97   15.07
  -9   7  11    3.71    7.15
  -8   7  11   70.03    8.46
  -7   7  11   97.30   16.66
  -6   7  11   38.59    6.88
  -5   7  11   65.76    6.44
  -4   7  11   40.61    4.73
  -3   7  11   17.75    3.73
  -2   7  11   54.74    3.96
  -1   7  11   53.89    3.90
   0   7  11   33.38    6.80
   1   7  11   29.08    4.83
   2   7  11    5.37    6.57
  -9   8  11   76.37    7.33
  -8   8  11   24.04    4.41
  -7   8  11   26.86    4.28
  -6   8  11   98.54    8.03
  -5   8  11   37.16    3.58
  -4   8  11   13.90    3.36
  -3   8  11   13.96    4.48
  -2   8  11    6.33    4.15
  -1   8  11   33.26    4.77
   0   8  11    0.00    9.68
  -9   9  11   26.79   11.01
  -8   9  11   45.75   11.55
  -7   9  11   16.37    4.92
  -6   9  11   25.60    5.62
  -5   9  11   40.51    6.01
  -4   9  11    9.61    4.21
  -3   9  11   17.96    3.83
  -2   9  11    8.82    5.61
  -1   9  11    6.31    7.12
  -7  10  11   66.14    9.01
  -6  10  11    0.00   15.09
  -5  10  11    4.88   10.08
  -4  10  11    0.00   13.89
   4 -11  12   63.80   13.20
   5 -11  12   58.69    7.84
   6 -11  12  164.58   16.19
   1 -10  12  194.55   12.54
   3 -10  12   44.65    8.68
   4 -10  12  304.67   14.04
   5 -10  12   35.62    6.06
   6 -10  12   49.80    8.62
   7 -10  12  360.71   14.44
   8 -10  12   18.53    6.55
  -1  -9  12  138.34    8.85
   0  -9  12   61.74   12.81
   1  -9  12   34.76    5.28
   2  -9  12  502.08   14.26
   3  -9  12    6.41    3.29
   4  -9  12  169.06    8.85
   5  -9  12  446.28   13.41
   6  -9  12   39.78    4.13
   7  -9  12  247.97    8.05
   8  -9  12  172.66    7.65
   9  -9  12   22.77    6.15
  -2  -8  12   37.28    6.49
  -1  -8  12   72.23    6.59
   0  -8  12  385.72   13.08
   1  -8  12   18.16    3.93
   2  -8  12   32.55    8.14
   3  -8  12  648.94   26.34
   4  -8  12  103.51    9.50
   5  -8  12  312.35   15.38
   6  -8  12  563.99   19.42
   7  -8  12   64.25    6.03
   8  -8  12  454.32   21.75
   9  -8  12  120.94    9.84
  10  -8  12   20.71    7.33
  -2  -7  12  463.00   16.79
  -1  -7  12   43.85    3.22
   0  -7  12  148.42    6.82
   1  -7  12  911.48   16.69
   2  -7  12   89.20    4.33
   3  -7  12  614.74   12.16
   4  -7  12  498.58   11.90
   5  -7  12   38.83    2.61
   6  -7  12  905.45   15.91
   7  -7  12  310.93    9.73
   8  -7  12  106.16    5.09
   9  -7  12  392.11   11.68
  -5  -6  12   61.77    9.97
  -4  -6  12  360.06   14.90
  -3  -6  12   12.98    2.54
  -2  -6  12   80.47    6.85
  -1  -6  12  785.51   15.76
   0  -6  12  105.88    3.92
   1  -6  12  562.29   10.23
   2  -6  12 1031.58   18.86
   3  -6  12  174.18    5.15
   4  -6  12  677.42   12.39
   5  -6  12  459.03    9.90
   6  -6  12   55.85    3.57
   7  -6  12  613.25   15.22
   8  -6  12   98.76    4.78
   9  -6  12  107.71    6.26
  10  -6  12  326.41   24.77
  -6  -5  12  178.16   10.52
  -5  -5  12   46.07   14.08
  -4  -5  12  124.99   12.93
  -3  -5  12  663.33   26.31
  -2  -5  12   83.96    5.60
  -1  -5  12  513.79   16.52
   0  -5  12  756.61   15.05
   1  -5  12   76.13    3.62
   2  -5  12 1099.09   23.77
   3  -5  12  548.70   11.17
   4  -5  12  243.22    5.26
   5  -5  12 1320.38   22.11
   6  -5  12  115.55    4.75
   7  -5  12   90.39    5.43
   8  -5  12  474.32   26.49
   9  -5  12   22.35    5.11
  -6  -4  12   61.09    8.28
  -5  -4  12  415.23   14.94
  -4  -4  12   28.65    4.44
  -3  -4  12  663.29   17.54
  -2  -4  12 1222.65   27.81
  -1  -4  12  170.52    4.21
   0  -4  12 1097.95   19.10
   1  -4  12  900.55   17.44
   2  -4  12  292.48    5.34
   3  -4  12 1108.79   20.57
   4  -4  12  139.41    4.12
   5  -4  12  262.17    5.61
   6  -4  12  924.68   17.09
   7  -4  12   53.15    3.22
   8  -4  12   90.88    5.13
   9  -4  12  246.24    9.94
  10  -4  12   36.42    9.70
  -7  -3  12  316.99   25.25
  -6  -3  12   74.19    8.17
  -5  -3  12  328.20   12.40
  -4  -3  12  596.38   18.53
  -3  -3  12  100.50    9.12
  -2  -3  12  828.51   29.38
  -1  -3  12  882.34   43.14
   0  -3  12  310.81   11.09
   1  -3  12 2183.60   42.26
   2  -3  12  171.37    4.98
   3  -3  12  156.50    6.45
   4  -3  12 1406.70   26.47
   5  -3  12   15.46    3.40
   6  -3  12  249.68   10.77
   7  -3  12  471.28   30.41
   8  -3  12   17.34    6.46
   9  -3  12  210.70   14.57
  -8  -2  12   10.94    8.78
  -7  -2  12  216.58   10.32
  -6  -2  12  826.10   31.34
  -5  -2  12   36.12    5.30
  -4  -2  12  771.19   22.56
  -3  -2  12  577.47   24.07
  -2  -2  12  171.02   10.03
  -1  -2  12 1568.42   27.50
   0  -2  12   69.53    1.91
   1  -2  12  280.74    9.58
   2  -2  12 1522.57   21.15
   3  -2  12   88.65    2.45
   4  -2  12  626.01    9.92
   5  -2  12  734.59   11.64
   6  -2  12   72.34    3.55
   7  -2  12  207.55    8.20
   8  -2  12  360.96    8.90
   9  -2  12   19.44    5.74
  -7  -1  12   83.74    6.19
  -6  -1  12  705.53   29.06
  -5  -1  12  455.83   16.56
  -3  -1  12 1761.46   83.42
  -2  -1  12  217.18   13.32
  -1  -1  12  207.33    9.22
   0  -1  12 1611.51   30.59
   1  -1  12   49.27    2.80
   2  -1  12  567.96   14.48
   3  -1  12 1066.01   29.56
   4  -1  12   82.87    3.76
   5  -1  12  697.86   18.26
   6  -1  12  490.69   22.23
   7  -1  12   61.91    8.55
   8  -1  12  324.00   25.24
   9  -1  12   94.06   14.53
  -9   0  12   27.06    6.51
  -8   0  12  389.45   12.67
  -7   0  12  382.35   14.11
  -6   0  12   36.94    3.37
  -5   0  12 1259.62   30.71
  -4   0  12  166.98    6.38
  -3   0  12  121.36    3.60
  -2   0  12 1439.59   22.16
  -1   0  12   34.49    1.34
   0   0  12 2097.99   29.28
   1   0  12 1757.56   26.09
   2   0  12   71.25    2.94
   3   0  12  693.23   11.88
   4   0  12  568.80   10.22
   5   0  12   45.91    2.35
   6   0  12  443.47   12.46
   7   0  12  386.39   10.99
   8   0  12   43.68    4.00
  -9   1  12  111.90    9.77
  -8   1  12   70.92    5.12
  -6   1  12  199.42   10.69
  -5   1  12  236.44    8.48
  -4   1  12  775.90   25.68
  -3   1  12   48.85    3.16
  -2   1  12  585.47   18.80
  -1   1  12 1911.45   29.36
   0   1  12   25.12    1.92
   1   1  12 1112.65   20.42
   2   1  12  811.76   19.27
   3   1  12   35.63    3.51
   4   1  12 1021.68   24.49
   5   1  12  183.90   15.47
   6   1  12   63.48    6.60
   7   1  12  219.86   16.01
   8   1  12  124.76    9.23
 -10   2  12   13.65    3.22
  -9   2  12  374.85   10.39
  -8   2  12  189.84    5.87
  -7   2  12   53.14    2.62
  -6   2  12  790.36   13.85
  -5   2  12   47.35    3.71
  -4   2  12  594.16    8.97
  -3   2  12 1189.58   16.03
  -2   2  12   51.80    3.30
  -1   2  12 1054.20   16.64
   0   2  12  343.23    5.94
   1   2  12   25.29    1.69
   2   2  12 1239.60   18.19
   3   2  12  735.38   12.53
   4   2  12   52.31    2.84
   5   2  12  328.38    9.42
   6   2  12  403.26   11.77
   7   2  12   60.90    8.00
 -10   3  12   70.85    8.73
  -9   3  12  103.33   10.32
  -8   3  12  461.37   25.94
  -7   3  12   27.91    4.88
  -6   3  12  209.68   11.43
  -5   3  12  828.84   17.85
  -4   3  12   41.74    3.17
  -3   3  12  727.61   11.39
  -2   3  12  780.62   15.27
  -1   3  12    4.81    2.63
   0   3  12 1285.78   25.81
   1   3  12  591.97   13.26
   2   3  12   47.76    3.19
   3   3  12  557.47   14.73
   4   3  12  175.80    9.20
   5   3  12  133.15    9.33
   6   3  12  174.43   18.25
 -10   4  12  276.46   24.66
  -9   4  12   24.89    3.18
  -8   4  12   65.88    3.28
  -7   4  12  599.00   11.10
  -6   4  12   89.71    5.24
  -5   4  12  769.18   12.47
  -4   4  12  600.22    9.55
  -3   4  12    0.00    4.10
  -2   4  12 1359.98   22.27
  -1   4  12  512.94   10.39
   0   4  12  112.32    6.03
   1   4  12  631.65   14.16
   2   4  12  489.75   13.51
   3   4  12  179.80    8.35
   4   4  12  277.80   10.28
   5   4  12  260.55   15.75
  -9   5  12  241.57   21.18
  -8   5  12    1.28    8.13
  -7   5  12  242.98   19.21
  -6   5  12  351.82   13.90
  -5   5  12   44.31    4.57
  -4   5  12  857.91   14.22
  -3   5  12  808.56   12.59
  -2   5  12   92.31    4.53
  -1   5  12  593.26    9.76
   0   5  12  316.98    9.46
   1   5  12  113.86    5.83
   2   5  12  471.30   12.21
   3   5  12  266.48   11.51
   4   5  12  134.44    8.20
 -10   6  12   45.99    5.23
  -9   6  12  190.98    8.06
  -8   6  12  383.11   13.23
  -7   6  12   26.23    5.93
  -6   6  12  437.53   13.52
  -5   6  12  261.78    6.70
  -4   6  12   33.51    2.66
  -3   6  12  617.53   10.21
  -2   6  12  332.69    8.99
  -1   6  12   98.55    4.06
   0   6  12  389.33   10.20
   1   6  12  317.75   13.24
   2   6  12   68.45    6.49
   3   6  12   86.81    9.21
 -10   7  12  216.06   14.68
  -9   7  12   19.24    6.90
  -8   7  12  297.82   17.02
  -7   7  12  391.26   16.15
  -6   7  12  101.44    9.20
  -5   7  12  352.93   11.03
  -4   7  12  160.74    5.74
  -3   7  12   94.41    3.99
  -2   7  12  408.89    9.21
  -1   7  12  384.57   11.05
   0   7  12  113.14    5.87
   1   7  12  140.32    6.96
   2   7  12  197.89   11.55
  -9   8  12  185.78   21.79
  -8   8  12   40.54    5.88
  -7   8  12  386.29   13.76
  -6   8  12  341.04   19.63
  -5   8  12  113.95   10.92
  -4   8  12  433.68   14.35
  -3   8  12  256.32   10.50
  -2   8  12  100.91    5.94
  -1   8  12   91.82    7.64
   0   8  12  206.86   14.64
   1   8  12   59.69   10.54
  -8   9  12   96.20   12.17
  -7   9  12   36.78    7.97
  -6   9  12  124.55    9.25
  -5   9  12  240.28   12.66
  -4   9  12  124.42    6.96
  -3   9  12  103.64    7.13
  -2   9  12  209.25   23.21
  -1   9  12   45.93   11.21
   2 -10  13   15.67    4.71
   4 -10  13    3.66    8.43
   5 -10  13   54.94    7.35
   6 -10  13   88.75   14.86
   7 -10  13   12.34    8.75
   8 -10  13   26.74    7.11
   0  -9  13   53.54    8.48
   1  -9  13  146.96    6.80
   2  -9  13   23.15    3.89
   3  -9  13   35.97    3.76
   4  -9  13  214.77    8.94
   5  -9  13   18.00    3.34
   6  -9  13    6.53    2.81
   7  -9  13  134.72    5.62
   8  -9  13   30.65    4.22
   9  -9  13   20.50    5.64
  -2  -8  13    2.57   11.68
  -1  -8  13  197.69    9.17
   0  -8  13   21.02    3.97
   1  -8  13   41.25    4.09
   2  -8  13  210.39    8.40
   3  -8  13    0.00    5.67
   4  -8  13   56.85    7.95
   5  -8  13  288.05   14.87
   6  -8  13   47.50   10.43
   7  -8  13   67.54    7.84
   8  -8  13  116.10    8.38
   9  -8  13   28.89    6.84
  -3  -7  13   55.59   16.22
  -2  -7  13   10.41    6.65
  -1  -7  13   37.85    3.25
   0  -7  13  255.70    8.88
   1  -7  13   28.94    4.63
   2  -7  13   42.17    3.18
   3  -7  13  582.56   15.36
   4  -7  13   67.20    4.37
   5  -7  13   57.33    3.05
   6  -7  13   85.20    5.79
   7  -7  13   44.48    3.94
   8  -7  13   15.88    3.16
   9  -7  13   21.74    6.20
  10  -7  13    5.34    8.42
  -4  -6  13   30.53   10.01
  -3  -6  13   21.47    3.78
  -2  -6  13  262.36    9.91
  -1  -6  13   16.06    4.87
   0  -6  13  125.56    5.09
   1  -6  13  610.98   16.60
   2  -6  13   67.55    4.81
   3  -6  13  107.99    4.37
   4  -6  13  203.82   12.35
   5  -6  13  104.27    4.84
   6  -6  13   59.06    2.94
   7  -6  13    3.85    7.43
   8  -6  13   42.94    3.59
   9  -6  13   12.65    5.21
  10  -6  13   31.44   18.02
  -5  -5  13   30.55    9.20
  -4  -5  13  168.19   12.09
  -3  -5  13    0.00    5.27
  -2  -5  13   55.72   12.76
  -1  -5  13  556.69   23.12
   0  -5  13   54.32    2.49
   1  -5  13  151.56    6.43
   2  -5  13  279.34    8.14
   3  -5  13  470.62    9.20
   4  -5  13   38.94    2.26
   5  -5  13  148.66    4.68
   6  -5  13   49.92    3.70
   7  -5  13    4.41    3.54
   8  -5  13   30.12    8.19
   9  -5  13    9.75    4.95
  10  -5  13   15.37   12.13
  -6  -4  13  162.77   10.16
  -5  -4  13    0.00    3.97
  -4  -4  13  140.68    7.52
  -3  -4  13  513.66   13.60
  -2  -4  13   83.79    4.31
  -1  -4  13   10.89    7.15
   0  -4  13  480.36    8.99
   1  -4  13  258.21    5.68
   2  -4  13   47.92    2.74
   3  -4  13  193.31    4.95
   4  -4  13  119.72    2.92
   5  -4  13   78.24    2.95
   6  -4  13   58.60    3.20
   7  -4  13    5.81    2.78
   8  -4  13   11.46    3.25
   9  -4  13   27.71    5.39
  -7  -3  13    0.00    9.47
  -6  -3  13   23.31    9.28
  -5  -3  13  239.55   13.01
  -4  -3  13   56.43    4.75
  -3  -3  13  114.37   13.69
  -2  -3  13  226.93   23.21
  -1  -3  13  411.91   16.10
   0  -3  13  163.95    6.32
   1  -3  13  322.36   10.20
   2  -3  13  154.04    4.30
   3  -3  13   72.11    5.30
   4  -3  13   91.91    7.39
   5  -3  13   70.41    4.83
   6  -3  13   46.47    8.64
   7  -3  13    3.62    9.17
   8  -3  13    0.00    5.55
   9  -3  13    2.80   11.88
  -8  -2  13   12.24   10.12
  -7  -2  13  110.67   13.63
  -6  -2  13   24.23    6.55
  -5  -2  13   58.88    4.40
  -4  -2  13  344.49   14.35
  -3  -2  13  355.01   15.09
  -2  -2  13   35.90    6.09
  -1  -2  13  151.32    9.25
   0  -2  13  358.81    6.39
   1  -2  13  225.83    8.44
   2  -2  13    6.32    2.42
   3  -2  13   58.84    2.23
   4  -2  13   40.27    5.99
   5  -2  13  180.67    6.01
   6  -2  13    4.62    2.11
   7  -2  13   12.86    4.57
   8  -2  13   52.57    5.48
   9  -2  13    9.17    4.96
  -7  -1  13   23.96    4.69
  -6  -1  13  100.85    7.06
  -5  -1  13  133.56    6.46
  -4  -1  13   72.14    9.88
  -2  -1  13   70.96    7.46
  -1  -1  13  180.28    6.31
   0  -1  13  365.49    9.78
   1  -1  13   45.22    2.77
   2  -1  13  114.74    5.64
   3  -1  13  103.55    6.29
   4  -1  13   19.47    4.03
   5  -1  13  111.57    8.36
   6  -1  13   85.95   10.38
   7  -1  13  107.14    8.62
   8  -1  13   58.61   15.62
   9  -1  13  131.28   18.75
  -9   0  13   18.81    5.07
  -8   0  13  128.19    9.02
  -7   0  13   57.22    4.39
  -6   0  13   52.16    3.95
  -5   0  13  159.44    6.37
  -4   0  13  137.73    4.76
  -3   0  13   61.66    2.70
  -2   0  13   12.43    0.96
  -1   0  13   46.53    1.86
   0   0  13    9.72    1.32
   1   0  13  371.61    8.90
   2   0  13  247.10    6.29
   3   0  13   97.31    3.94
   4   0  13   62.36    3.23
   5   0  13   13.42    2.23
   6   0  13   33.58    3.47
   7   0  13   94.56    5.20
   8   0  13    7.13    5.28
  -8   1  13   39.26    5.62
  -7   1  13   22.98    5.59
  -6   1  13   36.19   14.18
  -5   1  13   33.84    5.48
  -4   1  13  124.84    6.90
  -3   1  13   91.96    4.93
  -2   1  13  192.72    6.33
  -1   1  13  354.27    8.18
   0   1  13   13.66    2.36
   1   1  13  185.14    9.91
   2   1  13  207.92   10.70
   3   1  13   96.44    5.22
   4   1  13   79.66    5.39
   5   1  13   88.95   11.34
   6   1  13   34.52    5.26
   8   1  13    3.70   12.71
  -9   2  13   34.91    4.09
  -8   2  13   53.13    3.27
  -7   2  13    3.14    2.76
  -6   2  13   74.95    3.63
  -5   2  13   91.92    5.99
  -4   2  13   48.57    3.09
  -3   2  13   94.61    3.79
  -2   2  13  190.47    9.24
  -1   2  13  164.79    5.17
   0   2  13    7.63    2.71
   1   2  13   71.16    4.48
   2   2  13  280.56    6.15
   3   2  13  218.03    8.69
   4   2  13   39.30    3.93
   5   2  13   36.83    3.81
   6   2  13  155.33    7.36
   7   2  13   29.27    6.59
 -10   3  13   35.64    7.36
  -9   3  13   14.27    4.93
  -8   3  13   31.41    5.22
  -6   3  13   43.23    5.90
  -5   3  13  126.46    6.34
  -4   3  13   20.48    2.38
  -3   3  13   86.14    3.83
  -2   3  13  242.32    7.45
  -1   3  13  121.12    7.72
   0   3  13   74.29    6.58
   1   3  13  319.26    9.81
   2   3  13  112.57    7.67
   3   3  13  215.18    7.37
   4   3  13   68.38    7.80
   5   3  13   10.78    5.14
   6   3  13   69.64   12.01
 -10   4  13   36.33    4.22
  -9   4  13   14.76    2.76
  -8   4  13    6.66    2.01
  -7   4  13   29.78    3.16
  -6   4  13   16.09    2.20
  -5   4  13   52.83    2.65
  -4   4  13   38.76    3.87
  -3   4  13   82.58    3.35
  -2   4  13  269.03    5.59
  -1   4  13  154.84    7.10
   0   4  13  154.58    5.01
   1   4  13  242.50    6.56
   2   4  13  182.64    7.66
   3   4  13    0.00    4.06
   4   4  13   52.85    5.85
   5   4  13  145.46   16.64
 -10   5  13    8.75    4.24
  -9   5  13   18.45    7.39
  -8   5  13   13.64    5.13
  -6   5  13   30.74    5.60
  -5   5  13   15.06    2.66
  -4   5  13  161.49    4.37
  -3   5  13  297.74    7.74
  -2   5  13   90.48    3.90
  -1   5  13  200.73    5.83
   0   5  13  104.80    5.42
   1   5  13   14.58    3.36
   2   5  13   72.41    4.38
   3   5  13  124.78    7.51
   4   5  13    2.54    5.37
 -10   6  13    0.00    4.06
  -9   6  13   19.71    3.17
  -8   6  13  110.04   11.60
  -7   6  13   30.11    5.61
  -6   6  13   37.41    9.13
  -5   6  13   47.84    6.24
  -4   6  13   90.20    3.61
  -3   6  13  164.49    5.31
  -2   6  13  174.01    9.46
  -1   6  13    4.62    2.43
   0   6  13  135.63    6.97
   1   6  13  226.06   10.95
   2   6  13   26.25    5.53
   3   6  13    0.00    7.71
  -8   7  13   34.30    5.63
  -7   7  13   92.14   13.08
  -6   7  13   77.54   10.23
  -5   7  13   48.77    4.57
  -4   7  13  170.81    7.41
  -3   7  13    3.22    3.22
  -2   7  13   68.18    5.95
  -1   7  13  142.93    8.14
   0   7  13    4.61    3.56
   1   7  13   28.97    5.42
   2   7  13   44.78   11.74
  -9   8  13   34.34    7.65
  -8   8  13    6.97    6.20
  -7   8  13   51.30    5.76
  -6   8  13  129.45    6.92
  -5   8  13   15.37    4.35
  -4   8  13   47.88    8.11
  -3   8  13  137.12    7.47
  -2   8  13    0.00    4.32
  -1   8  13   25.63    5.83
   0   8  13   26.89    8.93
  -7   9  13    0.00    9.45
  -6   9  13   62.13    7.28
  -5   9  13   71.56    6.93
  -4   9  13   31.52    6.87
  -3   9  13   44.50    9.97
  -2   9  13   39.63    8.47
   2 -10  14   60.01    8.20
   3 -10  14  224.96   17.76
   6 -10  14  164.95   18.00
   0  -9  14    5.55    3.79
   1  -9  14  287.45   15.14
   2  -9  14  138.56    6.34
   3  -9  14  115.08    5.65
   4  -9  14  170.61    9.83
   5  -9  14  117.63    5.65
   6  -9  14  165.89    7.05
   7  -9  14  125.45    7.93
   8  -9  14   96.65    6.78
  -2  -8  14   41.12    8.97
  -1  -8  14  277.34   13.37
   0  -8  14  245.83   13.70
   1  -8  14  153.29    8.82
   2  -8  14  170.98   10.77
   3  -8  14  152.23    8.84
   4  -8  14   44.25    4.38
   5  -8  14  130.65   15.53
   6  -8  14  181.18    9.70
   7  -8  14   72.97    5.91
   8  -8  14  140.31   11.21
   9  -8  14  116.61    8.47
  -2  -7  14  149.61    8.40
  -1  -7  14   72.45    6.99
   0  -7  14  217.04    7.05
   1  -7  14  131.50    5.72
   2  -7  14   90.12    7.36
   3  -7  14  183.52    8.42
   4  -7  14  263.77    8.98
   5  -7  14  151.63    6.34
   6  -7  14   71.51    4.74
   7  -7  14  177.77    9.16
   8  -7  14   61.72    4.58
   9  -7  14  238.22   13.80
  -4  -6  14  110.82   16.95
  -3  -6  14  137.65    6.72
  -2  -6  14  226.35   10.02
  -1  -6  14  125.70    5.99
   0  -6  14   23.70    4.67
   1  -6  14  119.42    6.13
   2  -6  14  452.66   10.71
   3  -6  14  130.27    6.56
   4  -6  14  277.24    8.08
   5  -6  14  417.59    8.99
   6  -6  14  163.49    6.65
   7  -6  14  253.33    7.37
   8  -6  14  179.70    6.78
   9  -6  14   57.96    5.15
  -5  -5  14   55.04   10.11
  -4  -5  14  237.13   13.00
  -3  -5  14  205.23    8.86
  -1  -5  14  252.37   22.44
   0  -5  14  471.19    9.37
   1  -5  14  306.49   11.82
   2  -5  14  150.58    8.93
   3  -5  14  374.13    6.96
   4  -5  14  174.30    5.24
   5  -5  14  325.27    9.15
   6  -5  14  444.74    9.78
   7  -5  14  176.03    9.47
   8  -5  14  366.60   19.96
   9  -5  14   93.78   10.31
  -6  -4  14  193.39   15.71
  -5  -4  14  109.37    7.08
  -4  -4  14   51.44    4.34
  -3  -4  14   88.55    6.67
  -2  -4  14  315.51   10.19
  -1  -4  14  220.74    8.80
   0  -4  14  257.72   10.11
   1  -4  14  869.70   12.59
   2  -4  14  173.12    7.39
   3  -4  14  460.84    8.94
   4  -4  14  824.27   11.83
   5  -4  14   72.02    4.98
   6  -4  14  435.18    9.27
   7  -4  14  302.90    8.10
   8  -4  14  231.49    9.82
   9  -4  14  288.14   14.51
  -6  -3  14  114.28    7.37
  -5  -3  14  132.37    9.09
  -4  -3  14  314.78   12.15
  -3  -3  14  141.08   13.00
  -2  -3  14  238.56   16.95
  -1  -3  14  664.67   34.06
   0  -3  14  275.30    6.28
   1  -3  14  403.88    9.72
   2  -3  14 1046.39   15.27
   3  -3  14  486.43    8.24
   4  -3  14  546.81   12.84
   5  -3  14  456.14   20.29
   6  -3  14  119.40   10.16
   7  -3  14  483.96   22.01
   8  -3  14   79.06    9.59
  -7  -2  14  177.97   13.24
  -6  -2  14  116.01    5.53
  -5  -2  14  161.90    5.88
  -4  -2  14  226.47    7.65
  -3  -2  14  434.76   24.95
  -2  -2  14  252.08   11.42
  -1  -2  14  377.63    8.81
   0  -2  14 1588.35   19.88
   1  -2  14  281.35    5.42
   2  -2  14  485.86    7.69
   3  -2  14  652.78   10.17
   4  -2  14  178.57    5.11
   5  -2  14 1080.91   16.77
   6  -2  14  223.40    5.92
   7  -2  14  162.02    6.67
   8  -2  14  397.45   12.43
   9  -2  14   43.17    5.08
  -6  -1  14  174.88   11.04
  -5  -1  14  411.67   14.39
  -4  -1  14  155.35   10.67
  -2  -1  14 1124.07   31.47
  -1  -1  14  450.88    9.00
   0  -1  14  945.83   28.15
   1  -1  14  788.58   20.13
   2  -1  14  332.93    9.84
   3  -1  14  875.82   26.03
   4  -1  14  263.52    9.70
   5  -1  14  202.91    8.83
   6  -1  14  556.90   20.03
   7  -1  14   93.36    8.05
  -8   0  14  182.75   13.63
  -7   0  14  174.05    9.59
  -6   0  14  157.35    7.86
  -5   0  14  314.92   11.86
  -4   0  14  856.78   20.11
  -3   0  14  419.84   11.76
  -2   0  14  442.43    7.76
  -1   0  14  843.59   12.99
   0   0  14   21.74    1.50
   1   0  14 1239.76   18.87
   2   0  14  553.99   10.36
   3   0  14  245.36    5.67
   4   0  14  951.28   17.44
   5   0  14   13.79    2.08
   6   0  14  247.86    7.70
   7   0  14  327.21   11.02
   8   0  14    7.43    3.96
  -6   1  14  534.30   19.97
  -5   1  14  110.67   13.53
  -4   1  14  692.09   23.82
  -3   1  14  659.11   19.32
  -2   1  14  261.93    8.96
  -1   1  14 1174.91   24.94
   0   1  14  423.87   12.16
   1   1  14  356.54   10.23
   2   1  14  861.95   18.67
   3   1  14   92.94    5.44
   4   1  14  365.28   10.22
   5   1  14  550.96   27.07
   6   1  14   10.69    4.76
  -9   2  14  199.69   13.43
  -8   2  14  224.37    5.57
  -7   2  14  210.72    5.52
  -6   2  14  546.32   10.65
  -5   2  14  523.39   10.33
  -4   2  14  122.05    3.28
  -3   2  14  758.10   14.82
  -2   2  14  594.16   10.87
  -1   2  14  373.05    6.76
   0   2  14 1338.82   18.51
   1   2  14    0.00    4.46
   2   2  14  303.88    5.82
   3   2  14  792.15   12.84
   4   2  14   53.71    4.33
   5   2  14  395.34    9.50
   6   2  14  215.92    8.19
   7   2  14    1.39    4.54
  -9   3  14   39.60    5.98
  -8   3  14  341.88   20.83
  -7   3  14  502.75   20.70
  -6   3  14  112.49    6.47
  -5   3  14  907.54   27.11
  -4   3  14  312.50    8.52
  -3   3  14  236.53    6.50
  -2   3  14  961.11   18.49
  -1   3  14   55.62    4.39
   0   3  14  558.42   12.78
   1   3  14  849.85   21.79
   2   3  14   37.44    4.42
   3   3  14  443.83   10.43
   4   3  14  273.24   13.11
   5   3  14   11.21    5.63
   6   3  14  183.89   19.97
 -10   4  14  198.62   23.23
  -9   4  14  123.65    5.58
  -8   4  14  109.22    6.30
  -7   4  14  351.87    9.97
  -6   4  14  215.55    6.47
  -5   4  14  295.91    6.77
  -4   4  14 1016.87   18.21
  -3   4  14  128.34    3.81
  -2   4  14  235.89    6.16
  -1   4  14  805.37   15.20
   0   4  14    8.47    2.61
   1   4  14  612.30   14.25
   2   4  14  369.80   11.55
   3   4  14   27.35    5.34
   4   4  14  471.62   22.74
   5   4  14  147.20   17.51
 -10   5  14   57.45    9.55
  -9   5  14  366.16   26.68
  -8   5  14  158.72   15.32
  -7   5  14   99.94    9.03
  -6   5  14  467.96   35.06
  -5   5  14   22.30    2.88
  -4   5  14  192.82    5.87
  -3   5  14  686.91   13.61
  -2   5  14   28.84    3.24
  -1   5  14  765.60   17.75
   0   5  14  388.30   12.58
   1   5  14   29.47    3.54
   2   5  14  339.84   10.10
   3   5  14  158.42    7.57
   4   5  14   22.57    7.80
  -9   6  14   91.32    8.29
  -8   6  14  502.55   14.40
  -7   6  14  132.13    6.21
  -6   6  14  230.25    9.03
  -5   6  14  481.83   12.97
  -4   6  14    6.26    4.44
  -3   6  14  406.73   12.50
  -2   6  14  400.92   14.20
  -1   6  14    7.90    3.75
   0   6  14  454.55   14.31
   1   6  14  222.87   11.69
   2   6  14   20.48    6.76
   3   6  14  431.83   28.71
  -9   7  14   65.52   14.50
  -8   7  14   81.93    7.52
  -7   7  14  380.06   13.03
  -6   7  14   19.52    4.08
  -5   7  14  394.46   16.51
  -4   7  14  418.07   12.25
  -3   7  14   38.74    4.58
  -2   7  14  321.41    9.57
  -1   7  14  118.74    5.83
   0   7  14    5.61    4.35
   1   7  14  388.27   14.85
  -8   8  14    0.94   10.16
  -7   8  14  105.92   10.98
  -6   8  14  217.29    9.64
  -5   8  14    0.00    4.87
  -4   8  14  339.87   15.85
  -3   8  14  222.37   15.45
  -2   8  14    0.55    7.44
  -1   8  14  448.86   21.48
   0   8  14   73.25   12.45
  -6   9  14  170.58   11.03
  -5   9  14   76.67    7.62
  -4   9  14    0.00    4.76
  -3   9  14  368.52   16.95
   3 -10  15   10.33    5.45
   0  -9  15    5.66    3.47
   1  -9  15   28.39   11.99
   2  -9  15   31.69    4.08
   3  -9  15    4.01    2.30
   4  -9  15    0.00    3.40
   5  -9  15   20.08    4.14
   6  -9  15   13.60    4.26
   7  -9  15   82.78    5.84
   8  -9  15    8.50    4.64
  -1  -8  15    0.00    9.56
   0  -8  15    0.00    4.15
   1  -8  15    1.97    2.30
   2  -8  15   59.47    4.76
   3  -8  15    7.18    3.85
   4  -8  15   32.16    4.53
   5  -8  15  111.22    6.31
   6  -8  15   16.94    4.04
   7  -8  15   16.71    3.91
   8  -8  15   99.98    6.77
   9  -8  15    0.00    8.21
  -3  -7  15    0.00    9.75
  -2  -7  15   24.47   12.58
  -1  -7  15    2.70    7.59
   0  -7  15   40.57    6.16
   1  -7  15   23.17    3.60
   2  -7  15   28.17    4.82
   3  -7  15   57.88    6.13
   4  -7  15    5.88    2.77
   5  -7  15    9.48    5.11
   6  -7  15  176.20   10.68
   7  -7  15   22.46    4.85
   8  -7  15    0.00    3.57
   9  -7  15  138.34    9.46
  -4  -6  15   27.11   13.04
  -3  -6  15   15.82    7.88
  -2  -6  15   34.29    5.70
  -1  -6  15   28.88    8.28
   0  -6  15   38.55    7.22
   1  -6  15   75.13    5.28
   2  -6  15   33.41    3.18
   3  -6  15   10.91    6.31
   4  -6  15  504.98   12.92
   5  -6  15   50.66    3.79
   6  -6  15    0.00    5.45
   7  -6  15  345.20   13.54
   8  -6  15   39.91    5.12
   9  -6  15    6.35    6.46
  -5  -5  15   64.09    9.74
  -4  -5  15   14.24    7.05
  -3  -5  15    2.36    3.98
  -2  -5  15   14.88    6.10
  -1  -5  15  144.89   14.38
   0  -5  15    3.88    3.19
   1  -5  15   32.17    3.52
   2  -5  15  554.91   14.13
   3  -5  15   57.88    2.99
   4  -5  15   99.29    3.55
   5  -5  15  273.15    6.92
   6  -5  15  119.99    6.17
   7  -5  15    7.46    5.69
   8  -5  15  143.74   19.89
   9  -5  15   92.94   10.33
  -6  -4  15   28.28   10.41
  -5  -4  15   23.77    6.47
  -4  -4  15   21.04    3.32
  -3  -4  15   32.06    3.15
  -2  -4  15   30.20    2.69
  -1  -4  15   97.52    4.62
   0  -4  15  492.04   10.18
   1  -4  15  112.18    3.70
   2  -4  15   33.19    3.08
   3  -4  15  866.49   11.79
   4  -4  15  212.29    5.16
   5  -4  15    6.31    3.01
   6  -4  15  258.06    7.75
   7  -4  15  303.06    7.59
   8  -4  15    9.37    3.80
   9  -4  15   60.69    9.10
  -7  -3  15    0.91    4.75
  -6  -3  15   22.02    6.99
  -5  -3  15  112.61   11.79
  -4  -3  15    0.00    6.35
  -3  -3  15   25.86    5.72
  -2  -3  15  639.44   41.50
  -1  -3  15  103.96   13.73
   0  -3  15   94.55    4.42
   1  -3  15  727.68   19.62
   2  -3  15  426.50   10.49
   3  -3  15    1.71    2.35
   4  -3  15  649.23   15.87
   5  -3  15  165.10    8.79
   6  -3  15    0.00    8.05
   7  -3  15  166.79   19.54
   8  -3  15  141.55   16.21
  -7  -2  15   82.23    8.48
  -6  -2  15    0.00    4.00
  -5  -2  15   11.21    3.66
  -4  -2  15  305.64   11.24
  -3  -2  15   20.14    8.55
  -2  -2  15   47.42    4.59
  -1  -2  15  808.77   22.39
   0  -2  15  258.31    7.03
   1  -2  15   10.94    2.86
   2  -2  15  795.41   16.10
   3  -2  15 1100.31   16.26
   4  -2  15    0.00    3.07
   5  -2  15  221.42    8.44
   6  -2  15  264.38    7.71
   7  -2  15   61.68    5.69
   8  -2  15    7.44    4.11
   9  -2  15   55.40    9.85
  -7  -1  15   38.62    8.36
  -6  -1  15  309.11   13.67
  -5  -1  15   32.71    6.99
  -4  -1  15  100.05    8.51
  -2  -1  15  508.49   18.62
  -1  -1  15   19.95    1.88
   0  -1  15 1118.42   23.95
   1  -1  15  668.78   18.21
   2  -1  15   10.35    1.65
   3  -1  15  365.58   12.87
   4  -1  15  512.48   17.62
   5  -1  15    1.43    3.91
   6  -1  15   58.33   10.59
   7  -1  15  142.80    9.73
  -8   0  15   79.08    9.29
  -7   0  15   15.10    3.40
  -6   0  15    9.75    3.54
  -5   0  15  257.84   12.31
  -4   0  15  176.52    6.57
  -3   0  15    7.41    1.35
  -2   0  15  794.14   13.29
  -1   0  15  738.43   12.68
   0   0  15   36.29    1.85
   1   0  15  446.11    8.57
   2   0  15  697.40   12.00
   3   0  15  112.25    4.23
   4   0  15  143.34    5.06
   5   0  15  348.97    9.34
   6   0  15   73.58    4.51
   7   0  15    6.74    3.18
   8   0  15   24.53    6.94
  -6   1  15  147.55   10.23
  -4   1  15 1032.11   56.01
  -3   1  15  870.36   24.50
  -2   1  15   17.63    3.03
  -1   1  15  471.46   12.47
   0   1  15  876.29   17.35
   1   1  15   86.54    3.93
   2   1  15  157.12    7.23
   3   1  15  404.60   11.35
   4   1  15   43.11    4.14
   5   1  15  107.07    9.59
   6   1  15   66.49    8.01
  -9   2  15   98.44   18.88
  -8   2  15   27.29    2.90
  -7   2  15   13.71    2.66
  -6   2  15  273.13    9.26
  -5   2  15  142.39    4.74
  -4   2  15   21.64    2.93
  -3   2  15  346.60    8.97
  -2   2  15  702.99   10.88
  -1   2  15   64.04    5.05
   0   2  15  453.73    9.02
   1   2  15  726.98   12.15
   2   2  15   70.07    4.61
   3   2  15   20.31    2.21
   4   2  15  111.58    4.38
   5   2  15   66.73    5.38
   6   2  15   25.87    9.73
  -8   3  15  175.56   13.32
  -7   3  15  199.58   14.24
  -6   3  15    3.27    2.23
  -5   3  15  341.07   13.33
  -4   3  15  612.73   32.32
  -3   3  15  111.67    5.73
  -2   3  15  219.96    7.09
  -1   3  15  761.71   14.95
   0   3  15   31.94    5.52
   1   3  15    9.81    4.57
   2   3  15  115.27    6.23
   3   3  15   91.53    7.96
   4   3  15    0.00    6.28
   5   3  15    5.22    5.94
  -9   4  15   59.77    5.58
  -8   4  15    0.00    2.90
  -7   4  15  107.75    4.83
  -6   4  15  357.30   11.51
  -5   4  15   16.01    2.04
  -4   4  15  181.11    4.64
  -3   4  15  331.83    7.20
  -2   4  15   50.96    3.23
  -1   4  15   25.51    2.24
   0   4  15  233.26    6.55
   1   4  15  144.61    6.22
   2   4  15   11.23    2.62
   3   4  15   10.84    4.18
   4   4  15   38.67    6.99
   5   4  15    0.00    7.70
  -8   5  15  139.49   13.84
  -7   5  15   69.02    7.53
  -5   5  15  404.40   15.24
  -4   5  15   41.82    3.43
  -3   5  15   12.07    2.28
  -2   5  15  171.11    5.02
  -1   5  15  163.11    6.24
   0   5  15   24.08    3.69
   1   5  15    6.76    3.47
   2   5  15   28.65    3.66
   3   5  15    6.39    4.12
   4   5  15   14.52   12.16
  -9   6  15    6.69    3.78
  -8   6  15   31.48    4.87
  -7   6  15  105.87    7.09
  -6   6  15   78.34    6.39
  -5   6  15   57.82    7.88
  -4   6  15  174.81    9.79
  -3   6  15   65.79    5.11
  -2   6  15   13.56    6.73
  -1   6  15    8.32    3.89
   0   6  15   35.39    3.85
   1   6  15   39.21    6.09
   2   6  15    0.00    9.02
  -9   7  15   77.69   12.83
  -8   7  15   34.18   10.81
  -7   7  15    0.00    5.15
  -6   7  15  123.26    6.11
  -5   7  15   86.70    5.63
  -4   7  15   51.00    8.66
  -3   7  15   18.90    3.83
  -2   7  15   42.84    4.53
  -1   7  15    0.00    4.75
   0   7  15    5.21    6.71
   1   7  15   14.42    7.11
  -8   8  15   60.74   11.16
  -7   8  15   30.86   11.53
  -6   8  15    0.84    4.75
  -5   8  15   21.37    4.69
  -4   8  15   25.26    5.38
  -3   8  15    2.14    5.56
  -2   8  15   11.69    7.46
  -6   9  15    0.00   12.64
  -5   9  15    2.65    7.12
  -4   9  15    5.95   10.50
   4 -10  16   96.96    8.93
   5 -10  16   63.70    9.14
   6 -10  16  326.64   25.06
   1  -9  16  223.25   12.84
   2  -9  16   92.02    9.20
   3  -9  16   49.50    6.81
   4  -9  16  422.84   14.58
   5  -9  16   95.52    5.65
   6  -9  16   41.91    6.40
   7  -9  16  380.70   14.09
   8  -9  16   55.66   10.80
   0  -8  16  103.25   11.20
   1  -8  16   31.63    4.14
   2  -8  16  879.54   22.59
   3  -8  16  135.27    9.61
   4  -8  16   73.68    6.62
   5  -8  16  532.33   15.15
   6  -8  16   61.81    6.61
   7  -8  16  198.33    9.34
   8  -8  16  204.32   12.28
  -1  -7  16   33.18    8.18
   0  -7  16  775.92   23.32
   1  -7  16  198.29    6.42
   2  -7  16  109.46    4.70
   3  -7  16  623.08   14.10
   4  -7  16  104.30    5.30
   5  -7  16  235.30    7.81
   6  -7  16  620.66   16.04
   7  -7  16    7.91    3.38
   8  -7  16  152.02    8.05
   9  -7  16   96.99    9.08
  -4  -6  16   73.69   12.99
  -3  -6  16   22.77    5.48
  -2  -6  16  803.42   21.39
  -1  -6  16  310.19   13.02
   0  -6  16   84.68    8.46
   1  -6  16  750.07   21.55
   2  -6  16   54.95    4.07
   3  -6  16  185.51    7.02
   4  -6  16  627.37   20.69
   5  -6  16   30.64    3.88
   6  -6  16  243.53   11.68
   7  -6  16  261.35    9.85
   8  -6  16   40.99    5.30
   9  -6  16  154.29    8.61
  -5  -5  16    9.55   12.16
  -3  -5  16   95.66    8.52
  -2  -5  16  114.45   11.62
  -1  -5  16  830.81   47.16
   0  -5  16   43.07    4.88
   1  -5  16  299.12    8.14
   2  -5  16  905.44   18.56
   3  -5  16  115.13    4.41
   4  -5  16  261.75    8.93
   5  -5  16  270.09    7.92
   6  -5  16   17.81    3.41
   7  -5  16  230.68   20.19
   8  -5  16  103.36    9.62
   9  -5  16   32.72   11.00
  -6  -4  16  340.82   19.88
  -5  -4  16  134.27    6.43
  -4  -4  16  145.57    6.43
  -3  -4  16  716.41   15.38
  -2  -4  16   97.00    5.67
  -1  -4  16  121.21    7.94
   0  -4  16 1018.07   22.64
   1  -4  16   69.42    3.29
   2  -4  16  321.73    7.65
   3  -4  16  442.00   10.22
   4  -4  16   78.29    3.07
   5  -4  16  601.89   12.39
   6  -4  16  140.22    7.80
   7  -4  16   48.92    4.07
   8  -4  16  121.86   12.88
   9  -4  16   72.42    6.93
  -6  -3  16   54.63    7.24
  -5  -3  16  567.70   23.67
  -4  -3  16   69.63    6.11
  -3  -3  16  185.11   10.22
  -2  -3  16  864.80   43.52
   0  -3  16  499.08   11.59
   1  -3  16  463.95   10.03
   2  -3  16   28.36    3.64
   3  -3  16  572.01   10.86
   4  -3  16  253.07    8.13
   5  -3  16  149.37    8.36
   6  -3  16  480.59   30.61
   7  -3  16  385.17   26.97
   8  -3  16   76.68   12.74
   9  -3  16  152.65   18.83
  -7  -2  16  481.26   21.82
  -6  -2  16   82.00    5.91
  -5  -2  16  152.01    7.17
  -4  -2  16  657.36   16.14
  -3  -2  16  107.17    4.86
  -2  -2  16  268.92    8.46
  -1  -2  16  582.50   12.11
   0  -2  16   93.18    5.18
   1  -2  16  719.79   11.35
   2  -2  16  464.93    9.06
   3  -2  16   83.21    5.85
   4  -2  16  478.40    8.90
   5  -2  16   42.98    2.93
   6  -2  16  130.10    6.65
   7  -2  16  313.25    8.86
   8  -2  16   46.77    5.33
  -8  -1  16   46.57    7.75
  -7  -1  16  154.10   15.98
  -6  -1  16  635.00   26.61
  -5  -1  16   47.50    8.88
  -4  -1  16  467.14   23.00
  -2  -1  16   39.93    4.41
  -1  -1  16  683.88   17.10
   0  -1  16  146.27    6.07
   1  -1  16  281.20    9.02
   2  -1  16  712.46   19.32
   3  -1  16   85.19    5.83
   4  -1  16  253.89   12.73
   5  -1  16  346.40   14.15
   6  -1  16   74.87    9.62
   7  -1  16  151.54   12.44
  -8   0  16  235.61   22.48
  -7   0  16   17.95    3.82
  -6   0  16  210.60    9.15
  -5   0  16  353.28   15.47
  -4   0  16   66.32    5.90
  -3   0  16  535.59   12.45
  -2   0  16  535.74   10.18
  -1   0  16  274.39    6.49
   0   0  16  936.36   16.50
   1   0  16   38.11    2.34
   2   0  16  233.18    5.54
   3   0  16  710.51   13.81
   4   0  16   98.60    4.03
   5   0  16  349.79    9.66
   6   0  16  286.28    8.83
   7   0  16   84.05    6.51
  -6   1  16   16.00    3.67
  -4   1  16  219.03   13.15
  -3   1  16  111.14    5.66
  -2   1  16  793.15   26.79
  -1   1  16   50.46    3.19
   0   1  16  564.97   12.06
   1   1  16  621.54   17.17
   2   1  16   68.61    4.96
   3   1  16  470.52   12.36
   4   1  16  207.52   10.39
   5   1  16  123.14   15.71
   6   1  16  189.25   21.01
  -9   2  16  189.53    9.52
  -8   2  16   40.58    3.70
  -7   2  16  269.67    7.59
  -6   2  16  186.80    5.60
  -5   2  16  174.57    5.76
  -4   2  16  500.02    9.45
  -3   2  16   68.26    3.12
  -2   2  16  204.61    5.17
  -1   2  16  587.87   10.44
   0   2  16  118.99    3.31
   1   2  16  556.60    8.53
   2   2  16  583.13    9.42
   3   2  16   43.76    2.89
   4   2  16  314.18    7.44
   5   2  16  203.84    7.39
   6   2  16   90.38    8.32
  -9   3  16  119.01   10.55
  -8   3  16  126.34   10.89
  -7   3  16   26.25    4.60
  -6   3  16  469.31   16.10
  -5   3  16   82.23    5.64
  -4   3  16  248.40    8.99
  -3   3  16  694.24   14.38
  -2   3  16   75.51    4.50
  -1   3  16  624.44   13.36
   0   3  16  125.92    4.83
   1   3  16   78.10    4.63
   2   3  16  333.70   10.16
   3   3  16  280.56    9.63
   4   3  16  210.77   12.00
  -9   4  16   42.11    3.53
  -8   4  16  215.87    9.50
  -7   4  16   46.33    5.23
  -6   4  16   93.12    4.98
  -5   4  16  244.70    8.08
  -4   4  16   88.90    5.54
  -3   4  16  516.46    9.98
  -2   4  16  600.67   10.50
  -1   4  16  122.83    7.04
   0   4  16  382.23   11.55
   1   4  16  420.00   11.03
   2   4  16  166.77    8.38
   3   4  16  263.98   11.05
  -9   5  16  125.41   14.45
  -8   5  16   59.77   10.17
  -7   5  16  314.50   13.61
  -6   5  16  171.01    9.16
  -5   5  16  320.18   21.02
  -4   5  16  335.67   10.51
  -3   5  16   24.19    5.84
  -2   5  16  338.17    9.89
  -1   5  16  269.02   14.00
   0   5  16  320.77   13.09
   1   5  16  358.53   12.13
   2   5  16  141.14    8.83
  -9   6  16  132.59   12.07
  -8   6  16   31.40    5.45
  -7   6  16  154.60   10.64
  -6   6  16  272.58   12.16
  -5   6  16  166.50    6.16
  -4   6  16  292.25   11.62
  -3   6  16  238.63   10.59
  -2   6  16  155.33    8.37
  -1   6  16  278.09   11.11
   0   6  16  228.83   11.38
   1   6  16   87.25    8.63
   2   6  16   74.11   13.31
  -7   7  16   54.70   12.80
  -6   7  16  218.89    7.85
  -5   7  16  185.34    7.53
  -4   7  16  186.29    7.35
  -3   7  16  351.22   11.87
  -2   7  16  185.39    9.32
  -1   7  16  126.00    7.23
   0   7  16   45.11    8.07
  -7   8  16  200.07   24.57
  -6   8  16   76.41    8.87
  -5   8  16  142.98    8.73
  -4   8  16  141.63    9.94
  -3   8  16  101.55    7.44
  -2   8  16   76.63   13.81
   1  -9  17   30.59    6.59
   2  -9  17    7.44    3.63
   4  -9  17   32.15    7.90
   5  -9  17   51.54    8.45
   6  -9  17    9.67    6.73
   7  -9  17    4.46    3.89
   1  -8  17   14.38    4.08
   2  -8  17   58.22    5.03
   3  -8  17   46.81    5.00
   4  -8  17   87.76    5.16
   5  -8  17    4.87    2.69
   6  -8  17   77.36    6.97
   7  -8  17   30.29    5.24
   8  -8  17   19.77    9.16
  -1  -7  17    4.18   11.24
   0  -7  17    0.00    4.63
   1  -7  17   41.57    2.91
   2  -7  17   67.03    5.32
   3  -7  17   11.76    3.95
   4  -7  17  116.08    5.57
   5  -7  17   43.18    5.04
   6  -7  17   35.85    4.68
   7  -7  17   31.48    5.03
   8  -7  17   30.00    8.02
  -3  -6  17    0.00    5.76
  -2  -6  17   36.58    7.19
  -1  -6  17    0.00    8.65
   0  -6  17  144.70   12.66
   1  -6  17   20.42   10.94
   2  -6  17  253.61   10.21
   3  -6  17   97.74   11.41
   5  -6  17   93.61    8.89
   6  -6  17    1.90    6.40
   7  -6  17    0.00    3.35
   8  -6  17    0.00    4.78
   9  -6  17    0.00    7.51
  -3  -5  17   53.85    7.42
  -2  -5  17   83.29   10.12
   0  -5  17  156.57   13.37
   1  -5  17   82.33    3.86
   2  -5  17   24.36    2.48
   3  -5  17   35.38    3.01
   4  -5  17  111.82    5.14
   5  -5  17    1.23    3.79
   6  -5  17   51.75    9.15
   7  -5  17   20.55    3.54
   8  -5  17   13.51    6.53
  -5  -4  17   32.82    4.87
  -4  -4  17   92.37    4.89
  -3  -4  17   50.14    4.62
  -2  -4  17  157.36    7.73
  -1  -4  17   64.15    4.76
   0  -4  17   10.06    2.82
   1  -4  17  117.09    5.21
   2  -4  17  140.90    4.40
   3  -4  17   12.00    1.92
   4  -4  17   32.02    3.75
   5  -4  17  100.05    4.99
   6  -4  17   29.27    3.34
   7  -4  17   15.66    3.25
   8  -4  17    0.00    4.40
  -6  -3  17   29.39    7.03
  -5  -3  17    0.37    8.64
  -4  -3  17  119.01    7.40
  -3  -3  17   66.62   14.89
  -2  -3  17   29.34    5.83
  -1  -3  17   95.65   13.38
   0  -3  17  193.29    8.83
   1  -3  17   30.25    2.46
   2  -3  17  118.82    5.19
   3  -3  17    3.83    2.57
   4  -3  17   44.64    3.98
   5  -3  17   39.10    6.00
  -7  -2  17    0.00   10.52
  -6  -2  17   35.14    3.51
  -5  -2  17   23.06    4.71
  -4  -2  17   12.09    3.25
  -3  -2  17   71.81    4.83
  -2  -2  17  101.40    8.50
  -1  -2  17   22.71    2.52
   0  -2  17  135.26    4.22
   1  -2  17   54.59    4.68
   2  -2  17    5.93    2.18
   3  -2  17   25.72    4.23
   4  -2  17   26.46    5.15
   5  -2  17    0.47    3.25
   6  -2  17   19.12    4.52
   7  -2  17    0.00    4.47
   8  -2  17   28.82   10.90
  -7  -1  17   29.46   10.07
  -6  -1  17   25.29    6.29
  -4  -1  17  168.04   11.98
  -2  -1  17  127.17    6.15
  -1  -1  17   60.57    3.30
   0  -1  17    6.44    2.10
   1  -1  17   51.27    3.36
   2  -1  17   39.74    4.39
   3  -1  17  170.96   10.26
   4  -1  17   59.59    6.02
   5  -1  17   49.95    7.06
   6  -1  17  113.27   11.36
  -7   0  17   44.27    7.13
  -6   0  17   18.77    3.84
  -5   0  17    0.00    4.70
  -4   0  17   39.87    4.89
  -3   0  17    2.92    1.57
  -2   0  17   12.19    1.32
  -1   0  17   42.67    2.06
   0   0  17  129.93    3.81
   1   0  17   39.33    2.40
   2   0  17   68.96    3.00
   3   0  17   53.36    2.77
   4   0  17   72.86    3.84
   5   0  17    6.91    2.27
   6   0  17   24.41    3.61
   7   0  17   40.67    6.97
  -4   1  17   45.50    5.54
  -3   1  17   51.54    4.26
  -2   1  17   32.04    3.63
  -1   1  17   44.51    3.31
   0   1  17  120.25    5.79
   1   1  17   28.39    3.36
   2   1  17  294.69    9.80
   3   1  17  138.79    7.19
   4   1  17   44.40    4.44
   5   1  17   69.50    9.48
  -8   2  17    8.08    3.70
  -7   2  17    0.00    3.41
  -6   2  17    0.00    4.00
  -5   2  17   28.34    3.26
  -4   2  17   49.64    3.39
  -3   2  17   92.86    8.35
  -2   2  17   72.22    3.67
  -1   2  17   12.29    2.98
   0   2  17  128.78    6.38
   1   2  17   27.37    2.62
   2   2  17   84.05    6.10
   3   2  17   92.52    5.31
   4   2  17   83.24    3.98
   5   2  17   29.95    5.50
   6   2  17   82.61   11.12
  -8   3  17   13.30    4.43
  -7   3  17   24.61    5.84
  -6   3  17   37.63    5.54
  -5   3  17    6.87    3.36
  -4   3  17   52.15    6.79
  -3   3  17   61.79    5.16
  -2   3  17  215.86   15.94
  -1   3  17   64.99    4.49
   0   3  17   59.16    4.81
   1   3  17  164.59   15.03
   2   3  17  344.58   12.28
   3   3  17   87.12    7.08
   4   3  17  104.30   15.55
  -9   4  17    2.68    4.53
  -8   4  17   19.50    3.01
  -7   4  17   65.07    3.64
  -6   4  17   28.78    3.00
  -5   4  17   13.85    3.02
  -4   4  17   68.11    4.51
  -3   4  17  125.91    5.41
  -2   4  17   90.36    5.47
  -1   4  17  149.23    7.22
   0   4  17  154.17    7.60
   1   4  17   69.30    6.35
   2   4  17   49.95    7.41
   3   4  17  101.27   15.09
  -7   5  17   33.35    4.62
  -6   5  17   81.68    5.18
  -5   5  17    9.94    3.27
  -4   5  17   72.70    6.58
  -3   5  17  143.17    8.62
  -2   5  17  313.15   10.90
  -1   5  17    6.50    4.82
   0   5  17   65.05    5.01
   1   5  17  193.35    9.30
   2   5  17   87.98    7.37
   3   5  17   34.76   11.13
  -8   6  17   15.70    7.60
  -7   6  17   41.69    4.61
  -6   6  17   13.50    6.01
  -5   6  17  137.14    6.36
  -4   6  17   77.47    5.13
  -3   6  17   90.29    8.10
  -2   6  17   39.48    6.57
  -1   6  17  189.36   10.75
   0   6  17   72.78    9.87
   1   6  17   21.02    7.05
  -8   7  17   26.63   14.39
  -6   7  17   79.85    6.91
  -5   7  17    0.00    6.08
  -4   7  17   25.91    4.97
  -3   7  17   92.01    5.15
  -2   7  17   85.91    7.13
  -1   7  17   41.34    7.98
   0   7  17   56.58   13.26
  -5   8  17   80.05   11.51
  -4   8  17   52.85    7.80
  -3   8  17    9.39   13.14
   2  -9  18   46.10    6.81
   3  -9  18   69.12    7.54
   4  -9  18  211.02   10.94
   5  -9  18   64.84    6.50
   6  -9  18   80.75    8.50
   1  -8  18   71.12    6.23
   2  -8  18  129.30    7.85
   3  -8  18   66.03    5.01
   4  -8  18  149.45    7.87
   5  -8  18  198.07    9.28
   6  -8  18   82.17    9.65
   7  -8  18   34.09   17.24
  -2  -7  18   26.57   13.03
  -1  -7  18   55.69    6.82
   0  -7  18  175.43   10.48
   1  -7  18   72.07    5.10
   2  -7  18  109.10    6.10
   3  -7  18  334.17    9.21
   4  -7  18   72.30    4.54
   5  -7  18   96.95    5.73
   6  -7  18  315.31   10.45
   7  -7  18   90.67    7.15
   8  -7  18  137.61    9.67
  -3  -6  18   53.30   12.55
  -2  -6  18  133.57    8.05
  -1  -6  18   62.11    6.11
   0  -6  18  208.30   10.61
   1  -6  18  457.56   14.24
   2  -6  18   78.32    5.19
   3  -6  18  114.86    6.38
   4  -6  18  436.75   15.74
   5  -6  18  140.68    6.57
   6  -6  18   71.31    4.68
   7  -6  18  251.20   10.60
   8  -6  18   56.62    6.10
  -3  -5  18   54.51    9.58
  -2  -5  18  130.83   15.45
   0  -5  18  151.65   18.19
   1  -5  18   76.56    6.56
   2  -5  18  482.11   18.70
   3  -5  18  134.89   11.39
   4  -5  18  280.73   14.61
   5  -5  18  499.44   17.98
   6  -5  18   84.57    7.71
   7  -5  18  232.24   14.35
   8  -5  18  169.75   17.71
  -5  -4  18   39.50    4.17
  -4  -4  18   92.60    6.10
  -3  -4  18  442.34   13.49
  -2  -4  18  102.30    6.71
  -1  -4  18  159.04    8.99
   0  -4  18  614.56   14.33
   1  -4  18  146.57    6.66
   2  -4  18  191.84    6.87
   3  -4  18  752.29   12.41
   4  -4  18   64.55    4.89
   5  -4  18  169.28    9.93
   6  -4  18  578.21   17.02
   7  -4  18  106.84   10.02
   8  -4  18  185.40   11.82
  -6  -3  18   89.01   13.33
  -5  -3  18  223.17   12.80
  -3  -3  18   69.71   10.31
  -2  -3  18  355.61   22.71
  -1  -3  18  186.87   10.84
   0  -3  18  231.17    6.33
   1  -3  18 1095.56   19.68
   2  -3  18  233.33    6.30
   3  -3  18  169.58    5.57
   4  -3  18  519.33   15.66
   5  -3  18   24.61    6.77
   8  -3  18   45.32   12.30
  -6  -2  18   86.93    5.83
  -5  -2  18  107.96    5.03
  -4  -2  18  479.23   12.05
  -3  -2  18  108.95    4.93
  -2  -2  18  199.16   10.52
  -1  -2  18 1186.73   24.15
   0  -2  18   98.31    3.51
   1  -2  18  246.38    6.12
   2  -2  18  976.89   14.50
   3  -2  18  206.44    5.99
   4  -2  18  477.86    9.95
   5  -2  18  437.83   14.55
   6  -2  18   19.75    3.64
   7  -2  18  241.27    9.65
   8  -2  18   41.16   11.12
  -7  -1  18  120.89   15.36
  -6  -1  18  236.76   16.68
  -5  -1  18  150.92   16.18
  -2  -1  18  389.10   15.11
  -1  -1  18  244.78    8.13
   0  -1  18  989.51   23.25
   1  -1  18   43.71    3.11
   2  -1  18  423.22   13.92
   3  -1  18  615.69   24.61
   4  -1  18   33.05    6.29
   5  -1  18  475.29   21.92
  -7   0  18   78.31    6.85
  -6   0  18   88.77   12.83
  -5   0  18  612.68   23.75
  -4   0  18   72.95    5.19
  -3   0  18  181.78    6.30
  -2   0  18  978.38   17.09
  -1   0  18   52.63    2.65
   0   0  18  635.69   13.98
   1   0  18  803.31   15.04
   2   0  18   44.54    2.42
   3   0  18  386.73    8.56
   4   0  18  131.31    5.33
   5   0  18   45.43    3.69
   6   0  18  294.04   13.07
   7   0  18   49.60    8.11
  -8   1  18   80.76   15.65
  -7   1  18  307.60   21.47
  -5   1  18  240.09   12.97
  -4   1  18  622.73   36.20
  -3   1  18  152.15    7.98
  -2   1  18  363.66   15.04
  -1   1  18  774.93   22.12
   0   1  18   27.60    4.26
   1   1  18  514.33   15.14
   2   1  18  348.06   17.57
   3   1  18   15.72    5.99
   4   1  18  486.39   19.87
   5   1  18   46.66   11.45
  -8   2  18   64.31    8.75
  -7   2  18  157.69    8.13
  -6   2  18  635.88   13.77
  -5   2  18   27.74    3.45
  -4   2  18  485.60   13.41
  -3   2  18  837.01   14.93
  -2   2  18   34.00    2.39
  -1   2  18  522.40   10.69
   0   2  18  125.20    4.24
   1   2  18   65.98    3.18
   2   2  18  521.95   11.76
   3   2  18   84.45    4.30
   4   2  18   82.80    4.57
   5   2  18  300.45   13.03
  -7   3  18   80.72    6.78
  -6   3  18  286.97   14.19
  -5   3  18  484.65   27.96
  -4   3  18   39.23   12.25
  -3   3  18  416.85   20.28
  -2   3  18  361.84   17.42
  -1   3  18   51.83    5.27
   0   3  18  756.01   21.95
   1   3  18   54.50    6.90
   2   3  18   45.13   14.73
   3   3  18  409.93   29.35
  -8   4  18  200.35   13.61
  -7   4  18  421.21   11.39
  -6   4  18   34.25    4.00
  -5   4  18  401.03   12.35
  -4   4  18  133.41    5.68
  -3   4  18   14.25    3.85
  -2   4  18  508.53   20.90
  -1   4  18   38.21    4.63
   0   4  18  126.61    6.84
   1   4  18  348.94   15.13
   2   4  18    3.26    4.77
   3   4  18  154.21   11.09
  -7   5  18  258.22   13.33
  -6   5  18  106.01    8.36
  -5   5  18   30.59    3.53
  -4   5  18  431.88   15.60
  -3   5  18  131.06    9.41
  -2   5  18   41.19    5.67
  -1   5  18  311.12   15.01
   0   5  18    3.89    4.93
   1   5  18  143.15    8.65
   2   5  18  329.36   17.95
  -8   6  18  153.36   11.70
  -6   6  18  287.81   10.49
  -5   6  18   53.26    4.85
  -4   6  18   85.01    4.58
  -3   6  18  395.08   11.51
  -2   6  18    0.00    3.85
  -1   6  18  174.83    8.68
   0   6  18  281.11   12.94
   1   6  18   13.18    6.67
  -7   7  18   45.78    7.10
  -5   7  18  270.91   12.09
  -4   7  18    5.19    4.62
  -3   7  18  105.31    6.00
  -2   7  18  298.46   15.23
  -1   7  18   22.09    7.16
   3  -9  19    8.29    3.13
   4  -9  19   24.14    5.40
   5  -9  19    2.85    4.13
   2  -8  19    5.67    3.81
   3  -8  19   17.61    5.54
   4  -8  19   24.52    6.13
   5  -8  19   33.18    7.26
   0  -7  19   32.54   12.01
   1  -7  19    0.00    5.70
   2  -7  19   14.47    3.36
   3  -7  19   37.09    4.03
   4  -7  19   44.47    5.47
   5  -7  19   54.92    5.30
   6  -7  19    4.73    3.69
   7  -7  19    3.18    5.01
  -3  -6  19   35.55   13.62
  -2  -6  19    0.00    7.09
   1  -6  19   34.23    4.33
   2  -6  19   17.74    4.19
   3  -6  19  116.28    7.08
   4  -6  19   44.73    6.46
   5  -6  19   71.26    6.24
   6  -6  19  110.22    7.15
   7  -6  19   16.74    7.61
   8  -6  19   49.47   10.55
  -4  -5  19   11.52    4.35
  -3  -5  19    3.11    5.95
  -2  -5  19    4.88    5.06
  -1  -5  19   60.69    7.15
   0  -5  19   24.77    4.54
   1  -5  19   66.68    4.42
   2  -5  19    4.88    2.72
   3  -5  19   96.18    5.94
   4  -5  19  245.46    8.15
   5  -5  19    0.00    3.77
   6  -5  19   33.37    5.51
   7  -5  19  101.34    7.99
   8  -5  19   25.66    8.95
  -5  -4  19   10.60    4.54
  -4  -4  19    4.95    3.61
  -3  -4  19   18.45    3.88
  -2  -4  19   16.65    4.75
  -1  -4  19  130.65    6.99
   0  -4  19   13.92    3.59
   1  -4  19  152.08    5.82
   2  -4  19  311.50    8.42
   3  -4  19    7.57    4.88
   4  -4  19  127.05    8.52
   5  -4  19  137.78    6.24
   6  -4  19   30.44    5.10
   7  -4  19    0.00    8.34
   8  -4  19   91.82    9.91
  -5  -3  19   44.86    8.16
  -4  -3  19   39.06    6.51
  -3  -3  19   91.80   14.75
  -2  -3  19   10.53   14.13
  -1  -3  19  179.53   15.77
   0  -3  19  214.00    9.89
   1  -3  19   27.41    4.82
   2  -3  19   56.94    3.58
   3  -3  19  340.66   11.31
   4  -3  19  120.83    9.77
   7  -3  19   71.28   14.25
  -6  -2  19    8.48    3.24
  -5  -2  19  103.99    7.02
  -4  -2  19    6.95    9.05
  -3  -2  19  120.05    6.45
  -2  -2  19  300.90   14.01
  -1  -2  19    0.00    5.66
   0  -2  19   80.07    3.02
   1  -2  19  448.56   10.98
   2  -2  19  202.80    5.71
   3  -2  19   64.60    3.83
   4  -2  19  256.96   12.70
   5  -2  19   90.66    5.39
   6  -2  19    5.80    4.99
   7  -2  19    0.00    6.95
  -7  -1  19   50.96    5.70
  -6  -1  19   21.20    6.30
  -5  -1  19   80.11   12.23
  -4  -1  19  149.06   17.24
  -2  -1  19   41.29    6.28
  -1  -1  19  482.06   12.57
   0  -1  19   63.64    4.45
   1  -1  19  190.12    7.68
   2  -1  19  325.86   13.18
   3  -1  19  204.95   11.60
   4  -1  19   51.22   11.13
   6  -1  19   90.46   14.38
   7  -1  19   27.74   10.89
  -7   0  19    5.98    4.94
  -6   0  19  107.51    9.58
  -5   0  19    3.43    6.36
  -4   0  19  133.92    9.74
  -3   0  19  330.38   11.77
  -2   0  19  229.31    6.37
  -1   0  19  189.50    5.86
   0   0  19  247.53    6.36
   1   0  19  204.99    5.70
   2   0  19   13.61    2.09
   3   0  19   98.12    5.12
   4   0  19  163.63    7.82
   5   0  19    2.67    3.07
   6   0  19   61.35    5.64
  -7   1  19    0.00    8.90
  -5   1  19  162.27   10.73
  -4   1  19   91.55    9.13
  -3   1  19   72.96    5.39
  -2   1  19  311.15   13.79
  -1   1  19  228.02   11.73
   0   1  19   87.94    6.08
   1   1  19  232.68   12.84
   2   1  19  245.61   15.20
   3   1  19    0.00    7.28
   4   1  19  199.57   19.79
   5   1  19   40.93   12.54
   6   1  19   11.17   11.27
  -8   2  19   57.46    6.16
  -7   2  19   64.67    9.91
  -6   2  19   22.84    4.30
  -5   2  19  134.07    4.89
  -4   2  19  259.08    8.29
  -3   2  19  170.29    7.20
  -2   2  19    4.71    2.88
  -1   2  19  285.91    8.43
   0   2  19  318.05    8.95
   1   2  19   24.91    3.60
   2   2  19   45.71    5.06
   3   2  19   31.92    6.87
   4   2  19   23.36    4.91
   5   2  19   34.92    5.96
  -7   3  19   39.67    6.29
  -6   3  19   95.61    7.43
  -5   3  19  128.00    8.80
  -4   3  19   48.40    7.34
  -3   3  19   94.11   15.87
  -1   3  19    0.00   10.77
   0   3  19  322.20   30.31
   1   3  19  119.16   15.69
   3   3  19   77.20    9.01
   4   3  19    1.94    7.79
  -8   4  19   79.83    6.63
  -7   4  19   43.21    6.02
  -6   4  19   11.87    4.09
  -5   4  19  244.30    7.73
  -4   4  19  186.70    6.99
  -3   4  19    2.74    2.77
  -2   4  19   37.87    4.06
  -1   4  19  107.60    6.82
   0   4  19   43.97    5.60
   1   4  19   45.73    5.21
   2   4  19    1.03    4.49
   3   4  19   26.31    5.12
  -8   5  19   39.40   13.79
  -6   5  19  110.14    6.56
  -5   5  19    0.00    3.31
  -4   5  19  149.71    7.35
  -3   5  19   52.08    4.29
  -2   5  19   37.81    4.81
  -1   5  19   70.40    5.94
   0   5  19   36.45    5.77
   1   5  19   23.98    5.96
   2   5  19    7.85    8.48
  -7   6  19   17.76    6.52
  -5   6  19   64.46    5.30
  -4   6  19   29.85    4.62
  -3   6  19   90.21    7.10
  -2   6  19    0.00    4.84
  -1   6  19   44.77    7.55
   0   6  19   21.80    9.94
  -6   7  19   11.12    7.69
  -5   7  19   60.76   11.83
  -4   7  19   21.79    6.38
  -3   7  19   76.43   10.86
  -2   7  19    0.00    6.75
   1  -8  20  279.81   14.60
   2  -8  20  153.19   12.65
   3  -8  20   14.92    5.80
   4  -8  20  257.97   20.48
   5  -8  20   99.11   11.71
   6  -8  20   27.60    6.69
  -1  -7  20  293.53   16.04
   1  -7  20   20.61   11.35
   2  -7  20  466.79   12.25
   3  -7  20  228.39    9.27
   4  -7  20   38.77    6.11
   5  -7  20  377.09   13.33
   6  -7  20   49.20   11.68
   7  -7  20   55.25   12.86
  -2  -6  20  170.19   10.81
  -1  -6  20    9.74    8.04
   0  -6  20  418.07   26.65
   1  -6  20  181.68    8.45
   2  -6  20   62.15    4.53
   3  -6  20  461.42   16.75
   4  -6  20  124.21    8.30
   5  -6  20   33.79    6.37
   6  -6  20  373.08   13.50
   7  -6  20   53.28    8.93
  -3  -5  20   11.88    8.41
  -2  -5  20  429.22   16.65
  -1  -5  20  270.40   14.22
   0  -5  20   38.01    5.46
   1  -5  20  657.70   15.19
   2  -5  20  103.10    5.49
   3  -5  20   24.28    3.49
   4  -5  20  273.77   11.39
   5  -5  20   52.10    5.07
   6  -5  20  124.89   10.64
   7  -5  20  151.23   10.81
  -4  -4  20  265.35    8.93
  -3  -4  20  114.56    8.38
  -2  -4  20   42.90    4.26
  -1  -4  20  685.17   22.43
   0  -4  20  113.35    5.36
   1  -4  20   39.83    3.54
   2  -4  20  426.78   11.21
   3  -4  20  107.20    5.11
   4  -4  20  108.75    5.30
   5  -4  20  183.52    9.49
   6  -4  20   55.06    6.26
   7  -4  20   56.35    8.44
  -5  -3  20  123.08   10.98
  -4  -3  20   39.80    6.96
  -3  -3  20  598.66   33.00
  -2  -3  20  179.45   17.04
   0  -3  20  383.17   21.89
   1  -3  20  123.47    7.09
   2  -3  20  149.59    7.10
   3  -3  20  475.19   21.68
   4  -3  20   85.67    9.89
   5  -3  20  231.95   14.87
   6  -3  20  130.24   10.67
   7  -3  20   87.94   14.95
  -6  -2  20   27.37    6.08
  -5  -2  20  481.63   13.64
  -4  -2  20  147.99    6.59
  -3  -2  20   33.28    4.78
  -2  -2  20  485.15   20.43
  -1  -2  20   76.79    5.99
   0  -2  20  177.99    5.04
   1  -2  20  376.56    9.79
   2  -2  20   58.90    5.72
   3  -2  20  135.14    6.38
   4  -2  20  189.08   12.46
   5  -2  20  196.92    6.83
   6  -2  20  198.06    7.46
   7  -2  20  100.29    6.63
  -6  -1  20   99.44   13.25
  -5  -1  20   40.99   11.50
  -4  -1  20  266.14   23.76
  -1  -1  20  482.12   13.84
   0  -1  20  153.64   12.30
   1  -1  20  208.76   15.84
   5  -1  20  142.72   19.14
   6  -1  20   94.03   15.14
  -7   0  20   61.73    8.03
  -6   0  20  362.61   20.41
  -5   0  20   44.15    6.60
  -4   0  20   91.57    9.19
  -3   0  20  466.81   16.86
  -2   0  20   66.36    4.22
  -1   0  20  223.64    6.57
   0   0  20  130.89    4.57
   1   0  20  254.41    7.48
   2   0  20  430.89   17.48
   3   0  20  196.33    9.74
   4   0  20  314.67   12.07
   5   0  20  118.35    6.20
   6   0  20  143.14    9.44
  -7   1  20    3.45   11.03
  -5   1  20  254.82   13.34
  -4   1  20  150.67    8.52
  -3   1  20  186.15    9.65
  -2   1  20  237.92   16.18
  -1   1  20  227.01   12.11
   0   1  20  331.25   24.62
   1   1  20  245.92   22.18
   3   1  20  319.57   26.16
   4   1  20  184.96   13.66
   5   1  20  243.01   14.75
  -7   2  20  186.45   12.67
  -6   2  20   36.19    4.05
  -5   2  20  174.18    5.39
  -4   2  20  183.61    5.01
  -3   2  20  132.81    4.55
  -2   2  20  477.96    9.59
  -1   2  20  261.77    9.95
   0   2  20  511.65   13.69
   1   2  20  204.07    8.32
   2   2  20  112.17    5.37
   3   2  20  272.45    8.55
   4   2  20   94.62    6.14
  -7   3  20  140.47   11.90
  -6   3  20  139.41    6.37
  -5   3  20  168.22   13.75
  -4   3  20  236.35   13.09
  -3   3  20  178.20    9.49
  -2   3  20  301.56   13.55
  -1   3  20  196.70   12.69
   0   3  20  182.22   13.07
   1   3  20  286.37   13.20
   2   3  20  225.85   13.62
   3   3  20  129.77   10.51
  -7   4  20   34.37    7.89
  -6   4  20  177.65    8.95
  -5   4  20  265.63   11.37
  -4   4  20  325.18   11.03
  -3   4  20  342.30   11.56
  -2   4  20   98.33   10.17
  -1   4  20  302.20   12.54
   0   4  20  105.21    8.42
   1   4  20  128.48   12.33
   2   4  20  170.82   12.30
  -7   5  20  152.25   20.81
  -6   5  20  215.31   13.26
  -5   5  20  139.66    7.69
  -4   5  20  152.23    8.92
  -3   5  20  258.87   12.23
  -2   5  20  183.65    9.78
  -1   5  20  175.26   11.36
   0   5  20  146.32   10.02
   1   5  20   66.41    8.85
  -6   6  20  125.57    8.21
  -5   6  20  115.00   16.51
  -4   6  20  126.84   10.06
  -3   6  20   91.67    8.60
  -2   6  20  167.30   13.13
  -1   6  20   25.61    8.76
   2  -8  21    7.51    3.93
   4  -8  21    6.93    4.47
   5  -8  21   23.50    7.72
   0  -7  21    0.00    9.62
   2  -7  21   30.40    5.41
   3  -7  21   47.56    7.49
   4  -7  21   15.54    5.93
   6  -7  21   51.93   11.65
  -2  -6  21    0.47   11.14
   0  -6  21    2.92   11.36
   1  -6  21   60.91    5.94
   2  -6  21    7.28    3.00
   3  -6  21    0.00    3.66
   4  -6  21   35.75    5.80
   5  -6  21   11.52    5.83
   6  -6  21   16.47   13.61
  -2  -5  21   13.40   10.07
  -1  -5  21   21.24   11.08
   0  -5  21   29.12    8.58
   1  -5  21   42.21    3.86
   2  -5  21   45.72    7.06
   3  -5  21    9.72    3.48
   4  -5  21   12.33    6.51
   5  -5  21    0.00    4.81
   6  -5  21   20.60    5.47
   7  -5  21   22.20    6.76
  -4  -4  21   25.69    5.04
  -3  -4  21   74.34    4.96
  -2  -4  21   18.11    4.92
  -1  -4  21   10.96    4.65
   0  -4  21   31.44    6.37
   1  -4  21    3.47    3.04
   2  -4  21    9.27    3.15
   3  -4  21   12.55    3.87
   4  -4  21   22.19    3.35
   5  -4  21   50.69    4.94
   6  -4  21   10.74    4.99
   7  -4  21    0.00    9.89
  -5  -3  21   51.66   11.82
  -4  -3  21    0.00    4.46
  -3  -3  21   19.05    6.61
  -1  -3  21   31.31    8.36
   0  -3  21    3.25    2.39
   1  -3  21   27.97    4.98
   2  -3  21    0.00    4.77
   3  -3  21   43.99    6.68
   4  -3  21    2.15    7.97
   5  -3  21    0.09    7.76
   6  -3  21   29.35    8.00
   7  -3  21   16.11    8.53
  -5  -2  21   10.87    4.23
  -4  -2  21   48.11    4.00
  -3  -2  21   10.71    4.93
  -2  -2  21    0.00    4.93
  -1  -2  21   33.59    3.37
   0  -2  21   41.54    4.86
   1  -2  21   19.32    3.87
   2  -2  21    0.00    4.84
   3  -2  21    0.00    4.06
   4  -2  21   41.17    4.02
   5  -2  21    0.00    4.12
   6  -2  21    1.61    4.57
  -5  -1  21   33.87   10.08
  -4  -1  21    0.00    8.62
  -2  -1  21   16.85    4.91
  -1  -1  21   53.13    3.58
   0  -1  21    3.74    1.98
   1  -1  21   31.36    5.56
   2  -1  21   93.35   17.98
   5  -1  21   42.73   13.21
   6  -1  21    9.80   13.17
  -6   0  21   32.13    8.33
  -5   0  21    6.93    4.50
  -4   0  21   29.29    6.04
  -3   0  21   41.65    4.33
  -2   0  21   27.22    2.98
  -1   0  21   16.92    2.22
   0   0  21    7.39    2.11
   1   0  21   13.23    2.12
   2   0  21    2.28    1.98
   3   0  21  140.64    6.67
   4   0  21    8.69    2.83
   5   0  21   11.95    3.90
  -7   1  21    3.40    3.86
  -5   1  21   51.65   12.43
  -4   1  21   11.17    4.95
  -3   1  21   36.39    7.42
  -2   1  21  119.19    9.24
  -1   1  21   11.01    4.38
   0   1  21   19.57    9.74
   2   1  21   77.11    8.44
   3   1  21    5.23    5.72
   4   1  21   27.57   10.97
   5   1  21   51.64    9.02
  -7   2  21   12.22   12.69
  -6   2  21    3.56    3.96
  -5   2  21    0.68    3.60
  -4   2  21   14.52    7.05
  -3   2  21    0.00    3.30
  -2   2  21    0.00    2.49
  -1   2  21   61.88    8.31
   0   2  21    9.66    4.58
   1   2  21   10.76    2.96
   2   2  21   89.42    7.55
   3   2  21  116.53    6.50
   4   2  21    6.44    5.60
  -7   3  21   14.65    6.78
  -6   3  21   35.19    5.94
  -5   3  21   10.53   10.47
  -4   3  21   17.00    8.62
  -3   3  21   89.69   13.66
  -2   3  21   72.15    7.68
  -1   3  21   12.03    5.69
   0   3  21   45.98   18.31
   1   3  21   94.95    7.98
   2   3  21    0.00    6.29
   3   3  21   94.48    8.94
  -7   4  21   12.11    7.15
  -5   4  21   49.80    4.73
  -4   4  21    3.70    2.94
  -3   4  21    7.05    2.82
  -2   4  21   94.59    6.10
  -1   4  21   84.88    7.19
   0   4  21   10.83    4.29
   1   4  21   86.13    7.29
   2   4  21   98.68    7.44
  -4   5  21   80.53    7.30
  -3   5  21   93.79    7.33
  -2   5  21    9.26    5.09
  -1   5  21   92.27   10.15
   0   5  21   87.48   11.48
  -5   6  21   17.10    5.70
  -4   6  21    0.00    8.53
  -3   6  21   61.05   10.44
  -2   6  21   78.31    7.41
   1  -7  22    0.00   11.53
   2  -7  22  195.81   11.74
   3  -7  22   71.93    9.79
   4  -7  22   54.13    8.86
   5  -7  22  259.56   12.71
  -1  -6  22   61.61   10.92
   1  -6  22   97.05   14.70
   2  -6  22   35.19    4.62
   3  -6  22  340.33   11.89
   4  -6  22  122.37   10.27
   5  -6  22   73.24   24.19
   0  -5  22   65.41    9.07
   1  -5  22  496.56   17.08
   2  -5  22  214.88   13.00
   3  -5  22  119.89    7.39
   4  -5  22  426.58   16.90
   5  -5  22   78.56    9.02
   6  -5  22   39.30    9.79
  -3  -4  22  103.34    6.55
  -2  -4  22   45.98    6.16
  -1  -4  22  400.79   15.96
   0  -4  22  265.14   15.99
   1  -4  22   83.46    5.73
   2  -4  22  595.55   14.16
   3  -4  22  149.41    7.53
   4  -4  22   65.75    5.77
   5  -4  22  509.04   15.07
   6  -4  22   12.08    8.50
  -4  -3  22   20.40    9.58
  -3  -3  22  364.17   17.48
  -2  -3  22  240.67   19.93
  -1  -3  22  138.61   10.82
   0  -3  22  628.20   15.98
   1  -3  22  132.77    6.53
   2  -3  22   55.96    5.68
   3  -3  22  587.94   19.97
   4  -3  22   70.70    7.38
   5  -3  22   81.95   11.74
   6  -3  22  267.74   17.07
  -5  -2  22  219.38   19.34
  -4  -2  22  135.65    6.67
  -3  -2  22  114.14    7.84
  -2  -2  22  614.09   23.21
  -1  -2  22  208.81    6.77
   0  -2  22   48.84    3.17
   1  -2  22  862.65   16.68
   2  -2  22  203.43    7.78
   3  -2  22   63.53    3.95
   4  -2  22  427.45   10.95
   5  -2  22    0.00    3.89
   6  -2  22  104.10    7.89
  -4  -1  22  631.96   41.29
  -1  -1  22  725.19   29.10
   0  -1  22   70.36    5.10
   1  -1  22  110.96    7.64
   2  -1  22  510.36   35.06
   3  -1  22   14.60    9.02
   5  -1  22  233.84   22.62
  -5   0  22  127.26   11.39
  -4   0  22   67.64    8.83
  -3   0  22  561.07   25.59
  -2   0  22  198.20    6.98
  -1   0  22   95.03    4.52
   0   0  22  629.14   14.42
   1   0  22    4.60    2.12
   2   0  22   34.91    3.23
   3   0  22  392.42   11.62
   4   0  22   12.84    3.35
   5   0  22  189.96   11.55
  -3   1  22   66.53    7.34
  -2   1  22  568.80   22.00
  -1   1  22    2.69    3.29
   0   1  22  153.80   16.23
   1   1  22  290.20   28.97
   2   1  22   17.46    6.01
   3   1  22  191.22   14.26
   4   1  22  136.54   19.86
  -6   2  22   53.85    7.89
  -5   2  22   75.68    4.68
  -4   2  22  473.42   11.67
  -3   2  22   13.16    4.29
  -2   2  22   33.61    3.31
  -1   2  22  362.47   10.09
   0   2  22   24.03    4.31
   1   2  22  285.58    9.30
   2   2  22  313.96   12.27
   3   2  22    0.00    4.52
  -6   3  22  358.75   21.70
  -5   3  22   30.74    8.04
  -4   3  22   84.87   11.99
  -3   3  22  423.06   28.00
  -2   3  22   14.97    8.24
  -1   3  22  283.68   16.22
   0   3  22  145.25   11.54
   1   3  22    0.00    9.39
   2   3  22  185.62   13.70
  -6   4  22   78.72    8.20
  -5   4  22  233.77   14.46
  -4   4  22   12.19    4.98
  -3   4  22  161.29    8.02
  -2   4  22  296.16   11.41
  -1   4  22   26.46    5.64
   0   4  22  232.11   13.24
   1   4  22   78.76   15.83
  -5   5  22  148.98   13.22
  -4   5  22  184.72   21.61
  -2   5  22  209.58   21.90
  -1   5  22  119.36   18.15
   3  -7  23    4.55    2.78
   0  -6  23   75.34   13.43
   2  -6  23    0.50    4.02
   3  -6  23   76.69    9.94
   4  -6  23   48.77    8.88
   5  -6  23   14.43    6.74
   2  -5  23   21.85    5.67
   3  -5  23   26.26    6.81
   4  -5  23   25.92    7.36
   5  -5  23   56.21    9.91
  -2  -4  23    0.00    7.47
  -1  -4  23   53.99    7.10
   0  -4  23   52.79    6.77
   1  -4  23   13.01    3.63
   2  -4  23   45.52    5.21
   3  -4  23  135.71    8.17
   4  -4  23    4.60    4.07
   5  -4  23    0.00    6.72
   6  -4  23   56.53   14.30
  -2  -3  23   16.83   11.05
  -1  -3  23   49.38    8.33
   0  -3  23   36.51    3.77
   1  -3  23  102.38    7.70
   2  -3  23   10.70    7.94
   3  -3  23    1.49    5.07
   4  -3  23  124.34    8.80
   5  -3  23   41.02   11.37
  -4  -2  23   33.16    5.43
  -3  -2  23    2.96    9.19
  -2  -2  23    0.66    8.13
  -1  -2  23  127.03    5.03
   0  -2  23   12.78    2.53
   1  -2  23    7.87    4.38
   2  -2  23   86.96    4.96
   3  -2  23  135.31    6.88
   4  -2  23    2.45    4.66
   5  -2  23   64.13    7.07
  -5  -1  23    3.39    5.21
  -3  -1  23  150.53   12.27
  -1  -1  23   39.68    3.89
   0  -1  23  189.46    8.21
   1  -1  23   98.31    8.60
   2  -1  23   11.74    8.30
   3  -1  23   53.95   12.01
  -4   0  23    1.01    5.72
  -3   0  23   11.81    3.84
  -2   0  23   85.65    4.94
  -1   0  23   93.74    5.46
   0   0  23    2.66    2.04
   1   0  23   84.79    5.01
   2   0  23   38.64    4.15
   3   0  23   26.04    3.46
   4   0  23    5.35    4.39
  -3   1  23  103.38   10.23
  -2   1  23    9.02    3.64
  -1   1  23   80.47    9.70
   0   1  23  176.85   17.90
   1   1  23   22.84    8.88
   2   1  23   14.51    7.17
   3   1  23   93.83   14.31
  -6   2  23   62.31   10.57
  -5   2  23   26.59    7.02
  -4   2  23    6.00    3.72
  -3   2  23   53.87    4.59
  -2   2  23   38.78    4.84
  -1   2  23   14.31    4.12
   0   2  23   25.94    4.64
   1   2  23  147.15    8.25
   2   2  23    0.00    7.41
   3   2  23    6.84    9.20
  -3   3  23   35.03    8.77
  -2   3  23   20.56    8.36
  -1   3  23  144.73   19.30
   0   3  23   16.67    8.09
  -5   4  23   48.13    9.13
  -4   4  23    4.26    7.13
  -3   4  23   77.52   12.27
  -2   4  23    5.81    9.67
  -1   4  23    0.00   10.08
   0   4  23   27.34    8.63
   2  -6  24  164.44   13.82
   3  -6  24  124.64   12.69
   0  -5  24  157.07   13.76
   2  -5  24   15.79    7.03
   3  -5  24  137.95   14.40
   4  -5  24  118.51   12.03
  -2  -4  24  155.21   16.02
  -1  -4  24  199.77   18.56
   0  -4  24    1.96    6.71
   1  -4  24  235.52    8.04
   2  -4  24  169.52    8.30
   3  -4  24    5.17    6.46
   4  -4  24  177.51   19.27
   5  -4  24   89.83   11.90
  -3  -3  24  133.72   13.70
   0  -3  24  186.65    9.89
   1  -3  24   52.24    5.27
   2  -3  24  285.20   13.33
   3  -3  24  137.07   15.18
   4  -3  24   63.17   14.89
   5  -3  24  128.53   14.78
  -4  -2  24   27.70   11.10
  -2  -2  24  177.92   11.72
  -1  -2  24   40.30    4.04
   0  -2  24  228.55    7.44
   1  -2  24  171.25    6.67
   2  -2  24   67.53    4.79
   3  -2  24  318.61   10.32
   4  -2  24  218.99   13.35
  -1  -1  24  108.34    7.27
   0  -1  24  107.47   12.23
   1  -1  24  230.73   12.45
   2  -1  24  162.36   19.94
  -3   0  24  134.01   10.36
  -2   0  24   56.29    4.37
  -1   0  24  252.37   11.19
   0   0  24  375.93   11.73
   1   0  24  191.18    7.86
   2   0  24  141.71    6.36
   3   0  24  134.94    9.21
  -3   1  24  219.71   11.23
  -1   1  24  213.28   17.51
   0   1  24  179.05   19.98
   1   1  24  211.65   21.93
  -5   2  24  127.84    8.36
  -4   2  24  189.74   10.22
  -3   2  24  152.08   10.75
  -2   2  24  155.67   12.36
  -1   2  24  225.58   11.20
   2   2  24  189.92   10.90
  -3   3  24  119.04   15.38
  -3   4  24   98.54    6.35
  -2   4  24  234.73    8.47
   1  -5  25    6.77    3.04
   2  -5  25    5.40    5.43
   3  -5  25    7.14    2.83
  -1  -4  25    0.00   10.58
   1  -4  25    0.00    8.42
   2  -4  25    1.55    6.62
   3  -4  25    3.14    6.29
   4  -4  25   11.17    9.51
  -2  -3  25    4.65    5.47
   0  -3  25    5.83    4.04
   1  -3  25   27.44   10.15
   2  -3  25    4.10   11.40
   3  -3  25   23.68   13.08
   4  -3  25    6.63    4.98
  -3  -2  25    0.73   10.35
  -2  -2  25    0.00    6.43
  -1  -2  25    0.00    6.30
   0  -2  25    0.00    5.41
   1  -2  25    0.00    6.40
   2  -2  25    4.57    6.54
   3  -2  25   14.18   11.02
   4  -2  25   20.61   12.00
  -1  -1  25   15.75    3.93
   1  -1  25    8.00   11.59
  -4   0  25   24.39    8.66
  -3   0  25    6.61    6.21
  -2   0  25   23.09   11.36
  -1   0  25   18.78    6.19
   0   0  25    7.04    4.54
   1   0  25    5.70    4.66
   2   0  25   58.52    7.31
  -3   1  25    5.09    4.53
  -1   1  25    0.00    6.85
  -4   2  25   25.73    3.98
  -3   2  25   12.49    3.48
  -2   2  25   29.27    7.62
  -1   2  25   17.14    6.81
   0   2  25   63.50    5.93
  -2   3  25   42.20   14.26
   0  -3  26  135.26   11.93
   1  -3  26    9.51    4.14
   2  -3  26  272.66   12.03
  -1  -2  26    0.00    8.16
   0  -2  26  355.82   10.73
   1  -2  26  128.09    8.15
   2  -2  26    0.00    4.69
  -1  -1  26  162.56   13.30
   0  -1  26   19.10    5.62
   2  -1  26   67.39    9.94
  -2   0  26    4.42    3.19
  -1   0  26  321.47   14.93
   0   0  26   31.65    4.93
   1   0  26   18.17    4.45
  -2   1  26   66.92    8.68
  -1   1  26   13.98    6.36
   0   0   0    0.00    0.00

_computing_structure_solution     'SHELXT 2014/5 (Sheldrick, 2014)'
;
_shelx_hkl_checksum              53049
_shelx_shelxl_version_number     2014/7
_olex2_submission_special_instructions 'No special instructions were received'
loop_
_space_group_symop_operation_xyz
'x, y, z'
'-x, -y, -z'
loop_
_atom_site_label
_atom_site_type_symbol
_atom_site_fract_x
_atom_site_fract_y
_atom_site_fract_z
_atom_site_U_iso_or_equiv
_atom_site_adp_type
_atom_site_occupancy
_atom_site_site_symmetry_order
_atom_site_calc_flag
_atom_site_refinement_flags_posn
_atom_site_refinement_flags_adp
_atom_site_refinement_flags_occupancy
Lu1 Lu 0.5000 0.0000 0.0000 0.00782(9) Uani 1 2 d S T P
Lu2 Lu 0.5000 1.0000 0.5000 0.01270(10) Uani 1 2 d S T P
Cs1 Cs -0.15575(15) 0.68396(9) 1.05095(4) 0.01768(11) Uani 1 1 d . . .
Cs2 Cs 1.12713(18) 1.26555(11) 0.68151(4) 0.02505(14) Uani 1 1 d . . .
Cs3 Cs 1.1850(3) 1.35700(14) 0.41780(6) 0.03750(19) Uani 1 1 d . . .
Si1 Si 0.4489(6) 0.9043(3) 0.71376(13) 0.0079(3) Uani 1 1 d . . .
Si2 Si -0.3742(4) 0.7089(4) 0.83439(16) 0.0073(4) Uani 1 1 d . . .
Si3 Si -0.2925(4) 0.3349(4) 0.82921(16) 0.0075(4) Uani 1 1 d . . .
Si4 Si 0.0792(4) 0.7904(4) 0.82771(17) 0.0080(4) Uani 1 1 d . . .
O1 O -0.1158(10) 0.8487(11) 0.8157(5) 0.0125(13) Uani 1 1 d . . .
O2 O 0.2208(12) 0.8803(13) 0.7454(6) 0.0166(14) Uani 1 1 d . . .
O3 O -0.4420(13) 0.4495(12) 0.8190(5) 0.0137(13) Uani 1 1 d . . .
O4 O -0.3546(12) 0.1518(12) 0.7490(5) 0.0150(13) Uani 1 1 d . . .
O5 O -0.4239(14) 0.7709(13) 0.9253(5) 0.0167(14) Uani 1 1 d . . .
O6 O 0.442(2) 0.8527(12) 0.6161(4) 0.0206(16) Uani 1 1 d . . .
O7 O -0.0418(11) 0.5203(11) 0.8136(5) 0.0101(12) Uani 1 1 d . . .
O8 O 0.2063(14) 0.8895(14) 0.9155(5) 0.0191(15) Uani 1 1 d . . .
O9 O -0.3047(14) 0.2508(13) 0.9172(5) 0.0184(15) Uani 1 1 d . . .
O10 O 0.4890(13) 0.7316(13) 0.7589(5) 0.0157(13) Uani 1 1 d . . .
F1 F 0.3926(19) 1.2243(18) 0.5514(7) 0.031(2) Uani 1 1 d . . .
F2 F 0.8330(16) 1.2329(18) 0.5430(7) 0.032(2) Uani 1 1 d . . .
loop_
_atom_site_aniso_label
_atom_site_aniso_U_11
_atom_site_aniso_U_22
_atom_site_aniso_U_33
_atom_site_aniso_U_23
_atom_site_aniso_U_13
_atom_site_aniso_U_12
Lu1 0.0092(3) 0.00714(16) 0.00777(16) 0.00085(12) 0.0009(2) 0.0045(2)
Lu2 0.0148(3) 0.0160(2) 0.00938(18) 0.00254(14) 0.0023(3) 0.0091(3)
Cs1 0.0174(3) 0.0183(2) 0.0186(2) 0.00321(17) 0.0014(3) 0.0097(3)
Cs2 0.0244(4) 0.0252(3) 0.0240(3) -0.0045(2) -0.0013(4) 0.0126(4)
Cs3 0.0434(6) 0.0290(3) 0.0360(4) 0.0010(3) -0.0015(6) 0.0156(5)
Si1 0.0093(12) 0.0065(7) 0.0083(8) 0.0016(6) -0.0005(11) 0.0042(11)
Si2 0.0062(10) 0.0066(9) 0.0098(10) 0.0001(8) -0.0004(8) 0.0038(8)
Si3 0.0057(10) 0.0055(8) 0.0110(10) 0.0026(7) 0.0012(7) 0.0022(7)
Si4 0.0060(9) 0.0057(9) 0.0124(11) 0.0025(8) 0.0005(8) 0.0027(8)
O1 0.004(2) 0.009(3) 0.027(4) 0.003(2) 0.003(2) 0.005(2)
O2 0.010(3) 0.019(3) 0.027(4) 0.013(3) 0.011(3) 0.010(3)
O3 0.017(3) 0.005(3) 0.023(4) 0.001(2) 0.002(3) 0.008(3)
O4 0.008(3) 0.012(3) 0.020(3) -0.001(2) 0.001(2) 0.002(2)
O5 0.018(4) 0.018(3) 0.014(3) 0.001(3) 0.007(3) 0.009(3)
O6 0.032(5) 0.020(3) 0.009(2) 0.003(2) 0.002(3) 0.011(4)
O7 0.004(3) 0.004(2) 0.018(3) 0.000(2) 0.001(2) -0.001(2)
O8 0.017(4) 0.023(4) 0.017(3) -0.006(3) -0.011(3) 0.011(3)
O9 0.022(4) 0.017(3) 0.016(3) 0.012(3) 0.010(3) 0.008(3)
O10 0.014(3) 0.017(3) 0.016(3) 0.001(3) -0.005(3) 0.008(3)
F1 0.043(6) 0.040(5) 0.025(4) -0.007(4) 0.002(4) 0.033(5)
F2 0.018(4) 0.038(5) 0.034(5) 0.013(4) -0.002(4) 0.009(4)
loop_
_atom_type_symbol
_atom_type_description
_atom_type_scat_dispersion_real
_atom_type_scat_dispersion_imag
_atom_type_scat_source
O O 0.0106 0.0060 'International Tables Vol C Tables 4.2.6.8 and 6.1.1.4'
F F 0.0171 0.0103 'International Tables Vol C Tables 4.2.6.8 and 6.1.1.4'
Si Si 0.0817 0.0704 'International Tables Vol C Tables 4.2.6.8 and 6.1.1.4'
Cs Cs -0.3680 2.1192 'International Tables Vol C Tables 4.2.6.8 and 6.1.1.4'
Lu Lu -0.4720 5.8584 'International Tables Vol C Tables 4.2.6.8 and 6.1.1.4'
loop_
_geom_angle_atom_site_label_1
_geom_angle_atom_site_label_2
_geom_angle_atom_site_label_3
_geom_angle
_geom_angle_site_symmetry_1
_geom_angle_site_symmetry_3
Cs1 Lu1 Cs1 180.0 2_666 1_544
Cs1 Lu1 Cs1 63.85(2) 2_566 1_654
Cs1 Lu1 Cs1 116.15(2) 2_566 2_556
Cs1 Lu1 Cs1 116.169(15) 2_666 2_566
Cs1 Lu1 Cs1 116.62(2) 2_666 2_556
Cs1 Lu1 Cs1 180.0 1_654 2_556
Cs1 Lu1 Cs1 116.62(2) 1_544 1_654
Cs1 Lu1 Cs1 63.831(14) 2_666 1_644
Cs1 Lu1 Cs1 116.15(2) 1_644 1_654
Cs1 Lu1 Cs1 116.169(15) 1_544 1_644
Cs1 Lu1 Cs1 63.38(2) 1_544 2_556
Cs1 Lu1 Cs1 180.0 2_566 1_644
Cs1 Lu1 Cs1 63.85(2) 1_644 2_556
Cs1 Lu1 Cs1 63.38(2) 2_666 1_654
Cs1 Lu1 Cs1 63.831(15) 1_544 2_566
O5 Lu1 Cs1 45.7(2) 2_566 2_566
O5 Lu1 Cs1 131.9(2) 2_566 2_556
O5 Lu1 Cs1 70.0(2) 2_566 1_544
O5 Lu1 Cs1 134.3(2) 1_644 2_566
O5 Lu1 Cs1 70.0(2) 1_644 2_666
O5 Lu1 Cs1 134.3(2) 2_566 1_644
O5 Lu1 Cs1 110.0(2) 2_566 2_666
O5 Lu1 Cs1 45.7(2) 1_644 1_644
O5 Lu1 Cs1 48.1(2) 1_644 2_556
O5 Lu1 Cs1 110.0(2) 1_644 1_544
O5 Lu1 Cs1 48.1(2) 2_566 1_654
O5 Lu1 Cs1 131.9(2) 1_644 1_654
O5 Lu1 O5 180.0(4) 2_566 1_644
O5 Lu1 O8 90.1(3) 1_644 1_544
O5 Lu1 O8 89.9(3) 1_644 2_666
O5 Lu1 O8 89.9(3) 2_566 1_544
O5 Lu1 O8 90.1(3) 2_566 2_666
O5 Lu1 O9 89.1(3) 2_566 2_556
O5 Lu1 O9 89.1(3) 1_644 1_654
O5 Lu1 O9 90.9(3) 2_566 1_654
O5 Lu1 O9 90.9(3) 1_644 2_556
O8 Lu1 Cs1 69.6(2) 2_666 1_654
O8 Lu1 Cs1 129.8(2) 1_544 2_666
O8 Lu1 Cs1 49.6(2) 1_544 2_566
O8 Lu1 Cs1 110.4(2) 1_544 1_654
O8 Lu1 Cs1 110.4(2) 2_666 2_556
O8 Lu1 Cs1 50.2(2) 1_544 1_544
O8 Lu1 Cs1 50.2(2) 2_666 2_666
O8 Lu1 Cs1 129.8(2) 2_666 1_544
O8 Lu1 Cs1 130.4(2) 2_666 2_566
O8 Lu1 Cs1 49.6(2) 2_666 1_644
O8 Lu1 Cs1 130.4(2) 1_544 1_644
O8 Lu1 Cs1 69.6(2) 1_544 2_556
O8 Lu1 O8 180.0(4) 2_666 1_544
O9 Lu1 Cs1 50.1(2) 2_556 2_556
O9 Lu1 Cs1 50.1(2) 1_654 1_654
O9 Lu1 Cs1 133.3(2) 2_556 2_666
O9 Lu1 Cs1 72.3(2) 1_654 2_566
O9 Lu1 Cs1 46.7(2) 2_556 1_544
O9 Lu1 Cs1 129.9(2) 1_654 2_556
O9 Lu1 Cs1 133.3(2) 1_654 1_544
O9 Lu1 Cs1 46.7(2) 1_654 2_666
O9 Lu1 Cs1 72.3(2) 2_556 1_644
O9 Lu1 Cs1 129.9(2) 2_556 1_654
O9 Lu1 Cs1 107.7(2) 1_654 1_644
O9 Lu1 Cs1 107.7(2) 2_556 2_566
O9 Lu1 O8 89.3(3) 1_654 1_544
O9 Lu1 O8 90.7(3) 1_654 2_666
O9 Lu1 O8 90.7(3) 2_556 1_544
O9 Lu1 O8 89.3(3) 2_556 2_666
O9 Lu1 O9 180.0(4) 2_556 1_654
Cs3 Lu2 Cs3 113.10(3) 2_786 2_676
Cs3 Lu2 Cs3 180.00(2) 2_676 .
Cs3 Lu2 Cs3 105.286(19) 1_455 .
Cs3 Lu2 Cs3 66.90(3) 1_445 2_676
Cs3 Lu2 Cs3 180.0 2_776 1_455
Cs3 Lu2 Cs3 74.714(19) 1_455 2_676
Cs3 Lu2 Cs3 113.10(3) 1_445 .
Cs3 Lu2 Cs3 105.286(19) 2_776 2_676
Cs3 Lu2 Cs3 114.77(3) 2_786 2_776
Cs3 Lu2 Cs3 66.90(3) 2_786 .
Cs3 Lu2 Cs3 65.23(3) 1_445 2_776
Cs3 Lu2 Cs3 74.714(19) 2_776 .
Cs3 Lu2 Cs3 65.23(3) 2_786 1_455
Cs3 Lu2 Cs3 114.77(3) 1_445 1_455
Cs3 Lu2 Cs3 180.0 2_786 1_445
O6 Lu2 Cs3 102.4(2) 2_676 1_445
O6 Lu2 Cs3 77.6(2) 2_676 2_786
O6 Lu2 Cs3 61.2(3) . 2_676
O6 Lu2 Cs3 55.1(3) . 2_776
O6 Lu2 Cs3 61.2(3) 2_676 .
O6 Lu2 Cs3 124.9(3) 2_676 2_776
O6 Lu2 Cs3 118.8(3) 2_676 2_676
O6 Lu2 Cs3 124.9(3) . 1_455
O6 Lu2 Cs3 118.8(3) . .
O6 Lu2 Cs3 55.1(3) 2_676 1_455
O6 Lu2 Cs3 77.6(2) . 1_445
O6 Lu2 Cs3 102.4(2) . 2_786
O6 Lu2 O6 180.00(15) . 2_676
O6 Lu2 F1 88.7(4) 2_676 .
O6 Lu2 F1 91.3(4) 2_676 2_676
O6 Lu2 F1 91.3(4) . .
O6 Lu2 F1 88.7(4) . 2_676
F1 Lu2 Cs3 140.2(3) . 2_776
F1 Lu2 Cs3 39.8(3) 2_676 2_776
F1 Lu2 Cs3 140.2(3) 2_676 1_455
F1 Lu2 Cs3 68.3(3) 2_676 .
F1 Lu2 Cs3 39.8(3) . 1_455
F1 Lu2 Cs3 133.6(3) 2_676 2_786
F1 Lu2 Cs3 46.4(3) 2_676 1_445
F1 Lu2 Cs3 111.7(3) . .
F1 Lu2 Cs3 133.6(3) . 1_445
F1 Lu2 Cs3 46.4(3) . 2_786
F1 Lu2 Cs3 111.7(3) 2_676 2_676
F1 Lu2 Cs3 68.3(3) . 2_676
F1 Lu2 F1 180.0 2_676 .
F2 Lu2 Cs3 36.4(3) . .
F2 Lu2 Cs3 133.5(3) . 1_445
F2 Lu2 Cs3 46.5(3) . 2_786
F2 Lu2 Cs3 143.6(3) 2_676 .
F2 Lu2 Cs3 108.6(3) 2_676 2_776
F2 Lu2 Cs3 108.6(3) . 1_455
F2 Lu2 Cs3 133.5(3) 2_676 2_786
F2 Lu2 Cs3 71.4(3) . 2_776
F2 Lu2 Cs3 36.4(3) 2_676 2_676
F2 Lu2 Cs3 46.5(3) 2_676 1_445
F2 Lu2 Cs3 143.6(3) . 2_676
F2 Lu2 Cs3 71.4(3) 2_676 1_455
F2 Lu2 O6 88.9(4) . 2_676
F2 Lu2 O6 91.1(4) . .
F2 Lu2 O6 91.1(4) 2_676 2_676
F2 Lu2 O6 88.9(4) 2_676 .
F2 Lu2 F1 89.1(3) . 2_676
F2 Lu2 F1 89.1(3) 2_676 .
F2 Lu2 F1 90.9(3) 2_676 2_676
F2 Lu2 F1 90.9(3) . .
F2 Lu2 F2 180.0(7) . 2_676
Si2 Cs1 Si3 97.51(6) 2_467 2_567
Si2 Cs1 Si4 97.47(6) 2_467 2_577
Si3 Cs1 Si4 96.48(6) 2_567 2_577
O1 Cs1 Si2 106.29(13) 2_577 2_467
O1 Cs1 Si3 71.76(12) 2_577 2_567
O1 Cs1 Si4 25.49(11) 2_577 2_577
O3 Cs1 Si2 26.08(13) 2_467 2_467
O3 Cs1 Si3 105.45(15) 2_467 2_567
O3 Cs1 Si4 72.01(13) 2_467 2_577
O3 Cs1 O1 85.10(18) 2_467 2_577
O3 Cs1 O7 84.52(19) 2_467 2_567
O5 Cs1 Si2 24.51(14) 2_467 2_467
O5 Cs1 Si2 97.25(16) . 2_467
O5 Cs1 Si3 102.98(16) 2_467 2_567
O5 Cs1 Si3 165.15(16) . 2_567
O5 Cs1 Si4 119.89(15) 2_467 2_577
O5 Cs1 Si4 83.26(16) . 2_577
O5 Cs1 O1 105.54(19) . 2_577
O5 Cs1 O1 130.78(19) 2_467 2_577
O5 Cs1 O3 88.6(2) . 2_467
O5 Cs1 O3 48.11(19) 2_467 2_467
O5 Cs1 O5 89.8(2) . 2_467
O5 Cs1 O7 167.6(2) . 2_567
O5 Cs1 O7 77.9(2) 2_467 2_567
O5 Cs1 O8 116.5(2) 2_467 2_577
O5 Cs1 O8 138.5(2) 2_467 .
O5 Cs1 O8 81.4(2) . .
O5 Cs1 O8 59.4(2) . 2_577
O5 Cs1 O9 141.3(2) . 2_567
O5 Cs1 O9 58.47(19) 2_467 .
O5 Cs1 O9 82.4(2) . .
O7 Cs1 Si2 72.28(13) 2_567 2_467
O7 Cs1 Si3 25.74(13) 2_567 2_567
O7 Cs1 Si4 104.34(13) 2_567 2_577
O7 Cs1 O1 84.22(17) 2_567 2_577
O8 Cs1 Si2 162.79(15) . 2_467
O8 Cs1 Si2 100.45(18) 2_577 2_467
O8 Cs1 Si3 83.97(15) . 2_567
O8 Cs1 Si3 119.11(14) 2_577 2_567
O8 Cs1 Si4 23.86(14) 2_577 2_577
O8 Cs1 Si4 99.40(16) . 2_577
O8 Cs1 O1 90.50(19) . 2_577
O8 Cs1 O1 47.38(18) 2_577 2_577
O8 Cs1 O3 74.9(2) 2_577 2_467
O8 Cs1 O3 167.7(2) . 2_467
O8 Cs1 O7 106.52(19) . 2_567
O8 Cs1 O7 127.95(19) 2_577 2_567
O8 Cs1 O8 93.7(2) . 2_577
O8 Cs1 O9 80.1(2) . .
O8 Cs1 O9 141.8(2) 2_577 .
O9 Cs1 Si2 82.71(14) . 2_467
O9 Cs1 Si2 120.20(14) 2_567 2_467
O9 Cs1 Si3 23.98(14) 2_567 2_567
O9 Cs1 Si3 97.84(16) . 2_567
O9 Cs1 Si4 99.73(17) 2_567 2_577
O9 Cs1 Si4 165.53(16) . 2_577
O9 Cs1 O1 74.6(2) 2_567 2_577
O9 Cs1 O1 166.79(19) . 2_577
O9 Cs1 O3 105.9(2) . 2_467
O9 Cs1 O3 129.2(2) 2_567 2_467
O9 Cs1 O5 119.9(2) 2_567 2_467
O9 Cs1 O7 89.54(19) . 2_567
O9 Cs1 O7 48.01(18) 2_567 2_567
O9 Cs1 O8 117.0(2) 2_567 2_577
O9 Cs1 O8 60.0(2) 2_567 .
O9 Cs1 O9 92.6(2) 2_567 .
Cs3 Cs2 Si3 105.56(5) 2_776 1_665
Si1 Cs2 Cs3 164.10(4) 1_665 2_776
Si1 Cs2 Si2 46.14(6) 1_665 1_765
Si1 Cs2 Si3 83.62(6) 1_665 1_665
Si2 Cs2 Cs3 144.06(5) 1_765 2_776
Si2 Cs2 Si3 90.68(5) 1_765 1_665
O1 Cs2 Cs3 60.64(13) 1_655 2_776
O1 Cs2 Si1 135.21(13) 1_655 1_665
O1 Cs2 Si2 98.83(13) 1_655 1_765
O1 Cs2 Si3 67.57(11) 1_655 1_665
O2 Cs2 Cs3 56.01(16) 1_655 2_776
O2 Cs2 Si1 133.82(16) 1_655 1_665
O2 Cs2 Si2 88.53(16) 1_655 1_765
O2 Cs2 Si3 109.44(14) 1_655 1_665
O2 Cs2 O1 43.14(16) 1_655 1_655
O3 Cs2 Cs3 119.84(12) 1_765 2_776
O3 Cs2 Si1 69.82(13) 1_765 1_665
O3 Cs2 Si2 24.26(12) 1_765 1_765
O3 Cs2 Si3 100.34(14) 1_765 1_665
O3 Cs2 O1 82.07(18) 1_765 1_655
O3 Cs2 O2 64.36(19) 1_765 1_655
O4 Cs2 Cs3 84.19(14) 1_665 2_776
O4 Cs2 Si1 102.10(15) 1_665 1_665
O4 Cs2 Si2 113.80(14) 1_665 1_765
O4 Cs2 Si3 23.35(14) 1_665 1_665
O4 Cs2 O1 62.68(17) 1_665 1_655
O4 Cs2 O2 105.20(19) 1_665 1_655
O4 Cs2 O3 120.1(2) 1_665 1_765
O7 Cs2 Cs3 129.02(13) 1_665 2_776
O7 Cs2 Si1 60.99(13) 1_665 1_665
O7 Cs2 Si2 70.75(13) 1_665 1_765
O7 Cs2 Si3 23.46(13) 1_665 1_665
O7 Cs2 O1 83.61(17) 1_665 1_655
O7 Cs2 O2 119.5(2) 1_665 1_655
O7 Cs2 O3 86.10(18) 1_665 1_765
O7 Cs2 O4 45.80(18) 1_665 1_665
O10 Cs2 Cs3 163.12(15) 1_665 2_776
O10 Cs2 Si1 23.49(15) 1_665 1_665
O10 Cs2 Si2 22.72(14) 1_665 1_765
O10 Cs2 Si3 88.23(16) 1_665 1_665
O10 Cs2 O1 118.42(19) 1_665 1_655
O10 Cs2 O2 110.6(2) 1_665 1_655
O10 Cs2 O3 46.37(19) 1_665 1_765
O10 Cs2 O4 110.8(2) 1_665 1_665
O10 Cs2 O7 65.1(2) 1_665 1_665
F1 Cs2 Cs3 73.4(2) 1_655 2_776
F1 Cs2 Si1 95.4(2) 1_655 1_665
F1 Cs2 Si2 95.6(2) 1_655 1_765
F1 Cs2 Si3 170.3(2) 1_655 1_665
F1 Cs2 O1 118.5(2) 1_655 1_655
F1 Cs2 O2 78.2(3) 1_655 1_655
F1 Cs2 O3 88.3(3) 1_655 1_765
F1 Cs2 O4 150.4(3) 1_655 1_665
F1 Cs2 O7 156.2(3) 1_655 1_665
F1 Cs2 O10 94.7(3) 1_655 1_665
F1 Cs2 F2 85.9(2) 1_655 .
F2 Cs2 Cs3 73.9(2) . 2_776
F2 Cs2 Si1 94.5(2) . 1_665
F2 Cs2 Si2 140.7(2) . 1_765
F2 Cs2 Si3 84.6(2) . 1_665
F2 Cs2 O1 114.9(2) . 1_655
F2 Cs2 O2 129.8(3) . 1_655
F2 Cs2 O3 162.7(2) . 1_765
F2 Cs2 O4 69.2(3) . 1_665
F2 Cs2 O7 92.7(3) . 1_665
F2 Cs2 O10 117.9(3) . 1_665
Lu2 Cs3 Cs2 85.262(19) 1_665 .
Lu2 Cs3 Si1 117.81(5) 1_665 2_776
Lu2 Cs3 Si2 106.91(4) 1_665 2_676
Lu2 Cs3 Si4 113.68(4) 1_665 2_676
Cs2 Cs3 Lu2 175.48(3) 2_776 1_665
Cs2 Cs3 Cs2 99.19(2) 2_776 .
Cs2 Cs3 Si1 61.14(4) 2_776 2_776
Cs2 Cs3 Si2 69.25(4) 2_776 2_676
Cs2 Cs3 Si4 61.89(4) 2_776 2_676
Si1 Cs3 Cs2 114.21(5) 2_776 .
Si1 Cs3 Si2 41.91(5) 2_776 2_676
Si2 Cs3 Cs2 156.04(5) 2_676 .
Si4 Cs3 Cs2 151.51(5) 2_676 .
Si4 Cs3 Si1 76.85(5) 2_676 2_776
Si4 Cs3 Si2 40.88(5) 2_676 2_676
O2 Cs3 Lu2 123.13(13) 2_676 1_665
O2 Cs3 Cs2 128.96(13) 2_676 .
O2 Cs3 Cs2 53.22(13) 2_676 2_776
O2 Cs3 Si1 90.39(13) 2_676 2_776
O2 Cs3 Si2 61.57(13) 2_676 2_676
O2 Cs3 Si4 22.69(13) 2_676 2_676
O2 Cs3 O6 108.48(18) 2_676 2_776
O6 Cs3 Lu2 112.32(14) 2_776 1_665
O6 Cs3 Cs2 68.33(14) 2_776 2_776
O6 Cs3 Cs2 94.58(11) 2_776 .
O6 Cs3 Si1 20.56(11) 2_776 2_776
O6 Cs3 Si2 61.87(11) 2_776 2_676
O6 Cs3 Si4 97.14(12) 2_776 2_676
F1 Cs3 Lu2 31.97(17) 2_786 1_665
F1 Cs3 Lu2 96.5(2) 1_655 1_665
F1 Cs3 Cs2 41.84(18) 1_655 .
F1 Cs3 Cs2 93.4(2) 2_786 .
F1 Cs3 Cs2 87.4(2) 1_655 2_776
F1 Cs3 Cs2 147.45(18) 2_786 2_776
F1 Cs3 Si1 86.31(18) 2_786 2_776
F1 Cs3 Si1 73.33(18) 1_655 2_776
F1 Cs3 Si2 87.4(2) 2_786 2_676
F1 Cs3 Si2 114.95(18) 1_655 2_676
F1 Cs3 Si4 114.0(2) 2_786 2_676
F1 Cs3 Si4 144.95(18) 1_655 2_676
F1 Cs3 O2 134.0(3) 2_786 2_676
F1 Cs3 O2 140.1(2) 1_655 2_676
F1 Cs3 O6 80.9(2) 2_786 2_776
F1 Cs3 O6 53.1(2) 1_655 2_776
F1 Cs3 F1 82.2(3) 2_786 1_655
F1 Cs3 F2 62.36(19) 2_786 2_786
F1 Cs3 F2 120.9(3) 2_786 .
F2 Cs3 Lu2 95.2(2) . 1_665
F2 Cs3 Lu2 31.54(19) 2_786 1_665
F2 Cs3 Cs2 146.9(2) 2_786 2_776
F2 Cs3 Cs2 42.9(2) . .
F2 Cs3 Cs2 87.6(2) . 2_776
F2 Cs3 Cs2 89.4(2) 2_786 .
F2 Cs3 Si1 140.1(2) . 2_776
F2 Cs3 Si1 142.4(2) 2_786 2_776
F2 Cs3 Si2 149.9(2) . 2_676
F2 Cs3 Si2 111.9(2) 2_786 2_676
F2 Cs3 Si4 111.4(2) . 2_676
F2 Cs3 Si4 96.5(2) 2_786 2_676
F2 Cs3 O2 96.9(2) 2_786 2_676
F2 Cs3 O2 89.3(2) . 2_676
F2 Cs3 O6 127.9(2) . 2_776
F2 Cs3 O6 143.2(2) 2_786 2_776
F2 Cs3 F1 118.4(3) 2_786 1_655
F2 Cs3 F1 81.6(2) . 1_655
F2 Cs3 F2 77.1(3) 2_786 .
Cs2 Si1 Cs2 112.85(5) . 1_455
Cs2 Si1 Cs2 121.57(9) 1_445 .
Cs2 Si1 Cs2 120.96(9) 1_445 1_455
Cs2 Si1 Cs3 142.27(5) 1_455 2_776
Cs2 Si1 Cs3 55.51(5) . 2_776
Cs2 Si1 Cs3 68.05(5) 1_445 2_776
O2 Si1 Cs2 153.0(3) . .
O2 Si1 Cs2 84.9(3) . 1_445
O2 Si1 Cs2 47.2(3) . 1_455
O2 Si1 Cs3 151.4(3) . 2_776
O2 Si1 O4 107.5(4) . 1_665
O2 Si1 O10 106.8(4) . .
O4 Si1 Cs2 157.7(3) 1_665 1_445
O4 Si1 Cs2 79.9(3) 1_665 1_455
O4 Si1 Cs2 45.8(3) 1_665 .
O4 Si1 Cs3 101.1(3) 1_665 2_776
O6 Si1 Cs2 77.7(3) . 1_445
O6 Si1 Cs2 89.9(4) . 1_455
O6 Si1 Cs2 81.5(5) . .
O6 Si1 Cs3 54.5(5) . 2_776
O6 Si1 O2 112.4(6) . .
O6 Si1 O4 112.7(5) . 1_665
O6 Si1 O10 109.4(5) . .
O10 Si1 Cs2 153.3(3) . 1_455
O10 Si1 Cs2 50.0(3) . 1_445
O10 Si1 Cs2 88.9(3) . .
O10 Si1 Cs3 62.8(3) . 2_776
O10 Si1 O4 107.8(4) . 1_665
Cs1 Si2 Cs1 71.22(5) 2_467 .
Cs1 Si2 Cs1 124.36(7) 2_467 2_577
Cs1 Si2 Cs1 65.28(4) . 2_577
Cs1 Si2 Cs2 67.15(5) 2_467 1_345
Cs1 Si2 Cs2 131.86(7) . 1_345
Cs1 Si2 Cs3 132.94(7) . 2_676
Cs1 Si2 Cs3 130.87(7) 2_467 2_676
Cs1 Si2 Cs3 104.31(6) 2_577 2_676
Cs2 Si2 Cs1 162.48(7) 1_345 2_577
Cs2 Si2 Cs3 67.56(5) 1_345 2_676
O1 Si2 Cs1 153.7(3) . 2_467
O1 Si2 Cs1 47.2(3) . 2_577
O1 Si2 Cs1 84.2(3) . .
O1 Si2 Cs2 128.9(3) . 1_345
O1 Si2 Cs3 61.5(3) . 2_676
O1 Si2 O3 106.2(4) . .
O3 Si2 Cs1 62.5(3) . 2_467
O3 Si2 Cs1 138.5(3) . 2_577
O3 Si2 Cs1 83.1(3) . .
O3 Si2 Cs2 56.9(3) . 1_345
O3 Si2 Cs3 77.4(3) . 2_676
O5 Si2 Cs1 68.4(3) . 2_577
O5 Si2 Cs1 49.3(3) . .
O5 Si2 Cs1 57.1(3) . 2_467
O5 Si2 Cs2 118.0(3) . 1_345
O5 Si2 Cs3 171.4(3) . 2_676
O5 Si2 O1 113.0(5) . .
O5 Si2 O3 111.1(5) . .
O5 Si2 O10 115.3(5) . 1_455
O10 Si2 Cs1 114.4(3) 1_455 2_577
O10 Si2 Cs1 98.8(3) 1_455 2_467
O10 Si2 Cs1 164.4(3) 1_455 .
O10 Si2 Cs2 48.2(3) 1_455 1_345
O10 Si2 Cs3 62.7(3) 1_455 2_676
O10 Si2 O1 107.2(4) 1_455 .
O10 Si2 O3 103.2(4) 1_455 .
Cs1 Si3 Cs1 122.18(7) 2_567 2_467
Cs1 Si3 Cs1 64.87(4) . 2_467
Cs1 Si3 Cs1 69.23(5) 2_567 .
Cs1 Si3 Cs2 126.92(6) . 1_445
Cs1 Si3 Cs2 66.70(4) 2_567 1_445
Cs2 Si3 Cs1 168.19(7) 1_445 2_467
O3 Si3 Cs1 44.3(3) . 2_467
O3 Si3 Cs1 80.4(3) . .
O3 Si3 Cs1 148.7(3) . 2_567
O3 Si3 Cs2 132.6(3) . 1_445
O4 Si3 Cs1 168.2(3) . .
O4 Si3 Cs1 103.5(3) . 2_567
O4 Si3 Cs1 114.7(3) . 2_467
O4 Si3 Cs2 53.7(3) . 1_445
O4 Si3 O3 107.7(4) . .
O4 Si3 O7 102.9(4) . .
O7 Si3 Cs1 63.8(3) . 2_567
O7 Si3 Cs1 82.5(3) . .
O7 Si3 Cs1 137.1(3) . 2_467
O7 Si3 Cs2 52.2(3) . 1_445
O7 Si3 O3 106.0(4) . .
O9 Si3 Cs1 52.7(3) . 2_567
O9 Si3 Cs1 71.9(3) . 2_467
O9 Si3 Cs1 53.3(3) . .
O9 Si3 Cs2 113.7(3) . 1_445
O9 Si3 O3 113.6(5) . .
O9 Si3 O4 115.0(5) . .
O9 Si3 O7 110.9(4) . .
Cs1 Si4 Cs1 121.88(7) 2_577 2_567
Cs1 Si4 Cs1 64.01(5) . 2_567
Cs1 Si4 Cs1 69.23(5) 2_577 .
Cs1 Si4 Cs2 64.29(4) 2_577 1_455
Cs1 Si4 Cs2 127.53(7) . 1_455
Cs1 Si4 Cs3 116.63(7) 2_577 2_676
Cs1 Si4 Cs3 135.71(7) . 2_676
Cs2 Si4 Cs1 167.10(7) 1_455 2_567
Cs3 Si4 Cs1 120.68(6) 2_676 2_567
Cs3 Si4 Cs2 56.90(4) 2_676 1_455
O1 Si4 Cs1 81.6(3) . .
O1 Si4 Cs1 62.6(3) . 2_577
O1 Si4 Cs1 136.0(3) . 2_567
O1 Si4 Cs2 56.4(3) . 1_455
O1 Si4 Cs3 66.7(3) . 2_676
O1 Si4 O7 105.9(4) . .
O2 Si4 Cs1 102.0(3) . 2_577
O2 Si4 Cs1 167.9(3) . .
O2 Si4 Cs1 117.5(3) . 2_567
O2 Si4 Cs2 49.9(3) . 1_455
O2 Si4 Cs3 55.1(3) . 2_676
O2 Si4 O1 102.0(4) . .
O2 Si4 O7 107.2(4) . .
O7 Si4 Cs1 150.5(3) . 2_577
O7 Si4 Cs1 46.1(3) . 2_567
O7 Si4 Cs1 82.6(3) . .
O7 Si4 Cs2 134.6(3) . 1_455
O7 Si4 Cs3 77.7(3) . 2_676
O8 Si4 Cs1 56.2(3) . 2_577
O8 Si4 Cs1 52.0(4) . .
O8 Si4 Cs1 68.1(3) . 2_567
O8 Si4 Cs2 113.1(4) . 1_455
O8 Si4 Cs3 169.3(4) . 2_676
O8 Si4 O1 112.0(4) . .
O8 Si4 O2 116.5(5) . .
O8 Si4 O7 112.3(4) . .
Cs1 O1 Cs2 75.85(14) 2_577 1_455
Si2 O1 Cs1 112.0(3) . 2_577
Si2 O1 Cs2 127.0(3) . 1_455
Si2 O1 Si4 129.7(5) . .
Si4 O1 Cs1 91.9(3) . 2_577
Si4 O1 Cs2 100.9(3) . 1_455
Cs2 O2 Cs3 70.77(16) 1_455 2_676
Si1 O2 Cs2 112.1(3) . 1_455
Si1 O2 Cs3 110.9(4) . 2_676
Si1 O2 Si4 134.1(5) . .
Si4 O2 Cs2 108.2(3) . 1_455
Si4 O2 Cs3 102.2(3) . 2_676
Cs1 O3 Cs2 79.35(18) 2_467 1_345
Si2 O3 Cs1 91.4(3) . 2_467
Si2 O3 Cs2 98.9(3) . 1_345
Si3 O3 Cs1 115.6(4) . 2_467
Si3 O3 Cs2 125.8(4) . 1_345
Si3 O3 Si2 130.1(5) . .
Si1 O4 Cs2 113.3(4) 1_445 1_445
Si3 O4 Cs2 102.9(3) . 1_445
Si3 O4 Si1 139.6(5) . 1_445
Lu1 O5 Cs1 100.9(3) 1_466 2_467
Lu1 O5 Cs1 103.5(3) 1_466 .
Cs1 O5 Cs1 90.2(2) . 2_467
Si2 O5 Lu1 142.9(5) . 1_466
Si2 O5 Cs1 98.4(4) . 2_467
Si2 O5 Cs1 107.8(4) . .
Lu2 O6 Cs3 95.6(4) . 2_776
Si1 O6 Lu2 142.9(5) . .
Si1 O6 Cs3 104.9(5) . 2_776
Cs2 O7 Cs1 80.04(16) 1_445 2_567
Si3 O7 Cs1 90.5(3) . 2_567
Si3 O7 Cs2 104.3(3) . 1_445
Si3 O7 Si4 130.3(5) . .
Si4 O7 Cs1 113.3(3) . 2_567
Si4 O7 Cs2 121.9(3) . 1_445
Lu1 O8 Cs1 98.8(3) 1_566 2_577
Lu1 O8 Cs1 97.8(3) 1_566 .
Cs1 O8 Cs1 86.3(2) . 2_577
Si4 O8 Lu1 150.9(5) . 1_566
Si4 O8 Cs1 105.5(4) . .
Si4 O8 Cs1 99.9(4) . 2_577
Lu1 O9 Cs1 98.5(3) 1_456 .
Lu1 O9 Cs1 101.9(3) 1_456 2_567
Cs1 O9 Cs1 87.4(2) 2_567 .
Si3 O9 Lu1 146.9(5) . 1_456
Si3 O9 Cs1 103.9(4) . .
Si3 O9 Cs1 103.3(4) . 2_567
Si1 O10 Cs2 106.5(3) . 1_445
Si2 O10 Cs2 109.1(4) 1_655 1_445
Si2 O10 Si1 143.9(5) 1_655 .
Lu2 F1 Cs2 140.3(5) . 1_455
Lu2 F1 Cs3 113.3(4) . 1_455
Lu2 F1 Cs3 101.6(4) . 2_786
Cs2 F1 Cs3 93.2(3) 1_455 1_455
Cs2 F1 Cs3 103.5(3) 1_455 2_786
Cs3 F1 Cs3 97.8(3) 2_786 1_455
Lu2 F2 Cs2 134.0(4) . .
Lu2 F2 Cs3 118.6(5) . .
Lu2 F2 Cs3 102.0(4) . 2_786
Cs2 F2 Cs3 92.9(3) . .
Cs2 F2 Cs3 102.3(3) . 2_786
Cs3 F2 Cs3 102.9(3) 2_786 .
loop_
_geom_bond_atom_site_label_1
_geom_bond_atom_site_label_2
_geom_bond_distance
_geom_bond_site_symmetry_2
Lu1 Cs1 4.1476(10) 2_666
Lu1 Cs1 4.1975(7) 2_556
Lu1 Cs1 4.1975(7) 1_654
Lu1 Cs1 4.1476(10) 1_544
Lu1 Cs1 4.1777(9) 1_644
Lu1 Cs1 4.1777(9) 2_566
Lu1 O5 2.202(8) 2_566
Lu1 O5 2.202(8) 1_644
Lu1 O8 2.218(8) 1_544
Lu1 O8 2.218(8) 2_666
Lu1 O9 2.211(7) 1_654
Lu1 O9 2.211(7) 2_556
Lu2 Cs3 4.4101(15) 2_776
Lu2 Cs3 4.4802(16) 2_676
Lu2 Cs3 4.4101(15) 1_455
Lu2 Cs3 4.0253(9) 2_786
Lu2 Cs3 4.0253(9) 1_445
Lu2 Cs3 4.4802(16) .
Lu2 O6 2.171(7) .
Lu2 O6 2.171(7) 2_676
Lu2 F1 2.176(9) .
Lu2 F1 2.176(9) 2_676
Lu2 F2 2.153(10) .
Lu2 F2 2.153(10) 2_676
Cs1 Si2 3.748(3) 2_467
Cs1 Si3 3.771(3) 2_567
Cs1 Si4 3.812(3) 2_577
Cs1 O1 3.387(8) 2_577
Cs1 O3 3.326(8) 2_467
Cs1 O5 3.074(9) .
Cs1 O5 3.180(8) 2_467
Cs1 O7 3.384(8) 2_567
Cs1 O8 3.217(9) 2_577
Cs1 O8 3.216(10) .
Cs1 O9 3.084(9) 2_567
Cs1 O9 3.256(9) .
Cs2 Cs3 3.9757(11) 2_776
Cs2 Si1 3.909(2) 1_665
Cs2 Si2 3.962(3) 1_765
Cs2 Si3 3.985(3) 1_665
Cs2 O1 3.553(7) 1_655
Cs2 O2 3.372(8) 1_655
Cs2 O3 3.358(8) 1_765
Cs2 O4 3.295(8) 1_665
Cs2 O7 3.251(7) 1_665
Cs2 O10 3.125(8) 1_665
Cs2 F1 2.897(10) 1_655
Cs2 F2 2.954(10) .
Cs3 Lu2 4.0253(9) 1_665
Cs3 Cs2 3.9757(11) 2_776
Cs3 Si1 4.311(4) 2_776
Cs3 Si2 4.316(3) 2_676
Cs3 Si4 4.159(3) 2_676
Cs3 O2 3.491(9) 2_676
Cs3 O6 3.633(13) 2_776
Cs3 F1 2.976(12) 2_786
Cs3 F1 3.071(11) 1_655
Cs3 F2 2.983(12) 2_786
Cs3 F2 3.031(11) .
Si1 Cs2 3.909(2) 1_445
Si1 Cs2 4.257(4) 1_455
Si1 Cs3 4.311(4) 2_776
Si1 O2 1.622(8) .
Si1 O4 1.644(8) 1_665
Si1 O6 1.567(7) .
Si1 O10 1.625(8) .
Si2 Cs1 4.277(3) 2_577
Si2 Cs1 3.748(3) 2_467
Si2 Cs2 3.962(3) 1_345
Si2 Cs3 4.316(3) 2_676
Si2 O1 1.633(7) .
Si2 O3 1.648(7) .
Si2 O5 1.572(8) .
Si2 O10 1.620(8) 1_455
Si3 Cs1 3.771(3) 2_567
Si3 Cs1 4.297(3) 2_467
Si3 Cs2 3.985(3) 1_445
Si3 O3 1.641(8) .
Si3 O4 1.621(8) .
Si3 O7 1.637(7) .
Si3 O9 1.575(8) .
Si4 Cs1 4.315(3) 2_567
Si4 Cs1 3.812(3) 2_577
Si4 Cs2 4.186(3) 1_455
Si4 Cs3 4.159(3) 2_676
Si4 O1 1.641(7) .
Si4 O2 1.641(8) .
Si4 O7 1.656(7) .
Si4 O8 1.565(8) .
O1 Cs1 3.387(7) 2_577
O1 Cs2 3.553(7) 1_455
O2 Cs2 3.372(8) 1_455
O2 Cs3 3.491(9) 2_676
O3 Cs1 3.326(8) 2_467
O3 Cs2 3.359(8) 1_345
O4 Cs2 3.295(8) 1_445
O4 Si1 1.644(8) 1_445
O5 Lu1 2.202(8) 1_466
O5 Cs1 3.180(8) 2_467
O6 Cs3 3.633(12) 2_776
O7 Cs1 3.384(8) 2_567
O7 Cs2 3.251(7) 1_445
O8 Lu1 2.218(8) 1_566
O8 Cs1 3.217(9) 2_577
O9 Lu1 2.211(7) 1_456
O9 Cs1 3.084(9) 2_567
O10 Cs2 3.125(8) 1_445
O10 Si2 1.619(8) 1_655
F1 Cs2 2.897(10) 1_455
F1 Cs3 3.071(11) 1_455
F1 Cs3 2.976(12) 2_786
F2 Cs3 2.983(12) 2_786
loop_
_twin_individual_id
_twin_individual_mass_fraction_refined
1 0.700(3)
2 0.300(3)
