#------------------------------------------------------------------------------
#$Date: 2017-07-27 01:34:31 +0300 (Thu, 27 Jul 2017) $
#$Revision: 199346 $
#$URL: file:///home/coder/svn-repositories/cod/cif/4/12/63/4126319.cif $
#------------------------------------------------------------------------------
#
# This file is available in the Crystallography Open Database (COD),
# http://www.crystallography.net/
#
# All data on this site have been placed in the public domain by the
# contributors.
#
data_4126319
loop_
_publ_author_name
'Surbella, Robert G.'
'Ducati, Lucas Colucci'
'Pellegrini, Kristi L.'
'McNamara, Bruce K.'
'Autschbach, Jochen'
'Schwantes, Jon Michael'
'Cahill, Christopher L.'
_publ_section_title
;
 Transuranic Hybrid Materials: Crystallographic and Computational Metrics
 of Supramolecular Assembly.
;
_journal_name_full               'Journal of the American Chemical Society'
_journal_paper_doi               10.1021/jacs.7b05689
_journal_year                    2017
_chemical_formula_moiety         '(C5 H5 N Br 1+)2, (Np O2 Cl4 2-)'
_chemical_formula_sum            'C10 H10 Br2 Cl4 N2 Np O2'
_chemical_formula_weight         728.82
_space_group_crystal_system      monoclinic
_space_group_IT_number           12
_space_group_name_Hall           '-C 2y'
_space_group_name_H-M_alt        'C 1 2/m 1'
_symmetry_cell_setting           monoclinic
_symmetry_Int_Tables_number      12
_symmetry_space_group_name_Hall  '-C 2y'
_symmetry_space_group_name_H-M   'C 1 2/m 1'
_atom_sites_solution_hydrogens   mixed
_audit_creation_method           SHELXL-2014/7
_cell_angle_alpha                90
_cell_angle_beta                 102.3490(10)
_cell_angle_gamma                90
_cell_formula_units_Z            2
_cell_length_a                   15.715(2)
_cell_length_b                   8.6156(11)
_cell_length_c                   6.8740(9)
_cell_measurement_reflns_used    4014
_cell_measurement_temperature    110(2)
_cell_measurement_theta_max      57.976
_cell_measurement_theta_min      5.307
_cell_volume                     909.2(2)
_computing_cell_refinement       'SAINT, Bruker-AXS'
_computing_data_collection       'APEX, Bruker-AXS'
_computing_data_reduction        'SAINT, Bruker-AXS'
_computing_molecular_graphics    'WINGX (Farrugia, 2012)'
_computing_publication_material  'Crystal Maker (Palmer, 2009)'
_computing_structure_refinement  'SHELXL-2014/7 (Sheldrick, 2014)'
_computing_structure_solution    'SIR92 (Gualardi, 1994)'
_diffrn_ambient_temperature      110(2)
_diffrn_measured_fraction_theta_full 1.000
_diffrn_measured_fraction_theta_max 0.938
_diffrn_measurement_device_type  'omega scans'
_diffrn_radiation_probe          x-ray
_diffrn_radiation_type           MoK\a
_diffrn_radiation_wavelength     0.71073
_diffrn_reflns_av_R_equivalents  0.0255
_diffrn_reflns_av_unetI/netI     0.0198
_diffrn_reflns_Laue_measured_fraction_full 1.000
_diffrn_reflns_Laue_measured_fraction_max 0.938
_diffrn_reflns_limit_h_max       21
_diffrn_reflns_limit_h_min       -21
_diffrn_reflns_limit_k_max       11
_diffrn_reflns_limit_k_min       -11
_diffrn_reflns_limit_l_max       9
_diffrn_reflns_limit_l_min       -9
_diffrn_reflns_number            5741
_diffrn_reflns_point_group_measured_fraction_full 1.000
_diffrn_reflns_point_group_measured_fraction_max 0.938
_diffrn_reflns_theta_full        25.500
_diffrn_reflns_theta_max         29.290
_diffrn_reflns_theta_min         2.654
_diffrn_source                   'moly microfocus'
_diffrn_source_type              'Bruker Quazar'
_exptl_absorpt_coefficient_mu    10.699
_exptl_absorpt_correction_T_max  0.7459
_exptl_absorpt_correction_T_min  0.6038
_exptl_absorpt_correction_type   multi-scan
_exptl_absorpt_process_details   'Krause et. al 2015'
_exptl_crystal_colour            Green-yellow
_exptl_crystal_density_diffrn    2.662
_exptl_crystal_description       Prismatic
_exptl_crystal_F_000             662
_exptl_crystal_recrystallization_method 'Aqueous acidic (HCl) evaporation'
_exptl_crystal_size_max          0.040
_exptl_crystal_size_mid          0.035
_exptl_crystal_size_min          0.025
_refine_diff_density_max         0.485
_refine_diff_density_min         -0.689
_refine_diff_density_rms         0.101
_refine_ls_extinction_method     none
_refine_ls_goodness_of_fit_ref   1.064
_refine_ls_hydrogen_treatment    mixed
_refine_ls_matrix_type           full
_refine_ls_number_parameters     61
_refine_ls_number_reflns         1240
_refine_ls_number_restraints     1
_refine_ls_restrained_S_all      1.064
_refine_ls_R_factor_all          0.0142
_refine_ls_R_factor_gt           0.0133
_refine_ls_shift/su_max          0.000
_refine_ls_shift/su_mean         0.000
_refine_ls_structure_factor_coef Fsqd
_refine_ls_weighting_details
'w=1/[\s^2^(Fo^2^)+(0.0084P)^2^+1.6095P] where P=(Fo^2^+2Fc^2^)/3'
_refine_ls_weighting_scheme      calc
_refine_ls_wR_factor_gt          0.0292
_refine_ls_wR_factor_ref         0.0297
_reflns_Friedel_coverage         0.000
_reflns_number_gt                1197
_reflns_number_total             1240
_reflns_threshold_expression     'I > 2\s(I)'
_cod_data_source_file            ja7b05689_si_002.cif
_cod_data_source_block           Compound_7_110K
_cod_original_sg_symbol_H-M      'C 2/m'
_cod_database_code               4126319
_shelx_shelxl_version_number     2014/7
_shelx_space_group_comment
;
The symmetry employed for this shelxl refinement is uniquely defined
by the following loop, which should always be used as a source of
symmetry information in preference to the above space-group names.
They are only intended as comments.
;
_shelx_estimated_absorpt_t_min   0.674
_shelx_estimated_absorpt_t_max   0.776
_shelx_res_file
;

    shelx.res created by SHELXL-2014/7

TITL SIR92 run in space group C 1 2/m 1
CELL  0.71073  15.7151   8.6156   6.8740   90.000  102.349   90.000
ZERR     2.00   0.0020   0.0011   0.0009    0.000    0.001    0.000
LATT   7
SYMM  - X,   Y, - Z
SFAC  C    H    N    O    CL   BR   NP
UNIT  20 20 4 4 8 4 2
MERG   2
DFIX 0.89 0.02 N1 HN1
FMAP   2
PLAN   5
ACTA    51.00
BOND   $H
HTAB
CONF
L.S.  24
SIZE 0.040  0.035  0.025
TEMP  -163.15
WGHT    0.008400    1.609500
FVAR       0.07227
NP1   7    0.500000    0.500000    1.000000    10.25000    0.01250    0.00857 =
         0.01094    0.00000    0.00352    0.00000
BR1   6    0.268008    0.000000    0.820899    10.50000    0.01803    0.03274 =
         0.01605    0.00000    0.00738    0.00000
CL2   5    0.500000    0.192214    1.000000    10.50000    0.02169    0.00891 =
         0.01794    0.00000    0.00723    0.00000
CL1   5    0.334680    0.500000    0.811093    10.50000    0.01350    0.01785 =
         0.01948    0.00000    0.00090    0.00000
O1    4    0.533331    0.500000    0.771750    10.50000    0.02121    0.01573 =
         0.01658    0.00000    0.00718    0.00000
N1    3    0.409009    0.000000    0.303992    10.50000    0.01749    0.02303 =
         0.01249    0.00000    0.00497    0.00000
C1    1    0.390762    0.136666    0.378826    11.00000    0.01764    0.01641 =
         0.01994    0.00233    0.00311   -0.00170
AFIX  43
H1    2    0.405461    0.230782    0.321924    11.00000   -1.20000
AFIX   0
C3    1    0.329339    0.000000    0.615457    10.50000    0.01135    0.02378 =
         0.01280    0.00000    0.00357    0.00000
C2    1    0.350829    0.140365    0.537713    11.00000    0.01453    0.01889 =
         0.01850   -0.00293    0.00098    0.00098
AFIX  43
H2    2    0.338138    0.236336    0.593377    11.00000   -1.20000
AFIX   0
HN1   2    0.431768    0.000000    0.197833    10.50000    0.03509
HKLF    4

REM  SIR92 run in space group C 1 2/m 1
REM R1 =  0.0133 for    1197 Fo > 4sig(Fo)  and  0.0142 for all    1240 data
REM     61 parameters refined using      1 restraints

END

WGHT      0.0082      1.6200

REM Instructions for potential hydrogen bonds
EQIV $1 x, y, z-1
HTAB C1 Cl2_$1
EQIV $2 -x+1, -y+1, -z+1
HTAB C1 O1_$2
HTAB C2 Cl1
HTAB N1 Cl2_$1
EQIV $3 -x+1, -y, -z+1
HTAB N1 Cl2_$3

REM Highest difference peak  0.485,  deepest hole -0.689,  1-sigma level  0.101
Q1    1   0.4927  0.5000  0.8403  10.50000  0.05    0.49
Q2    1   0.3903  0.1309  0.4868  11.00000  0.05    0.46
Q3    1   0.4319  0.0000  0.0133  10.50000  0.05    0.46
Q4    1   0.4604  0.0000  0.3674  10.50000  0.05    0.43
Q5    1   0.3309  0.0725  0.5464  11.00000  0.05    0.43
;
_shelx_res_checksum              8682
_shelx_hkl_file
;
   2   0   0   38.63    0.99
   2   0   0   38.04    0.97
  -2   0   0   39.35    1.03
  -2   0   0   37.00    1.04
  -4   0   0  211.79    5.28
  -4   0   0  207.67    5.28
   4   0   0  214.88    5.14
   4   0   0  217.91    5.18
   6   0   0  117.35    3.07
   6   0   0  120.19    3.02
  -6   0   0  118.04    3.21
  -6   0   0  126.36    3.25
  -8   0   0  213.84    5.45
   8   0   0  209.23    5.27
   8   0   0  211.23    5.20
  -8   0   0  207.22    5.49
 -10   0   0   33.14    1.31
  10   0   0   33.51    1.13
  10   0   0   31.27    1.04
 -10   0   0   29.84    1.23
  12   0   0  142.63    3.71
 -12   0   0  140.32    4.02
 -12   0   0  142.77    4.14
  12   0   0  139.71    3.82
 -14   0   0   29.59    1.44
  14   0   0   29.96    1.19
 -14   0   0   28.51    1.32
 -16   0   0    8.63    0.80
  16   0   0    8.68    0.63
 -18   0   0   63.81    2.64
  18   0   0   67.72    2.31
  20   0   0    9.27    0.89
   1  -1   0   61.57    1.52
   1  -1   0   58.83    1.47
  -1   1   0   61.27    1.57
   1   1   0   62.87    1.58
   1   1   0   62.46    1.51
   1   1   0   60.74    1.49
   1   1   0   59.52    1.58
  -1   1   0   61.29    1.53
   3  -1   0  191.44    4.57
  -3  -1   0  185.61    4.77
   3  -1   0  187.01    4.60
   3   1   0  190.90    4.72
  -3   1   0  192.41    4.69
  -3   1   0  188.75    4.64
   3   1   0  195.28    4.61
   3   1   0  186.98    4.52
   5  -1   0   80.94    2.07
  -5  -1   0   79.94    2.19
   5  -1   0   79.29    2.05
  -5  -1   0   80.45    2.24
   5   1   0   82.13    1.98
  -5   1   0   78.45    2.17
   5   1   0   76.60    2.08
  -5   1   0   77.41    2.18
  -7  -1   0  192.32    4.98
   7  -1   0  188.58    4.73
   7  -1   0  189.17    4.73
  -7  -1   0  190.70    4.93
  -7   1   0  186.66    4.90
   7   1   0  190.25    4.64
   7   1   0  191.57    4.78
  -7   1   0  190.33    4.92
  -9  -1   0    1.13    0.26
   9  -1   0    1.07    0.19
   9  -1   0    0.86    0.17
  -9  -1   0    0.92    0.24
   9   1   0    0.97    0.15
  -9   1   0    1.15    0.25
  -9   1   0    0.93    0.24
   9   1   0    1.30    0.22
  11  -1   0  109.88    3.00
 -11  -1   0  112.62    3.36
 -11  -1   0  109.43    3.23
  11  -1   0  105.36    2.95
 -11   1   0  112.05    3.24
  11   1   0  110.14    3.04
  11   1   0  107.36    2.87
 -11   1   0  107.48    3.25
 -13  -1   0    1.02    0.30
 -13  -1   0    1.31    0.33
  13  -1   0    1.21    0.25
  13  -1   0    1.38    0.25
  13   1   0    1.31    0.29
 -13   1   0    1.23    0.33
 -13   1   0    1.34    0.34
 -15  -1   0   49.89    2.10
  15  -1   0   49.80    1.73
  15   1   0   50.29    1.79
 -15   1   0   50.20    2.06
 -15   1   0   52.63    2.00
  17  -1   0    2.14    0.39
 -17  -1   0    2.25    0.53
  17   1   0    1.99    0.39
 -17   1   0    3.48    0.64
 -19  -1   0   33.28    1.81
  19  -1   0   30.93    1.40
  19   1   0   32.19    1.46
  21  -1   0    0.22    0.26
   0   2   0  538.52   13.36
   0   2   0  597.46   13.54
   0   2   0  564.47   13.48
   0   2   0  549.52   13.44
   2  -2   0    1.01    0.09
   2  -2   0    0.38    0.10
  -2  -2   0    0.55    0.18
   2   2   0    0.52    0.15
  -2   2   0    0.77    0.14
  -2   2   0    0.73    0.18
   2   2   0    0.61    0.11
   2   2   0    0.60    0.16
   2   2   0    0.67    0.10
  -4  -2   0  169.04    4.45
   4  -2   0  173.72    4.22
   4  -2   0  170.09    4.13
   4   2   0  156.82    4.36
   4   2   0  166.15    4.19
  -4   2   0  174.78    4.35
  -4   2   0  171.20    4.26
   4   2   0  172.40    4.08
   6  -2   0   17.38    0.60
  -6  -2   0   16.50    0.79
   6  -2   0   18.59    0.67
   6   2   0   17.51    0.53
  -6   2   0   17.15    0.72
  -6   2   0   18.70    0.79
   6   2   0   18.32    0.82
   8  -2   0   58.75    1.63
  -8  -2   0   55.98    1.91
  -8  -2   0   58.79    1.84
   8  -2   0   55.75    1.68
   8   2   0   56.69    1.70
  -8   2   0   53.36    1.83
   8   2   0   57.98    1.51
  -8   2   0   58.74    1.82
 -10  -2   0    4.45    0.53
  10  -2   0    3.71    0.31
 -10  -2   0    3.59    0.47
  10  -2   0    3.64    0.30
 -10   2   0    3.54    0.45
 -10   2   0    3.39    0.45
  10   2   0    4.50    0.37
  12  -2   0   65.34    2.00
 -12  -2   0   65.08    2.23
 -12  -2   0   66.51    2.37
  12  -2   0   65.66    1.97
 -12   2   0   62.58    2.25
 -12   2   0   69.27    2.30
  12   2   0   64.04    2.06
 -14  -2   0    6.90    0.82
 -14  -2   0    8.30    0.76
  14  -2   0    6.81    0.51
  14  -2   0    7.46    0.52
 -14   2   0    8.83    0.72
 -14   2   0    7.77    0.69
  14   2   0    7.52    0.57
  16  -2   0    2.38    0.38
 -16  -2   0    2.35    0.52
  16   2   0    1.98    0.37
 -16   2   0    2.01    0.47
  18  -2   0   28.99    1.30
 -18  -2   0   32.66    1.76
  18   2   0   30.56    1.41
 -20  -2   0    0.75    0.43
   1  -3   0  286.71    6.83
   1  -3   0  281.04    6.94
   1   3   0  288.55    7.11
  -1   3   0  285.47    7.04
  -1   3   0  287.17    7.11
   1   3   0  286.76    6.87
  -3  -3   0  122.98    3.50
   3  -3   0  120.13    3.22
   3  -3   0  135.76    3.10
  -3   3   0  124.90    3.38
   3   3   0  126.39    3.41
  -3   3   0  130.54    3.28
   3   3   0  120.52    3.13
   3   3   0  128.45    3.18
  -5  -3   0   81.67    2.51
   5  -3   0   79.37    2.21
   5  -3   0   77.49    2.07
   5   3   0   84.72    2.44
   5   3   0   80.12    2.18
   5   3   0   82.32    2.05
  -5   3   0   80.05    2.26
  -5   3   0   82.75    2.40
  -7  -3   0  330.13    8.33
   7  -3   0  327.84    7.75
   7  -3   0  314.51    7.89
   7   3   0  301.86    8.14
  -7   3   0  330.24    8.13
  -7   3   0  314.86    7.98
   7   3   0  322.72    7.88
   7   3   0  308.44    7.64
  -9  -3   0    7.33    0.60
   9  -3   0    8.06    0.42
  -9  -3   0    7.89    0.55
   9  -3   0    7.79    0.48
   9   3   0    7.63    0.48
  -9   3   0    7.42    0.57
  -9   3   0    7.16    0.53
 -11  -3   0  143.14    4.13
  11  -3   0  133.05    3.71
  11  -3   0  139.43    3.61
 -11  -3   0  135.82    3.95
 -11   3   0  134.96    4.01
 -11   3   0  135.15    3.94
  11   3   0  133.91    3.75
  13  -3   0   11.15    0.67
 -13  -3   0   12.19    0.83
  13  -3   0   10.93    0.61
 -13  -3   0   11.53    0.87
 -13   3   0   13.44    0.87
 -13   3   0   11.79    0.84
  13   3   0   11.35    0.70
  15  -3   0   57.39    1.99
  15  -3   0   58.33    1.93
 -15  -3   0   59.66    2.44
 -15   3   0   62.04    2.35
  15   3   0   61.53    2.10
 -17  -3   0    7.26    0.97
 -17   3   0    6.64    0.88
  17   3   0    6.76    0.73
 -19  -3   0   59.40    2.68
  19   3   0   59.17    2.25
   0  -4   0  376.40    9.04
   0   4   0  359.91    9.20
   0   4   0  371.54    8.92
   0   4   0  382.64    9.30
   2  -4   0    7.96    0.31
   2   4   0    8.40    0.51
  -2   4   0    9.46    0.50
   2   4   0    8.17    0.38
   2   4   0    8.45    0.53
  -2   4   0    8.98    0.55
   2   4   0    7.82    0.36
   4  -4   0  219.33    5.39
   4  -4   0  223.77    5.60
  -4  -4   0  218.73    5.97
  -4   4   0  228.20    5.83
   4   4   0  223.72    5.85
  -4   4   0  226.63    5.66
   4   4   0  219.19    5.45
   4   4   0  221.16    5.51
   6  -4   0   36.23    1.06
   6  -4   0   37.34    1.24
  -6  -4   0   38.50    1.56
   6   4   0   36.25    1.05
  -6   4   0   38.13    1.44
   6   4   0   35.69    1.43
  -6   4   0   35.89    1.27
   6   4   0   34.98    1.17
   8  -4   0   59.72    1.86
   8  -4   0   61.05    1.68
  -8  -4   0   58.58    2.23
  -8   4   0   62.44    2.11
  -8   4   0   58.24    1.92
   8   4   0   58.98    2.12
   8   4   0   59.42    1.82
 -10  -4   0   13.57    0.91
  10  -4   0   13.89    0.60
 -10  -4   0   14.58    0.83
  10  -4   0   12.56    0.71
 -10   4   0   14.84    0.83
  10   4   0   14.21    0.72
 -10   4   0   13.50    0.88
 -12  -4   0   75.65    2.60
 -12  -4   0   81.31    2.83
  12  -4   0   79.86    2.44
 -12   4   0   78.36    2.73
  12   4   0   76.79    2.43
  14  -4   0   14.28    0.84
 -14  -4   0   16.80    1.13
  14   4   0   16.31    0.89
 -14   4   0   15.09    1.05
 -16  -4   0    8.44    1.03
  16  -4   0    7.81    0.63
  16   4   0    7.58    0.75
 -16   4   0    5.31    0.78
 -18  -4   0   31.46    1.83
  18   4   0   32.42    1.53
 -18   4   0   32.02    2.28
   1  -5   0   43.65    1.19
   1  -5   0   41.92    1.33
  -1  -5   0   42.50    1.30
  -1   5   0   44.05    1.58
   1   5   0   44.15    1.23
   1   5   0   41.39    1.56
  -1   5   0   41.57    1.48
   1   5   0   41.49    1.50
   3  -5   0   30.56    0.91
   3   5   0   32.34    1.03
   3   5   0   32.58    1.03
   3   5   0   31.91    1.28
  -3   5   0   33.25    1.21
  -3   5   0   31.73    1.31
   3   5   0   31.92    1.31
  -5  -5   0   16.02    0.99
   5  -5   0   15.01    0.52
   5  -5   0   15.47    0.71
   5   5   0   14.71    0.63
  -5   5   0   13.89    0.83
   5   5   0   14.31    0.57
  -5   5   0   14.66    0.73
   5   5   0   14.21    0.84
   7  -5   0   99.70    2.61
  -7  -5   0   96.36    3.29
   7  -5   0   95.91    2.84
   7   5   0   99.90    2.78
  -7   5   0  104.35    3.17
   7   5   0  103.78    3.18
  -7   5   0  102.33    2.93
   9  -5   0    0.43    0.19
  -9  -5   0    0.19    0.23
  -9   5   0    0.48    0.25
   9   5   0    0.56    0.19
  -9   5   0    0.18    0.21
   9   5   0    0.48    0.24
 -11  -5   0   52.05    2.13
  11  -5   0   53.37    1.82
 -11  -5   0   48.17    1.88
  11   5   0   49.76    1.75
 -11   5   0   51.88    2.08
 -13  -5   0    0.33    0.28
  13  -5   0    0.41    0.22
 -13   5   0    0.55    0.31
  13   5   0    0.38    0.21
 -15  -5   0   20.49    1.37
  15  -5   0   20.44    1.08
  15   5   0   22.54    1.14
 -15   5   0   20.53    1.33
  17  -5   0    0.82    0.30
 -17  -5   0    0.88    0.44
 -17   5   0    0.39    0.34
  17   5   0    0.62    0.30
   0  -6   0  326.68    8.30
   0   6   0  341.71    8.74
   0   6   0  334.05    8.13
   0   6   0  340.59    8.61
   2  -6   0   14.16    0.67
  -2  -6   0   14.61    0.63
   2  -6   0   13.73    0.51
  -2   6   0   13.47    0.76
   2   6   0   12.50    0.55
   2   6   0   14.60    0.82
  -2   6   0   15.34    0.89
   2   6   0   12.67    0.83
   4  -6   0  102.19    2.99
  -4  -6   0  109.89    2.85
  -4  -6   0  107.50    3.54
  -4   6   0  111.76    3.14
  -4   6   0  106.50    3.34
   4   6   0  105.52    2.88
   4   6   0  104.62    3.30
  -6  -6   0   43.01    1.98
   6  -6   0   45.61    1.57
  -6   6   0   45.23    1.84
   6   6   0   46.06    1.83
  -6   6   0   43.51    1.61
   6   6   0   47.33    1.48
   8  -6   0   73.91    2.36
  -8  -6   0   78.53    2.91
   8   6   0   74.97    2.27
  -8   6   0   77.19    2.71
   8   6   0   72.62    2.66
 -10  -6   0   17.02    1.24
 -10  -6   0   15.53    1.06
  10  -6   0   16.34    0.88
 -10   6   0   14.02    1.02
  10   6   0   13.45    1.01
  10   6   0   16.33    0.83
 -12  -6   0   67.81    2.70
  12  -6   0   69.13    2.34
 -12   6   0   64.56    2.63
  12   6   0   70.58    2.28
  14  -6   0   18.78    1.04
 -14  -6   0   15.76    1.21
 -14   6   0   16.98    1.24
  14   6   0   17.17    0.97
 -16  -6   0    5.93    0.88
  16  -6   0    7.83    0.81
  16   6   0    7.71    0.80
 -16   6   0    6.48    0.97
 -18   6   0   29.28    2.07
   1  -7   0   52.58    1.66
  -1  -7   0   45.91    1.57
   1   7   0   49.18    1.87
   1   7   0   50.11    1.99
  -1   7   0   49.97    1.85
  -1   7   0   50.41    1.99
  -3  -7   0   79.58    2.32
   3  -7   0   81.71    2.46
   3   7   0   79.20    2.72
  -3   7   0   74.72    2.57
   3   7   0   83.87    2.83
   3   7   0   84.72    2.29
  -3   7   0   86.02    2.86
  -5  -7   0   56.57    2.41
   5  -7   0   53.56    1.85
   5   7   0   55.76    1.71
   5   7   0   55.50    2.15
  -5   7   0   53.18    2.17
   7  -7   0   92.00    2.82
  -7  -7   0   93.15    3.47
  -7   7   0   91.19    3.21
   7   7   0   94.39    2.70
   7   7   0   90.03    3.16
   9  -7   0    2.89    0.44
  -9  -7   0    3.70    0.72
   9   7   0    3.02    0.55
   9   7   0    3.61    0.44
  -9   7   0    3.51    0.64
 -11  -7   0   71.57    2.80
  11  -7   0   70.72    2.42
 -11   7   0   67.45    2.77
  11   7   0   69.78    2.32
  13  -7   0    6.95    0.73
 -13  -7   0    9.34    1.07
 -13   7   0    8.45    1.08
  13   7   0    8.25    0.68
  15  -7   0   32.24    1.54
 -15  -7   0   35.19    1.95
 -15   7   0   29.15    1.80
  15   7   0   33.92    1.53
   0  -8   0  128.73    3.59
   0   8   0  129.52    3.92
   0   8   0  127.93    4.12
  -2  -8   0    0.61    0.19
   2  -8   0    0.38    0.18
   2   8   0    0.45    0.27
  -2   8   0    0.30    0.29
  -2   8   0    0.63    0.26
   2   8   0    0.22    0.21
   4  -8   0   21.53    1.02
  -4  -8   0   21.89    1.46
   4   8   0   20.05    1.20
  -4   8   0   21.29    1.30
   6  -8   0   10.81    0.72
  -6  -8   0   10.74    1.05
  -6   8   0    8.35    0.99
   6   8   0    8.58    0.56
   6   8   0    9.79    0.85
  -8  -8   0   22.95    1.57
   8  -8   0   21.52    1.11
   8   8   0   20.07    0.98
  -8   8   0   23.30    1.45
   8   8   0   22.98    1.37
  10  -8   0    1.87    0.39
  10   8   0    1.66    0.35
  10   8   0    2.76    0.59
 -10   8   0    2.55    0.62
 -12  -8   0   24.62    1.58
  12  -8   0   24.10    1.27
  12   8   0   21.71    1.14
 -12   8   0   22.23    1.54
  14  -8   0    2.83    0.56
 -14  -8   0    2.92    0.79
  14   8   0    2.85    0.53
 -14   8   0    2.33    0.63
  -1  -9   0   34.03    1.33
   1  -9   0   33.46    1.36
   1   9   0   31.69    1.73
  -1   9   0   35.89    1.82
   1   9   0   33.09    1.60
   3  -9   0   30.62    1.30
  -3  -9   0   30.01    1.86
   3   9   0   27.45    1.51
  -3   9   0   30.17    1.66
   3   9   0   29.43    1.64
   5  -9   0   24.82    1.19
  -5  -9   0   23.52    1.67
  -5   9   0   24.81    1.52
   5   9   0   24.73    1.43
  -7  -9   0   58.34    2.83
   7  -9   0   54.53    2.09
  -7   9   0   55.69    2.54
   7   9   0   57.31    2.43
   9  -9   0    3.07    0.52
   9   9   0    2.13    0.53
  -9   9   0    1.72    0.57
  11  -9   0   32.70    1.57
 -11  -9   0   30.66    1.82
  11   9   0   32.70    1.44
 -11   9   0   32.42    1.96
  13   9   0    5.49    0.68
   0 -10   0   85.65    2.75
   0  10   0   88.84    3.41
   2 -10   0   16.35    0.93
   2  10   0   11.24    1.24
  -2  10   0   14.99    1.25
   4 -10   0   56.18    2.10
  -4 -10   0   59.80    2.92
  -4  10   0   57.71    2.64
   4  10   0   53.94    2.41
  -6 -10   0   29.97    2.03
   6 -10   0   27.31    1.38
   6  10   0   29.25    1.69
  -6  10   0   29.00    1.82
   8 -10   0   28.17    1.42
  -8  10   0   27.58    1.83
   8  10   0   26.29    1.66
 -10 -10   0   12.36    1.67
   1 -11   0   17.48    1.02
  -1  11   0   17.22    1.42
   1  11   0   14.19    1.52
   3 -11   0    6.73    0.76
  -3 -11   0    6.06    1.16
  -3  11   0    4.39    0.89
  -5 -11   0    4.88    1.07
   5 -11   0    5.00    0.65
   7  11   0   25.67    1.90
  20   0  -1    8.54    0.82
 -20   0   1    6.96    1.03
 -18   0   1   81.57    3.11
  18   0  -1   79.74    2.60
  16   0  -1    5.18    0.55
 -16   0   1    4.74    0.69
  14   0  -1  154.90    4.25
 -14   0   1  157.63    4.69
  14   0  -1  158.21    4.21
 -12   0   1    6.72    0.61
  12   0  -1    8.36    0.50
 -12   0   1    8.28    0.54
  12   0  -1    6.43    0.43
  10   0  -1  106.23    2.85
  10   0  -1  106.37    2.85
 -10   0   1  102.00    2.89
 -10   0   1  105.81    3.17
  -8   0   1  118.27    3.12
  -8   0   1  123.51    3.39
   8   0  -1  115.67    3.08
   8   0  -1  118.34    3.10
   6   0  -1  205.90    5.08
  -6   0   1  208.03    5.32
   6   0  -1  209.07    5.11
  -6   0   1  205.09    5.08
  -4   0   1  108.72    2.66
  -4   0   1  110.71    2.86
   4   0  -1  106.72    2.69
   4   0  -1  107.85    2.73
   2   0  -1  214.16    5.00
   2   0  -1  207.96    5.03
   2   0  -1  207.24    4.99
  -2   0   1  205.04    5.09
   0   0  -1  197.62    4.91
   0   0   1  209.04    4.92
   0   0  -1  202.55    4.99
   0   0   1  213.71    4.95
  -2   0  -1   87.98    2.20
   2   0   1   91.01    2.27
  -2   0  -1   88.46    2.42
   2   0   1   92.54    2.27
  -4   0  -1  972.03   23.22
   4   0   1  960.89   23.03
   4   0   1  943.19   22.99
   4   0   1 1000.00   22.99
   6   0   1   35.51    1.12
  -6   0  -1   36.95    1.34
  -6   0  -1   36.06    1.19
   6   0   1   36.50    1.01
  -8   0  -1  135.93    3.78
   8   0   1  134.28    3.33
  -8   0  -1  127.06    3.59
   8   0   1  131.53    3.50
  10   0   1   40.13    1.20
  10   0   1   39.73    1.36
 -10   0  -1   39.07    1.49
 -10   0  -1   40.61    1.60
 -12   0  -1  190.90    5.31
 -12   0  -1  189.76    5.40
  12   0   1  194.96    5.09
 -14   0  -1    4.10    0.61
  14   0   1    2.56    0.38
 -14   0  -1    2.44    0.47
  16   0   1   89.12    2.81
 -16   0  -1   86.77    3.09
 -16   0  -1   90.50    3.12
  18   0   1   10.65    0.79
 -21  -1   1   17.77    2.34
 -19  -1   1   21.09    1.45
  19  -1  -1   21.74    1.10
 -19   1   1   24.08    1.50
  19   1  -1   21.45    1.14
 -17  -1   1    7.10    0.94
  17  -1  -1    6.41    0.54
  17   1  -1    6.30    0.63
 -17   1   1    7.75    0.92
  15  -1  -1   24.50    1.05
 -15  -1   1   24.12    1.37
  15  -1  -1   25.31    1.05
  15   1  -1   24.07    1.08
 -15   1   1   24.83    1.37
 -13  -1   1   27.89    1.38
  13  -1  -1   28.02    1.08
  13  -1  -1   26.79    1.05
  13   1  -1   28.51    1.10
  13   1  -1   29.09    1.12
 -13   1   1   28.34    1.37
 -13   1   1   27.51    1.19
 -11  -1   1   78.69    2.31
  11  -1  -1   80.71    2.24
  11  -1  -1   77.65    2.27
 -11  -1   1   75.97    2.59
  11   1  -1   76.42    2.27
 -11   1   1   81.78    2.60
  11   1  -1   77.30    2.21
 -11   1   1   80.01    2.38
  -9  -1   1    1.43    0.30
   9  -1  -1    1.57    0.22
  -9  -1   1    1.35    0.22
   9  -1  -1    1.18    0.18
  -9   1   1    1.16    0.27
   9   1  -1    1.21    0.18
  -9   1   1    1.36    0.24
   9   1  -1    1.39    0.22
  -7  -1   1  224.16    5.60
   7  -1  -1  229.34    5.64
  -7  -1   1  226.92    5.87
   7  -1  -1  222.15    5.54
   7   1  -1  223.11    5.57
  -7   1   1  222.90    5.67
   7   1  -1  232.86    5.62
  -7   1   1  229.72    5.85
  -5  -1   1    9.23    0.36
   5  -1  -1    8.61    0.40
   5  -1  -1    9.06    0.34
  -5  -1   1    9.51    0.50
   5   1  -1    9.70    0.39
   5   1  -1    9.22    0.37
  -5   1   1    8.78    0.47
  -5   1   1    8.71    0.40
  -3  -1   1  216.53    5.52
   3  -1  -1  228.56    5.44
   3  -1  -1  223.27    5.32
  -3  -1   1  233.51    5.35
  -3   1   1  219.51    5.44
   3   1  -1  220.99    5.40
  -3   1   1  224.99    5.54
   3   1  -1  219.26    5.40
  -1  -1   1   73.69    1.93
   1  -1  -1   75.95    1.91
  -1   1   1   76.89    2.00
   1   1  -1   74.37    1.90
  -1   1   1   75.31    1.84
   1   1  -1   79.67    1.92
  -1   1   1   75.58    2.00
   1  -1   1  295.41    7.22
  -1  -1  -1  289.23    7.16
  -1  -1  -1  298.02    7.48
   1   1   1  315.44    7.22
  -1   1  -1  308.71    7.33
  -1   1  -1  305.21    7.24
   1   1   1  303.48    7.33
   3  -1   1    8.26    0.35
  -3   1  -1    8.91    0.35
   3   1   1    8.93    0.37
  -3   1  -1    8.75    0.47
   3   1   1    8.94    0.42
  -3   1  -1    9.58    0.33
   5  -1   1  219.15    5.47
  -5  -1  -1  219.34    5.70
   5  -1   1  225.91    5.41
   5   1   1  230.61    5.63
   5   1   1  223.20    5.50
  -5   1  -1  220.46    5.48
   5   1   1  218.47    5.28
  -5   1  -1  217.24    5.70
  -7  -1  -1   67.57    2.09
   7  -1   1   63.59    1.73
  -7  -1  -1   63.30    1.96
   7  -1   1   60.55    1.79
   7   1   1   63.42    1.61
   7   1   1   63.62    1.83
  -7   1  -1   63.58    2.05
  -7   1  -1   61.51    1.85
   9  -1   1   56.57    1.72
  -9  -1  -1   55.74    1.97
   9  -1   1   56.10    1.61
  -9  -1  -1   54.18    1.87
  -9   1  -1   56.22    1.81
   9   1   1   56.67    1.73
  -9   1  -1   59.22    1.98
   9   1   1   54.17    1.49
  11  -1   1   70.93    2.16
 -11  -1  -1   79.28    2.53
 -11  -1  -1   71.86    2.38
  11  -1   1   68.92    2.03
 -11   1  -1   71.76    2.31
 -11   1  -1   67.58    2.41
  11   1   1   72.57    2.19
 -13  -1  -1    8.16    0.72
 -13  -1  -1    7.62    0.67
  13  -1   1    8.69    0.57
 -13   1  -1    7.84    0.70
  13   1   1    7.88    0.57
 -13   1  -1    6.60    0.61
  15  -1   1   22.65    1.07
 -15  -1  -1   25.20    1.34
 -15  -1  -1   23.50    1.31
 -15   1  -1   22.19    1.30
  15   1   1   24.29    1.13
  17  -1   1    9.87    0.72
 -17  -1  -1    8.24    0.93
 -17   1  -1    8.60    0.97
  17   1   1    8.58    0.70
  19  -1   1   26.15    1.30
  19   1   1   26.78    1.36
 -20  -2   1    7.06    1.04
  20   2  -1    4.77    0.65
 -18  -2   1   48.51    2.30
 -18   2   1   50.80    2.28
  18   2  -1   49.47    1.89
 -16  -2   1    0.78    0.36
  16  -2  -1    1.79    0.33
  16  -2  -1    0.99    0.26
  16   2  -1    1.83    0.37
 -16   2   1    1.42    0.44
  14  -2  -1   78.99    2.52
 -14  -2   1   86.66    2.99
  14  -2  -1   84.13    2.45
  14   2  -1   83.14    2.56
 -14   2   1   83.72    2.71
 -14   2   1   85.62    2.92
 -12  -2   1    0.70    0.28
  12  -2  -1    1.09    0.23
  12  -2  -1    0.42    0.15
 -12   2   1    0.97    0.29
 -12   2   1    0.61    0.24
  12   2  -1    0.39    0.15
  10  -2  -1   32.58    1.07
 -10  -2   1   33.16    1.42
 -10  -2   1   33.32    1.20
  10  -2  -1   33.79    1.20
  10   2  -1   34.30    1.09
  10   2  -1   34.69    1.19
 -10   2   1   35.79    1.42
 -10   2   1   34.35    1.29
  -8  -2   1   29.17    1.00
   8  -2  -1   26.95    0.98
  -8  -2   1   25.88    1.15
   8  -2  -1   26.84    0.86
   8   2  -1   29.39    0.99
   8   2  -1   28.13    0.90
  -8   2   1   29.47    1.16
  -8   2   1   28.55    1.07
   6  -2  -1   63.58    1.65
   6  -2  -1   64.02    1.81
  -6   2   1   64.24    1.88
  -6   2   1   66.34    1.96
   6   2  -1   63.04    1.78
   6   2  -1   63.68    1.71
  -4  -2   1    0.86    0.16
   4  -2  -1    0.98    0.16
   4  -2  -1    0.85    0.07
  -4  -2   1    0.76    0.17
  -4   2   1    0.62    0.15
  -4   2   1    1.06    0.19
   4   2  -1    0.84    0.14
   4   2  -1    0.69    0.11
   2  -2  -1   47.97    1.33
  -2  -2   1   51.23    1.41
  -2   2   1   47.77    1.44
   2   2  -1   48.40    1.32
   2   2  -1   49.90    1.34
  -2   2   1   47.71    1.44
   2   2  -1   50.34    1.32
   0  -2  -1  149.99    3.80
   0  -2   1  153.29    3.82
   0   2  -1  156.73    3.86
   0   2   1  153.41    4.01
   0   2  -1  161.37    3.92
   0   2   1  160.95    4.00
   0   2  -1  155.25    3.81
   0   2   1  158.41    3.75
   2  -2   1   -0.07    0.05
  -2  -2  -1   -0.11    0.12
  -2  -2  -1   -0.08    0.03
   2   2   1    0.04    0.10
  -2   2  -1    0.13    0.11
  -2   2  -1   -0.03    0.06
  -2   2  -1    0.04    0.04
   2   2   1   -0.06    0.05
  -4  -2  -1  286.84    7.39
   4  -2   1  280.76    6.89
   4  -2   1  286.11    6.92
   4   2   1  289.14    7.13
  -4   2  -1  278.95    7.13
   4   2   1  277.46    6.92
  -4   2  -1  288.54    6.85
  -6  -2  -1    7.17    0.50
   6  -2   1    7.20    0.38
   6  -2   1    6.72    0.36
  -6   2  -1    7.02    0.38
  -6   2  -1    7.10    0.51
   6   2   1    6.91    0.48
   6   2   1    6.65    0.39
   8  -2   1   93.59    2.52
  -8  -2  -1   88.43    2.79
   8  -2   1   94.18    2.51
  -8   2  -1   91.34    2.59
   8   2   1   89.74    2.56
   8   2   1   90.19    2.77
  -8   2  -1   93.97    2.82
  10  -2   1    2.81    0.31
 -10  -2  -1    3.03    0.47
  10  -2   1    3.35    0.37
 -10  -2  -1    3.29    0.47
 -10   2  -1    3.30    0.41
 -10   2  -1    3.39    0.50
  10   2   1    2.92    0.37
 -12  -2  -1   91.35    3.00
  12  -2   1   90.31    2.59
  12  -2   1   90.49    2.65
 -12  -2  -1   87.19    2.95
  12   2   1   91.79    2.72
 -12   2  -1   93.35    2.95
 -12   2  -1   89.52    3.00
 -14  -2  -1    0.14    0.23
  14  -2   1    0.14    0.16
 -14  -2  -1   -0.09    0.16
 -14   2  -1   -0.10    0.20
  14   2   1   -0.02    0.16
  16  -2   1   47.32    1.75
 -16  -2  -1   48.11    2.12
  16   2   1   48.95    1.85
 -16   2  -1   46.55    2.08
 -18  -2  -1    2.56    0.59
  18  -2   1    1.83    0.40
  18   2   1    2.59    0.46
 -18   2  -1    2.42    0.57
 -19  -3   1   19.45    1.43
  19   3  -1   18.69    1.09
  17  -3  -1   24.74    1.17
 -17  -3   1   22.12    1.45
  17   3  -1   24.38    1.19
 -15  -3   1   60.73    2.47
  15  -3  -1   57.94    2.01
 -15   3   1   55.23    2.31
  15   3  -1   58.74    2.03
 -15   3   1   61.72    2.25
  13  -3  -1   39.30    1.31
  13  -3  -1   37.92    1.44
 -13  -3   1   36.69    1.74
 -13   3   1   42.54    1.75
  13   3  -1   39.48    1.46
 -13   3   1   37.43    1.59
 -11  -3   1   97.27    3.03
  11  -3  -1   99.20    2.83
 -11  -3   1   95.91    3.15
  11  -3  -1  100.32    2.63
  11   3  -1   99.42    2.81
 -11   3   1   93.58    3.06
 -11   3   1   97.19    3.00
   9  -3  -1    5.57    0.30
  -9  -3   1    5.84    0.41
   9  -3  -1    5.77    0.42
  -9  -3   1    5.09    0.59
   9   3  -1    4.92    0.37
  -9   3   1    5.65    0.48
   9   3  -1    5.75    0.33
  -9   3   1    5.42    0.48
  -7  -3   1  263.96    6.87
   7  -3  -1  259.32    6.38
   7  -3  -1  262.46    6.63
  -7  -3   1  263.67    6.79
  -7   3   1  274.54    6.80
   7   3  -1  257.07    6.47
  -7   3   1  273.32    6.84
   7   3  -1  262.25    6.58
  -5  -3   1   11.90    0.64
  -5  -3   1   12.71    0.63
   5  -3  -1   13.00    0.38
   5  -3  -1   12.33    0.55
   5   3  -1   11.95    0.52
  -5   3   1   12.00    0.63
  -5   3   1   10.83    0.61
   5   3  -1   11.92    0.48
   3  -3  -1  377.28    9.00
   3   3  -1  360.22    8.94
   3   3  -1  375.02    9.05
  -3   3   1  384.33    9.19
   3   3  -1  366.12    8.95
   3   3  -1  356.46    9.11
  -3   3   1  376.13    9.16
   1  -3  -1   51.74    1.42
  -1   3   1   50.39    1.27
   1   3  -1   51.56    1.53
   1   3  -1   50.20    1.45
   1   3  -1   50.74    1.40
  -1   3   1   52.60    1.64
   1   3  -1   52.71    1.50
  -1   3   1   51.31    1.60
  -1  -3  -1  253.02    6.22
   1  -3   1  255.57    6.25
  -1  -3  -1  267.01    6.73
  -1   3  -1  256.53    6.34
   1   3   1  253.22    6.51
   1   3   1  258.46    6.21
  -1   3  -1  258.31    6.27
  -1   3  -1  261.04    6.46
   3  -3   1   55.06    1.57
  -3  -3  -1   62.46    2.08
  -3  -3  -1   58.49    1.47
   3   3   1   55.44    1.81
   3   3   1   58.64    1.59
  -3   3  -1   60.15    1.55
  -3   3  -1   57.23    1.66
  -5  -3  -1  354.56    8.96
   5  -3   1  339.32    8.31
   5  -3   1  348.75    8.39
   5   3   1  343.26    8.67
   5   3   1  337.95    8.36
  -5   3  -1  343.33    8.63
  -5   3  -1  329.53    8.29
   7  -3   1   41.77    1.33
   7  -3   1   40.42    1.28
  -7  -3  -1   40.75    1.79
   7   3   1   40.53    1.55
  -7   3  -1   42.17    1.32
  -7   3  -1   42.20    1.57
   7   3   1   41.80    1.34
   9  -3   1   76.76    2.18
  -9  -3  -1   81.72    2.54
   9  -3   1   74.65    2.21
   9   3   1   75.54    2.25
  -9   3  -1   72.55    2.26
   9   3   1   73.85    2.51
  -9   3  -1   78.10    2.55
  11  -3   1  134.99    3.70
 -11  -3  -1  136.67    4.12
 -11  -3  -1  142.43    4.16
  11  -3   1  134.50    3.71
 -11   3  -1  136.53    4.13
  11   3   1  135.21    3.80
 -13  -3  -1   22.37    1.24
  13  -3   1   23.33    0.99
  13  -3   1   21.75    0.97
 -13  -3  -1   21.40    1.23
  13   3   1   21.41    1.04
 -13   3  -1   21.69    1.26
 -15  -3  -1   34.56    1.74
  15  -3   1   36.44    1.40
 -15  -3  -1   34.19    1.85
  15   3   1   36.61    1.51
 -15   3  -1   34.95    1.74
 -17  -3  -1   18.44    1.31
  17  -3   1   17.41    0.97
 -17   3  -1   20.58    1.32
  17   3   1   19.70    1.10
 -19  -3  -1   27.10    1.68
 -18  -4   1   50.86    2.44
  18  -4  -1   51.14    1.99
  18   4  -1   53.49    2.02
 -16  -4   1    0.04    0.29
  16  -4  -1    0.52    0.26
  16   4  -1    0.15    0.19
 -16   4   1    0.24    0.27
  14  -4  -1   88.57    2.76
 -14  -4   1   87.12    3.19
 -14   4   1   90.09    3.11
  14   4  -1   87.80    2.73
 -14   4   1   84.65    2.98
  12  -4  -1    8.24    0.59
 -12  -4   1    9.33    0.78
 -12   4   1    8.89    0.72
 -12   4   1    8.75    0.73
  12   4  -1    8.52    0.58
 -10  -4   1   48.08    1.64
  10  -4  -1   49.65    1.67
 -10  -4   1   50.35    1.94
  10   4  -1   45.81    1.59
 -10   4   1   51.13    1.87
 -10   4   1   49.93    1.88
   8  -4  -1   52.13    1.72
  -8  -4   1   54.94    1.94
  -8  -4   1   52.51    1.95
   8  -4  -1   53.82    1.45
   8   4  -1   56.71    1.56
   8   4  -1   53.18    1.67
  -8   4   1   55.61    1.91
  -8   4   1   52.86    1.88
  -6  -4   1   80.49    2.53
  -6  -4   1   81.78    2.55
   6  -4  -1   81.13    2.03
   6  -4  -1   78.30    2.33
  -6   4   1   85.11    2.51
   6   4  -1   86.07    2.30
   6   4  -1   78.10    2.19
  -6   4   1   83.68    2.54
   4  -4  -1    7.28    0.42
   4   4  -1    7.67    0.38
   4   4  -1    7.32    0.47
  -4   4   1    7.38    0.50
   4   4  -1    6.59    0.37
  -4   4   1    7.33    0.52
   2  -4  -1   81.83    2.30
   2  -4  -1   87.17    2.07
   2   4  -1   84.19    2.25
   2   4  -1   86.60    2.31
   2   4  -1   86.50    2.45
  -2   4   1   82.79    2.54
  -2   4   1   87.28    2.52
   2   4  -1   85.83    2.43
   0  -4  -1  203.53    5.40
   0  -4   1  215.84    5.39
   0   4  -1  228.15    5.52
   0   4  -1  222.32    5.50
   0   4   1  223.44    5.77
   0   4   1  231.65    5.73
   0   4   1  213.10    5.29
   0   4  -1  220.34    5.65
  -2  -4  -1    6.83    0.32
   2  -4   1    8.40    0.36
  -2  -4  -1    7.13    0.61
  -2   4  -1    8.33    0.53
  -2   4  -1    7.71    0.43
  -2   4  -1    7.48    0.38
   2   4   1    7.96    0.35
   2   4   1    7.18    0.52
   4  -4   1  214.52    5.39
  -4  -4  -1  205.59    5.28
   4  -4   1  229.20    5.56
  -4  -4  -1  213.84    6.08
   4   4   1  220.58    5.81
   4   4   1  219.38    5.44
  -4   4  -1  230.33    5.80
  -4   4  -1  217.47    5.43
   6  -4   1   27.13    0.91
   6  -4   1   27.97    1.01
  -6  -4  -1   27.98    1.40
  -6   4  -1   26.75    1.19
   6   4   1   26.34    0.97
  -6   4  -1   26.70    0.93
   8  -4   1  127.72    3.40
  -8  -4  -1  126.44    4.17
   8  -4   1  130.75    3.53
   8   4   1  126.84    3.85
   8   4   1  130.17    3.52
  -8   4  -1  132.76    3.86
  10  -4   1    9.53    0.59
 -10  -4  -1    9.37    0.73
  10  -4   1    9.88    0.54
  10   4   1    9.54    0.60
  10   4   1    9.85    0.77
 -10   4  -1    9.84    0.77
  12  -4   1   87.02    2.66
 -12  -4  -1   85.51    3.05
  12  -4   1   86.44    2.58
 -12  -4  -1   90.53    3.03
 -12   4  -1   90.17    3.09
  12   4   1   90.52    2.74
  14  -4   1    1.36    0.30
 -14  -4  -1    1.72    0.47
  14  -4   1    1.97    0.42
 -14  -4  -1    1.61    0.47
 -14   4  -1    1.61    0.45
  14   4   1    2.07    0.39
 -16  -4  -1   52.79    2.37
  16   4   1   55.58    2.08
 -16   4  -1   55.12    2.40
 -18  -4  -1    4.63    0.83
 -18   4  -1    6.12    0.95
  19  -5  -1    8.07    0.85
  17  -5  -1    5.30    0.65
 -17  -5   1    4.95    0.83
  17   5  -1    3.99    0.57
 -15  -5   1   16.82    1.24
  15  -5  -1   17.71    0.99
 -15   5   1   17.15    1.18
  15   5  -1   16.29    0.94
 -13  -5   1    9.69    0.87
  13  -5  -1    9.47    0.70
 -13   5   1    9.77    0.85
  13   5  -1   10.89    0.70
  11  -5  -1   31.11    1.27
 -11  -5   1   29.87    1.49
 -11   5   1   28.16    1.40
 -11   5   1   29.30    1.44
  11   5  -1   30.29    1.21
  -9  -5   1    1.09    0.31
   9  -5  -1    1.15    0.26
  -9  -5   1    1.44    0.37
  -9   5   1    1.10    0.32
   9   5  -1    0.84    0.22
  -9   5   1    1.15    0.33
  -7  -5   1   92.57    3.03
  -7  -5   1   94.93    2.98
   7  -5  -1   94.71    2.74
  -7   5   1   92.30    2.89
  -7   5   1   94.46    3.00
   7   5  -1   94.92    2.65
   7   5  -1   94.77    2.55
  -5  -5   1    1.16    0.30
   5  -5  -1    1.04    0.22
   5   5  -1    1.32    0.21
   5   5  -1    0.91    0.24
  -5   5   1    1.27    0.32
  -5   5   1    0.57    0.20
   5   5  -1    1.03    0.19
   3  -5  -1  100.77    2.77
  -3   5   1  101.34    3.06
  -3   5   1  100.98    2.99
   3   5  -1   98.73    2.68
   3   5  -1   99.72    2.73
   3   5  -1  103.64    2.97
   3   5  -1  100.49    2.94
   1  -5  -1    5.58    0.36
   1   5  -1    5.70    0.42
   1   5  -1    6.12    0.33
  -1   5   1    5.62    0.24
   1   5  -1    5.41    0.46
  -1   5   1    5.35    0.46
  -1   5   1    6.23    0.54
   1   5  -1    6.32    0.40
  -1  -5  -1   78.89    2.11
   1  -5   1   75.76    2.08
  -1   5  -1   77.44    2.23
  -1   5  -1   75.56    2.22
   1   5   1   76.37    2.51
  -1   5  -1   75.74    2.41
   1   5   1   78.11    2.02
   1   5   1   81.24    2.48
   3  -5   1    0.45    0.12
  -3  -5  -1    0.81    0.13
   3  -5   1    0.72    0.18
  -3  -5  -1    0.28    0.22
  -3   5  -1    0.45    0.14
   3   5   1    0.63    0.22
   3   5   1    0.67    0.14
  -3   5  -1    0.44    0.21
  -5  -5  -1  103.67    2.81
   5  -5   1  107.85    3.01
  -5  -5  -1  108.71    3.63
   5  -5   1  111.96    2.83
   5   5   1  105.04    3.28
  -5   5  -1  109.57    3.29
   5   5   1  103.96    2.88
  -5   5  -1  108.25    3.09
  -7  -5  -1    8.43    0.80
   7  -5   1    7.97    0.44
   7  -5   1    7.68    0.52
  -7   5  -1    8.46    0.68
   7   5   1    9.02    0.71
   7   5   1    8.28    0.50
   9  -5   1   19.10    0.77
   9  -5   1   19.81    0.90
  -9  -5  -1   16.26    1.23
  -9   5  -1   18.22    1.11
   9   5   1   21.25    1.16
   9   5   1   18.37    0.87
  11  -5   1   45.73    1.67
 -11  -5  -1   47.17    1.93
 -11  -5  -1   43.76    1.97
 -11   5  -1   47.22    2.01
  11   5   1   46.20    2.01
  11   5   1   45.99    1.67
 -13  -5  -1    3.30    0.60
  13  -5   1    4.18    0.52
 -13  -5  -1    3.71    0.66
  13   5   1    3.85    0.53
 -13   5  -1    3.48    0.63
  15  -5   1   10.39    0.75
 -15  -5  -1   10.30    1.16
  15   5   1   11.67    0.83
 -15   5  -1    9.01    1.08
 -17  -5  -1    4.96    0.86
  17   5   1    4.53    0.63
 -17   5  -1    4.91    0.84
  16  -6  -1    1.95    0.43
 -16  -6   1    1.70    0.54
  16   6  -1    2.35    0.49
 -16   6   1    2.87    0.63
 -14  -6   1   78.59    3.01
  14  -6  -1   74.75    2.58
  14   6  -1   74.57    2.53
 -14   6   1   72.67    2.88
  12  -6  -1   10.19    0.73
 -12  -6   1    8.00    0.91
 -12   6   1   10.17    0.89
  12   6  -1    9.76    0.68
  10  -6  -1   48.25    1.73
 -10  -6   1   43.47    1.95
  10   6  -1   47.36    1.64
 -10   6   1   44.90    1.86
 -10   6   1   45.53    1.99
  -8  -6   1   47.48    1.97
  -8  -6   1   43.25    1.83
   8  -6  -1   45.44    1.64
  -8   6   1   44.18    1.77
  -8   6   1   43.78    1.87
   8   6  -1   47.33    1.57
  -6  -6   1   74.64    2.70
   6  -6  -1   79.79    2.37
   6   6  -1   76.54    2.60
   6   6  -1   75.94    2.25
  -6   6   1   77.43    2.67
   6   6  -1   77.21    2.21
  -6   6   1   79.44    2.56
   4  -6  -1   32.72    1.20
  -4   6   1   29.30    1.40
  -4   6   1   33.21    1.38
   4   6  -1   33.80    1.38
   4   6  -1   33.98    1.39
   4   6  -1   32.50    1.14
   4   6  -1   31.05    1.10
   2  -6  -1   67.85    2.00
   2   6  -1   67.25    1.90
  -2   6   1   64.01    2.24
   2   6  -1   66.06    2.24
  -2   6   1   66.61    2.35
   2   6  -1   70.28    2.03
   2   6  -1   66.11    2.18
   0  -6   1   90.31    2.57
   0  -6  -1   97.67    2.66
   0   6  -1   94.19    2.75
   0   6  -1  102.33    3.03
   0   6   1  100.10    3.13
   0   6   1  103.47    3.06
   0   6  -1   92.72    2.80
   2  -6   1   18.18    0.84
  -2  -6  -1   20.06    0.76
  -2  -6  -1   20.35    1.25
   2  -6   1   20.87    0.74
   2   6   1   20.73    1.07
   2   6   1   20.64    0.73
  -2   6  -1   20.57    1.06
  -2   6  -1   21.53    0.89
  -4  -6  -1  211.23    5.41
   4  -6   1  204.28    5.37
   4  -6   1  223.60    5.64
  -4  -6  -1  210.00    6.34
   4   6   1  218.84    5.98
   4   6   1  220.05    5.44
  -4   6  -1  222.67    5.97
   6  -6   1   22.11    0.87
   6  -6   1   23.03    0.99
  -6  -6  -1   21.57    1.38
   6   6   1   23.04    1.23
   6   6   1   20.60    0.86
  -6   6  -1   21.42    1.18
   8  -6   1   68.39    2.19
  -8  -6  -1   67.86    2.82
  -8   6  -1   67.66    2.53
   8   6   1   67.79    2.10
   8   6   1   64.27    2.49
 -10  -6  -1   21.39    1.52
  10  -6   1   21.49    1.03
  10   6   1   20.53    0.99
 -10   6  -1   19.63    1.25
  10   6   1   22.43    1.31
 -12  -6  -1   86.26    3.07
 -12  -6  -1   87.87    3.22
  12  -6   1   87.40    2.77
 -12   6  -1   87.95    3.22
  12   6   1   81.21    2.71
 -14  -6  -1    1.56    0.53
  14  -6   1    2.48    0.44
  14   6   1    2.09    0.43
 -14   6  -1    2.03    0.54
  16  -6   1   42.73    1.79
 -16  -6  -1   44.50    2.25
  16   6   1   42.17    1.82
 -16   6  -1   42.59    2.21
 -17   7   1    6.97    1.04
  15  -7  -1   20.02    1.17
 -15  -7   1   19.09    1.41
 -15   7   1   16.92    1.35
  15   7  -1   21.60    1.15
 -13  -7   1   28.71    1.68
  13  -7  -1   31.32    1.46
  13   7  -1   32.00    1.39
 -13   7   1   28.96    1.70
  11  -7  -1   48.91    1.88
 -11  -7   1   49.91    2.19
 -11   7   1   47.61    2.19
  11   7  -1   49.48    1.79
  -9  -7   1    6.24    0.80
   9  -7  -1    6.28    0.65
   9   7  -1    6.16    0.60
  -9   7   1    4.84    0.77
   7  -7  -1  122.63    3.48
  -7  -7   1  121.11    3.99
   7   7  -1  118.49    3.33
  -7   7   1  118.45    3.87
   7   7  -1  118.99    3.78
  -7   7   1  111.61    3.63
   5  -7  -1    2.86    0.38
  -5  -7   1    2.72    0.55
  -5   7   1    2.47    0.44
   5   7  -1    3.48    0.50
   5   7  -1    3.48    0.38
  -5   7   1    3.15    0.54
   5   7  -1    3.64    0.40
   5   7  -1    3.19    0.52
   3  -7  -1  101.96    2.83
   3   7  -1   90.41    2.99
  -3   7   1   98.03    3.24
   3   7  -1   95.74    2.77
   3   7  -1   94.33    3.10
  -3   7   1   97.85    3.08
   3   7  -1   94.82    2.66
   1  -7  -1   54.57    1.68
  -1  -7   1   53.30    1.58
   1   7  -1   51.91    2.00
  -1   7   1   51.65    1.97
   1   7  -1   51.68    1.71
  -1   7   1   51.15    2.08
   1   7  -1   47.10    1.82
   1  -7   1  122.31    3.12
  -1  -7  -1  115.35    3.19
   1  -7   1  116.79    3.33
  -1   7  -1  123.04    3.70
   1   7   1  116.70    3.66
   1   7   1  113.25    3.75
  -1   7  -1  117.21    3.41
   3  -7   1    5.72    0.47
  -3  -7  -1    5.71    0.60
  -3  -7  -1    5.60    0.85
   3   7   1    4.35    0.60
  -3   7  -1    6.17    0.73
   5  -7   1   96.44    3.06
  -5  -7  -1  106.92    3.89
  -5   7  -1  107.46    3.49
   5   7   1  108.07    3.50
   5   7   1  106.69    2.91
  -7  -7  -1   43.86    2.24
   7  -7   1   45.06    1.67
   7   7   1   44.06    1.52
   7   7   1   46.56    2.01
  -7   7  -1   46.82    2.01
  -9  -7  -1   41.50    2.21
   9  -7   1   42.16    1.62
  -9   7  -1   38.03    1.89
   9   7   1   37.20    1.86
   9   7   1   42.69    1.51
 -11  -7  -1   47.62    2.52
  11  -7   1   46.88    1.84
  11   7   1   50.40    2.25
 -11   7  -1   47.67    2.22
  11   7   1   46.05    1.75
 -13  -7  -1   12.36    1.10
  13  -7   1   11.09    0.82
 -13   7  -1   10.77    1.23
  13   7   1   13.40    0.87
 -15  -7  -1   22.20    2.83
  15  -7   1   18.81    1.12
 -15   7  -1   16.16    1.37
  15   7   1   19.03    1.12
 -14  -8   1   27.80    1.73
  14  -8  -1   27.01    1.42
 -14   8   1   24.29    1.68
  14   8  -1   27.18    1.35
  12  -8  -1    0.64    0.29
 -12  -8   1    0.64    0.34
 -12   8   1    0.77    0.43
  12   8  -1    0.44    0.24
  10  -8  -1    9.57    0.75
 -10  -8   1    8.98    1.05
  10   8  -1    9.26    0.68
 -10   8   1    7.95    1.04
   8  -8  -1   11.23    0.78
  -8  -8   1   12.71    0.97
   8   8  -1   13.46    1.01
  -8   8   1   11.01    0.99
   8   8  -1   11.98    0.72
  -6  -8   1   20.11    1.36
   6  -8  -1   18.16    0.96
  -6   8   1   20.34    1.30
   6   8  -1   18.62    0.87
   6   8  -1   19.82    1.18
  -6   8   1   18.91    1.18
   4  -8  -1    4.23    0.49
  -4   8   1    5.74    0.79
   4   8  -1    5.37    0.44
  -4   8   1    5.18    0.67
   4   8  -1    4.63    0.39
   4   8  -1    5.10    0.71
   4   8  -1    4.58    0.64
   2  -8  -1   15.64    0.79
  -2  -8   1   14.56    0.76
  -2  -8   1   14.26    0.97
   2   8  -1   13.87    0.99
  -2   8   1   15.12    0.98
   2   8  -1   14.04    0.91
  -2   8   1   14.24    1.06
   0  -8  -1   20.83    0.91
   0  -8   1   20.16    0.95
   0   8   1   19.90    1.18
   0   8   1   19.76    1.27
   0   8  -1   20.53    1.22
  -2  -8  -1    1.47    0.51
   2  -8   1    1.58    0.32
   2   8   1    1.64    0.40
  -2   8  -1    1.88    0.45
   4  -8   1   75.80    2.53
  -4  -8  -1   75.71    3.28
  -4   8  -1   86.56    3.02
   4   8   1   84.81    2.97
   6  -8   1    2.66    0.43
  -6  -8  -1    2.62    0.69
   6   8   1    3.89    0.68
  -6   8  -1    3.10    0.65
  -8  -8  -1   14.82    1.35
   8  -8   1   14.66    0.89
  -8   8  -1   14.93    1.17
   8   8   1   13.14    1.06
  10  -8   1    4.87    0.62
 -10  -8  -1    5.63    1.04
  10   8   1    4.25    0.74
 -10   8  -1    5.89    0.91
  10   8   1    4.31    0.53
 -12  -8  -1   37.62    1.99
  12  -8   1   33.03    1.54
  12   8   1   33.89    1.92
  12   8   1   32.35    1.46
 -12   8  -1   32.22    1.91
  14   8   1    0.33    0.26
  13   9  -1   15.40    1.00
 -11  -9   1   23.02    1.53
  11  -9  -1   25.68    1.34
  11   9  -1   23.73    1.18
 -11   9   1   22.92    1.61
  -9  -9   1    3.08    0.65
   9  -9  -1    2.90    0.52
   9   9  -1    3.22    0.46
  -9   9   1    2.96    0.68
   7  -9  -1   53.58    2.04
   7   9  -1   54.60    2.33
  -7   9   1   54.64    2.49
  -5  -9   1    3.93    0.81
   5  -9  -1    3.21    0.48
  -5   9   1    4.53    0.82
   5   9  -1    3.66    0.63
   3  -9  -1   56.91    1.92
  -3  -9   1   49.21    1.80
   3   9  -1   50.95    2.26
  -3   9   1   59.37    2.49
  -3   9   1   49.74    2.16
  -1  -9   1   22.18    1.03
   1  -9  -1   21.77    1.01
   1   9  -1   19.98    1.30
  -1   9   1   19.55    1.24
  -1   9   1   21.94    1.42
   1  -9   1   47.92    1.74
   1   9   1   46.52    2.06
   1   9   1   47.09    2.21
  -1   9  -1   45.71    2.11
  -3  -9  -1    7.68    1.15
   3  -9   1    7.84    0.62
   3   9   1    6.39    0.83
  -3   9  -1    6.18    0.85
  -5  -9  -1   55.20    2.86
   5  -9   1   59.30    2.12
  -5   9  -1   60.24    2.57
   7  -9   1   16.89    0.99
  -7  -9  -1   14.75    1.42
   7   9   1   18.19    1.29
  -7   9  -1   14.87    1.23
  -9  -9  -1   20.14    1.67
   9  -9   1   19.73    1.15
  -9   9  -1   21.70    1.52
   9   9   1   20.94    1.42
  11  -9   1   29.70    1.59
 -11   9  -1   34.50    2.25
  11   9   1   32.73    1.92
 -10 -10   1   22.69    1.55
  -8 -10   1   29.13    1.69
   8 -10  -1   27.08    1.42
  -8  10   1   31.87    1.95
   6 -10  -1   36.71    1.64
   6  10  -1   40.91    2.30
  -6  10   1   36.68    2.09
  -4 -10   1   14.07    1.30
   4 -10  -1   13.68    0.88
   4  10  -1   11.27    1.05
  -4  10   1   14.95    1.28
   2 -10  -1   38.48    1.59
  -2 -10   1   41.29    1.59
   2  10  -1   41.60    2.08
  -2  10   1   41.11    2.15
   0 -10   1   60.71    2.16
   0  10  -1   62.02    2.67
   0  10   1   64.52    2.80
   0  10   1   58.66    2.51
  -2 -10  -1   12.23    1.32
   2 -10   1   13.71    0.88
   2  10   1   13.03    1.08
  -2  10  -1   12.71    1.14
   4 -10   1   62.84    2.27
  -4 -10  -1   54.72    3.00
   4  10   1   63.25    2.69
  -4  10  -1   64.53    2.78
  -6 -10  -1   25.29    1.97
   6 -10   1   21.99    1.21
   6  10   1   21.70    1.49
  -6  10  -1   23.73    1.62
   8 -10   1   39.14    1.76
  -8 -10  -1   41.48    2.54
  -8  10  -1   36.25    2.29
   8  10   1   36.14    2.04
   5 -11  -1    1.61    0.41
   3 -11  -1   18.63    1.07
  -3  11   1   17.69    1.51
   3  11  -1   17.71    1.40
   1  11  -1    7.08    1.06
  -1  11   1    1.59    0.58
  -1 -11  -1   12.98    1.46
   1 -11   1   12.77    0.87
  -1  11  -1   10.13    1.25
  -3 -11  -1    3.36    0.86
   3 -11   1    4.99    0.69
   3  11   1    4.81    0.84
  -3  11  -1    3.86    0.81
  -5 -11  -1   26.57    2.13
   5  11   1   28.07    1.75
  -7 -11  -1    2.38    1.00
 -20   0   2   34.20    1.96
  20   0  -2   35.86    1.50
  18   0  -2   33.74    1.40
 -18   0   2   35.71    1.89
 -16   0   2   14.52    1.09
  16   0  -2   14.54    0.78
  14   0  -2  177.15    4.73
  14   0  -2  178.40    4.67
 -14   0   2  172.21    5.20
  12   0  -2   15.83    0.76
 -12   0   2   16.13    0.99
  12   0  -2   16.92    0.73
  10   0  -2  218.44    5.32
 -10   0   2  206.94    5.73
  10   0  -2  212.48    5.40
 -10   0   2  205.04    5.26
   8   0  -2   15.03    0.66
   8   0  -2   16.77    0.62
  -8   0   2   16.21    0.83
  -8   0   2   15.19    0.55
  -6   0   2  300.26    7.43
  -6   0   2  318.62    7.85
   6   0  -2  315.94    7.62
   6   0  -2  307.51    7.52
   4   0  -2   37.87    1.11
   4   0  -2   36.74    1.04
   4   0  -2   36.92    1.06
  -4   0   2   37.58    1.22
  -2   0   2  478.34   11.35
   2   0  -2  477.35   11.53
  -2   0   2  465.00   11.49
   2   0  -2  484.71   11.40
   0   0  -2   26.19    0.76
   0   0   2   25.62    0.76
   0   0   2   26.77    0.82
   0   0  -2   22.91    0.86
   2   0   2  149.44    3.77
  -2   0  -2  153.45    4.02
  -2   0  -2  151.07    3.69
   2   0   2  147.95    3.76
   4   0   2   81.61    2.25
  -4   0  -2   87.69    2.55
   4   0   2   81.62    2.25
  -4   0  -2   83.69    2.13
   6   0   2  149.02    3.83
   6   0   2  144.02    3.63
  -6   0  -2  146.58    4.17
   6   0   2  148.72    3.86
   8   0   2  177.22    4.36
   8   0   2  168.48    4.58
  -8   0  -2  176.90    4.99
  -8   0  -2  182.02    4.67
  10   0   2   40.61    1.44
 -10   0  -2   40.45    1.49
 -10   0  -2   40.73    1.73
 -12   0  -2   60.16    2.35
 -12   0  -2   62.53    2.16
  12   0   2   60.80    2.02
  14   0   2   18.03    0.94
 -14   0  -2   17.84    1.18
  16   0   2   95.24    3.07
 -16   0  -2   99.91    3.47
  18   0   2    4.34    0.61
 -18   0  -2    3.69    0.75
 -21   1   2   35.96    2.10
  21   1  -2   40.59    1.68
 -19  -1   2    1.51    0.53
  19   1  -2    1.42    0.35
 -19   1   2    1.38    0.50
  17  -1  -2   39.53    1.46
  17  -1  -2   42.97    1.78
 -17  -1   2   37.94    1.94
 -17   1   2   37.65    1.90
  17   1  -2   38.79    1.52
  15  -1  -2   14.50    0.72
  15  -1  -2   12.35    0.74
 -15  -1   2   13.83    1.03
 -15   1   2   14.55    1.03
  15   1  -2   12.35    0.72
  13  -1  -2   65.06    1.98
  13  -1  -2   66.22    2.09
 -13  -1   2   68.06    2.47
  13   1  -2   65.47    2.05
 -13   1   2   67.50    2.46
  13   1  -2   67.53    2.06
 -11  -1   2    3.95    0.52
  11  -1  -2    4.93    0.40
  11  -1  -2    5.00    0.34
  11   1  -2    4.63    0.36
 -11   1   2    4.50    0.57
 -11   1   2    4.14    0.36
  11   1  -2    4.52    0.35
   9  -1  -2  123.50    3.28
   9  -1  -2  118.24    3.11
  -9  -1   2  124.89    3.03
  -9  -1   2  117.96    3.53
  -9   1   2  122.08    3.20
  -9   1   2  121.82    3.53
   9   1  -2  116.41    3.21
   9   1  -2  120.88    3.19
   7  -1  -2   85.17    2.33
  -7  -1   2   84.77    2.54
   7  -1  -2   85.73    2.19
  -7   1   2   83.76    2.26
   7   1  -2   82.38    2.28
   7   1  -2   83.92    2.26
  -7   1   2   82.42    2.53
  -5  -1   2    0.53    0.15
   5  -1  -2    0.59    0.14
   5  -1  -2    0.77    0.11
  -5   1   2    0.76    0.19
   5   1  -2    0.78    0.14
   5   1  -2    0.54    0.12
  -5   1   2    0.59    0.13
   3  -1  -2  160.63    4.19
   3  -1  -2  173.83    4.35
  -3  -1   2  174.19    4.30
   3   1  -2  173.75    4.07
  -3   1   2  164.69    4.35
  -3   1   2  171.34    4.09
   3   1  -2  164.56    4.16
   3   1  -2  168.31    4.19
   1  -1  -2    5.18    0.39
  -1  -1   2    4.78    0.26
  -1  -1   2    4.71    0.26
   1  -1  -2    5.30    0.26
  -1   1   2    4.32    0.31
   1   1  -2    5.53    0.27
   1   1  -2    5.17    0.30
  -1   1   2    4.99    0.22
   1  -1   2  105.23    2.63
   1  -1   2  101.69    2.54
  -1  -1  -2  100.20    3.00
  -1  -1  -2   98.08    2.54
  -1   1  -2  102.86    2.61
   1   1   2  105.84    2.61
  -1   1  -2  104.18    2.81
   1   1   2  103.14    2.74
  -3  -1  -2   29.26    0.77
  -3  -1  -2   29.84    1.11
   3  -1   2   28.86    0.81
   3  -1   2   29.07    0.92
  -3   1  -2   26.86    1.10
  -3   1  -2   28.57    0.87
   3   1   2   27.30    0.91
   3   1   2   27.93    0.99
  -5  -1  -2  215.96    5.16
   5  -1   2  213.41    5.39
  -5  -1  -2  216.35    5.71
  -5   1  -2  215.70    5.31
  -5   1  -2  213.97    5.72
   5   1   2  213.08    5.40
  -5   1  -2  215.15    5.31
   5   1   2  218.92    5.53
   7  -1   2   19.27    0.78
  -7  -1  -2   19.32    1.01
   7  -1   2   19.11    0.69
   7   1   2   19.26    0.57
  -7   1  -2   18.89    0.76
  -7   1  -2   21.18    1.05
   7   1   2   20.76    0.82
   7   1   2   18.87    0.85
   9  -1   2  158.68    4.35
  -9  -1  -2  167.33    4.78
   9  -1   2  164.51    4.18
  -9  -1  -2  164.71    4.53
  -9   1  -2  163.65    4.38
   9   1   2  161.88    4.38
  -9   1  -2  172.99    4.80
 -11  -1  -2   20.82    1.20
  11  -1   2   20.65    0.94
 -11  -1  -2   21.31    1.06
 -11   1  -2   21.26    1.20
  11   1   2   21.73    0.97
 -13  -1  -2   34.19    1.53
  13  -1   2   34.88    1.38
 -13  -1  -2   35.10    1.69
  13   1   2   35.07    1.40
 -13   1  -2   34.26    1.66
  15  -1   2   10.63    0.74
 -15  -1  -2    9.70    1.07
 -15  -1  -2   12.77    1.54
  15   1   2   11.20    0.77
 -15   1  -2   10.91    0.96
  17  -1   2   27.40    1.30
 -17  -1  -2   22.84    1.47
  17   1   2   25.93    1.30
 -17   1  -2   26.78    1.59
  19  -1   2    3.26    0.82
 -19   1  -2    1.81    0.59
 -20  -2   2    8.77    1.14
 -20   2   2    9.85    1.19
  20   2  -2    8.70    0.73
  18  -2  -2   12.39    0.96
 -18  -2   2   12.40    1.09
 -18   2   2   15.77    1.21
  18   2  -2   13.92    0.86
 -16  -2   2    9.16    1.05
  16  -2  -2    7.69    0.62
 -16   2   2    9.15    1.02
  16   2  -2    8.26    0.63
 -14  -2   2   94.11    3.23
  14  -2  -2   93.03    2.62
  14  -2  -2   90.52    2.78
  14   2  -2   90.97    2.75
 -14   2   2   94.86    3.22
  12  -2  -2    0.60    0.20
  12  -2  -2    0.82    0.18
 -12  -2   2    0.74    0.27
  12   2  -2    0.89    0.22
 -12   2   2    0.67    0.27
  12   2  -2    0.98    0.22
 -12   2   2    0.49    0.19
  10  -2  -2  113.04    3.19
 -10  -2   2  113.93    3.49
  10  -2  -2  113.41    2.97
 -10   2   2  117.45    3.50
  10   2  -2  114.44    3.14
  10   2  -2  115.05    3.11
 -10   2   2  117.01    3.21
  -8  -2   2    2.07    0.35
   8  -2  -2    1.49    0.24
   8  -2  -2    1.74    0.18
  -8  -2   2    1.92    0.15
  -8   2   2    1.26    0.28
   8   2  -2    2.07    0.26
  -8   2   2    1.70    0.27
   8   2  -2    2.26    0.26
  -6  -2   2  107.86    3.10
   6  -2  -2  111.62    2.95
   6  -2  -2  109.75    2.72
  -6  -2   2  105.78    2.67
  -6   2   2  114.37    3.17
  -6   2   2  109.75    2.98
   6   2  -2  111.34    2.89
   6   2  -2  109.75    2.89
   4  -2  -2   -0.12    0.07
  -4  -2   2    0.01    0.09
  -4   2   2    0.02    0.05
   4   2  -2   -0.05    0.05
   4   2  -2   -0.01    0.08
   4   2  -2    0.01    0.08
  -4   2   2   -0.15    0.08
  -4   2   2   -0.01    0.10
   2  -2  -2  193.74    5.18
  -2  -2   2  197.54    4.92
  -2  -2   2  200.23    4.87
   2  -2  -2  194.61    4.87
  -2   2   2  199.40    5.08
  -2   2   2  200.19    4.73
   2   2  -2  197.26    4.85
   2   2  -2  195.87    4.90
   0  -2  -2   10.04    0.39
   0  -2  -2    9.82    0.65
   0  -2   2   10.42    0.37
   0  -2   2   10.77    0.44
   0   2   2   11.25    0.39
   0   2  -2   10.68    0.45
   0   2   2   11.77    0.57
   0   2  -2   10.41    0.49
  -2  -2  -2   62.00    2.13
  -2  -2  -2   61.93    1.55
   2  -2   2   59.97    1.68
   2   2   2   61.23    1.86
  -2   2  -2   61.87    1.71
  -2   2  -2   60.90    1.86
   2   2   2   60.77    1.66
  -4  -2  -2   51.14    1.99
   4  -2   2   51.06    1.49
  -4   2  -2   53.41    1.74
   4   2   2   49.76    1.49
   4   2   2   53.17    1.67
  -4   2  -2   47.32    1.46
   6  -2   2   22.64    0.85
   6  -2   2   22.92    0.81
  -6  -2  -2   24.88    1.11
  -6   2  -2   22.01    0.75
  -6   2  -2   24.40    1.10
   6   2   2   23.48    1.02
  -8  -2  -2   42.56    1.73
   8  -2   2   44.14    1.45
   8  -2   2   43.80    1.37
  -8   2  -2   43.95    1.74
  -8   2  -2   45.98    1.67
   8   2   2   45.03    1.64
   8   2   2   45.70    1.49
  10  -2   2   24.10    0.92
 -10  -2  -2   25.10    1.19
  10  -2   2   25.70    1.03
 -10  -2  -2   24.33    1.30
  10   2   2   26.11    1.06
 -10   2  -2   24.65    1.28
  12  -2   2   35.54    1.35
 -12  -2  -2   35.92    1.69
 -12  -2  -2   33.61    1.52
 -12   2  -2   32.73    1.63
  12   2   2   34.21    1.37
 -14  -2  -2    0.69    0.30
  14  -2   2    0.90    0.27
 -14  -2  -2    0.54    0.35
  14   2   2    0.56    0.24
 -14   2  -2    0.39    0.30
  16  -2   2   53.27    1.97
 -16  -2  -2   51.90    2.33
 -16  -2  -2   55.25    2.30
 -16   2  -2   53.24    2.38
  16   2   2   56.36    2.07
  18  -2   2    0.15    0.25
  18   2   2    0.35    0.27
 -18   2  -2    0.52    0.39
  19  -3  -2   14.44    1.49
 -19  -3   2   13.06    1.41
  19   3  -2   12.42    0.88
 -19   3   2   12.85    1.19
 -17  -3   2   40.42    2.02
  17  -3  -2   34.84    1.52
 -17   3   2   39.85    1.99
  17   3  -2   37.88    1.56
 -15  -3   2   19.37    1.26
  15  -3  -2   19.37    0.98
  15   3  -2   19.78    0.97
 -15   3   2   16.37    1.17
 -13  -3   2  132.48    4.17
  13  -3  -2  134.81    3.77
 -13   3   2  130.92    4.14
  13   3  -2  130.65    3.70
 -13   3   2  129.70    3.83
 -11  -3   2   31.43    1.47
  11  -3  -2   31.63    1.23
  11   3  -2   31.89    1.12
 -11   3   2   31.19    1.29
 -11   3   2   32.12    1.46
  11   3  -2   28.45    1.15
   9  -3  -2  122.01    3.08
   9  -3  -2  120.36    3.38
  -9  -3   2  119.91    3.65
  -9   3   2  123.81    3.67
   9   3  -2  119.42    3.32
   9   3  -2  129.45    3.28
  -9   3   2  123.91    3.49
  -7  -3   2  111.90    3.39
  -7  -3   2  112.68    3.11
   7  -3  -2  119.88    3.22
   7  -3  -2  118.80    2.90
  -7   3   2  118.44    3.31
  -7   3   2  121.22    3.47
   7   3  -2  119.72    3.16
   7   3  -2  122.81    3.13
   5  -3  -2   15.01    0.64
  -5  -3   2   15.18    0.73
   5   3  -2   15.28    0.61
  -5   3   2   14.82    0.73
   5   3  -2   14.54    0.61
  -5   3   2   14.80    0.77
   5   3  -2   14.41    0.56
   3  -3  -2  220.02    5.63
  -3  -3   2  231.14    5.71
   3   3  -2  220.65    5.63
   3   3  -2  232.08    5.61
   3   3  -2  229.47    5.62
  -3   3   2  226.59    5.87
  -3   3   2  224.03    5.85
  -1  -3   2   77.21    2.04
   1  -3  -2   76.77    2.47
   1  -3  -2   76.70    2.03
  -1  -3   2   76.95    2.06
  -1   3   2   76.30    1.90
   1   3  -2   75.57    2.12
   1   3  -2   74.07    2.09
  -1   3   2   76.01    2.30
   1  -3   2  182.84    4.57
  -1  -3  -2  200.78    5.35
  -1  -3  -2  184.24    4.64
   1  -3   2  199.53    4.74
  -1   3  -2  183.88    4.79
   1   3   2  183.15    5.00
  -1   3  -2  195.62    4.91
   1   3   2  187.32    4.66
  -3  -3  -2   20.27    1.12
  -3  -3  -2   19.63    0.57
   3  -3   2   19.46    0.72
   3   3   2   19.37    0.91
   3   3   2   18.34    0.70
  -3   3  -2   20.34    0.91
  -3   3  -2   20.65    0.77
  -5  -3  -2  262.80    7.09
   5  -3   2  258.66    6.29
  -5   3  -2  248.24    6.32
   5   3   2  239.96    6.56
   5   3   2  250.99    6.30
  -5   3  -2  251.52    6.62
   7  -3   2    6.08    0.40
   7  -3   2    6.27    0.41
  -7  -3  -2    6.95    0.59
  -7   3  -2    4.72    0.59
   7   3   2    6.06    0.53
   7   3   2    5.61    0.41
   9  -3   2  195.88    5.10
   9  -3   2  186.14    5.05
  -9  -3  -2  205.44    5.60
  -9   3  -2  198.52    5.58
   9   3   2  195.18    5.17
   9   3   2  197.21    5.45
 -11  -3  -2   16.70    1.02
  11  -3   2   16.70    0.82
 -11  -3  -2   17.31    1.12
  11  -3   2   17.54    0.80
 -11   3  -2   15.26    1.05
  11   3   2   17.02    0.87
  13  -3   2   56.59    1.92
 -13  -3  -2   53.76    2.20
 -13  -3  -2   54.79    2.31
  13   3   2   57.97    2.00
 -13   3  -2   53.23    2.29
  15  -3   2   36.25    1.47
 -15  -3  -2   35.40    1.76
 -15  -3  -2   35.24    1.84
  15   3   2   37.45    1.56
 -15   3  -2   34.65    1.84
 -17  -3  -2   32.21    1.80
  17  -3   2   32.62    1.46
 -17   3  -2   36.49    1.94
  17   3   2   34.90    1.59
  18  -4  -2   19.38    1.09
 -18  -4   2   18.11    1.38
  18   4  -2   18.52    1.09
  16  -4  -2   22.11    1.15
 -16  -4   2   22.26    1.45
  16   4  -2   20.97    1.11
 -16   4   2   22.44    1.43
  14  -4  -2   98.28    3.04
 -14  -4   2   95.55    3.45
 -14   4   2  102.25    3.24
 -14   4   2   96.46    3.43
  14   4  -2   98.26    3.00
 -12  -4   2    0.12    0.20
  12  -4  -2   -0.23    0.11
  12   4  -2    0.11    0.14
 -12   4   2    0.13    0.20
 -12   4   2    0.05    0.18
  10  -4  -2  125.17    3.55
 -10  -4   2  124.04    3.86
  10   4  -2  121.03    3.37
 -10   4   2  127.80    3.73
 -10   4   2  129.47    3.88
  10   4  -2  126.26    3.48
  -8  -4   2   16.92    0.92
   8  -4  -2   15.50    0.76
   8   4  -2   15.68    0.69
  -8   4   2   14.39    0.89
  -8   4   2   16.43    0.88
   8   4  -2   16.25    0.73
  -6  -4   2  128.51    3.54
  -6  -4   2  127.77    3.66
   6  -4  -2  130.57    3.50
  -6   4   2  131.61    3.71
   6   4  -2  124.74    3.41
   6   4  -2  128.82    3.43
  -6   4   2  133.28    3.76
  -4  -4   2   10.72    0.60
   4  -4  -2   12.00    0.57
  -4   4   2   12.00    0.71
   4   4  -2   11.68    0.54
   4   4  -2   11.05    0.56
   4   4  -2   11.23    0.53
  -4   4   2   11.23    0.69
   2  -4  -2  188.96    4.76
  -2  -4   2  174.08    4.71
  -2  -4   2  187.59    4.81
  -2   4   2  187.76    5.07
  -2   4   2  190.10    5.11
   2   4  -2  192.93    4.87
   2   4  -2  194.70    4.81
   0  -4   2    0.19    0.09
   0  -4   2    0.23    0.08
   0  -4  -2   -0.07    0.12
   0  -4  -2    0.16    0.08
   0   4  -2    0.06    0.08
   0   4  -2    0.20    0.12
   0   4   2    0.17    0.06
   0   4   2    0.33    0.16
   2  -4   2   97.02    2.68
  -2  -4  -2  102.78    2.58
  -2  -4  -2  103.17    3.37
   2   4   2   99.75    3.02
  -2   4  -2  102.74    2.52
  -2   4  -2  104.26    2.79
  -2   4  -2   99.93    2.93
   2   4   2   98.21    2.62
  -4  -4  -2   86.86    3.10
  -4  -4  -2   89.30    2.20
   4  -4   2   87.16    2.42
  -4   4  -2   89.69    2.53
   4   4   2   91.73    2.80
  -4   4  -2   87.22    2.74
   4   4   2   89.73    2.43
  -6  -4  -2   27.88    1.56
   6  -4   2   29.20    1.08
   6  -4   2   27.35    1.00
   6   4   2   28.93    1.30
   6   4   2   29.74    1.06
   8  -4   2   43.67    1.49
   8  -4   2   45.51    1.47
   8   4   2   45.10    1.53
  -8   4  -2   41.96    1.79
   8   4   2   45.93    1.81
  10  -4   2   47.01    1.59
 -10  -4  -2   41.56    1.88
  10  -4   2   45.90    1.55
  10   4   2   46.63    1.64
  10   4   2   47.30    1.91
 -10   4  -2   46.69    1.98
  12  -4   2   51.90    1.79
 -12  -4  -2   54.25    2.19
 -12  -4  -2   51.87    2.23
  12  -4   2   51.54    1.77
  12   4   2   52.30    1.88
 -12   4  -2   49.60    2.20
  14  -4   2    2.35    0.40
 -14  -4  -2    2.53    0.60
 -14  -4  -2    3.04    0.58
  14   4   2    3.15    0.49
 -14   4  -2    3.05    0.64
 -16  -4  -2   49.56    2.29
  16   4   2   49.05    2.00
 -16   4  -2   54.50    2.44
 -18  -4  -2    2.80    0.78
  19  -5  -2    1.92    0.49
 -17  -5   2   15.58    1.25
  17  -5  -2   14.63    0.98
  17   5  -2   12.22    0.88
  15  -5  -2    4.25    0.59
 -15  -5   2    4.03    0.74
 -15   5   2    3.38    0.63
  15   5  -2    4.70    0.58
 -15   5   2    4.92    0.75
 -13  -5   2   45.66    2.05
  13  -5  -2   44.37    1.70
 -13   5   2   42.16    1.87
  13   5  -2   44.64    1.65
 -13   5   2   40.37    1.94
 -11  -5   2    2.54    0.51
  11  -5  -2    3.44    0.47
  11   5  -2    2.40    0.37
 -11   5   2    2.84    0.50
 -11   5   2    3.00    0.56
   9  -5  -2   44.20    1.59
  -9  -5   2   43.18    1.78
   9   5  -2   44.01    1.44
   9   5  -2   43.58    1.52
  -9   5   2   44.20    1.82
  -9   5   2   44.74    1.78
  -7  -5   2   30.82    1.32
   7  -5  -2   30.14    1.17
  -7  -5   2   27.77    1.24
  -7   5   2   29.24    1.34
   7   5  -2   30.56    1.11
   7   5  -2   28.68    1.06
  -7   5   2   30.41    1.36
  -5  -5   2    0.31    0.18
   5  -5  -2    0.38    0.14
   5   5  -2    0.35    0.15
  -5   5   2    0.34    0.19
   5   5  -2    0.45    0.15
  -5   5   2    0.14    0.14
   5   5  -2    0.23    0.12
  -3  -5   2   63.01    2.01
   3  -5  -2   65.63    1.94
  -3   5   2   64.90    2.25
   3   5  -2   68.04    1.97
   3   5  -2   65.01    1.89
   3   5  -2   67.21    2.06
  -3   5   2   61.97    2.20
  -1  -5   2    5.66    0.36
   1  -5  -2    4.54    0.33
   1   5  -2    6.15    0.42
   1   5  -2    5.71    0.38
   1   5  -2    6.07    0.47
  -1   5   2    5.24    0.60
  -1   5   2    3.77    0.51
  -1  -5  -2   43.59    1.95
  -1  -5  -2   46.43    1.34
   1  -5   2   45.70    1.38
  -1   5  -2   44.80    1.33
   1   5   2   43.94    1.26
  -1   5  -2   45.24    1.62
  -1   5  -2   43.48    1.48
  -3  -5  -2    1.63    0.18
  -3  -5  -2    2.20    0.55
   3  -5   2    2.02    0.25
  -3   5  -2    1.41    0.33
  -3   5  -2    2.15    0.32
   3   5   2    1.29    0.33
   3   5   2    1.40    0.20
  -5  -5  -2   86.69    3.27
   5  -5   2   85.09    2.46
   5  -5   2   90.71    2.60
  -5   5  -2   90.68    2.89
   5   5   2   88.58    2.49
   5   5   2   92.08    2.93
   7  -5   2    2.95    0.35
   7  -5   2    2.74    0.36
  -7  -5  -2    2.83    0.62
  -7   5  -2    3.07    0.54
   7   5   2    3.82    0.43
   7   5   2    2.24    0.43
   9  -5   2   80.39    2.39
   9  -5   2   83.10    2.49
   9   5   2   79.16    2.47
   9   5   2   78.62    2.84
  -9   5  -2   81.42    2.90
  11  -5   2    3.79    0.45
 -11  -5  -2    4.06    0.66
  11  -5   2    4.70    0.54
 -11   5  -2    4.02    0.72
  11   5   2    4.43    0.56
  11   5   2    4.04    0.65
 -13  -5  -2   16.23    1.18
  13  -5   2   16.62    0.91
 -13  -5  -2   16.79    1.22
 -13   5  -2   14.60    1.16
  13   5   2   16.81    0.97
 -15  -5  -2    8.72    1.35
 -15  -5  -2   12.02    1.06
 -15   5  -2    8.39    1.11
  15   5   2    8.58    0.85
 -16  -6   2    9.62    1.17
  16  -6  -2   11.58    0.88
  16   6  -2   11.51    0.85
 -14  -6   2   92.88    3.36
  14  -6  -2   86.96    2.88
  14   6  -2   81.30    2.76
 -14   6   2   85.41    3.17
  12  -6  -2    6.02    0.67
 -12  -6   2    6.36    0.86
 -12   6   2    6.51    0.83
  12   6  -2    6.38    0.63
 -12   6   2    6.88    0.87
  10  -6  -2   93.57    2.92
 -10  -6   2   96.45    3.23
  10   6  -2   97.72    2.85
 -10   6   2   91.30    3.20
 -10   6   2   92.38    3.21
  -8  -6   2   17.76    1.04
   8  -6  -2   17.80    0.90
   8   6  -2   17.35    0.79
  -8   6   2   16.82    1.07
   8   6  -2   16.53    0.82
  -8   6   2   18.21    1.08
   6  -6  -2  104.60    3.03
  -6  -6   2  104.78    3.23
   6   6  -2  105.05    2.95
   6   6  -2  104.20    2.94
   6   6  -2  105.00    3.11
  -6   6   2  104.29    3.37
  -6   6   2  102.56    3.31
  -4  -6   2   12.90    0.76
   4  -6  -2   14.27    0.70
   4   6  -2   12.00    0.75
   4   6  -2   12.53    0.66
   4   6  -2   13.28    0.64
  -4   6   2   13.70    0.91
  -4   6   2   13.84    0.88
  -2  -6   2  157.22    4.11
   2  -6  -2  157.74    4.15
   2   6  -2  162.59    4.23
  -2   6   2  152.62    4.62
  -2   6   2  154.15    4.54
   2   6  -2  157.17    4.25
   2   6  -2  155.23    4.39
   0  -6  -2   10.40    0.52
   0  -6  -2    9.14    0.87
   0  -6   2    9.77    0.52
   0   6  -2   10.47    0.61
   0   6   2   11.45    0.78
   0   6  -2    9.59    0.69
  -2  -6  -2   65.64    1.87
  -2  -6  -2   69.28    2.77
   2  -6   2   63.31    1.93
  -2   6  -2   65.27    2.28
   2   6   2   67.90    2.41
  -2   6  -2   67.75    2.11
   4  -6   2   49.67    1.58
  -4  -6  -2   51.60    2.40
   4  -6   2   50.89    1.72
  -4   6  -2   52.39    2.00
   4   6   2   52.21    2.04
   4   6   2   51.42    1.56
   6  -6   2   46.33    1.50
   6  -6   2   47.79    1.65
  -6  -6  -2   45.83    2.28
   6   6   2   45.51    1.53
  -6   6  -2   47.23    1.95
   6   6   2   46.59    1.95
  -8  -6  -2   63.65    2.87
   8  -6   2   61.89    1.93
   8  -6   2   64.82    2.10
   8   6   2   58.85    2.42
   8   6   2   64.09    2.03
  -8   6  -2   60.93    2.44
  10  -6   2   32.10    1.33
 -10   6  -2   28.51    1.61
  10   6   2   30.48    1.28
  10   6   2   29.83    1.60
 -12  -6  -2   30.06    1.71
  12  -6   2   33.68    1.42
  12   6   2   33.54    1.43
  12   6   2   31.11    1.72
 -12   6  -2   32.76    1.81
  14  -6   2   10.64    0.77
 -14  -6  -2    8.35    1.08
 -14  -6  -2    9.66    1.16
 -14   6  -2   10.06    1.21
  14   6   2    8.73    0.86
  15  -7  -2   19.43    1.17
 -15  -7   2   20.85    1.47
 -15   7   2   18.83    1.39
  15   7  -2   17.65    1.07
 -13  -7   2   41.15    2.04
  13  -7  -2   43.46    1.78
 -13   7   2   40.30    2.05
  13   7  -2   42.85    1.69
  11  -7  -2   10.62    0.78
 -11  -7   2   10.56    0.93
 -11   7   2   12.19    0.98
  11   7  -2   10.10    0.71
 -11   7   2   11.58    0.99
  -9  -7   2   71.84    2.68
   9  -7  -2   71.12    2.43
  -9   7   2   73.09    2.73
   9   7  -2   76.04    2.35
  -9   7   2   74.91    2.81
  -7  -7   2   57.05    2.17
   7  -7  -2   54.91    1.94
  -7   7   2   55.91    2.30
   7   7  -2   54.16    1.82
  -7   7   2   56.43    2.24
   7   7  -2   57.91    1.86
  -5  -7   2   11.97    0.79
   5  -7  -2   11.40    0.68
   5   7  -2   10.87    0.76
  -5   7   2   10.37    0.83
   5   7  -2   11.56    0.65
  -5   7   2    9.26    0.84
   5   7  -2    9.52    0.58
   3  -7  -2   95.79    2.79
  -3  -7   2   92.18    2.68
  -3   7   2   97.97    3.29
   3   7  -2   95.22    2.82
   3   7  -2   92.00    3.02
   3   7  -2  100.29    2.96
  -3   7   2   93.44    3.16
  -1  -7   2   18.91    0.79
   1  -7  -2   18.73    0.82
   1   7  -2   18.22    0.89
  -1   7   2   19.54    1.20
   1   7  -2   16.20    0.99
  -1   7   2   17.85    1.09
  -1  -7  -2   61.59    1.84
   1  -7   2   58.29    1.82
  -1  -7  -2   61.47    2.69
  -1   7  -2   63.19    2.04
   1   7   2   58.04    2.31
  -1   7  -2   60.83    2.24
  -3  -7  -2   37.80    2.05
   3  -7   2   37.34    1.41
   3  -7   2   34.80    1.23
  -3   7  -2   37.28    1.66
   3   7   2   37.52    1.72
  -5  -7  -2  111.56    4.13
   5  -7   2  103.31    3.20
  -5   7  -2  111.58    3.61
   5   7   2  109.41    3.64
   7  -7   2   -0.01    0.14
  -7  -7  -2   -0.02    0.26
   7   7   2    0.09    0.14
  -7   7  -2   -0.13    0.19
   7   7   2   -0.13    0.16
  -9  -7  -2   87.94    3.76
   9  -7   2   95.26    2.87
   9   7   2   89.55    3.30
   9   7   2   86.60    2.73
  -9   7  -2   83.82    3.25
  11  -7   2   27.75    1.31
 -11   7  -2   26.00    1.63
  11   7   2   25.73    1.58
  11   7   2   29.65    1.31
 -13  -7  -2   25.04    1.59
  13  -7   2   23.57    1.24
 -13  -7  -2   23.73    1.58
 -13   7  -2   24.75    1.63
  13   7   2   22.72    1.23
  13   7   2   24.85    1.61
 -14  -8   2   34.05    1.91
  14  -8  -2   31.46    1.66
  14   8  -2   31.73    1.48
 -14   8   2   29.93    1.84
  12  -8  -2    0.84    0.32
 -12  -8   2    0.64    0.37
 -12   8   2    0.15    0.39
  12   8  -2    1.21    0.33
  10  -8  -2   30.44    1.40
 -10  -8   2   28.37    1.57
  10   8  -2   28.79    1.28
 -10   8   2   28.59    1.70
  -8  -8   2    1.96    0.44
   8  -8  -2    0.85    0.28
  -8   8   2    1.45    0.51
  -8   8   2    1.55    0.46
   8   8  -2    1.19    0.28
   6  -8  -2   26.48    1.22
  -6  -8   2   26.52    1.38
   6   8  -2   29.47    1.20
  -6   8   2   26.82    1.56
  -6   8   2   26.66    1.48
   6   8  -2   28.80    1.15
  -4  -8   2    0.84    0.23
   4  -8  -2    1.41    0.30
  -4  -8   2    0.72    0.29
  -4   8   2    1.20    0.43
   4   8  -2    0.88    0.32
   4   8  -2    1.03    0.27
  -4   8   2    1.58    0.44
  -2  -8   2   49.04    1.63
   2  -8  -2   50.15    1.72
  -2   8   2   49.17    2.10
  -2   8   2   48.39    2.22
   2   8  -2   50.08    2.03
   2   8  -2   51.62    1.81
   0  -8   2    0.41    0.16
   0  -8  -2    0.91    0.22
   0  -8  -2    0.56    0.36
   0   8  -2    0.12    0.15
   0   8  -2    0.16    0.22
   0   8   2    0.32    0.25
  -2  -8  -2   13.43    1.24
   2  -8   2   11.71    0.75
  -2   8  -2   12.33    0.96
   2   8   2   14.63    1.04
   4  -8   2   12.09    0.77
  -4  -8  -2   12.43    1.24
   4   8   2   10.52    0.93
  -4   8  -2   10.35    0.93
   6  -8   2   11.21    0.76
  -6  -8  -2   11.26    1.21
   6   8   2   11.83    1.00
  -6   8  -2   11.72    0.99
   8  -8   2   19.31    1.07
  -8  -8  -2   21.40    1.71
   8   8   2   19.62    1.35
  -8   8  -2   21.30    1.41
  10  -8   2    7.82    0.80
 -10  -8  -2    5.59    1.08
  10   8   2    7.63    1.04
 -10   8  -2    7.67    1.10
 -12  -8  -2    7.67    1.04
  12  -8   2    7.18    0.79
 -12   8  -2    7.51    1.13
  12   8   2    8.67    0.85
  12   8   2    8.64    1.11
 -13  -9   2   27.16    1.80
 -13   9   2   26.28    3.01
 -11  -9   2    7.64    1.02
  11  -9  -2    7.13    0.81
  11   9  -2    9.61    0.86
 -11   9   2    6.51    0.99
  -9  -9   2   36.57    1.82
   9  -9  -2   33.81    1.56
   9   9  -2   33.46    1.42
  -9   9   2   33.99    1.95
   7  -9  -2   31.37    1.42
  -7  -9   2   31.49    1.62
  -7   9   2   29.30    1.78
   7   9  -2   31.96    1.31
  -7   9   2   30.25    2.01
  -5  -9   2    5.77    0.58
   5  -9  -2    5.60    0.61
  -5   9   2    6.91    0.89
  -5   9   2    5.29    0.85
   5   9  -2    5.16    0.60
   3  -9  -2   44.05    1.64
   3   9  -2   42.66    1.65
  -3   9   2   43.44    2.17
   3   9  -2   44.32    1.98
  -3   9   2   38.74    1.94
  -1  -9   2   13.49    0.82
   1  -9  -2   15.82    1.40
  -1   9   2   13.38    1.07
  -1   9   2   15.26    1.22
   1   9  -2   12.77    1.04
   1  -9   2   31.38    1.38
  -1  -9  -2   32.36    2.06
  -1   9  -2   31.25    1.67
   1   9   2   32.21    1.71
   3  -9   2   15.75    0.92
  -3  -9  -2   15.56    1.46
  -3   9  -2   13.41    1.10
   3   9   2   13.82    1.11
  -5  -9  -2   42.50    2.62
   5  -9   2   51.46    1.95
   5   9   2   55.43    2.41
  -5   9  -2   53.65    2.39
  -7  -9  -2    1.75    0.68
   7  -9   2    0.40    0.25
  -7   9  -2    0.78    0.46
   7   9   2    0.65    0.39
  -9  -9  -2   47.62    2.78
   9  -9   2   47.55    1.93
  -9   9  -2   42.14    2.30
   9   9   2   48.37    2.37
 -11  -9  -2   10.27    1.52
 -10 -10   2   38.26    2.05
   8 -10  -2   20.70    1.21
  -8  10   2   21.75    1.63
   6 -10  -2   38.78    1.67
  -6  10   2   40.01    2.20
   4 -10  -2   18.54    1.03
  -4  10   2   16.81    1.26
  -4  10   2   19.11    1.48
  -2 -10   2   59.92    2.16
  -2  10   2   65.49    2.69
  -2  10   2   61.87    2.82
   2  10  -2   58.70    2.57
   0 -10   2    7.09    0.72
   0 -10  -2    6.68    1.17
   0  10  -2    7.48    1.01
   0  10   2    8.28    1.04
  -2 -10  -2   38.32    2.45
  -2  10  -2   38.04    2.01
   2  10   2   38.92    2.01
   4 -10   2   44.11    1.77
  -4 -10  -2   37.65    2.52
   4  10   2   35.50    2.00
  -4  10  -2   39.36    2.09
   6 -10   2   19.84    1.14
  -6 -10  -2   17.57    1.68
   6  10   2   16.42    1.35
  -6  10  -2   16.38    1.35
  -8 -10  -2   22.56    1.93
   5 -11  -2    0.90    0.34
  -1 -11   2    6.12    0.72
  -1  11   2    4.87    0.82
   1  11  -2    7.24    1.05
   1 -11   2    8.61    0.86
  -1  11  -2    9.47    1.17
   1  11   2    7.12    1.00
   3  11   2    1.23    0.59
 -20   0   3   32.25    1.92
  18   0  -3    7.30    0.60
 -18   0   3    7.49    1.01
 -16   0   3   98.53    3.57
  16   0  -3  101.73    3.08
  16   0  -3  102.97    2.98
 -14   0   3   36.70    1.77
  14   0  -3   37.47    1.34
  14   0  -3   38.74    1.46
  12   0  -3   42.50    1.52
  12   0  -3   45.09    1.43
 -12   0   3   41.49    1.81
  10   0  -3  191.52    4.84
  10   0  -3  187.31    4.97
 -10   0   3  189.82    5.31
   8   0  -3  102.84    2.71
  -8   0   3  100.82    3.08
   8   0  -3  103.09    2.89
   8   0  -3  103.36    2.84
  -6   0   3  130.78    3.87
   6   0  -3  142.28    3.70
   6   0  -3  144.30    3.59
   6   0  -3  146.91    3.59
  -4   0   3   45.59    1.31
  -4   0   3   46.44    1.52
   2   0  -3  443.89   10.78
  -2   0   3  458.00   10.65
  -2   0   3  439.97   10.81
   2   0  -3  428.10   10.68
   0   0  -3   10.53    0.59
   0   0   3    9.86    0.44
   0   0  -3    9.74    0.43
   0   0   3   10.43    0.50
   2   0   3  369.74    8.94
   2   0   3  361.58    8.90
  -2   0  -3  361.87    8.82
  -2   0  -3  367.21    9.25
   4   0   3   17.23    0.71
  -4   0  -3   19.03    0.97
  -4   0  -3   16.76    0.60
   4   0   3   17.42    0.70
   6   0   3   95.63    2.70
  -6   0  -3   95.45    2.51
   6   0   3   98.25    2.73
  -6   0  -3   98.23    3.12
  -8   0  -3   19.10    1.12
   8   0   3   18.02    0.83
  -8   0  -3   17.93    0.83
 -10   0  -3  156.44    4.76
  10   0   3  155.72    4.29
 -12   0  -3   18.48    1.23
  12   0   3   20.20    1.00
 -14   0  -3   29.00    1.67
  14   0   3   33.84    1.43
  16   0   3   23.75    1.24
 -16   0  -3   24.28    1.55
 -18   0  -3    9.54    1.17
  21   1  -3   27.78    1.35
 -19  -1   3    0.10    0.32
 -19   1   3    0.25    0.35
  19   1  -3    0.23    0.23
  17  -1  -3   46.05    1.75
 -17  -1   3   49.45    2.26
  17   1  -3   42.47    1.65
 -17   1   3   43.94    2.14
  15  -1  -3    6.57    0.48
 -15  -1   3    6.47    0.84
  15  -1  -3    6.67    0.57
  15   1  -3    6.35    0.62
  15   1  -3    6.55    0.52
 -15   1   3    6.07    0.80
  13  -1  -3   79.04    2.28
 -13  -1   3   77.27    2.83
  13  -1  -3   83.55    2.50
  13   1  -3   77.26    2.43
  13   1  -3   78.21    2.36
 -13   1   3   80.52    2.86
  11  -1  -3    1.58    0.29
 -11  -1   3    2.36    0.44
  11  -1  -3    1.78    0.24
 -11   1   3    1.29    0.32
  11   1  -3    2.29    0.32
  11   1  -3    1.67    0.26
   9  -1  -3  197.71    5.00
  -9  -1   3  208.20    5.53
   9  -1  -3  201.80    5.21
  -9   1   3  198.54    5.05
   9   1  -3  202.04    5.18
  -9   1   3  187.64    5.47
   9   1  -3  204.39    5.10
  -7  -1   3   -0.03    0.14
   7  -1  -3    0.05    0.07
   7  -1  -3   -0.08    0.08
   7   1  -3    0.10    0.10
  -7   1   3    0.17    0.11
   7   1  -3    0.08    0.09
  -7   1   3    0.16    0.15
   5  -1  -3  231.11    5.87
  -5  -1   3  222.13    5.89
   5  -1  -3  239.68    5.77
   5   1  -3  228.05    5.47
  -5   1   3  234.12    5.99
  -5   1   3  220.11    5.59
   5   1  -3  231.46    5.75
   5   1  -3  227.55    5.68
  -3  -1   3   48.45    1.39
   3  -1  -3   45.50    1.61
   3  -1  -3   49.09    1.42
  -3  -1   3   46.29    1.48
   3   1  -3   49.34    1.43
   3   1  -3   49.46    1.40
  -3   1   3   47.41    1.32
  -3   1   3   49.45    1.59
  -1  -1   3   27.85    0.88
   1  -1  -3   27.12    0.86
  -1  -1   3   26.69    0.89
   1  -1  -3   22.27    1.11
  -1   1   3   26.91    0.84
  -1   1   3   26.88    1.00
   1   1  -3   27.18    1.01
   1   1  -3   27.77    0.89
   1  -1   3   31.68    1.01
  -1  -1  -3   31.11    0.93
  -1  -1  -3   33.38    1.21
   1  -1   3   32.61    0.97
   1   1   3   32.46    1.00
   1   1   3   32.77    1.14
  -1   1  -3   30.55    0.99
  -1   1  -3   27.22    1.17
  -3  -1  -3   68.85    2.26
   3  -1   3   67.77    1.86
  -3  -1  -3   71.79    1.83
   3  -1   3   69.95    1.98
  -3   1  -3   72.86    2.32
   3   1   3   67.85    2.06
   3   1   3   71.27    1.98
  -3   1  -3   69.28    1.92
  -5  -1  -3   35.39    0.98
   5  -1   3   36.03    1.08
  -5  -1  -3   34.17    1.47
   5  -1   3   33.35    1.18
   5   1   3   35.45    1.26
   5   1   3   34.35    1.18
  -5   1  -3   33.43    1.08
  -5   1  -3   36.17    1.50
   7  -1   3   13.72    0.69
  -7   1  -3   14.08    0.59
   7   1   3   13.91    0.69
   7   1   3   14.90    0.76
  -7   1  -3   14.89    0.94
  -9  -1  -3   86.26    3.06
   9  -1   3   87.43    2.64
   9   1   3   92.79    2.78
  -9   1  -3   88.76    3.07
   9   1   3   91.74    2.68
  11  -1   3    3.01    0.43
 -11  -1  -3    1.64    0.36
 -11  -1  -3    1.78    0.47
  11   1   3    2.62    0.41
 -11   1  -3    2.64    0.56
 -13  -1  -3   57.80    2.47
  13  -1   3   59.32    2.07
 -13   1  -3   58.82    2.46
  13   1   3   59.49    2.09
  15  -1   3   12.63    0.83
 -15  -1  -3   11.84    1.06
  15   1   3   12.20    0.85
 -15   1  -3   11.46    1.04
  17  -1   3   20.41    1.15
 -17  -1  -3   20.05    1.46
  17   1   3   21.96    1.22
 -17   1  -3   18.44    1.40
 -20  -2   3   21.58    2.68
  20   2  -3   22.70    1.19
 -20   2   3   20.04    1.52
 -18  -2   3    0.02    0.32
  18  -2  -3   -0.08    0.22
  18   2  -3    0.15    0.20
 -18   2   3    0.01    0.28
 -16  -2   3   39.39    1.94
  16  -2  -3   35.80    1.51
 -16   2   3   36.79    1.88
  16   2  -3   35.16    1.44
  14  -2  -3   14.24    0.82
 -14  -2   3   13.29    1.00
 -14   2   3   13.83    1.04
  14   2  -3   14.30    0.77
  14   2  -3   15.25    0.81
  12  -2  -3   22.34    0.84
 -12  -2   3   22.65    1.25
  12  -2  -3   23.97    1.05
  12   2  -3   23.53    0.98
 -12   2   3   23.55    1.28
  12   2  -3   23.12    1.00
  10  -2  -3   72.45    1.95
  10  -2  -3   69.62    2.21
 -10  -2   3   72.39    2.48
  10   2  -3   71.10    2.12
  10   2  -3   70.42    2.15
 -10   2   3   72.53    2.17
 -10   2   3   73.73    2.53
   8  -2  -3   13.08    0.48
  -8  -2   3   12.36    0.76
   8  -2  -3   12.90    0.66
  -8   2   3   13.15    0.80
   8   2  -3   12.85    0.60
   8   2  -3   12.67    0.61
  -8   2   3   12.55    0.64
  -6  -2   3   71.95    2.22
   6  -2  -3   70.83    2.06
  -6   2   3   68.96    2.10
  -6   2   3   70.40    1.83
   6   2  -3   71.94    2.00
  -6   2   3   68.35    2.28
   6   2  -3   71.84    2.04
  -4  -2   3   10.31    0.57
   4  -2  -3   11.75    0.70
  -4  -2   3   12.53    0.53
   4  -2  -3   12.41    0.55
  -4   2   3   10.86    0.40
   4   2  -3   12.66    0.53
   4   2  -3   10.92    0.42
  -4   2   3   12.02    0.69
   4   2  -3   12.19    0.55
   2  -2  -3  180.30    4.54
  -2  -2   3  182.25    4.56
   2  -2  -3  172.02    4.98
  -2  -2   3  183.44    4.57
  -2   2   3  189.16    4.83
  -2   2   3  182.26    4.43
   2   2  -3  179.95    4.57
   2   2  -3  175.69    4.58
   0  -2   3    3.86    0.23
   0  -2   3    4.36    0.30
   0  -2  -3    4.16    0.25
   0  -2  -3    4.12    0.47
   0   2   3    3.78    0.25
   0   2  -3    3.62    0.29
   0   2  -3    3.54    0.40
   0   2   3    4.16    0.39
   2  -2   3  163.98    4.29
  -2  -2  -3  166.94    4.12
  -2  -2  -3  185.23    5.03
   2  -2   3  163.26    4.02
   2   2   3  167.89    4.49
  -2   2  -3  164.30    4.27
  -2   2  -3  162.75    4.54
   2   2   3  166.42    4.26
  -4  -2  -3    1.35    0.32
   4  -2   3    0.97    0.20
  -4  -2  -3    1.06    0.12
   4   2   3    1.03    0.19
  -4   2  -3    0.90    0.29
   4   2   3    0.80    0.22
  -4   2  -3    0.91    0.19
  -6  -2  -3   49.37    1.94
   6  -2   3   52.29    1.64
   6   2   3   50.42    1.77
  -6   2  -3   49.62    1.55
  -6   2  -3   53.25    1.98
   6   2   3   51.59    1.64
   8  -2   3    5.35    0.37
  -8  -2  -3    5.25    0.71
   8  -2   3    5.98    0.45
  -8   2  -3    5.18    0.67
   8   2   3    4.58    0.55
   8   2   3    6.12    0.47
  10  -2   3   58.72    1.90
 -10  -2  -3   57.59    2.32
  10   2   3   52.92    1.87
  10   2   3   53.18    2.02
 -10   2  -3   56.26    2.27
 -12  -2  -3    0.30    0.26
 -12  -2  -3    0.43    0.29
  12  -2   3    1.39    0.32
  12   2   3    0.98    0.29
 -12   2  -3    1.12    0.40
 -14  -2  -3   26.54    1.58
  14  -2   3   22.76    1.15
  14   2   3   24.27    1.20
 -14   2  -3   23.04    1.49
 -16  -2  -3   13.25    1.41
  16  -2   3   12.42    0.86
  16   2   3   11.36    0.86
 -16   2  -3   12.39    1.13
 -18  -2  -3    0.65    0.47
  19  -3  -3    1.50    0.40
 -19  -3   3    1.65    0.55
 -19   3   3    1.73    0.57
  19   3  -3    2.26    0.46
  17  -3  -3   84.36    2.77
 -17  -3   3   84.31    3.28
  17   3  -3   81.35    2.71
 -17   3   3   83.92    3.28
  15  -3  -3   24.71    1.21
 -15  -3   3   25.73    1.51
 -15   3   3   29.19    1.59
  15   3  -3   25.78    1.17
 -13  -3   3   67.29    2.58
  13  -3  -3   69.08    2.24
 -13   3   3   65.34    2.57
  13   3  -3   66.10    2.16
  13   3  -3   67.27    2.14
 -11  -3   3    9.72    0.77
 -11   3   3   11.13    0.69
 -11   3   3   10.98    0.83
  11   3  -3   10.25    0.60
  11   3  -3    8.35    0.55
   9  -3  -3  313.11    8.12
  -9  -3   3  315.80    8.42
  -9   3   3  326.83    8.54
   9   3  -3  335.20    8.08
   9   3  -3  311.16    8.04
  -9   3   3  330.40    8.23
  -7  -3   3   15.86    0.84
   7   3  -3   14.63    0.68
  -7   3   3   15.44    0.89
  -7   3   3   13.86    0.76
   7   3  -3   14.84    0.67
   5  -3  -3  207.44    5.25
  -5  -3   3  212.58    5.40
  -5   3   3  203.39    5.45
  -5   3   3  193.86    4.93
   5   3  -3  201.77    5.05
  -5   3   3  215.57    5.59
   5   3  -3  203.78    5.21
   5   3  -3  205.99    5.24
   3  -3  -3   96.21    2.56
  -3  -3   3   93.41    2.55
   3  -3  -3   93.65    2.99
  -3  -3   3   90.62    2.59
  -3   3   3   94.48    2.35
   3   3  -3   91.48    2.58
   3   3  -3   96.21    2.52
  -3   3   3   92.61    2.83
  -1  -3   3   77.87    2.16
   1  -3  -3   77.40    2.69
  -1  -3   3   71.42    2.06
   1  -3  -3   75.70    2.09
  -1   3   3   80.24    2.03
  -1   3   3   80.38    2.46
   1   3  -3   79.54    2.24
  -1  -3  -3   66.38    2.57
   1  -3   3   75.18    2.07
  -1  -3  -3   70.27    1.92
   1   3   3   71.76    1.97
  -1   3  -3   74.17    2.23
   1   3   3   78.39    2.35
  -1   3  -3   71.35    2.08
  -3  -3  -3  145.16    3.66
   3  -3   3  146.13    3.91
  -3   3  -3  148.24    4.20
   3   3   3  154.04    3.89
  -3   3  -3  152.18    3.94
   3   3   3  151.61    4.21
  -5  -3  -3   62.22    2.62
   5  -3   3   62.18    1.91
  -5   3  -3   63.97    2.25
   5   3   3   64.15    1.92
   5   3   3   62.64    2.15
  -5   3  -3   65.48    1.93
   7  -3   3   12.38    0.62
   7  -3   3   13.05    0.67
  -7  -3  -3   13.15    0.91
   7   3   3   12.89    0.82
  -7   3  -3   12.35    0.90
  -7   3  -3   13.66    0.66
   7   3   3   12.88    0.68
  -9  -3  -3  122.52    4.11
   9  -3   3  129.95    3.66
   9  -3   3  132.96    3.57
   9   3   3  131.10    3.69
   9   3   3  133.70    3.97
  -9   3  -3  134.03    4.17
  11  -3   3    6.10    0.46
  11  -3   3    5.97    0.57
 -11  -3  -3    5.97    0.83
 -11   3  -3    6.50    0.88
  11   3   3    6.59    0.76
  11   3   3    5.28    0.59
 -13  -3  -3   68.27    2.79
  13  -3   3   68.48    2.28
 -13  -3  -3   65.60    2.56
  13   3   3   68.15    2.34
 -13   3  -3   66.93    2.76
 -15  -3  -3   11.30    0.96
  15  -3   3   12.78    0.84
 -15  -3  -3   10.75    1.22
  15   3   3   11.24    0.85
 -15   3  -3   10.95    1.22
 -17  -3  -3   33.51    1.97
  17  -3   3   32.35    1.52
 -17   3  -3   36.61    2.57
 -20   4   3   29.76    2.28
 -18  -4   3    1.09    0.46
  18  -4  -3    1.27    0.38
  18   4  -3    0.82    0.31
 -18   4   3    1.04    0.50
  16  -4  -3   32.98    1.50
 -16  -4   3   33.63    1.85
 -16   4   3   34.00    1.87
  16   4  -3   35.71    1.49
 -14  -4   3   24.68    1.48
  14  -4  -3   29.55    1.29
 -14   4   3   27.30    1.57
  14   4  -3   26.87    1.21
  12  -4  -3   50.73    1.80
 -12  -4   3   49.46    2.08
 -12   4   3   47.39    1.85
 -12   4   3   45.72    2.06
  12   4  -3   46.81    1.65
  12   4  -3   51.89    1.74
 -10  -4   3   76.72    2.64
  10  -4  -3   72.60    2.37
 -10   4   3   77.22    2.52
  10   4  -3   73.07    2.27
  10   4  -3   73.93    2.29
 -10   4   3   79.41    2.74
   8  -4  -3   18.04    0.87
  -8  -4   3   21.63    1.06
  -8   4   3   18.53    1.07
   8   4  -3   17.15    0.81
  -8   4   3   19.28    0.99
   8   4  -3   18.45    0.83
  -6  -4   3   92.52    2.85
   6  -4  -3   94.45    2.72
  -6   4   3   93.32    2.93
   6   4  -3   98.86    2.71
   6   4  -3   93.55    2.65
  -6   4   3   95.80    3.02
  -4  -4   3   32.03    1.11
   4  -4  -3   33.62    1.16
  -4  -4   3   32.44    1.20
   4   4  -3   33.09    1.11
   4   4  -3   31.24    1.11
   4   4  -3   31.78    1.15
  -4   4   3   33.41    1.38
  -4   4   3   31.18    1.37
  -2  -4   3  194.32    4.91
   2  -4  -3  199.14    5.59
  -2  -4   3  189.84    4.89
   2  -4  -3  194.72    4.89
   2   4  -3  199.22    4.99
  -2   4   3  184.70    5.27
   2   4  -3  181.33    4.95
   0  -4   3    1.75    0.24
   0  -4  -3    1.91    0.22
   0  -4   3    1.39    0.16
   0  -4  -3    1.36    0.38
   0   4  -3    1.60    0.29
   0   4   3    1.47    0.18
   0   4   3    1.13    0.29
   0   4  -3    1.63    0.26
  -2  -4  -3  157.60    3.94
   2  -4   3  163.43    4.14
  -2  -4  -3  153.93    4.89
   2   4   3  152.16    4.03
  -2   4  -3  157.81    4.38
  -2   4  -3  160.28    4.20
   2   4   3  160.39    4.51
  -4  -4  -3    0.84    0.36
   4  -4   3    1.03    0.20
   4   4   3    0.64    0.17
  -4   4  -3    0.92    0.21
  -4   4  -3    1.13    0.30
   4   4   3    0.89    0.27
   6  -4   3   80.10    2.33
  -6  -4  -3   77.04    3.17
   6   4   3   79.03    2.67
   6   4   3   79.05    2.34
  -6   4  -3   80.33    2.38
  -6   4  -3   78.12    2.73
   8  -4   3   17.26    0.83
  -8  -4  -3   19.45    1.18
   8  -4   3   17.81    0.84
   8   4   3   18.43    1.08
   8   4   3   17.55    0.87
  -8   4  -3   19.03    1.17
  10  -4   3   51.13    1.72
  10  -4   3   49.29    1.75
 -10  -4  -3   53.41    2.25
  10   4   3   51.01    2.08
 -10   4  -3   48.60    2.17
  10   4   3   49.76    1.80
 -12  -4  -3    2.88    0.65
  12  -4   3    3.19    0.44
  12  -4   3    2.68    0.39
  12   4   3    3.38    0.49
  12   4   3    2.58    0.55
 -12   4  -3    3.51    0.72
 -14  -4  -3   40.20    2.08
  14  -4   3   38.99    1.57
 -14  -4  -3   38.45    1.92
 -14   4  -3   37.32    2.04
  14   4   3   38.48    1.65
 -16  -4  -3   16.90    1.29
  16  -4   3   17.89    1.05
 -16  -4  -3   20.76    1.51
  16   4   3   18.74    1.43
 -16   4  -3   20.27    1.50
  17  -5  -3   29.35    1.47
 -17  -5   3   32.84    1.89
  17   5  -3   32.51    1.48
 -17   5   3   31.95    1.89
  15  -5  -3    4.80    0.65
 -15  -5   3    3.73    0.70
 -15   5   3    5.53    0.87
  15   5  -3    5.78    0.62
  13  -5  -3   23.59    1.19
 -13  -5   3   23.53    1.40
  13   5  -3   23.43    1.11
 -13   5   3   22.98    1.29
 -13   5   3   23.61    1.45
  11  -5  -3    0.15    0.16
 -11  -5   3    0.06    0.20
 -11   5   3    0.03    0.20
 -11   5   3   -0.16    0.19
  11   5  -3    0.10    0.15
  11   5  -3    0.20    0.17
  -9  -5   3  112.17    3.69
   9  -5  -3  121.13    3.50
   9   5  -3  122.53    3.43
  -9   5   3  124.35    3.76
   9   5  -3  123.01    3.41
  -9   5   3  123.47    3.88
  -7  -5   3    0.04    0.15
   7  -5  -3    0.00    0.11
  -7   5   3   -0.09    0.15
  -7   5   3    0.12    0.19
   7   5  -3    0.02    0.11
   7   5  -3    0.00    0.11
   5  -5  -3   73.27    2.23
  -5  -5   3   73.10    2.34
  -5   5   3   75.85    2.57
   5   5  -3   74.50    2.24
   5   5  -3   73.15    2.19
  -5   5   3   75.33    2.59
  -3  -5   3   17.07    0.76
  -3  -5   3   18.75    0.81
   3  -5  -3   16.55    1.12
   3  -5  -3   16.91    0.75
   3   5  -3   16.02    0.79
   3   5  -3   17.04    0.79
  -3   5   3   18.26    1.03
  -3   5   3   16.34    0.98
   1  -5  -3   11.72    0.56
   1  -5  -3   11.91    0.98
  -1  -5   3   10.70    0.58
   1   5  -3   11.64    0.64
   1   5  -3   11.29    0.67
  -1   5   3   12.78    0.83
  -1  -5  -3   13.02    1.07
  -1  -5  -3   12.72    0.54
   1  -5   3   12.06    0.62
  -1   5  -3   13.59    0.79
  -1   5  -3   13.00    0.69
   1   5   3   12.63    0.84
   3  -5   3   41.25    1.36
  -3  -5  -3   40.96    2.03
  -3   5  -3   38.71    1.60
  -3   5  -3   40.30    1.44
   3   5   3   39.41    1.70
   3   5   3   38.85    1.27
   5  -5   3   11.97    0.64
  -5  -5  -3   11.93    1.09
   5   5   3   11.25    0.61
  -5   5  -3   12.76    0.88
  -5   5  -3   14.11    0.74
   5   5   3   12.30    0.86
   7  -5   3    1.33    0.29
  -7  -5  -3    1.11    0.46
   7  -5   3    1.45    0.27
   7   5   3    1.96    0.45
  -7   5  -3    1.61    0.41
   7   5   3    1.77    0.30
  -9  -5  -3   53.97    2.25
   9  -5   3   53.44    1.80
   9  -5   3   50.00    1.73
  -9   5  -3   48.48    2.17
   9   5   3   51.58    2.15
   9   5   3   49.18    1.79
 -11  -5  -3    0.25    0.33
  11  -5   3    0.27    0.18
  11  -5   3    0.21    0.18
  11   5   3    0.64    0.33
  11   5   3    0.06    0.19
 -11   5  -3    0.19    0.31
  13  -5   3   24.98    1.19
 -13  -5  -3   25.00    1.64
  13  -5   3   27.68    1.22
 -13  -5  -3   26.03    1.56
  13   5   3   22.26    1.45
  13   5   3   26.95    1.30
 -13   5  -3   26.31    1.65
 -15  -5  -3    3.50    0.72
 -15  -5  -3    2.73    0.71
 -15   5  -3    3.05    0.71
  15   5   3    3.84    0.60
  16  -6  -3   46.27    1.95
 -16  -6   3   49.89    2.38
 -16   6   3   44.55    2.33
  16   6  -3   45.07    1.86
  14  -6  -3   22.63    1.22
 -14  -6   3   23.67    1.47
 -14   6   3   20.69    1.45
  14   6  -3   21.84    1.14
 -12  -6   3   26.16    1.48
  12  -6  -3   25.37    1.23
  12   6  -3   24.56    1.14
 -12   6   3   23.57    1.46
 -12   6   3   22.80    1.37
  10  -6  -3   84.27    2.68
 -10  -6   3   78.98    2.91
 -10   6   3   82.27    2.95
  10   6  -3   86.85    2.56
  10   6  -3   82.31    2.58
 -10   6   3   81.77    3.03
   8  -6  -3   36.67    1.44
  -8  -6   3   36.34    1.61
   8   6  -3   36.42    1.37
   8   6  -3   37.56    1.39
  -8   6   3   36.08    1.72
  -8   6   3   37.06    1.71
   6  -6  -3   62.49    2.10
  -6  -6   3   68.30    2.28
   6   6  -3   66.12    2.10
   6   6  -3   64.52    2.05
  -6   6   3   68.19    2.49
  -6   6   3   65.87    2.47
  -4  -6   3   32.41    1.28
   4  -6  -3   32.55    1.23
  -4  -6   3   32.00    1.19
   4   6  -3   30.64    1.28
  -4   6   3   31.91    1.53
   4   6  -3   32.64    1.26
  -4   6   3   31.72    1.55
  -2  -6   3  138.83    3.90
   2  -6  -3  150.48    3.93
   2  -6  -3  138.75    4.73
   2   6  -3  151.38    4.05
   2   6  -3  149.21    4.15
  -2   6   3  147.91    4.44
   0  -6  -3    5.21    0.84
   0  -6   3    4.95    0.39
   0  -6  -3    5.24    0.37
   0   6  -3    5.10    0.54
   0   6  -3    4.45    0.56
   0   6   3    4.51    0.64
   2  -6   3  139.65    3.88
  -2  -6  -3  147.94    4.97
  -2   6  -3  142.44    4.25
  -2   6  -3  140.53    4.03
   2   6   3  153.82    4.46
   4  -6   3    9.67    0.58
  -4  -6  -3    9.60    1.02
   4   6   3   10.03    0.83
  -4   6  -3   10.49    0.82
  -4   6  -3    9.29    0.64
   6  -6   3   50.94    1.78
   6  -6   3   49.61    1.68
   6   6   3   50.44    1.68
   6   6   3   49.94    2.12
  -6   6  -3   50.39    2.11
  -8  -6  -3   15.33    1.41
   8  -6   3   16.24    0.82
   8  -6   3   14.55    0.84
   8   6   3   15.65    0.84
   8   6   3   15.68    1.12
  -8   6  -3   14.43    1.11
  10  -6   3   65.71    2.17
  10  -6   3   67.85    2.25
 -10  -6  -3   63.95    2.68
  10   6   3   65.67    2.68
  10   6   3   65.00    2.25
 -10   6  -3   66.53    2.76
 -12  -6  -3    9.18    1.14
  12  -6   3    8.60    0.69
  12   6   3    9.92    0.78
 -12   6  -3   11.35    1.31
  12   6   3    8.63    1.05
  14  -6   3   19.83    1.61
 -14  -6  -3   21.48    1.60
 -14  -6  -3   22.27    1.54
  14   6   3   23.66    1.26
 -14   6  -3   23.36    1.93
 -15  -7   3   11.92    1.32
  15  -7  -3   13.83    0.99
  15   7  -3   12.65    0.89
  13  -7  -3   50.17    2.04
 -13  -7   3   54.76    2.41
 -13   7   3   53.49    2.38
  13   7  -3   51.55    1.96
 -13   7   3   53.53    2.46
 -11  -7   3   12.24    1.00
  11  -7  -3   11.88    0.83
 -11   7   3   11.41    1.02
 -11   7   3   10.26    1.11
  11   7  -3   11.39    0.75
   9  -7  -3  100.92    3.09
  -9  -7   3   98.00    3.31
   9   7  -3   95.63    2.95
  -9   7   3   98.27    3.47
   9   7  -3  100.49    2.96
  -9   7   3   91.68    3.42
  -7  -7   3    7.29    0.66
   7  -7  -3    8.29    0.62
  -7   7   3    6.80    0.86
  -7   7   3    9.46    1.04
   7   7  -3    7.87    0.59
   7   7  -3    7.80    0.57
   5  -7  -3  103.13    3.06
  -5  -7   3  109.53    3.03
   5   7  -3  102.87    3.09
  -5   7   3   99.59    3.51
  -5   7   3  104.27    3.59
   3  -7  -3   46.06    1.55
  -3  -7   3   45.61    1.53
   3  -7  -3   42.14    2.19
   3   7  -3   42.36    1.71
   3   7  -3   42.29    1.61
  -3   7   3   43.66    1.99
  -3   7   3   41.45    1.91
   1  -7  -3   36.10    1.28
  -1  -7   3   36.58    1.30
   1  -7  -3   36.61    2.03
   1   7  -3   34.55    1.54
  -1   7   3   33.50    1.67
   1   7  -3   36.33    1.43
  -1  -7  -3   35.32    2.03
   1  -7   3   34.50    1.26
  -1   7  -3   33.95    1.54
   1   7   3   33.94    1.66
  -1   7  -3   31.09    1.35
  -3  -7  -3   50.31    2.58
   3  -7   3   52.24    1.70
  -3   7  -3   49.05    1.83
  -3   7  -3   49.16    2.05
   3   7   3   52.38    2.20
   5  -7   3   30.56    1.32
   5  -7   3   32.03    1.22
  -5  -7  -3   31.36    2.02
  -5   7  -3   31.54    1.62
   5   7   3   31.29    1.64
  -7  -7  -3   24.65    1.82
   7  -7   3   24.64    1.17
   7   7   3   25.19    1.49
  -7   7  -3   23.94    1.46
   9  -7   3   55.90    2.08
  -9  -7  -3   57.77    3.07
   9   7   3   59.53    2.56
  -9   7  -3   59.07    2.60
  11  -7   3    0.31    0.23
 -11  -7  -3    0.25    0.38
  11   7   3    0.07    0.25
  11   7   3    0.48    0.26
 -11   7  -3    0.50    0.43
 -13  -7  -3   36.26    2.09
  13  -7   3   38.53    1.66
  13   7   3   37.44    1.68
 -14  -8   3    5.31    0.92
 -14   8   3    3.87    0.83
  12  -8  -3    3.89    0.58
 -12  -8   3    4.85    0.80
 -12   8   3    3.14    0.71
 -12   8   3    4.84    0.83
  12   8  -3    3.09    0.48
  10  -8  -3   24.80    1.28
 -10  -8   3   27.69    1.52
 -10   8   3   23.63    1.55
  10   8  -3   26.32    1.22
 -10   8   3   25.22    1.59
   8  -8  -3    9.53    0.72
  -8  -8   3   10.82    0.87
  -8   8   3    9.71    1.10
   8   8  -3    9.34    0.67
   8   8  -3    8.99    0.71
  -8   8   3    8.38    1.04
  -6  -8   3   14.13    0.79
   6  -8  -3   13.47    0.82
  -6   8   3   13.49    1.10
   6   8  -3   14.20    0.84
  -6   8   3   13.56    1.08
   4  -8  -3    4.51    0.53
  -4  -8   3    4.96    0.53
  -4   8   3    4.56    0.75
   4   8  -3    5.00    0.58
  -4   8   3    6.22    0.85
   2  -8  -3   49.38    2.52
  -2  -8   3   43.06    1.59
   2  -8  -3   45.23    1.61
   2   8  -3   44.18    1.90
  -2   8   3   45.43    2.08
   2   8  -3   48.08    1.77
   0  -8  -3    0.08    0.28
   0  -8   3    0.01    0.12
   0   8   3    0.19    0.23
   0   8  -3   -0.10    0.17
   0   8  -3    0.09    0.23
   2  -8   3   49.46    1.64
  -2  -8  -3   44.96    2.56
  -2   8  -3   47.40    1.81
  -2   8  -3   44.70    2.02
   2   8   3   45.95    2.14
  -4  -8  -3    0.88    0.46
   4  -8   3    0.59    0.27
   4   8   3    0.47    0.31
  -4   8  -3    0.84    0.37
  -6  -8  -3   10.39    1.46
   6  -8   3   11.39    0.79
   6   8   3    9.95    1.15
  -6   8  -3   10.52    1.19
  -8  -8  -3    2.29    0.80
   8  -8   3    2.43    0.44
  -8   8  -3    1.88    0.55
   8   8   3    1.74    0.50
  10  -8   3   25.15    1.29
 -10  -8  -3   25.22    2.07
  10   8   3   25.00    1.64
 -10   8  -3   26.26    1.74
 -12  -8  -3    1.76    0.59
 -13  -9   3   18.09    1.41
 -11  -9   3    6.50    0.95
  11  -9  -3    5.92    0.74
  11   9  -3    6.18    0.70
 -11   9   3    4.82    0.91
   9  -9  -3   64.87    2.37
  -9   9   3   64.22    2.79
   9   9  -3   64.39    2.24
  -9   9   3   61.00    2.83
   7  -9  -3    4.14    0.55
  -7  -9   3    4.42    0.54
  -7   9   3    4.41    0.85
  -7   9   3    4.11    0.75
  -5  -9   3   46.75    1.75
   5  -9  -3   50.00    1.83
   5   9  -3   45.96    1.83
  -5   9   3   47.67    2.36
  -5   9   3   49.64    2.29
   3  -9  -3   25.44    1.88
  -3  -9   3   28.79    1.21
   3  -9  -3   27.73    1.66
  -3   9   3   28.74    1.66
   3   9  -3   27.26    1.31
   1  -9  -3   16.90    1.51
   1   9  -3   14.00    1.08
  -1   9   3   15.52    1.19
   1   9  -3   13.60    0.91
  -1  -9  -3   16.71    1.57
  -1   9  -3   17.27    1.23
   1   9   3   16.97    1.28
  -1   9  -3   16.44    1.00
   3  -9   3   32.41    1.49
  -3  -9  -3   33.54    2.31
  -3   9  -3   36.06    1.85
   3   9   3   34.01    1.85
   5  -9   3   13.43    0.91
  -5  -9  -3   15.51    1.56
  -5   9  -3   14.94    1.21
   5   9   3   14.84    1.23
   7  -9   3    7.80    0.79
  -7  -9  -3    7.36    1.33
   7   9   3    8.01    1.07
  -7   9  -3    7.68    1.06
  -9  -9  -3   32.11    2.41
  -8 -10   3   16.59    0.98
   8 -10  -3   15.66    1.03
  -8  10   3   16.08    1.84
   6 -10  -3   34.08    1.52
  -6  10   3   31.00    1.87
  -6  10   3   35.60    2.09
   4 -10  -3   24.78    1.98
  -4  10   3   24.54    1.63
   4  10  -3   26.23    1.32
   2 -10  -3   54.28    3.00
  -2  10   3   54.65    2.54
   2  10  -3   50.93    2.04
   0 -10  -3    8.16    1.32
   0 -10   3    9.29    0.76
   0  10   3    8.55    1.09
   0  10  -3    8.53    1.07
   2 -10   3   53.00    2.01
  -2 -10  -3   46.17    2.88
  -2  10  -3   44.94    2.27
   2  10   3   47.22    2.35
  -4 -10  -3    8.97    1.50
   4 -10   3    7.34    0.83
  -4  10  -3    7.55    1.09
   4  10   3    7.26    1.04
  -5  11   3   16.48    2.43
  -3 -11   3    7.18    0.79
  -3  11   3    6.84    1.31
  -1  11  -3    7.23    1.41
  18   0  -4    3.93    0.58
 -18   0   4    4.43    0.83
  16   0  -4   93.78    2.80
 -16   0   4   95.80    3.52
  16   0  -4   93.75    2.98
 -14   0   4    2.11    0.52
  14   0  -4    2.38    0.39
  14   0  -4    2.22    0.33
 -12   0   4  157.82    4.69
  12   0  -4  152.12    4.23
  12   0  -4  147.46    4.02
  10   0  -4   29.51    1.16
 -10   0   4   28.84    1.38
  10   0  -4   27.91    1.01
   8   0  -4  117.65    3.11
  -8   0   4  116.25    3.54
   8   0  -4  118.64    3.28
   6   0  -4   87.58    2.47
  -6   0   4   87.74    2.68
  -6   0   4   87.80    2.35
   6   0  -4   81.82    2.31
   4   0  -4  246.51    6.29
   4   0  -4  248.60    6.28
  -4   0   4  242.46    6.45
  -4   0   4  258.90    6.19
   2   0  -4   48.23    1.51
  -2   0   4   52.23    1.67
  -2   0   4   49.85    1.50
   2   0  -4   52.48    1.70
   0   0  -4   75.23    2.15
   0   0   4   74.49    2.26
   0   0  -4   82.22    2.52
   0   0   4   81.66    2.21
   2   0   4  277.52    7.05
  -2   0  -4  285.38    6.97
  -2   0  -4  284.65    7.49
   2   0   4  282.02    7.10
  -4   0  -4   20.74    0.75
  -4   0  -4   19.94    1.11
   4   0   4   20.39    0.84
   4   0   4   20.68    0.87
   6   0   4  140.32    3.81
  -6   0  -4  135.68    3.57
  -6   0  -4  133.41    4.24
   6   0   4  143.34    3.78
  -8   0  -4   23.07    1.37
   8   0   4   26.25    1.10
 -10   0  -4   50.25    2.24
  10   0   4   54.39    1.89
 -12   0  -4    4.62    0.82
  12   0   4    3.56    0.51
  14   0   4  105.36    3.31
 -14   0  -4  101.05    3.79
 -16   0  -4    1.24    0.53
 -19  -1   4    8.77    1.13
  19  -1  -4    9.11    0.77
 -19   1   4    7.93    1.07
  19   1  -4   10.03    0.73
  17  -1  -4   22.97    1.21
 -17  -1   4   26.19    1.60
  17   1  -4   22.73    1.09
 -17   1   4   27.68    1.64
  17   1  -4   23.34    1.19
 -15  -1   4   13.20    1.05
  15  -1  -4   13.36    0.84
  15   1  -4   13.31    0.82
 -15   1   4   12.91    1.07
  15   1  -4   14.19    0.77
  13  -1  -4   19.01    0.99
  13  -1  -4   20.56    0.83
 -13  -1   4   19.86    1.22
 -13   1   4   20.46    1.25
  13   1  -4   20.01    0.98
  13   1  -4   19.75    0.89
  11  -1  -4   20.99    1.00
 -11  -1   4   23.35    1.24
  11  -1  -4   21.94    0.83
  11   1  -4   22.34    1.00
  11   1  -4   21.66    0.90
 -11   1   4   21.73    1.22
   9  -1  -4   94.68    2.81
   9  -1  -4   94.25    2.58
  -9  -1   4   95.41    3.07
   9   1  -4   97.07    2.81
  -9   1   4  102.24    3.16
   9   1  -4   95.06    2.67
   7  -1  -4   -0.06    0.10
   7  -1  -4    0.05    0.12
  -7  -1   4    0.11    0.14
   7   1  -4    0.05    0.10
   7   1  -4    0.07    0.11
  -7   1   4    0.74    0.26
  -7   1   4    0.06    0.08
   5  -1  -4  205.11    5.66
  -5  -1   4  212.72    5.60
   5  -1  -4  215.77    5.45
  -5  -1   4  211.56    5.37
   5   1  -4  208.30    5.28
  -5   1   4  217.56    5.29
   5   1  -4  213.72    5.44
  -5   1   4  218.69    5.73
   3  -1  -4    4.42    0.33
  -3  -1   4    4.67    0.33
   3  -1  -4    3.82    0.53
  -3  -1   4    4.62    0.37
   3   1  -4    3.85    0.36
  -3   1   4    4.72    0.51
  -3   1   4    4.22    0.29
   3   1  -4    4.06    0.32
   1  -1  -4  184.64    4.74
  -1  -1   4  183.76    4.81
   1  -1  -4  188.03    5.00
  -1  -1   4  183.59    4.77
  -1   1   4  187.62    4.72
   1   1  -4  194.53    5.05
  -1   1   4  187.12    4.98
   1   1  -4  188.66    4.78
  -1  -1  -4   12.32    0.75
  -1  -1  -4   11.85    0.50
   1  -1   4   12.03    0.58
   1  -1   4   11.50    0.54
  -1   1  -4   11.08    0.54
   1   1   4    9.98    0.61
  -1   1  -4   11.45    0.75
   1   1   4   10.63    0.53
   3  -1   4  102.22    2.87
  -3  -1  -4  106.04    2.71
  -3  -1  -4  106.16    3.26
   3  -1   4  101.80    2.75
   3   1   4  102.92    2.99
   3   1   4  104.65    2.87
  -3   1  -4  100.26    3.24
  -3   1  -4  103.03    2.79
  -5  -1  -4    0.42    0.29
   5  -1   4    1.21    0.26
  -5   1  -4    0.77    0.30
   5   1   4    0.70    0.19
   5   1   4    0.56    0.18
  -5   1  -4    0.70    0.16
   7  -1   4   89.39    2.64
  -7  -1  -4   79.65    3.01
  -7   1  -4   89.48    2.45
   7   1   4   90.24    2.64
  -7   1  -4   90.61    3.10
   7   1   4   86.95    2.70
  -9  -1  -4   11.91    0.98
   9  -1   4   12.06    0.73
  -9   1  -4   12.88    1.01
   9   1   4   13.44    0.77
 -11  -1  -4   13.34    1.12
  11  -1   4   14.47    0.84
 -11   1  -4   14.37    1.13
  11   1   4   13.41    0.84
 -13  -1  -4   18.71    1.37
  13  -1   4   18.32    1.04
  13   1   4   19.23    1.07
 -13   1  -4   18.84    1.36
  15  -1   4    2.27    0.46
 -15  -1  -4    2.75    0.66
 -15   1  -4    1.91    0.55
  15   1   4    1.96    0.44
  20  -2  -4   17.88    1.12
  20   2  -4   15.41    0.99
 -18  -2   4   -0.37    0.25
  18  -2  -4   -0.32    0.20
 -18   2   4   -0.07    0.32
  18   2  -4    0.11    0.21
 -16  -2   4   62.01    2.63
  16  -2  -4   59.98    2.17
  16   2  -4   58.34    2.11
 -16   2   4   58.76    2.60
  16   2  -4   57.78    2.04
  14  -2  -4    2.44    0.42
 -14  -2   4    2.86    0.59
  14   2  -4    3.31    0.48
 -14   2   4    1.43    0.45
  14   2  -4    2.60    0.38
  12  -2  -4   62.75    2.07
 -12  -2   4   58.77    2.34
 -12   2   4   59.70    2.39
  12   2  -4   59.28    1.92
  12   2  -4   61.12    2.02
 -10  -2   4    9.98    0.77
  10  -2  -4    9.32    0.62
  10   2  -4   10.51    0.59
  10   2  -4   10.59    0.63
 -10   2   4   11.05    0.84
  -8  -2   4   63.60    2.23
   8  -2  -4   63.67    2.15
   8  -2  -4   66.13    2.05
  -8   2   4   62.03    2.30
  -8   2   4   66.31    1.78
   8   2  -4   63.40    2.00
   8   2  -4   66.49    1.95
  -6  -2   4   11.21    0.67
   6  -2  -4    9.73    0.70
  -6  -2   4    9.79    0.52
   6  -2  -4    8.15    0.52
   6   2  -4    9.98    0.55
  -6   2   4   10.74    0.73
  -6   2   4   10.18    0.43
   4  -2  -4   85.48    2.87
  -4  -2   4   88.00    2.60
   4  -2  -4   92.72    2.53
  -4  -2   4   90.76    2.50
  -4   2   4   94.85    2.36
   4   2  -4   87.50    2.53
   4   2  -4   91.81    2.40
  -4   2   4   83.83    2.75
  -2  -2   4   21.76    0.83
   2  -2  -4   19.24    1.13
  -2  -2   4   20.75    0.82
   2  -2  -4   21.57    0.80
  -2   2   4   21.85    1.02
   2   2  -4   20.90    0.87
   2   2  -4   21.08    0.85
  -2   2   4   21.81    0.75
   0  -2   4   26.22    0.88
   0  -2   4   26.24    0.97
   0  -2  -4   29.68    1.48
   0  -2  -4   25.50    0.88
   0   2   4   25.95    1.14
   0   2   4   24.82    0.90
   0   2  -4   27.27    1.14
   0   2  -4   25.33    0.96
   2  -2   4  117.69    3.27
  -2  -2  -4  124.57    3.61
  -2  -2  -4  120.41    3.08
  -2   2  -4  118.30    3.59
  -2   2  -4  121.11    3.24
   2   2   4  120.18    3.23
   2   2   4  119.48    3.47
   4  -2   4    0.82    0.20
  -4  -2  -4    0.84    0.31
   4   2   4    0.65    0.23
  -4   2  -4    1.03    0.21
  -4   2  -4    1.53    0.39
   4   2   4    0.48    0.16
   6  -2   4   55.13    1.83
  -6  -2  -4   58.33    2.26
   6   2   4   56.16    1.83
  -6   2  -4   56.65    2.23
   6   2   4   56.27    1.98
  -6   2  -4   54.20    1.73
   8  -2   4    2.97    0.41
  -8  -2  -4    4.23    0.74
   8   2   4    4.02    0.47
  -8   2  -4    3.81    0.39
  -8   2  -4    3.25    0.60
   8   2   4    2.36    0.42
 -10  -2  -4   31.68    1.73
  10  -2   4   31.50    1.31
  10   2   4   31.85    1.35
 -10   2  -4   30.49    1.65
  10   2   4   32.35    1.45
 -12  -2  -4    0.14    0.31
  12  -2   4    0.31    0.21
 -12   2  -4    0.16    0.34
  12   2   4    0.12    0.17
  14  -2   4   44.83    1.84
 -14  -2  -4   46.09    2.33
  14   2   4   46.52    1.88
 -14   2  -4   48.47    2.35
 -16  -2  -4    0.00    0.40
  19  -3  -4   18.65    1.15
 -19  -3   4   17.32    2.29
  19   3  -4   18.51    1.08
 -19   3   4   14.90    1.37
 -17  -3   4   29.56    1.77
  17  -3  -4   30.33    1.43
 -17   3   4   28.25    1.77
  17   3  -4   28.91    1.33
  15  -3  -4   24.80    1.22
 -15  -3   4   24.96    1.50
 -15   3   4   22.33    1.47
  15   3  -4   22.03    1.12
  15   3  -4   24.23    1.12
 -13  -3   4   61.70    2.49
  13  -3  -4   64.92    2.19
  13   3  -4   62.29    2.07
  13   3  -4   62.63    2.12
 -13   3   4   63.29    2.58
 -11  -3   4   47.51    1.96
  11  -3  -4   46.82    1.69
  11   3  -4   47.14    1.61
  11   3  -4   44.82    1.63
 -11   3   4   46.24    2.03
  -9  -3   4   77.95    2.64
   9  -3  -4   77.02    2.40
   9   3  -4   75.11    2.35
  -9   3   4   77.87    2.74
  -9   3   4   78.62    2.48
   9   3  -4   78.19    2.32
  -7  -3   4   10.35    0.70
   7  -3  -4   11.42    0.63
   7  -3  -4    9.98    0.76
   7   3  -4   11.40    0.59
  -7   3   4    9.70    0.76
   7   3  -4   10.08    0.59
   5  -3  -4  337.67    8.60
  -5  -3   4  349.12    8.59
  -5  -3   4  317.16    8.69
   5  -3  -4  368.55    9.19
   5   3  -4  344.15    8.63
  -5   3   4  355.14    9.01
  -3  -3   4   18.27    0.80
   3  -3  -4   21.93    1.22
  -3  -3   4   19.89    0.83
   3  -3  -4   19.74    0.80
   3   3  -4   19.11    0.84
  -3   3   4   20.57    0.68
  -3   3   4   20.32    1.05
   3   3  -4   20.00    0.79
  -1  -3   4  168.54    4.39
  -1  -3   4  172.46    4.53
   1  -3  -4  173.18    5.23
   1  -3  -4  165.35    4.43
   1   3  -4  179.90    4.58
  -1   3   4  179.10    4.39
   1   3  -4  177.20    4.65
  -1   3   4  176.45    4.88
  -1  -3  -4   39.43    1.21
   1  -3   4   40.01    1.35
  -1  -3  -4   34.39    1.82
   1   3   4   41.98    1.29
  -1   3  -4   40.51    1.55
   1   3   4   42.92    1.62
  -1   3  -4   40.92    1.37
  -3  -3  -4  149.03    4.87
   3  -3   4  143.43    3.92
  -3   3  -4  144.84    4.29
   3   3   4  143.07    3.87
  -3   3  -4  147.84    3.93
   3   3   4  147.82    4.24
   5  -3   4   12.06    0.66
  -5   3  -4   13.59    0.94
   5   3   4   10.76    0.63
  -5   3  -4   12.45    0.65
   5   3   4   12.43    0.81
  -7  -3  -4  141.19    4.38
   7  -3   4  136.60    3.82
   7   3   4  135.85    3.82
  -7   3  -4  132.24    4.29
   7   3   4  138.42    4.09
  -7   3  -4  134.26    3.74
   9  -3   4   21.82    0.94
   9  -3   4   21.18    1.03
  -9  -3  -4   20.34    1.36
   9   3   4   23.25    1.08
   9   3   4   23.08    1.22
  -9   3  -4   18.67    1.28
  11  -3   4   14.46    0.85
 -11  -3  -4   12.44    1.12
 -11   3  -4   13.34    1.12
  11   3   4   14.80    0.89
  11   3   4   14.26    0.99
  13  -3   4   38.37    1.62
 -13  -3  -4   38.67    2.11
  13   3   4   41.75    1.70
 -13   3  -4   40.45    2.11
  15  -3   4   14.83    0.98
 -15  -3  -4   15.58    1.37
  15   3   4   15.08    1.06
 -15   3  -4   12.65    1.43
 -18  -4   4    1.82    0.62
  18  -4  -4    1.99    0.49
  18   4  -4    2.24    0.47
 -18   4   4    1.84    0.62
 -16  -4   4   76.08    3.06
  16  -4  -4   74.22    2.60
 -16   4   4   72.87    3.10
  16   4  -4   74.02    2.50
  14  -4  -4    0.34    0.23
 -14  -4   4    0.34    0.33
 -14   4   4    0.26    0.28
  14   4  -4    0.10    0.20
  14   4  -4    0.02    0.16
 -12  -4   4   52.81    2.23
  12  -4  -4   59.12    2.03
 -12   4   4   55.21    2.35
  12   4  -4   52.55    1.89
  12   4  -4   55.62    1.90
 -10  -4   4   33.04    1.51
  10  -4  -4   29.55    1.27
 -10   4   4   30.83    1.58
 -10   4   4   29.97    1.38
  10   4  -4   30.01    1.24
  10   4  -4   29.97    1.21
   8  -4  -4   94.09    2.85
  -8  -4   4   99.29    3.07
  -8   4   4   92.02    3.02
   8   4  -4   99.59    2.85
  -8   4   4   91.03    3.19
   8   4  -4   98.09    2.80
  -6  -4   4   14.86    0.71
   6  -4  -4   13.16    0.98
  -6  -4   4   16.02    0.83
   6  -4  -4   12.42    0.69
   6   4  -4   13.62    0.73
  -6   4   4   13.82    0.93
  -4  -4   4   87.91    2.63
   4  -4  -4   87.02    3.17
  -4  -4   4   92.49    2.61
   4  -4  -4   94.14    2.60
   4   4  -4   88.83    2.63
  -4   4   4   90.14    2.98
  -2  -4   4   41.84    1.40
   2  -4  -4   39.93    1.34
   2  -4  -4   39.60    1.94
   2   4  -4   40.09    1.42
   2   4  -4   43.15    1.46
  -2   4   4   43.78    1.74
   0  -4  -4   49.92    2.20
   0  -4  -4   45.63    1.40
   0  -4   4   46.73    1.53
   0   4  -4   45.14    1.55
   0   4  -4   44.72    1.64
   0   4   4   42.22    1.78
   0   4   4   46.45    1.39
   2  -4   4  133.65    3.72
  -2  -4  -4  147.72    4.71
   2   4   4  134.33    3.63
  -2   4  -4  135.05    3.77
  -2   4  -4  132.36    4.00
   2   4   4  140.09    4.12
   4  -4   4    6.87    0.49
  -4  -4  -4    5.09    0.84
   4   4   4    7.75    0.68
   4   4   4    6.66    0.47
  -4   4  -4    7.33    0.51
  -4   4  -4    6.64    0.74
   6  -4   4   56.63    1.91
  -6  -4  -4   59.94    2.35
   6   4   4   60.08    2.25
  -6   4  -4   57.54    1.92
   6   4   4   58.44    1.92
  -6   4  -4   58.24    2.33
  -8  -4  -4    7.67    0.92
   8  -4   4    8.84    0.59
   8  -4   4    9.69    0.64
  -8   4  -4    9.84    1.06
   8   4   4    9.84    0.82
   8   4   4    8.91    0.63
  10  -4   4   43.41    1.63
 -10  -4  -4   49.03    2.27
  10  -4   4   43.94    1.72
  10   4   4   47.20    1.78
 -10   4  -4   48.53    2.25
  10   4   4   49.41    2.07
  12  -4   4    1.88    0.40
 -12  -4  -4    1.58    0.56
  12   4   4    2.09    0.45
 -12   4  -4    2.10    0.57
  12   4   4    2.60    0.53
 -14  -4  -4   41.64    2.27
  14  -4   4   41.19    1.73
 -14   4  -4   41.31    2.23
  14   4   4   42.70    1.82
 -17  -5   4    8.50    1.10
  17  -5  -4    9.90    0.84
 -17   5   4    9.98    1.29
  17   5  -4    9.16    0.75
 -15  -5   4    5.57    0.85
  15  -5  -4    5.28    0.66
  15   5  -4    4.36    0.57
 -15   5   4    6.34    0.96
 -13  -5   4   12.86    1.05
  13  -5  -4   14.46    0.92
 -13   5   4   15.29    1.20
  13   5  -4   14.34    0.87
  13   5  -4   15.52    0.88
  11  -5  -4    9.80    0.71
 -11  -5   4   10.15    0.85
  11   5  -4    9.99    0.67
  11   5  -4   10.07    0.70
 -11   5   4    9.87    0.81
 -11   5   4    9.20    1.03
   9  -5  -4   28.76    1.22
  -9  -5   4   27.22    1.35
   9   5  -4   26.89    1.14
   9   5  -4   27.48    1.19
  -9   5   4   28.34    1.52
  -9   5   4   27.76    1.41
  -7  -5   4    0.07    0.15
   7  -5  -4    0.04    0.11
   7   5  -4   -0.02    0.12
  -7   5   4   -0.11    0.17
   7   5  -4    0.08    0.14
  -7   5   4    0.26    0.21
  -5  -5   4  128.43    3.69
  -5  -5   4  132.05    3.61
   5  -5  -4  126.52    4.28
   5  -5  -4  133.12    3.61
   5   5  -4  133.59    3.67
  -5   5   4  124.17    4.03
   3  -5  -4    0.29    0.16
  -3  -5   4    0.59    0.19
   3  -5  -4    0.47    0.31
   3   5  -4    0.75    0.22
  -3   5   4    0.24    0.24
   1  -5  -4   63.60    2.74
   1  -5  -4   66.30    1.89
  -1  -5   4   63.54    1.98
   1   5  -4   61.16    2.03
  -1   5   4   61.76    2.35
   1   5  -4   60.12    2.08
   1  -5   4    5.37    0.43
  -1  -5  -4    3.74    0.73
   1   5   4    4.87    0.66
  -1   5  -4    5.28    0.61
  -1   5  -4    4.90    0.53
   3  -5   4   47.58    1.63
  -3   5  -4   47.53    1.91
   3   5   4   46.10    1.97
  -3   5  -4   47.82    1.68
  -5  -5  -4   -0.11    0.23
   5  -5   4    0.03    0.13
   5   5   4    0.23    0.15
   5   5   4    0.26    0.24
  -5   5  -4    0.41    0.20
  -5   5  -4    0.46    0.28
   7  -5   4   51.49    1.78
   7  -5   4   48.09    1.76
  -7   5  -4   50.03    2.22
   7   5   4   53.07    1.80
   7   5   4   52.33    2.17
  -7   5  -4   51.10    1.81
   9  -5   4    4.13    0.54
  -9  -5  -4    4.05    0.74
   9  -5   4    4.19    0.53
  -9   5  -4    4.09    0.72
   9   5   4    3.65    0.50
   9   5   4    3.73    0.68
  11  -5   4    3.18    0.48
  11  -5   4    3.92    0.50
 -11  -5  -4    1.99    0.59
 -11   5  -4    4.29    0.85
  11   5   4    3.28    0.63
  11   5   4    3.46    0.53
 -13  -5  -4    9.45    1.27
  13  -5   4   12.52    0.85
  13   5   4   14.28    0.95
  13   5   4   11.93    1.07
 -13   5  -4   12.15    1.42
  15  -5   4    2.82    0.68
 -16  -6   4   47.97    2.41
  16  -6  -4   51.59    2.12
 -16   6   4   50.95    2.57
  16   6  -4   49.43    2.01
 -14  -6   4    0.85    0.38
  14  -6  -4    1.50    0.40
  14   6  -4    2.06    0.44
 -14   6   4    1.00    0.48
  12  -6  -4   68.34    2.42
 -12  -6   4   67.38    2.70
  12   6  -4   68.13    2.41
  12   6  -4   71.44    2.36
 -12   6   4   70.21    2.89
 -10  -6   4   20.46    1.21
  10  -6  -4   19.06    1.03
 -10   6   4   18.51    1.21
 -10   6   4   20.14    1.33
  10   6  -4   19.17    1.00
  10   6  -4   19.90    0.99
   8  -6  -4   60.91    2.07
  -8  -6   4   58.47    2.21
  -8   6   4   60.02    2.40
  -8   6   4   58.52    2.46
   8   6  -4   59.02    2.03
   8   6  -4   59.25    1.99
   6  -6  -4   35.46    1.90
   6  -6  -4   33.61    1.34
  -6  -6   4   34.11    1.33
  -6   6   4   32.42    1.66
   6   6  -4   34.26    1.37
  -4  -6   4   96.95    2.85
   4  -6  -4   97.96    3.67
   4  -6  -4   99.58    2.85
  -4   6   4   94.52    3.33
   4   6  -4   95.56    2.92
   2  -6  -4   28.39    1.76
   2  -6  -4   30.28    1.12
  -2  -6   4   29.34    1.16
   2   6  -4   28.19    1.27
  -2   6   4   28.02    1.50
   2   6  -4   29.47    1.25
   0  -6   4   42.77    1.48
   0  -6  -4   37.67    2.16
   0   6  -4   41.38    1.67
   0   6   4   40.76    1.84
   0   6  -4   39.93    1.54
  -2  -6  -4  117.85    4.31
   2  -6   4  109.94    3.18
   2   6   4  108.18    3.66
  -2   6  -4  111.44    3.29
  -2   6  -4  105.83    3.49
   4  -6   4    9.44    0.63
  -4  -6  -4    9.72    1.11
  -4   6  -4    9.02    0.66
  -4   6  -4   10.74    0.88
   4   6   4   10.58    0.90
  -6  -6  -4   58.03    3.00
   6  -6   4   60.36    2.04
  -6   6  -4   62.90    2.13
   6   6   4   60.97    2.48
  -6   6  -4   60.10    2.48
   8  -6   4   17.58    0.95
   8  -6   4   15.37    0.88
   8   6   4   15.41    0.89
  -8   6  -4   15.92    1.24
   8   6   4   15.82    1.18
  10  -6   4   28.75    1.30
 -10  -6  -4   28.80    1.77
  10  -6   4   27.88    1.27
  10   6   4   27.19    1.62
 -10   6  -4   27.79    1.75
  10   6   4   26.94    1.31
  12  -6   4    3.53    0.53
 -12  -6  -4    4.52    0.89
  12  -6   4    3.50    0.67
  12   6   4    3.07    0.65
 -12   6  -4    2.88    0.76
  12   6   4    2.53    0.48
 -15  -7   4   14.44    1.24
 -15   7   4   15.31    1.39
  13  -7  -4   15.23    1.01
 -13  -7   4   14.28    1.16
 -13   7   4   14.69    1.28
  13   7  -4   15.43    0.96
 -11  -7   4   24.32    1.44
  11  -7  -4   25.04    1.28
  11   7  -4   25.87    1.22
 -11   7   4   24.64    1.60
 -11   7   4   25.23    1.54
   9  -7  -4   66.65    2.34
  -9  -7   4   65.59    3.05
  -9   7   4   66.19    2.73
   9   7  -4   66.34    2.25
  -9   7   4   73.69    2.87
   9   7  -4   63.92    2.27
  -7  -7   4    7.14    0.57
   7  -7  -4    6.44    0.67
   7   7  -4    6.07    0.65
  -7   7   4    6.34    0.90
  -7   7   4    6.56    0.92
   5  -7  -4  102.65    3.93
   5  -7  -4  102.17    3.04
  -5  -7   4  102.46    3.02
   5   7  -4   98.84    3.10
  -5   7   4   96.50    3.55
   3  -7  -4   15.57    1.34
  -3  -7   4   14.87    0.81
   3  -7  -4   13.59    0.75
   3   7  -4   13.38    0.84
  -3   7   4   16.60    1.17
  -1  -7   4   91.84    2.76
   1  -7  -4   89.54    3.78
   1   7  -4   97.14    2.93
   1   7  -4   90.35    3.01
  -1   7   4   89.56    3.27
   1  -7   4   24.17    1.05
   1   7   4   22.72    1.39
  -1   7  -4   22.54    1.25
  -1   7  -4   21.15    1.11
  -3  -7  -4   64.25    3.14
   3  -7   4   64.98    2.11
  -3   7  -4   65.43    2.25
   3   7   4   60.33    2.57
  -3   7  -4   60.44    2.45
   5  -7   4    6.93    0.55
  -5  -7  -4    6.62    1.12
  -5   7  -4    7.91    0.64
  -5   7  -4    6.57    0.87
   5   7   4    7.23    0.90
   7  -7   4   54.67    1.91
  -7  -7  -4   57.79    3.09
   7  -7   4   52.49    1.99
   7   7   4   54.76    2.44
  -7   7  -4   51.11    2.40
   9  -7   4   17.65    1.02
  -9   7  -4   16.80    1.37
   9   7   4   17.70    1.35
  11  -7   4   16.15    1.01
 -11  -7  -4   16.60    1.43
  11   7   4   17.76    1.37
 -14  -8   4    0.07    0.31
 -14   8   4   -0.46    0.36
  12  -8  -4   24.66    1.33
 -12  -8   4   32.97    2.44
 -12   8   4   21.18    1.53
  12   8  -4   21.99    1.20
 -12   8   4   22.22    1.60
  10  -8  -4    3.18    0.56
 -10   8   4    2.65    0.69
 -10   8   4    4.17    0.78
  10   8  -4    4.05    0.56
  -8  -8   4   14.15    0.85
   8  -8  -4   13.05    0.87
   8   8  -4   12.36    0.86
  -8   8   4   13.48    1.18
  -8   8   4   13.13    1.15
   6  -8  -4    8.65    0.68
   6  -8  -4    7.39    1.13
  -6  -8   4    7.63    0.62
   6   8  -4    7.84    0.78
  -6   8   4    8.22    1.02
  -4  -8   4   32.97    1.37
   4  -8  -4   32.34    2.08
   4  -8  -4   33.59    1.38
   4   8  -4   34.02    1.48
  -4   8   4   34.14    1.83
  -2  -8   4    4.80    0.53
   2  -8  -4    3.90    0.91
  -2   8   4    3.99    0.74
   2   8  -4    3.84    0.54
   0  -8  -4    8.24    1.32
   0  -8   4    9.22    0.65
   0   8   4    8.42    1.06
   0   8  -4    8.34    0.70
   0   8  -4    8.74    0.96
   2  -8   4   43.10    1.55
  -2  -8  -4   42.28    2.50
   2   8   4   34.90    1.92
  -2   8  -4   35.55    1.61
  -2   8  -4   38.79    1.86
   4  -8   4    1.08    0.28
   4  -8   4    1.60    0.35
  -4  -8  -4    0.73    0.45
  -4   8  -4    0.43    0.36
   4   8   4    1.09    0.43
  -4   8  -4    1.29    0.34
   6  -8   4   19.09    1.09
  -6  -8  -4   18.72    1.76
  -6   8  -4   18.85    1.37
   6   8   4   17.38    1.34
  -8  -8  -4    4.63    1.16
   8  -8   4    3.15    0.52
   8   8   4    3.94    0.78
  -8   8  -4    3.59    0.77
 -11   9   4   15.14    1.63
 -11   9   4   16.95    1.47
  -9  -9   4   26.15    1.28
   9  -9  -4   24.38    1.30
  -9   9   4   24.14    1.70
  -9   9   4   24.02    1.66
  -7  -9   4    3.44    0.52
   7  -9  -4    3.99    0.57
   7  -9  -4    5.41    1.07
   7   9  -4    4.42    0.61
  -7   9   4    4.03    0.83
   5  -9  -4   65.43    2.40
  -5  -9   4   64.70    2.25
   5  -9  -4   67.01    3.31
  -5   9   4   69.67    2.94
   5   9  -4   62.56    2.35
  -3  -9   4    6.63    0.66
   3  -9  -4    8.42    1.33
   3   9  -4    6.15    0.73
  -3   9   4    8.39    1.09
   1  -9  -4   39.58    2.55
  -1  -9   4   43.26    1.62
   1   9  -4   40.91    1.76
  -1   9   4   41.60    2.14
  -1  -9  -4   15.31    1.60
  -1   9  -4   14.63    1.16
   1   9   4   16.50    1.30
  -1   9  -4   13.64    0.97
   3  -9   4   32.02    1.47
  -3  -9  -4   32.78    2.33
   3   9   4   30.38    1.82
  -3   9  -4   29.78    1.73
  -5  -9  -4    3.49    0.94
   5  -9   4    3.82    0.56
  -5   9  -4    5.11    0.87
   5   9   4    4.52    0.84
   8 -10  -4   34.38    1.70
  -8 -10   4   34.00    1.63
  -6 -10   4   13.67    0.91
  -6  10   4   14.17    1.54
   6  10  -4   15.60    1.02
  -4  10   4   35.76    2.09
   4  10  -4   37.24    1.71
   2 -10  -4   21.93    2.47
  -2  10   4   23.87    1.65
   2  10  -4   22.96    1.30
   0  10   4   25.99    1.80
   0  10  -4   23.64    1.46
  20   0  -5   11.38    1.17
  18   0  -5   37.51    1.70
 -18   0   5   40.38    2.17
  16   0  -5   49.22    1.97
 -16   0   5   54.25    2.46
  14   0  -5    5.53    0.62
 -14   0   5    5.43    0.84
  14   0  -5    4.28    0.46
 -12   0   5  121.00    3.97
  12   0  -5  122.05    3.34
  12   0  -5  120.32    3.58
 -10   0   5    8.51    0.76
 -10   0   5    9.12    0.52
  10   0  -5    9.36    0.64
   8   0  -5  139.32    3.76
  -8   0   5  129.98    4.01
  -8   0   5  131.31    3.56
  -6   0   5   18.65    1.00
  -6   0   5   18.47    0.77
   6   0  -5   19.46    0.88
  -4   0   5  177.80    4.69
   4   0  -5  184.26    4.93
  -4   0   5  187.35    5.03
   4   0  -5  181.08    4.78
  -2   0   5   15.19    0.80
   2   0  -5   14.99    0.87
  -2   0   5   14.90    0.68
   2   0  -5   15.02    0.69
   0   0  -5  245.59    6.08
   0   0   5  239.68    6.11
   0   0   5  234.62    6.23
   0   0  -5  239.83    6.54
   2   0   5   15.81    0.75
  -2   0  -5   16.47    0.70
  -2   0  -5   14.38    0.97
   2   0   5   16.22    0.79
  -4   0  -5   79.65    2.22
  -4   0  -5   78.30    2.82
   4   0   5   75.65    2.37
   6   0   5   91.33    2.77
  -6   0  -5   91.12    3.26
   8   0   5   44.19    1.64
  -8   0  -5   40.67    2.02
  10   0   5   28.81    1.31
 -10   0  -5   28.89    1.71
 -12   0  -5   22.87    1.59
  12   0   5   27.93    1.32
  14   0   5   24.02    1.54
 -14   0  -5   24.18    1.70
  19  -1  -5   46.92    1.94
  19   1  -5   44.00    2.03
  17  -1  -5    0.87    0.31
 -17  -1   5    0.74    0.43
  17   1  -5    0.74    0.33
 -17   1   5    1.43    0.55
  17   1  -5    0.87    0.27
 -15  -1   5   32.48    1.80
  15  -1  -5   32.06    1.48
 -15   1   5   34.57    1.88
  15   1  -5   35.69    1.54
  15   1  -5   34.40    1.34
  13  -1  -5    6.38    0.69
 -13  -1   5    5.45    0.78
  13   1  -5    4.45    0.56
 -13   1   5    4.01    0.70
  13   1  -5    6.35    0.49
 -11  -1   5   61.93    2.45
  11  -1  -5   65.99    2.19
  11   1  -5   64.13    2.01
  11   1  -5   65.34    2.20
 -11   1   5   68.07    2.56
   9  -1  -5    1.85    0.33
  -9  -1   5    1.54    0.27
  -9  -1   5    2.25    0.44
  -9   1   5    1.93    0.43
  -9   1   5    2.21    0.28
   9   1  -5    1.36    0.29
  -7  -1   5   41.86    1.39
  -7  -1   5   36.43    1.59
   7  -1  -5   41.81    1.49
  -7   1   5   39.14    1.69
   7   1  -5   43.42    1.49
  -7   1   5   43.67    1.32
  -5  -1   5   57.16    1.98
  -5  -1   5   53.92    1.74
   5  -1  -5   57.65    1.83
   5   1  -5   57.85    1.85
  -5   1   5   56.75    1.70
  -5   1   5   62.29    2.12
  -3  -1   5    5.21    0.39
   3  -1  -5    5.34    0.41
  -3  -1   5    5.65    0.46
   3  -1  -5    6.04    0.51
   3   1  -5    6.01    0.43
   3   1  -5    5.47    0.56
  -3   1   5    5.36    0.37
  -3   1   5    5.05    0.58
  -1  -1   5   82.20    2.34
   1  -1  -5   80.02    2.62
   1  -1  -5   78.34    2.27
  -1  -1   5   77.91    2.36
   1   1  -5   79.63    2.33
  -1   1   5   77.17    2.27
   1   1  -5   79.43    2.61
  -1   1   5   83.58    2.55
  -1  -1  -5   24.37    1.26
  -1  -1  -5   25.31    0.92
   1  -1   5   25.82    1.02
   1   1   5   26.35    1.00
  -1   1  -5   27.09    1.31
  -1   1  -5   25.49    0.98
   1   1   5   23.85    1.11
  -3  -1  -5   86.50    2.42
   3  -1   5   85.88    2.60
  -3  -1  -5   86.74    3.05
   3   1   5   93.43    2.77
   3   1   5   88.49    2.60
  -3   1  -5   88.88    2.52
  -3   1  -5   87.93    3.03
  -5  -1  -5    1.62    0.45
   5  -1   5    1.37    0.29
   5   1   5    2.13    0.34
   5   1   5    1.73    0.33
  -5   1  -5    1.93    0.29
  -5   1  -5    1.58    0.46
   7  -1   5   91.28    2.83
  -7  -1  -5   91.33    3.34
   7   1   5   92.91    2.83
  -7   1  -5   94.42    3.35
   9  -1   5   -0.13    0.13
  -9  -1  -5    0.13    0.32
   9   1   5    0.19    0.17
  -9   1  -5    0.28    0.33
 -11  -1  -5   44.88    2.28
  11  -1   5   48.84    1.85
  11   1   5   45.46    1.82
 -11   1  -5   46.76    2.27
 -13  -1  -5    6.95    1.06
  13  -1   5    6.23    0.70
 -13   1  -5    7.55    1.04
  13   1   5    6.41    0.77
 -18  -2   5   14.55    1.29
  18  -2  -5   15.43    1.04
 -18   2   5   13.97    1.26
  18   2  -5   13.96    0.89
  18   2  -5   17.18    1.18
  16  -2  -5   20.88    1.16
 -16  -2   5   20.06    1.41
  16   2  -5   19.30    1.09
  16   2  -5   18.75    1.00
 -16   2   5   20.83    1.46
  14  -2  -5    0.11    0.21
 -14  -2   5    0.09    0.24
  14   2  -5   -0.08    0.18
 -14   2   5    0.32    0.33
  14   2  -5    0.06    0.16
 -12  -2   5   66.65    2.59
  12  -2  -5   67.06    2.29
  12   2  -5   66.21    2.13
  12   2  -5   70.77    2.30
 -12   2   5   66.18    2.66
  10  -2  -5    0.89    0.27
 -10  -2   5    0.51    0.26
  10   2  -5    0.47    0.19
  10   2  -5    0.85    0.27
 -10   2   5    0.77    0.30
  -8  -2   5   52.70    1.95
  -8  -2   5   48.14    1.65
   8  -2  -5   50.28    1.74
  -8   2   5   49.57    2.02
   8   2  -5   50.68    1.74
   6  -2  -5    5.28    0.45
  -6  -2   5    5.89    0.52
   6  -2  -5    6.42    0.62
  -6  -2   5    6.23    0.45
  -6   2   5    5.93    0.36
   6   2  -5    5.30    0.45
  -6   2   5    4.98    0.63
  -4  -2   5  103.27    3.02
   4  -2  -5   99.91    2.91
   4  -2  -5  110.67    3.51
  -4  -2   5   97.41    2.89
   4   2  -5  101.44    2.95
  -4   2   5  106.61    3.27
  -4   2   5  106.61    2.79
   2  -2  -5    1.88    0.28
  -2  -2   5    2.28    0.33
  -2  -2   5    2.01    0.30
   2  -2  -5    1.76    0.46
  -2   2   5    2.23    0.39
   2   2  -5    2.42    0.33
   2   2  -5    1.47    0.31
  -2   2   5    2.00    0.26
   0  -2   5  117.52    3.33
   0  -2  -5  120.90    3.21
   0  -2  -5  114.83    3.63
   0   2  -5  123.99    3.34
   0   2   5  124.59    3.28
   0   2   5  116.85    3.59
   0   2  -5  122.54    3.64
  -2  -2  -5    4.19    0.60
  -2  -2  -5    4.80    0.33
   2  -2   5    3.71    0.42
  -2   2  -5    4.53    0.62
  -2   2  -5    4.64    0.39
   2   2   5    4.31    0.55
   2   2   5    4.91    0.40
   4  -2   5   32.99    1.27
  -4  -2  -5   31.54    1.60
  -4   2  -5   31.40    1.19
   4   2   5   32.13    1.23
   4   2   5   31.28    1.39
  -4   2  -5   31.48    1.58
   6  -2   5   35.74    1.43
  -6  -2  -5   33.02    1.78
   6   2   5   36.67    1.42
  -6   2  -5   37.89    1.82
   6   2   5   39.09    1.58
  -6   2  -5   38.99    1.35
  -8  -2  -5   13.51    1.15
  -8   2  -5   15.89    1.20
   8   2   5   17.59    0.92
 -10  -2  -5    5.09    0.86
  10  -2   5    7.95    0.76
 -10   2  -5    6.48    0.94
  10   2   5    6.26    0.67
 -12  -2  -5   10.53    1.26
  12  -2   5    9.98    0.79
  12   2   5    9.66    0.78
 -12   2  -5    9.76    1.21
 -17  -3   5    5.89    0.94
  17  -3  -5    4.92    0.68
  17   3  -5    7.09    0.74
  17   3  -5    6.37    1.04
 -17   3   5    5.94    0.97
 -15  -3   5   49.71    2.30
  15  -3  -5   45.20    1.88
  15   3  -5   49.87    1.81
  15   3  -5   46.44    1.85
 -15   3   5   48.96    2.37
  13  -3  -5   10.03    0.75
 -13  -3   5   10.85    0.95
  13   3  -5   11.00    0.76
  13   3  -5    9.27    0.66
 -13   3   5   10.18    1.15
  11  -3  -5   96.88    3.01
 -11  -3   5   99.99    3.35
  11   3  -5   95.84    2.97
 -11   3   5   94.35    3.42
  11   3  -5   98.79    2.90
   9  -3  -5   29.01    1.22
  -9  -3   5   25.49    1.10
  -9  -3   5   29.22    1.38
   9   3  -5   29.50    1.22
  -9   3   5   25.86    1.45
   9   3  -5   27.29    1.12
   7  -3  -5   54.39    2.28
  -7  -3   5   57.15    1.89
  -7  -3   5   61.80    2.11
   7  -3  -5   58.95    1.95
  -7   3   5   60.74    2.30
   7   3  -5   59.37    1.96
  -5  -3   5   52.38    1.74
  -5  -3   5   53.62    1.84
   5  -3  -5   53.22    2.22
   5  -3  -5   54.33    1.77
  -5   3   5   53.29    2.09
   5   3  -5   54.18    1.81
   3  -3  -5   35.09    1.22
   3  -3  -5   33.03    1.72
  -3  -3   5   32.73    1.24
  -3   3   5   34.80    1.54
   3   3  -5   32.10    1.27
  -1  -3   5  167.98    4.39
   1  -3  -5  162.38    4.24
   1  -3  -5  159.60    5.19
   1   3  -5  160.39    4.38
  -1   3   5  162.09    4.72
   1   3  -5  163.31    4.53
  -1   3   5  161.56    4.22
  -1  -3  -5   37.19    1.38
   1  -3   5   39.52    1.39
  -1  -3  -5   36.92    2.02
   1   3   5   35.90    1.59
   1   3   5   36.45    1.29
  -1   3  -5   38.44    1.61
  -1   3  -5   36.87    1.36
   3  -3   5   92.30    2.79
  -3  -3  -5   93.96    3.24
   3   3   5   98.57    3.12
  -3   3  -5   94.32    2.78
  -3   3  -5   98.43    3.22
   3   3   5   89.53    2.72
   5  -3   5   14.98    0.82
  -5  -3  -5   14.45    1.10
  -5   3  -5   14.27    1.05
  -5   3  -5   14.48    0.77
   5   3   5   15.23    0.80
   5   3   5   16.36    1.00
  -7  -3  -5  118.71    4.06
   7  -3   5  118.74    3.46
  -7   3  -5  106.31    3.90
   7   3   5  119.17    3.45
   7   3   5  115.66    3.69
  -7   3  -5  118.73    3.36
  -9  -3  -5    5.24    0.89
   9  -3   5    4.53    0.57
   9   3   5    4.04    0.54
   9   3   5    3.72    0.62
  -9   3  -5    4.95    0.87
 -11  -3  -5   65.77    2.98
  11  -3   5   66.76    2.39
 -11   3  -5   73.89    3.05
  11   3   5   70.58    2.45
 -13  -3  -5    9.99    1.24
  13  -3   5    9.45    0.78
 -13   3  -5    9.31    1.23
  13   3   5    9.51    0.92
  16  -4  -5   25.85    1.37
 -16  -4   5   26.75    1.68
 -16   4   5   28.55    1.79
  16   4  -5   26.12    1.27
 -14  -4   5    3.09    0.63
  14  -4  -5    4.05    0.57
  14   4  -5    3.42    0.49
 -14   4   5    3.23    0.67
  14   4  -5    3.02    0.49
 -12  -4   5   82.77    3.03
  12  -4  -5   79.17    2.70
  12   4  -5   82.68    2.69
 -12   4   5   83.16    3.20
  12   4  -5   84.77    2.63
 -10  -4   5    0.00    0.18
  10  -4  -5    0.10    0.18
  10   4  -5   -0.13    0.15
  10   4  -5    0.15    0.15
 -10   4   5   -0.08    0.20
   8  -4  -5   53.57    2.31
  -8  -4   5   52.24    1.83
  -8  -4   5   55.98    2.06
   8  -4  -5   53.78    1.88
  -8   4   5   53.97    2.25
   8   4  -5   54.68    1.90
  -6  -4   5   29.10    1.17
  -6  -4   5   29.58    1.26
   6  -4  -5   28.95    1.18
   6  -4  -5   28.51    1.61
  -6   4   5   29.00    1.49
   6   4  -5   28.68    1.22
   4  -4  -5  119.23    3.37
  -4  -4   5  120.80    3.42
   4  -4  -5  116.79    4.09
  -4   4   5  125.26    3.88
   4   4  -5  123.37    3.48
   2  -4  -5    0.30    0.29
   2  -4  -5    0.38    0.15
  -2  -4   5    0.07    0.13
   2   4  -5    0.28    0.17
  -2   4   5    0.19    0.20
   0  -4  -5  127.75    4.48
   0  -4   5  126.48    3.56
   0   4   5  120.80    3.92
   0   4  -5  129.88    3.77
   0   4  -5  124.90    3.58
   2  -4   5   18.98    0.92
  -2  -4  -5   17.51    1.43
   2   4   5   17.74    0.82
   2   4   5   18.90    1.12
  -2   4  -5   17.70    1.07
  -2   4  -5   17.32    0.89
   4  -4   5   43.70    1.58
   4   4   5   41.98    1.52
  -4   4  -5   41.45    1.56
  -4   4  -5   40.29    1.88
   4   4   5   43.28    1.87
   6  -4   5   48.90    1.74
  -6  -4  -5   47.86    2.22
   6   4   5   46.42    2.01
  -6   4  -5   50.80    2.22
  -6   4  -5   45.93    1.70
   6   4   5   44.15    1.69
  -8  -4  -5   25.11    1.60
   8  -4   5   25.38    1.20
   8   4   5   25.46    1.43
  -8   4  -5   25.48    1.14
   8   4   5   24.41    1.18
  -8   4  -5   24.48    1.57
  10  -4   5    9.73    0.75
 -10  -4  -5    9.06    1.20
 -10   4  -5   12.04    1.32
  10   4   5    7.74    0.79
  10   4   5    9.90    0.89
  12  -4   5   15.94    1.01
 -12  -4  -5   16.04    1.44
 -12   4  -5   15.98    1.38
  12   4   5   15.75    1.02
 -17  -5   5    0.06    0.43
  15  -5  -5   15.05    1.02
 -15  -5   5   13.86    1.18
 -15   5   5   13.04    1.21
  15   5  -5   14.60    0.92
 -13  -5   5    1.13    0.45
  13  -5  -5    1.02    0.33
  13   5  -5    1.58    0.35
  13   5  -5    1.42    0.39
 -13   5   5    1.07    0.47
 -11  -5   5   36.65    1.73
  11  -5  -5   33.98    1.48
  11   5  -5   34.31    1.42
  11   5  -5   32.47    1.46
 -11   5   5   35.36    1.87
   9  -5  -5    1.77    0.72
  -9  -5   5    2.28    0.39
   9  -5  -5    2.12    0.39
  -9  -5   5    2.42    0.47
  -9   5   5    1.64    0.51
   9   5  -5    1.50    0.36
   7  -5  -5   16.73    0.87
  -7  -5   5   15.54    0.84
   7  -5  -5   15.23    1.22
   7   5  -5   15.97    0.89
  -7   5   5   15.33    1.12
  -5  -5   5   16.57    0.86
   5  -5  -5   17.35    0.86
   5  -5  -5   16.11    1.29
  -5   5   5   17.05    1.14
   5   5  -5   16.47    0.90
  -3  -5   5    2.82    0.39
   3  -5  -5    2.98    0.67
   3  -5  -5    2.57    0.35
  -3   5   5    3.54    0.61
   3   5  -5    3.27    0.45
  -1  -5   5   53.96    1.84
   1  -5  -5   50.44    2.53
   1   5  -5   55.40    1.89
  -1   5   5   52.66    2.21
   1  -5   5    7.89    0.58
  -1  -5  -5    9.51    1.06
  -1   5  -5    9.17    0.65
   1   5   5    8.65    0.93
  -1   5  -5    8.42    0.72
  -3  -5  -5   31.01    2.04
   3  -5   5   32.81    1.31
  -3   5  -5   32.05    1.33
   3   5   5   29.56    1.57
  -3   5  -5   28.68    1.51
   5  -5   5    1.30    0.31
   5   5   5    0.39    0.28
  -5   5  -5    0.64    0.22
  -5   5  -5    1.33    0.43
  -7  -5  -5   49.63    2.36
   7  -5   5   50.17    1.86
   7   5   5   50.10    1.83
  -7   5  -5   48.23    2.31
   7   5   5   49.82    2.20
  -7   5  -5   50.61    1.87
   9  -5   5    0.07    0.17
  -9  -5  -5    0.33    0.38
   9  -5   5   -0.05    0.18
   9   5   5   -0.16    0.19
  -9   5  -5   -0.12    0.27
   9   5   5    0.34    0.31
  11  -5   5   27.68    1.35
 -11  -5  -5   26.47    1.86
  11   5   5   27.02    1.61
  11   5   5   26.91    1.35
 -11   5  -5   23.45    1.70
 -16  -6   5   23.57    1.61
 -14  -6   5    2.95    0.65
  14  -6  -5    2.42    0.48
 -14   6   5    3.46    0.75
  14   6  -5    3.98    0.57
 -12  -6   5   60.02    2.47
  12  -6  -5   59.41    2.23
  12   6  -5   58.57    2.13
 -12   6   5   59.24    2.70
  12   6  -5   58.11    2.18
  10  -6  -5    5.93    0.70
 -10  -6   5    5.32    0.62
  10   6  -5    6.17    0.63
  10   6  -5    6.80    0.71
 -10   6   5    7.34    1.01
   8  -6  -5   59.22    2.71
   8  -6  -5   57.86    2.07
  -8  -6   5   57.08    2.03
  -8   6   5   60.43    2.56
   8   6  -5   56.40    2.07
   6  -6  -5   14.08    1.25
   6  -6  -5   15.43    0.84
  -6  -6   5   14.85    0.84
   6   6  -5   13.77    0.87
  -6   6   5   14.40    1.13
   4  -6  -5   78.46    3.46
  -4  -6   5   86.82    2.67
   4  -6  -5   87.52    2.61
   4   6  -5   86.63    2.75
  -4   6   5   87.10    3.21
   2  -6  -5    5.77    0.99
  -2  -6   5    5.65    0.57
   2   6  -5    6.80    0.70
  -2   6   5    7.16    0.94
   0  -6  -5  103.09    4.21
   0  -6   5  108.09    3.20
   0   6  -5  108.66    3.29
   0   6  -5  104.98    3.83
   0   6   5  111.67    3.74
  -2  -6  -5   14.81    1.39
   2  -6   5   13.26    0.79
  -2   6  -5   11.62    0.92
   2   6   5   11.93    0.99
  -2   6  -5   12.72    0.82
   4  -6   5   39.34    1.54
  -4  -6  -5   37.52    2.41
  -4   6  -5   38.68    1.59
   4   6   5   36.87    1.89
  -4   6  -5   39.17    1.89
   6  -6   5   46.71    1.75
   6   6   5   43.09    2.10
  -6   6  -5   46.42    1.80
  -6   6  -5   44.41    2.18
   8  -6   5   23.55    1.18
  -8  -6  -5   24.47    1.65
   8  -6   5   23.46    1.19
  -8   6  -5   22.22    1.58
   8   6   5   22.16    1.48
  10  -6   5   12.70    0.88
  10  -6   5   14.04    0.92
 -10  -6  -5   12.01    1.37
  10   6   5   13.39    1.16
 -10   6  -5   12.73    1.40
 -15  -7   5   23.27    1.61
  13  -7  -5   12.87    0.97
 -13   7   5   13.72    1.49
  13   7  -5   12.99    0.92
 -11  -7   5   45.18    1.77
  11  -7  -5   42.36    1.82
 -11   7   5   41.79    2.25
  11   7  -5   42.43    1.80
  11   7  -5   42.95    1.74
   9  -7  -5    5.55    0.68
   9  -7  -5    4.14    0.87
  -9  -7   5    4.69    0.59
   9   7  -5    5.75    0.69
  -9   7   5    7.14    0.98
   7  -7  -5   36.61    2.20
   7  -7  -5   38.20    1.57
  -7  -7   5   38.85    1.57
  -7   7   5   39.35    2.05
   7   7  -5   38.41    1.63
  -5  -7   5   53.78    1.94
   5  -7  -5   49.30    1.86
   5  -7  -5   53.63    2.75
  -5   7   5   56.55    2.48
   5   7  -5   54.45    2.03
   3  -7  -5   12.53    1.32
  -3  -7   5   10.74    0.73
  -3   7   5    9.48    1.11
   3   7  -5   11.68    0.82
  -1  -7   5   47.89    1.80
   1  -7  -5   49.66    2.69
   1   7  -5   50.18    1.92
  -1   7   5   49.11    2.27
  -1  -7  -5   32.27    2.18
   1  -7   5   30.33    1.31
  -1   7  -5   28.42    1.36
   1   7   5   31.10    1.74
  -1   7  -5   29.23    1.73
   3  -7   5   52.64    1.95
  -3  -7  -5   50.29    2.91
   3   7   5   55.18    2.47
  -3   7  -5   58.59    2.11
  -3   7  -5   53.16    2.31
   5  -7   5    8.03    0.66
  -5  -7  -5    7.81    1.33
  -5   7  -5    7.12    1.00
   5   7   5    9.64    1.13
  -5   7  -5    9.28    0.76
   7  -7   5   53.01    2.00
   7  -7   5   56.52    2.09
  -7   7  -5   52.91    2.56
   7   7   5   55.04    2.52
   9  -7   5    3.80    0.56
   9  -7   5    2.76    0.50
   9   7   5    3.26    0.71
  10  -8  -5    0.39    0.46
  10  -8  -5    0.32    0.28
 -10  -8   5    0.76    0.32
  10   8  -5    0.49    0.31
 -10   8   5    0.40    0.42
  -8  -8   5   16.90    0.99
   8  -8  -5   15.11    1.49
   8  -8  -5   15.67    0.99
   8   8  -5   15.11    1.01
  -8   8   5   17.98    1.42
  -6  -8   5    1.83    0.38
   6  -8  -5    2.25    0.42
   6  -8  -5    1.43    0.59
   6   8  -5    1.66    0.44
  -6   8   5    1.17    0.46
   4  -8  -5   24.05    1.89
  -4  -8   5   23.34    1.16
   4   8  -5   24.56    1.28
  -4   8   5   23.49    1.57
   2  -8  -5    0.05    0.40
  -2  -8   5    0.93    0.28
  -2   8   5    0.30    0.37
   2   8  -5    0.35    0.25
   0  -8   5   40.08    1.61
   0  -8  -5   44.14    2.65
   0   8  -5   40.54    1.75
   0   8   5   35.93    2.02
  -2  -8  -5    1.21    0.59
   2  -8   5    1.54    0.35
   2   8   5    0.74    0.39
  -2   8  -5    1.18    0.38
   4  -8   5    9.54    0.73
  -4  -8  -5   10.07    1.59
  -4   8  -5    9.76    0.82
   4   8   5    7.98    1.06
  -4   8  -5    8.65    1.08
   6  -8   5   16.71    1.05
   6  -8   5   15.50    1.05
   6   8   5   16.88    1.44
  -6   8  -5   17.16    1.37
   9  -9  -5    5.22    0.68
   9  -9  -5    5.20    1.15
   9   9  -5    5.13    0.71
   7  -9  -5   18.50    1.71
  -7  -9   5   18.29    1.07
   7  -9  -5   16.99    1.31
  -7   9   5   12.93    1.51
   7   9  -5   18.74    1.17
  -5  -9   5   20.53    1.10
   5  -9  -5   16.26    1.66
  -5   9   5   21.01    1.57
   5   9  -5   17.07    1.11
   3  -9  -5    8.86    1.43
  -3  -9   5    5.97    0.67
   3   9  -5    7.80    0.84
  -3   9   5    7.69    1.06
  -1  -9   5   30.45    1.40
   1  -9  -5   33.59    2.42
   1   9  -5   30.95    1.55
  -1   9   5   34.47    1.99
   1  -9   5   13.59    0.89
  -1  -9  -5   17.37    1.89
   1   9   5   15.28    1.32
  -1   9  -5   13.92    1.13
  18   0  -6   67.39    2.56
 -16   0   6    4.21    0.84
  16   0  -6    5.92    0.77
  14   0  -6   75.02    2.64
 -14   0   6   78.08    3.09
 -12   0   6   45.13    2.02
 -12   0   6   47.25    2.14
  12   0  -6   46.71    1.83
 -10   0   6   21.90    0.93
 -10   0   6   21.36    1.28
  10   0  -6   21.71    1.10
  -8   0   6   67.09    2.08
  -8   0   6   68.87    2.55
   8   0  -6   71.57    2.29
   6   0  -6   44.73    1.65
  -6   0   6   47.69    1.89
  -6   0   6   48.94    1.57
   4   0  -6   67.93    2.13
  -4   0   6   66.73    2.05
  -4   0   6   65.56    2.30
   2   0  -6   14.20    0.92
  -2   0   6   12.66    0.69
  -2   0   6   11.76    0.77
   2   0  -6   13.57    0.71
   0   0   6  151.62    4.16
   0   0  -6  152.98    4.12
   0   0  -6  153.91    4.62
  -2   0  -6    4.80    0.71
   2   0   6    6.07    0.49
  -2   0  -6    5.72    0.44
  -4   0  -6  113.35    3.88
   4   0   6  113.96    3.35
  -6   0  -6   10.63    1.21
   6   0   6   10.24    0.73
   8   0   6   56.09    2.08
  -8   0  -6   60.24    2.64
 -10   0  -6   19.58    1.49
  10   0   6   18.98    1.10
 -17  -1   6    2.08    0.63
  17  -1  -6    2.69    0.54
 -17   1   6    3.50    0.80
  17   1  -6    2.43    0.51
 -15  -1   6   40.34    2.05
  15  -1  -6   35.59    1.64
 -15   1   6   36.34    2.02
  15   1  -6   38.25    1.46
  15   1  -6   35.39    1.62
 -13  -1   6    2.20    0.36
 -13  -1   6    2.87    0.61
  13  -1  -6    2.30    0.46
  13   1  -6    3.15    0.52
 -13   1   6    1.95    0.51
 -11  -1   6   67.74    2.18
 -11  -1   6   65.29    2.64
  11  -1  -6   68.30    2.36
 -11   1   6   73.16    2.79
  11   1  -6   71.61    2.37
  -9  -1   6   -0.05    0.18
  -9  -1   6   -0.03    0.13
   9  -1  -6    0.03    0.16
   9   1  -6    0.12    0.18
  -9   1   6    0.12    0.22
  -7  -1   6  104.02    2.98
   7  -1  -6  106.26    3.13
  -7  -1   6  108.59    3.37
  -7   1   6  104.70    2.91
  -7   1   6  106.71    3.46
   7   1  -6   98.82    3.10
  -5  -1   6    0.17    0.13
  -5  -1   6    0.12    0.14
   5  -1  -6    0.12    0.15
  -5   1   6    0.08    0.12
  -5   1   6    0.07    0.17
   5   1  -6   -0.11    0.11
   3  -1  -6   45.80    1.84
  -3  -1   6   48.19    1.62
  -3  -1   6   46.76    1.72
   3  -1  -6   45.63    1.60
  -3   1   6   48.33    1.57
  -3   1   6   48.07    1.86
   3   1  -6   47.34    1.64
   1  -1  -6   15.46    0.74
   1  -1  -6   15.17    1.02
  -1  -1   6   16.61    0.82
   1   1  -6   16.03    0.80
  -1   1   6   15.10    0.92
  -1   1   6   15.41    0.76
   1   1  -6   15.75    0.99
   1  -1   6   31.36    1.23
  -1  -1  -6   28.73    1.53
  -1  -1  -6   29.39    1.11
   1   1   6   30.24    1.34
   1   1   6   32.47    1.22
  -1   1  -6   28.35    1.49
  -1   1  -6   29.00    1.15
   3  -1   6    7.57    0.58
  -3  -1  -6    6.96    0.90
   3   1   6    7.86    0.59
  -3   1  -6    8.56    0.55
  -3   1  -6   10.28    0.90
   5  -1   6   40.51    1.59
  -5  -1  -6   41.89    2.04
  -5   1  -6   40.55    1.99
   5   1   6   40.36    1.58
   7  -1   6   29.82    1.35
  -7  -1  -6   30.93    1.78
   7   1   6   29.03    1.32
  -7   1  -6   31.85    1.76
   9  -1   6    1.48    0.36
  -9  -1  -6    0.88    0.49
   9   1   6    1.84    0.41
  -9   1  -6    1.19    0.50
  11  -1   6   39.26    1.71
 -11  -1  -6   37.23    2.16
  11   1   6   36.42    1.66
 -11   1  -6   40.92    2.20
  18   2  -6   28.42    1.51
  18   2  -6   29.58    1.35
 -16  -2   6    0.05    0.32
  16  -2  -6    0.32    0.29
  16   2  -6    0.10    0.20
  16   2  -6    0.04    0.26
 -16   2   6    0.48    0.40
 -14  -2   6   41.77    2.06
  14  -2  -6   41.32    1.73
 -14   2   6   38.01    2.07
  14   2  -6   40.94    1.72
  14   2  -6   38.06    1.52
  12  -2  -6   15.29    0.94
 -12  -2   6   16.53    1.16
 -12  -2   6   16.89    0.88
  12   2  -6   15.09    0.94
 -12   2   6   15.19    1.17
 -10  -2   6    4.63    0.65
  10  -2  -6    4.69    0.55
 -10  -2   6    5.69    0.57
 -10   2   6    6.17    0.83
  10   2  -6    5.22    0.60
  -8  -2   6   26.65    1.13
   8  -2  -6   28.42    1.23
  -8  -2   6   25.28    1.32
  -8   2   6   28.68    1.50
   8   2  -6   27.83    1.22
  -6  -2   6    6.43    0.59
   6  -2  -6    7.05    0.54
  -6  -2   6    6.01    0.58
  -6   2   6    6.66    0.79
   6   2  -6    6.55    0.54
   4  -2  -6   22.63    1.02
  -4  -2   6   22.96    1.02
  -4   2   6   23.64    1.12
   4   2  -6   25.02    1.09
  -4   2   6   23.43    1.25
   2  -2  -6    5.01    0.49
   2  -2  -6    4.32    0.60
  -2  -2   6    5.49    0.54
  -2   2   6    5.06    0.40
   2   2  -6    4.25    0.50
  -2   2   6    5.52    0.68
   0  -2  -6   76.61    2.27
   0  -2  -6   78.01    2.81
   0  -2   6   77.65    2.44
   0   2  -6   79.16    2.41
   0   2   6   75.04    2.34
   0   2   6   78.97    2.69
   0   2  -6   79.73    2.75
  -2  -2  -6    3.02    0.60
   2  -2   6    2.53    0.39
  -2   2  -6    3.25    0.42
  -2   2  -6    1.94    0.47
   2   2   6    2.58    0.37
   2   2   6    3.38    0.52
   4  -2   6   67.65    2.26
  -4  -2  -6   63.79    2.73
  -4   2  -6   65.70    2.67
  -4   2  -6   70.98    2.19
   4   2   6   69.62    2.24
  -6  -2  -6    3.98    0.79
   6  -2   6    2.39    0.42
   6   2   6    3.23    0.47
  -6   2  -6    3.54    0.73
  -8  -2  -6   27.99    1.75
   8  -2   6   25.92    1.27
   8   2   6   25.35    1.24
  -8   2  -6   23.13    1.55
 -10  -2  -6    4.50    0.92
  10  -2   6    5.58    0.69
  10   2   6    3.68    0.55
 -10   2  -6    5.78    0.96
 -17  -3   6   10.28    1.23
  17   3  -6   12.35    0.85
  17   3  -6   11.61    0.92
 -15  -3   6   45.59    2.31
  15  -3  -6   49.65    2.03
  15   3  -6   50.92    1.89
 -15   3   6   51.09    2.50
  15   3  -6   53.00    2.05
 -13  -3   6    9.97    1.10
 -13  -3   6   11.85    0.77
  13  -3  -6   11.77    0.85
  13   3  -6   11.40    0.74
  13   3  -6   10.01    0.81
 -13   3   6   11.88    1.09
 -11  -3   6   93.92    3.19
  11  -3  -6   86.13    2.82
 -11  -3   6   83.98    2.71
  11   3  -6   84.05    2.81
 -11   3   6   86.76    3.29
  -9  -3   6    1.52    0.40
  -9  -3   6    2.51    0.40
   9  -3  -6    1.85    0.36
   9   3  -6    1.85    0.36
  -9   3   6    1.39    0.43
   7  -3  -6  151.24    4.27
  -7  -3   6  153.63    4.26
  -7  -3   6  158.20    4.99
   7   3  -6  149.42    4.31
  -7   3   6  152.28    4.75
  -5  -3   6   14.92    0.80
   5  -3  -6   12.92    0.75
   5  -3  -6   14.88    1.16
   5   3  -6   14.81    0.83
  -5   3   6   12.46    0.95
   3  -3  -6   54.07    1.76
   3  -3  -6   50.80    2.45
  -3  -3   6   52.42    1.83
   3   3  -6   54.58    1.87
  -3   3   6   52.66    2.14
   1  -3  -6   18.85    0.84
  -1  -3   6   18.46    0.92
   1   3  -6   19.13    0.94
  -1   3   6   19.25    1.15
  -1  -3  -6   74.62    2.82
   1  -3   6   72.60    2.39
  -1   3  -6   77.40    2.73
   1   3   6   76.39    2.31
  -1   3  -6   73.29    2.36
   1   3   6   73.19    2.68
  -3  -3  -6   34.92    1.79
   3  -3   6   32.79    1.36
   3   3   6   31.82    1.55
   3   3   6   31.98    1.29
  -3   3  -6   34.89    1.73
  -3   3  -6   29.97    1.29
  -5  -3  -6   42.60    2.12
   5  -3   6   41.22    1.62
   5   3   6   41.11    1.58
  -5   3  -6   37.85    1.96
   5   3   6   39.91    1.80
  -5   3  -6   43.63    1.58
   7  -3   6   36.25    1.57
  -7  -3  -6   36.27    2.08
  -7   3  -6   40.84    2.07
   7   3   6   38.65    1.57
   9  -3   6    7.42    0.78
  -9  -3  -6    6.95    1.09
   9   3   6    7.41    0.77
  -9   3  -6    7.84    1.13
  11  -3   6   47.54    2.38
  11   3   6   49.55    2.00
 -16  -4   6    0.64    0.43
  16   4  -6    1.23    0.36
  16   4  -6    1.29    0.41
 -14  -4   6   47.58    2.25
  14  -4  -6   44.68    1.94
  14   4  -6   47.66    1.84
  14   4  -6   49.67    1.98
 -14   4   6   48.96    2.45
  12  -4  -6   26.09    1.29
 -12  -4   6   25.20    1.19
 -12  -4   6   24.70    1.45
 -12   4   6   21.87    1.52
  12   4  -6   22.94    1.23
  10  -4  -6   14.09    0.91
 -10  -4   6   14.28    1.03
 -10  -4   6   16.21    0.91
 -10   4   6   15.16    1.18
  10   4  -6   15.26    0.94
  -8  -4   6   39.15    1.52
   8  -4  -6   40.10    1.57
   8   4  -6   38.13    1.58
  -8   4   6   37.87    1.90
   6  -4  -6    7.72    1.08
  -6  -4   6    9.01    0.64
   6  -4  -6    8.91    0.63
   6   4  -6   10.16    0.72
  -6   4   6    9.64    1.07
   4  -4  -6   29.97    1.81
  -4  -4   6   30.30    1.29
   4  -4  -6   31.75    1.25
   4   4  -6   33.00    1.36
  -4   4   6   33.63    1.67
  -2  -4   6   22.56    1.07
   2  -4  -6   23.03    0.99
   2  -4  -6   22.09    1.60
   2   4  -6   23.69    1.10
  -2   4   6   22.10    1.32
   0  -4  -6   88.86    3.72
   0  -4   6   88.06    2.73
   0   4  -6   87.32    2.73
   0   4   6   83.13    3.07
   2  -4   6    0.70    0.24
  -2  -4  -6    0.79    0.38
   2   4   6    1.09    0.37
  -2   4  -6    0.72    0.35
  -2   4  -6    0.92    0.29
   4  -4   6   70.43    2.41
  -4  -4  -6   73.85    2.97
  -4   4  -6   71.97    2.86
  -4   4  -6   69.71    2.38
   4   4   6   74.32    2.77
  -6  -4  -6   12.05    1.31
   6  -4   6   12.29    0.82
  -6   4  -6   10.21    0.73
   6   4   6   12.73    1.00
   6   4   6   11.26    0.78
  -6   4  -6    9.23    1.17
  -8  -4  -6   28.51    1.87
   8  -4   6   29.68    1.39
  -8   4  -6   28.98    1.81
   8   4   6   28.08    1.35
  10  -4   6    8.27    0.86
 -10   4  -6    6.28    1.05
  10   4   6    7.43    0.80
 -15  -5   6   18.17    1.37
  15   5  -6   19.19    1.50
  15   5  -6   17.59    1.15
 -13  -5   6    0.78    0.31
 -13  -5   6    0.57    0.35
  13  -5  -6    1.18    0.39
 -13   5   6    0.90    0.45
  13   5  -6    1.06    0.37
 -11  -5   6   32.56    1.43
  11  -5  -6   31.17    1.45
 -11   5   6   30.44    1.80
  11   5  -6   30.25    1.46
   9  -5  -6    0.35    0.24
  -9  -5   6    0.05    0.17
  -9   5   6    0.32    0.30
   9   5  -6    0.39    0.26
   7  -5  -6   61.43    2.13
  -7  -5   6   59.93    2.12
  -7   5   6   63.56    2.64
   7   5  -6   60.12    2.18
   5  -5  -6    0.20    0.18
  -5  -5   6    0.38    0.22
   5  -5  -6    0.01    0.28
  -5   5   6    0.17    0.29
   5   5  -6   -0.08    0.17
  -3  -5   6   15.46    0.87
   3  -5  -6   13.66    1.30
   3   5  -6   14.88    0.89
  -3   5   6   16.09    1.16
  -1  -5   6    3.72    0.49
   1  -5  -6    4.00    0.86
  -1   5   6    3.18    0.59
   1   5  -6    3.84    0.54
   1  -5   6   21.49    1.07
  -1  -5  -6   19.26    1.67
   1   5   6   22.03    1.37
  -1   5  -6   20.82    1.10
   3  -5   6    7.09    0.69
  -3   5  -6    6.09    0.86
  -3   5  -6    5.29    0.61
   3   5   6    6.37    0.85
   5  -5   6   16.48    0.97
  -5  -5  -6   16.48    1.33
  -5   5  -6   16.04    0.96
   5   5   6   16.08    1.18
  -5   5  -6   14.88    1.22
  -7  -5  -6   11.41    1.36
   7  -5   6   12.60    0.88
  -7   5  -6   11.48    1.36
   7   5   6   13.01    1.09
  -7   5  -6   12.17    0.85
   9  -5   6    0.90    0.33
   9   5   6    0.13    0.46
  -9   5  -6    0.90    0.52
  14   6  -6   43.39    1.91
  12  -6  -6   26.89    1.38
 -12  -6   6   26.63    1.35
  12   6  -6   27.89    1.41
 -12   6   6   21.74    1.64
 -10  -6   6   10.87    0.80
  10  -6  -6   12.14    0.87
  10   6  -6   12.41    0.90
 -10   6   6   12.56    1.38
   8  -6  -6   34.32    1.49
  -8  -6   6   35.84    1.50
   8   6  -6   32.66    1.52
  -8   6   6   33.71    1.89
   6  -6  -6   24.11    1.16
   6  -6  -6   24.26    1.76
  -6  -6   6   26.38    1.22
  -6   6   6   24.72    1.59
   6   6  -6   26.08    1.29
   4  -6  -6   33.77    2.12
  -4  -6   6   31.58    1.39
   4   6  -6   32.34    1.46
  -4   6   6   29.22    1.73
  -2  -6   6   12.02    0.79
   2  -6  -6   12.54    1.32
   2   6  -6   11.10    0.82
  -2   6   6   11.98    1.06
   0  -6   6   71.02    2.43
   0  -6  -6   73.22    3.50
   0   6  -6   74.78    2.53
   0   6   6   70.61    2.91
   2  -6   6    2.42    0.45
  -2  -6  -6    2.69    0.82
  -2   6  -6    1.69    0.39
   2   6   6    2.47    0.60
   4  -6   6   57.34    2.13
  -4   6  -6   60.07    2.20
  -4   6  -6   56.24    2.52
   4   6   6   58.73    2.58
   6  -6   6    7.05    0.75
  -6  -6  -6   11.74    1.41
   6   6   6    7.22    1.00
  -6   6  -6    6.20    0.94
  -6   6  -6    8.39    0.84
   8  -6   6   26.59    1.32
   8  -6   6   26.44    1.37
   8   6   6   26.17    1.67
  -8   6  -6   27.06    2.03
  13   7  -6    7.62    1.24
  11  -7  -6   42.01    1.85
 -11   7   6   44.32    2.74
  11   7  -6   42.89    1.89
  -9  -7   6    4.80    0.62
   9  -7  -6    6.35    0.75
   9   7  -6    5.49    0.73
   7  -7  -6   60.67    3.10
  -7  -7   6   58.54    2.21
   7  -7  -6   61.10    2.20
   7   7  -6   62.71    2.32
  -7   7   6   60.86    2.80
  -5  -7   6    3.68    0.54
   5  -7  -6    3.41    0.85
  -5   7   6    3.85    0.76
   5   7  -6    3.16    0.54
  -3  -7   6   38.94    1.61
   3  -7  -6   36.17    2.37
   3   7  -6   39.45    1.72
  -3   7   6   38.15    2.06
   1  -7  -6   26.89    2.03
  -1  -7   6   23.03    1.19
   1   7  -6   23.83    1.27
  -1   7   6   23.70    1.58
   1  -7   6   24.66    1.22
  -1  -7  -6   24.86    2.04
   1   7   6   26.11    1.64
  -1   7  -6   23.37    1.28
  -3  -7  -6   12.78    1.80
   3  -7   6   10.57    0.80
   3   7   6   12.57    1.15
  -3   7  -6   10.77    0.84
   5  -7   6   31.99    1.51
   5   7   6   33.89    1.93
  -5   7  -6   34.42    1.60
  -5   7  -6   33.98    1.97
   8  -8  -6   10.17    0.80
   8  -8  -6   10.19    1.55
   8   8  -6    8.25    0.90
   6  -8  -6    5.83    1.19
  -6  -8   6    6.38    0.73
   6   8  -6    7.34    0.88
  -6   8   6    5.50    1.01
   4  -8  -6    6.92    1.22
  -4  -8   6    7.40    0.76
  -4   8   6    5.84    0.96
   4   8  -6    7.25    0.85
   2  -8  -6    0.96    0.58
  -2  -8   6    0.85    0.30
   2   8  -6    1.12    0.39
  -2   8   6    0.70    0.44
   0  -8  -6   19.73    1.90
   0  -8   6   23.79    1.22
   0   8   6   24.75    1.66
   0   8  -6   23.41    1.33
   2  -8   6    0.21    0.23
   4  -8   6   18.81    1.26
  16   0  -7    3.09    0.76
 -16   0   7    3.02    0.75
 -14   0   7  102.96    3.96
  14   0  -7  113.73    3.57
  12   0  -7    4.16    0.58
 -12   0   7    4.28    0.75
 -10   0   7  100.60    3.54
  10   0  -7   98.87    3.15
  -8   0   7   25.54    1.09
  -8   0   7   26.43    1.44
   8   0  -7   25.47    1.23
  -6   0   7   60.43    2.30
   6   0  -7   58.47    2.06
  -6   0   7   58.49    1.94
  -4   0   7   17.68    1.59
   4   0  -7   16.59    0.90
  -4   0   7   19.13    0.91
   2   0  -7   89.32    2.69
  -2   0   7   84.55    2.65
   0   0   7   28.05    1.23
   0   0  -7   28.42    1.56
   0   0  -7   28.57    1.19
   2   0   7   14.30    0.85
  -2   0  -7   14.21    1.16
   4   0   7   71.07    2.44
  -4   0  -7   73.07    2.97
   6   0   7   10.35    0.81
  -6   0  -7   11.51    1.27
  -8   0  -7   29.14    1.86
   8   0   7   29.55    1.43
 -15  -1   7   13.65    1.21
  15  -1  -7   12.51    0.98
  15   1  -7   15.17    1.05
 -15   1   7   15.85    1.34
 -13  -1   7   17.79    1.36
  13  -1  -7   22.85    1.25
 -13   1   7   22.09    1.51
  13   1  -7   22.53    1.24
 -11  -1   7   15.51    1.19
 -11  -1   7   18.13    0.93
  11  -1  -7   18.86    1.08
 -11   1   7   17.05    1.25
  11   1  -7   16.27    1.02
  -9  -1   7    9.74    0.86
   9  -1  -7    8.55    0.70
  -9  -1   7    7.71    0.60
  -9   1   7    8.00    0.94
   9   1  -7   10.05    0.74
  -7  -1   7   71.62    2.60
  -7  -1   7   67.53    2.24
   7  -1  -7   74.49    2.40
  -7   1   7   70.58    2.68
   7   1  -7   71.49    2.40
  -5  -1   7    0.43    0.22
   5  -1  -7    0.30    0.20
  -5   1   7    0.34    0.19
  -5   1   7    0.54    0.29
   5   1  -7    0.23    0.21
  -3  -1   7   70.01    2.26
   3  -1  -7   72.26    2.26
  -3   1   7   68.60    2.52
   3   1  -7   68.39    2.29
  -3   1   7   68.84    2.19
   1  -1  -7    2.06    0.35
   1  -1  -7    2.14    0.53
  -1  -1   7    1.03    0.28
   1   1  -7    1.15    0.29
  -1   1   7    2.10    0.36
  -1  -1  -7   36.10    1.86
   1  -1   7   39.76    1.52
  -1   1  -7   37.98    1.85
  -1   1  -7   36.56    1.42
   1   1   7   33.34    1.42
   3  -1   7    1.54    0.37
  -3  -1  -7    1.89    0.55
  -3   1  -7    1.68    0.53
   3   1   7    1.47    0.34
  -5  -1  -7   46.79    2.30
   5  -1   7   43.11    1.76
   5   1   7   44.51    1.78
  -5   1  -7   42.46    2.17
  -7  -1  -7   -0.20    0.35
   7  -1   7    0.04    0.22
   7   1   7    0.43    0.26
  -7   1  -7   -0.01    0.35
   9   1   7   25.63    1.44
  -9   1  -7   27.82    2.03
 -16  -2   7    0.04    0.35
 -16  -2   7   -0.02    0.39
  14  -2  -7   49.50    2.06
 -14  -2   7   48.68    2.40
 -14  -2   7   49.44    1.89
 -14   2   7   52.14    2.52
  14   2  -7   53.01    2.09
  12  -2  -7    0.24    0.24
 -12  -2   7    0.19    0.21
 -12  -2   7    0.10    0.26
  12   2  -7   -0.21    0.22
 -12   2   7    0.03    0.26
 -10  -2   7   51.94    1.89
 -10  -2   7   53.06    2.25
  10  -2  -7   52.22    1.98
  10   2  -7   53.26    2.02
 -10   2   7   51.55    2.37
   8  -2  -7    7.65    0.77
  -8  -2   7    6.07    0.62
   8   2  -7    7.57    0.77
  -8   2   7    6.33    0.86
  -6  -2   7   29.34    1.27
   6  -2  -7   33.89    1.38
  -6   2   7   29.26    1.58
   6   2  -7   30.45    1.36
  -4  -2   7    2.25    0.39
   4  -2  -7    2.09    0.37
  -4   2   7    1.61    0.44
   4   2  -7    1.98    0.38
  -2  -2   7   27.21    1.22
   2  -2  -7   29.91    1.19
   2  -2  -7   25.16    1.47
   2   2  -7   28.03    1.25
  -2   2   7   29.52    1.50
   0  -2  -7    9.05    1.06
   0  -2   7    8.40    0.65
   0   2   7    9.53    0.64
   0   2   7    8.35    0.91
   0   2  -7    7.11    0.59
  -2  -2  -7    6.34    0.92
   2  -2   7    7.25    0.71
   2   2   7    7.19    0.60
  -2   2  -7    7.93    0.99
  -2   2  -7    6.65    0.57
  -4  -2  -7   26.91    1.73
   4  -2   7   31.01    1.39
   4   2   7   28.06    1.30
  -4   2  -7   28.93    1.70
   6  -2   7    0.37    0.28
  -6  -2  -7    0.69    0.47
   6   2   7    0.64    0.28
  -6   2  -7    0.01    0.39
  -8  -2  -7   16.02    1.44
   8  -2   7   17.70    1.10
  -8   2  -7   18.33    1.43
   8   2   7   15.87    1.02
 -15  -3   7   33.62    1.50
 -15  -3   7   33.87    1.92
  15   3  -7   27.95    1.68
  13  -3  -7   44.38    1.86
 -13  -3   7   42.84    1.73
 -13  -3   7   44.19    2.13
 -13   3   7   40.96    2.22
  13   3  -7   42.66    1.85
 -11  -3   7   26.89    1.26
  11  -3  -7   28.56    1.38
  11   3  -7   28.05    1.39
 -11   3   7   26.48    1.67
  -9  -3   7   22.20    1.10
   9  -3  -7   21.19    1.13
   9   3  -7   21.07    1.17
  -9   3   7   21.75    1.44
   7  -3  -7   89.28    2.80
  -7  -3   7   86.94    2.76
   7   3  -7   86.80    2.86
  -7   3   7   86.50    3.25
   5  -3  -7    4.70    0.55
  -5  -3   7    3.40    0.49
   5   3  -7    2.51    0.43
  -5   3   7    3.70    0.66
  -3  -3   7  114.78    3.40
   3  -3  -7  112.02    3.28
   3  -3  -7  110.56    3.98
   3   3  -7  118.58    3.46
  -3   3   7  109.70    3.80
   1  -3  -7   15.45    1.16
  -1  -3   7   14.70    0.89
   1   3  -7   16.47    0.93
  -1   3   7   16.51    1.13
  -1  -3  -7   33.87    1.83
   1  -3   7   31.90    1.41
   1   3   7   34.27    1.68
  -1   3  -7   31.53    1.38
   3  -3   7    5.61    0.68
  -3  -3  -7    3.22    0.73
  -3   3  -7    4.51    0.79
  -3   3  -7    4.57    0.57
   5  -3   7   87.03    2.86
  -5  -3  -7   82.42    3.48
  -5   3  -7   81.43    3.30
   5   3   7   85.05    2.76
   7  -3   7    2.95    0.51
  -7  -3  -7    3.14    0.77
  -7   3  -7    5.29    0.93
   7   3   7    3.61    0.56
 -14  -4   7   47.72    1.96
  14   4  -7   48.35    2.09
 -12  -4   7    1.40    0.34
  12  -4  -7    1.39    0.41
  12   4  -7    1.47    0.42
 -12   4   7    1.02    0.49
  10  -4  -7   61.70    2.26
 -10  -4   7   65.36    2.25
  10   4  -7   60.89    2.31
 -10   4   7   59.77    2.71
  -8  -4   7   12.20    0.81
   8  -4  -7   15.27    0.91
  -8   4   7   12.97    1.12
   8   4  -7   12.06    0.88
  -6  -4   7   42.69    1.68
   6  -4  -7   43.82    1.68
  -6   4   7   41.21    2.06
   6   4  -7   43.04    1.75
  -4  -4   7    5.92    0.64
   4  -4  -7    6.67    0.65
  -4   4   7    7.50    1.00
   4   4  -7    6.78    0.70
  -2  -4   7   27.65    1.29
   2   4  -7   29.49    1.35
  -2   4   7   29.02    1.63
   0  -4  -7   15.23    1.22
   0  -4   7   19.07    1.04
   0   4  -7   18.35    1.02
   0   4   7   17.39    1.24
  -2  -4  -7   19.04    1.42
   2  -4   7   21.12    1.11
   2   4   7   19.21    1.29
  -2   4  -7   18.74    1.05
  -4  -4  -7   32.18    1.95
   4  -4   7   31.73    1.46
  -4   4  -7   28.98    1.38
  -4   4  -7   32.54    1.85
   6  -4   7    0.26    0.25
  -6  -4  -7    0.43    0.51
  -6   4  -7    1.27    0.55
 -11  -5   7    6.45    0.71
  11  -5  -7    6.76    0.74
 -11   5   7    5.06    0.90
  11   5  -7    7.37    0.86
  -9  -5   7    4.48    0.61
   9  -5  -7    4.06    0.58
   9   5  -7    2.76    0.51
  -9   5   7    2.55    0.67
   7  -5  -7   33.97    1.49
  -7  -5   7   34.46    1.53
   7   5  -7   37.16    1.63
  -7   5   7   36.75    1.98
  -5  -5   7   -0.07    0.19
  -5   5   7   -0.15    0.30
   5   5  -7   -0.11    0.19
  -3  -5   7   41.51    1.70
   3  -5  -7   41.67    2.49
  -3   5   7   42.45    2.12
   3   5  -7   42.31    1.75
  -1  -5   7    1.62    0.38
   1  -5  -7    1.21    0.59
  -1   5   7    1.81    0.53
   1   5  -7    1.31    0.35
  -1  -5  -7   11.41    1.29
   1  -5   7   11.87    0.84
  -1   5  -7   11.76    0.86
   1   5   7   11.69    1.26
   3  -5   7    0.07    0.21
  -3  -5  -7    0.37    0.40
  -3   5  -7    0.33    0.24
   3   5   7    0.31    0.32
   5  -5   7   31.20    1.52
  -5  -5  -7   34.62    2.09
   5   5   7   34.21    1.86
  -5   5  -7   33.66    1.54
  -5   5  -7   29.42    1.87
  10  -6  -7   52.20    2.08
  10   6  -7   50.34    2.30
  -8  -6   7   15.63    1.00
   8  -6  -7   17.33    1.03
  -8   6   7   16.67    1.40
   8   6  -7   18.10    1.13
  -6  -6   7   29.25    1.40
   6   6  -7   31.35    1.50
  -6   6   7   29.17    1.82
   4  -6  -7    7.58    1.23
  -4  -6   7    9.32    0.76
  -4   6   7   10.97    1.31
   4   6  -7    9.40    0.79
  -2  -6   7   44.04    1.79
   2  -6  -7   40.87    2.61
   2   6  -7   45.11    1.86
  -2   6   7   39.51    2.14
   0  -6   7   15.50    0.99
   0  -6  -7   12.76    1.77
   0   6   7   15.80    1.28
   0   6  -7   15.54    1.01
   2  -6   7   10.13    0.80
  -2   6  -7   10.21    0.83
   2   6   7    8.63    1.10
   4   6   7   35.71    2.00
  -4   6  -7   36.38    1.67
   9  -7  -7   12.54    0.92
   5  -7  -7    4.69    1.03
  -3  -7   7   40.38    1.94
   3  -7  -7   37.71    2.54
  -3   7   7   37.54    2.26
   1  -7  -7    6.14    1.23
  -1   7   7    7.21    1.11
 -14   0   8   28.36    1.84
 -12   0   8    5.93    0.92
  12   0  -8    5.62    0.74
 -10   0   8   75.42    3.03
  10   0  -8   78.87    2.73
   8   0  -8   13.11    0.89
  -6   0   8   74.04    2.40
   6   0  -8   72.45    2.51
  -4   0   8   10.73    0.73
   4   0  -8   10.31    0.76
  -2   0   8   77.22    2.55
   2   0  -8   78.59    2.57
   0   0   8    5.15    0.62
  -2   0  -8   66.70    2.95
   2   0   8   74.32    2.51
   4   0   8   11.88    0.87
  -4   0  -8   12.69    1.38
  -6   0  -8   15.43    1.73
 -13  -1   8   29.38    1.81
 -13   1   8   31.76    1.93
 -11  -1   8    0.74    0.40
  11  -1  -8    0.96    0.33
  11   1  -8    0.88    0.35
 -11   1   8    1.10    0.49
   9  -1  -8   49.65    1.94
  -9  -1   8   45.91    1.76
  -9   1   8   43.64    2.15
   9   1  -8   48.57    1.94
   7  -1  -8    4.28    0.60
  -7  -1   8    4.93    0.59
   7   1  -8    3.63    0.54
  -7   1   8    3.35    0.66
   5  -1  -8   14.88    0.92
  -5  -1   8   14.74    0.89
   5   1  -8   17.21    1.00
  -3  -1   8   40.24    1.60
   3  -1  -8   38.41    1.56
   3   1  -8   38.64    1.62
  -1  -1   8    6.79    0.73
   1   1  -8    7.44    0.63
  -1   1   8    8.33    0.66
   1  -1   8   19.20    1.07
  -1  -1  -8   20.08    2.23
   1   1   8   19.69    1.07
  -3  -1  -8    7.98    1.14
   3  -1   8    6.27    0.73
  -3   1  -8    7.19    1.03
   3   1   8    6.93    0.75
   5  -1   8   23.36    1.38
  -5  -1  -8   20.06    1.60
   5   1   8   20.75    1.20
  -5   1  -8   21.66    1.58
 -14  -2   8   17.18    1.36
  12  -2  -8    0.42    0.35
 -12  -2   8    0.19    0.23
  12   2  -8    0.28    0.51
 -12   2   8    0.39    0.38
 -10  -2   8   33.03    1.43
  10  -2  -8   29.52    1.49
 -10   2   8   31.91    1.84
  10   2  -8   32.20    1.54
   8  -2  -8    2.63    0.47
  -8  -2   8    1.90    0.40
  -8   2   8    1.33    0.48
   8   2  -8    1.88    0.44
  -6  -2   8   38.51    1.60
   6  -2  -8   40.29    1.65
   6   2  -8   40.41    1.70
  -6   2   8   38.55    1.95
  -4  -2   8    1.13    0.33
   4  -2  -8    1.26    0.32
   4   2  -8    2.06    0.43
  -4   2   8    1.70    0.51
  -2  -2   8   49.21    1.86
   2   2  -8   43.80    1.79
   0  -2   8    0.19    0.24
   0   2  -8    0.13    0.22
   2  -2   8   30.99    1.45
  -2  -2  -8   28.92    1.84
  -4  -2  -8    7.00    1.15
   4  -2   8    5.12    0.73
  -4   2  -8    4.71    0.85
   4   2   8    5.45    0.68
  -6   2  -8    9.98    1.87
   6   2   8    9.32    1.32
 -11  -3   8    9.59    0.77
  11  -3  -8    8.68    0.89
 -11   3   8    8.44    1.12
   9  -3  -8   70.51    2.53
  -9  -3   8   68.93    2.42
  -9   3   8   71.12    3.00
   9   3  -8   69.26    2.56
  -7  -3   8    7.82    0.78
   7  -3  -8   10.80    0.80
  -7   3   8    7.48    1.00
   7   3  -8   10.05    0.82
  -5  -3   8   27.62    1.32
   5  -3  -8   28.43    1.29
  -5   3   8   23.83    1.56
   5   3  -8   30.12    1.42
  -3  -3   8   53.55    2.01
  -3   3   8   53.44    2.37
   3   3  -8   49.33    1.98
  -1  -3   8   14.26    0.93
   1   3  -8   15.10    0.96
   1  -3   8   42.15    1.77
  -1  -3  -8   44.20    2.31
  -1   3  -8   40.59    1.71
  -3  -3  -8   19.19    1.56
   3  -3   8   15.89    1.20
  -5   3  -8   17.27    1.51
 -10  -4   8   32.47    1.66
  10  -4  -8   29.11    1.46
 -10   4   8   28.43    1.93
   8  -4  -8    7.23    0.79
  -8  -4   8    6.28    0.70
   8   4  -8    7.61    0.84
  -8   4   8    5.54    0.90
   6  -4  -8   43.58    1.93
  -6  -4   8   50.22    1.94
  -6   4   8   48.81    2.38
   6   4  -8   46.63    1.95
  -4  -4   8    5.53    0.67
  -4   4   8    5.66    0.89
   4   4  -8    6.34    0.76
  -2  -4   8   58.13    2.21
   2   4  -8   59.36    2.21
  -2   4   8   56.33    2.56
   0  -4   8    0.68    0.28
   0  -4  -8    0.45    0.43
   0   4   8    0.15    0.42
   0   4  -8    0.36    0.29
  -2  -4  -8   33.20    2.01
  -2   4  -8   28.79    1.43
   9  -5  -8   27.03    1.39
  -7   5   8    1.78    0.58
   5   5  -8    7.57    1.25
  -5   5   8    7.33    1.09
  -3   5   8   18.80    1.44
   3   5  -8   18.26    1.15
   1  -5  -8    3.45    0.78
   1   5  -8    3.46    0.60
  -1   5   8    4.15    0.81
  -1  -5  -8   10.07    1.43
  -1   5  -8   10.47    1.19
   1   5   8   12.64    1.16
   6   0  -9   24.09    1.30
   4   0  -9   23.75    1.26
  -2   0   9   39.69    1.68
   0   0   9    5.34    0.69
   7  -1  -9   -0.16    0.24
   7   1  -9    0.05    0.32
   5  -1  -9   42.43    1.76
  -5  -1   9   39.47    1.69
   5   1  -9   41.39    1.79
  -3  -1   9    2.12    0.46
   3   1  -9    1.69    0.41
  -1  -1   9   16.11    1.10
   8  -2  -9    3.58    0.75
  -8  -2   9    4.35    0.76
   6  -2  -9    7.27    0.78
  -6  -2   9    7.19    0.77
  -4  -2   9    7.63    0.85
   4   2  -9   10.39    0.84
   2   2  -9   18.42    1.12
   7  -3  -9    4.33    0.68
  -7   3   9    3.27    0.75
   0   0   0    0.00    0.00
;
_shelx_hkl_checksum              14142
loop_
_space_group_symop_operation_xyz
'x, y, z'
'-x, y, -z'
'x+1/2, y+1/2, z'
'-x+1/2, y+1/2, -z'
'-x, -y, -z'
'x, -y, z'
'-x+1/2, -y+1/2, -z'
'x+1/2, -y+1/2, z'
loop_
_atom_site_label
_atom_site_type_symbol
_atom_site_fract_x
_atom_site_fract_y
_atom_site_fract_z
_atom_site_U_iso_or_equiv
_atom_site_adp_type
_atom_site_occupancy
_atom_site_site_symmetry_order
_atom_site_calc_flag
_atom_site_refinement_flags_posn
_atom_site_refinement_flags_adp
_atom_site_refinement_flags_occupancy
Np1 Np 0.5000 0.5000 1.0000 0.01052(5) Uani 1 4 d S T P
Br1 Br 0.26801(2) 0.0000 0.82090(4) 0.02172(8) Uani 1 2 d S T P
Cl2 Cl 0.5000 0.19221(8) 1.0000 0.01574(14) Uani 1 2 d S T P
Cl1 Cl 0.33468(4) 0.5000 0.81109(11) 0.01733(14) Uani 1 2 d S T P
O1 O 0.53333(14) 0.5000 0.7717(3) 0.0174(4) Uani 1 2 d S T P
N1 N 0.40901(17) 0.0000 0.3040(4) 0.0174(5) Uani 1 2 d DS T P
C1 C 0.39076(14) 0.1367(2) 0.3788(3) 0.0181(4) Uani 1 1 d . . .
H1 H 0.4055 0.2308 0.3219 0.022 Uiso 1 1 calc R U .
C3 C 0.32934(18) 0.0000 0.6155(4) 0.0158(6) Uani 1 2 d S T P
C2 C 0.35083(13) 0.1404(3) 0.5377(3) 0.0177(4) Uani 1 1 d . . .
H2 H 0.3381 0.2363 0.5934 0.021 Uiso 1 1 calc R U .
HN1 H 0.432(2) 0.0000 0.198(4) 0.035(11) Uiso 1 2 d DS . P
loop_
_atom_site_aniso_label
_atom_site_aniso_U_11
_atom_site_aniso_U_22
_atom_site_aniso_U_33
_atom_site_aniso_U_23
_atom_site_aniso_U_13
_atom_site_aniso_U_12
Np1 0.01250(8) 0.00857(8) 0.01094(8) 0.000 0.00352(6) 0.000
Br1 0.01803(15) 0.03274(18) 0.01605(15) 0.000 0.00738(12) 0.000
Cl2 0.0217(3) 0.0089(3) 0.0179(3) 0.000 0.0072(3) 0.000
Cl1 0.0135(3) 0.0178(3) 0.0195(3) 0.000 0.0009(3) 0.000
O1 0.0212(11) 0.0157(10) 0.0166(10) 0.000 0.0072(8) 0.000
N1 0.0175(13) 0.0230(14) 0.0125(12) 0.000 0.0050(10) 0.000
C1 0.0176(10) 0.0164(10) 0.0199(10) 0.0023(8) 0.0031(8) -0.0017(8)
C3 0.0113(13) 0.0238(16) 0.0128(13) 0.000 0.0036(11) 0.000
C2 0.0145(10) 0.0189(11) 0.0185(10) -0.0029(8) 0.0010(8) 0.0010(8)
loop_
_atom_type_symbol
_atom_type_description
_atom_type_scat_dispersion_real
_atom_type_scat_dispersion_imag
_atom_type_scat_source
C C 0.0033 0.0016 'International Tables Vol C Tables 4.2.6.8 and 6.1.1.4'
H H 0.0000 0.0000 'International Tables Vol C Tables 4.2.6.8 and 6.1.1.4'
N N 0.0061 0.0033 'International Tables Vol C Tables 4.2.6.8 and 6.1.1.4'
O O 0.0106 0.0060 'International Tables Vol C Tables 4.2.6.8 and 6.1.1.4'
Cl Cl 0.1484 0.1585 'International Tables Vol C Tables 4.2.6.8 and 6.1.1.4'
Br Br -0.2901 2.4595 'International Tables Vol C Tables 4.2.6.8 and 6.1.1.4'
Np Np -11.4937 4.1493 'International Tables Vol C Tables 4.2.6.8 and 6.1.1.4'
loop_
_geom_angle_atom_site_label_1
_geom_angle_atom_site_label_2
_geom_angle_atom_site_label_3
_geom_angle
_geom_angle_site_symmetry_1
_geom_angle_site_symmetry_3
O1 Np1 O1 180.00(4) 5_667 .
O1 Np1 Cl1 90.61(7) 5_667 5_667
O1 Np1 Cl1 89.39(7) . 5_667
O1 Np1 Cl1 89.39(7) 5_667 .
O1 Np1 Cl1 90.61(7) . .
Cl1 Np1 Cl1 180.0 5_667 .
O1 Np1 Cl2 90.0 5_667 5_667
O1 Np1 Cl2 90.0 . 5_667
Cl1 Np1 Cl2 90.0 5_667 5_667
Cl1 Np1 Cl2 90.0 . 5_667
O1 Np1 Cl2 90.0 5_667 .
O1 Np1 Cl2 90.0 . .
Cl1 Np1 Cl2 90.0 5_667 .
Cl1 Np1 Cl2 90.0 . .
Cl2 Np1 Cl2 180.0 5_667 .
C1 N1 C1 122.9(3) . 6
C1 N1 HN1 118.51(15) . .
C1 N1 HN1 118.51(15) 6 .
N1 C1 C2 119.9(2) . .
N1 C1 H1 120.1 . .
C2 C1 H1 120.1 . .
C2 C3 C2 120.5(3) . 6
C2 C3 Br1 119.71(13) . .
C2 C3 Br1 119.71(13) 6 .
C1 C2 C3 118.4(2) . .
C1 C2 H2 120.8 . .
C3 C2 H2 120.8 . .
loop_
_geom_bond_atom_site_label_1
_geom_bond_atom_site_label_2
_geom_bond_distance
_geom_bond_site_symmetry_2
Np1 O1 1.757(2) 5_667
Np1 O1 1.757(2) .
Np1 Cl1 2.6444(7) 5_667
Np1 Cl1 2.6444(7) .
Np1 Cl2 2.6517(7) 5_667
Np1 Cl2 2.6518(7) .
Br1 C3 1.872(3) .
N1 C1 1.340(2) .
N1 C1 1.340(2) 6
N1 HN1 0.879(18) .
C1 C2 1.371(3) .
C1 H1 0.9500 .
C3 C2 1.393(3) .
C3 C2 1.393(3) 6
C2 H2 0.9500 .
loop_
_geom_torsion_atom_site_label_1
_geom_torsion_atom_site_label_2
_geom_torsion_atom_site_label_3
_geom_torsion_atom_site_label_4
_geom_torsion
_geom_torsion_site_symmetry_1
C1 N1 C1 C2 -0.7(4) 6
N1 C1 C2 C3 -0.8(3) .
C2 C3 C2 C1 2.3(4) 6
Br1 C3 C2 C1 -175.85(17) .
