#------------------------------------------------------------------------------
#$Date: 2017-06-30 01:32:30 +0300 (Fri, 30 Jun 2017) $
#$Revision: 198260 $
#$URL: file:///home/coder/svn-repositories/cod/cif/4/12/62/4126249.cif $
#------------------------------------------------------------------------------
#
# This file is available in the Crystallography Open Database (COD),
# http://www.crystallography.net/
#
# All data on this site have been placed in the public domain by the
# contributors.
#
data_4126249
loop_
_publ_author_name
'Jiang, Huiling'
'Lang, Kai'
'Lu, Hongjian'
'Wojtas, Lukasz'
'Zhang, X. Peter'
_publ_section_title
;
 Asymmetric Radical Bicyclization of Allyl Azidoformates via
 Cobalt(II)-Based Metalloradical Catalysis.
;
_journal_name_full               'Journal of the American Chemical Society'
_journal_paper_doi               10.1021/jacs.7b05778
_journal_year                    2017
_chemical_absolute_configuration ad
_chemical_formula_moiety         'C11 H12 N2 O5'
_chemical_formula_sum            'C11 H12 N2 O5'
_chemical_formula_weight         252.23
_space_group_crystal_system      monoclinic
_space_group_IT_number           4
_space_group_name_Hall           'P 2yb'
_space_group_name_H-M_alt        'P 1 21 1'
_symmetry_space_group_name_Hall  'P 2yb'
_symmetry_space_group_name_H-M   'P 1 21 1'
_atom_sites_solution_hydrogens   mixed
_atom_sites_solution_primary     direct
_atom_sites_solution_secondary   difmap
_audit_creation_method           SHELXL-2014/7
_cell_angle_alpha                90
_cell_angle_beta                 92.841(2)
_cell_angle_gamma                90
_cell_formula_units_Z            2
_cell_length_a                   6.4316(5)
_cell_length_b                   8.2971(6)
_cell_length_c                   11.1074(8)
_cell_measurement_reflns_used    7387
_cell_measurement_temperature    100(2)
_cell_measurement_theta_max      66.81
_cell_measurement_theta_min      6.66
_cell_volume                     592.00(8)
_computing_cell_refinement       'SAINT (Bruker, 2014)'
_computing_data_collection       'APEX2 (Bruker, 2014)'
_computing_data_reduction        'SAINT (Bruker, 2014)'
_computing_molecular_graphics    'Bruker SHELXTL'
_computing_publication_material  'Bruker SHELXTL'
_computing_structure_refinement  'SHELXL-2014 (Sheldrick, 2014)'
_computing_structure_solution    'SHELXL-2014 (Sheldrick, 2014)'
_diffrn_ambient_temperature      100(2)
_diffrn_measured_fraction_theta_full 0.996
_diffrn_measured_fraction_theta_max 0.996
_diffrn_measurement_device_type  'Bruker Kappa DUO CCD diffractometer'
_diffrn_measurement_method       '\f and \w scans'
_diffrn_radiation_monochromator  mirrors
_diffrn_radiation_type           CuK\a
_diffrn_radiation_wavelength     1.54178
_diffrn_reflns_av_R_equivalents  0.0283
_diffrn_reflns_av_unetI/netI     0.0228
_diffrn_reflns_Laue_measured_fraction_full 0.996
_diffrn_reflns_Laue_measured_fraction_max 0.996
_diffrn_reflns_limit_h_max       7
_diffrn_reflns_limit_h_min       -7
_diffrn_reflns_limit_k_max       9
_diffrn_reflns_limit_k_min       -9
_diffrn_reflns_limit_l_max       13
_diffrn_reflns_limit_l_min       -13
_diffrn_reflns_number            7795
_diffrn_reflns_point_group_measured_fraction_full 0.992
_diffrn_reflns_point_group_measured_fraction_max 0.992
_diffrn_reflns_theta_full        66.799
_diffrn_reflns_theta_max         66.799
_diffrn_reflns_theta_min         6.663
_diffrn_source                   'microfocus sealed tube'
_diffrn_source_type              'Incoatec I\uS'
_exptl_absorpt_coefficient_mu    0.967
_exptl_absorpt_correction_T_max  0.7528
_exptl_absorpt_correction_T_min  0.6016
_exptl_absorpt_correction_type   multi-scan
_exptl_absorpt_process_details
;
Sheldrick, G.M. (2013). SADABS. Bruker AXS Inc. Madison, WI USA.
;
_exptl_crystal_colour            colorless
_exptl_crystal_density_diffrn    1.415
_exptl_crystal_density_meas      ?
_exptl_crystal_density_method    none
_exptl_crystal_description       plate
_exptl_crystal_F_000             264
_exptl_crystal_size_max          0.520
_exptl_crystal_size_mid          0.360
_exptl_crystal_size_min          0.080
_refine_diff_density_max         0.203
_refine_diff_density_min         -0.153
_refine_diff_density_rms         0.033
_refine_ls_abs_structure_details
;
 Flack x determined using 957 quotients [(I+)-(I-)]/[(I+)+(I-)]
 (Parsons, Flack and Wagner, Acta Cryst. B69 (2013) 249-259).
;
_refine_ls_abs_structure_Flack   -0.01(4)
_refine_ls_extinction_method     none
_refine_ls_goodness_of_fit_ref   1.025
_refine_ls_hydrogen_treatment    mixed
_refine_ls_matrix_type           full
_refine_ls_number_parameters     168
_refine_ls_number_reflns         2094
_refine_ls_number_restraints     1
_refine_ls_restrained_S_all      1.025
_refine_ls_R_factor_all          0.0257
_refine_ls_R_factor_gt           0.0256
_refine_ls_shift/su_max          0.000
_refine_ls_shift/su_mean         0.000
_refine_ls_structure_factor_coef Fsqd
_refine_ls_weighting_details
'w=1/[\s^2^(Fo^2^)+(0.0482P)^2^+0.0905P] where P=(Fo^2^+2Fc^2^)/3'
_refine_ls_weighting_scheme      calc
_refine_ls_wR_factor_gt          0.0706
_refine_ls_wR_factor_ref         0.0707
_reflns_Friedel_coverage         0.855
_reflns_Friedel_fraction_full    0.989
_reflns_Friedel_fraction_max     0.989
_reflns_number_gt                2089
_reflns_number_total             2094
_reflns_threshold_expression     'I > 2\s(I)'
_cod_data_source_file            ja7b05778_si_002.cif
_cod_data_source_block           C11H12N2O5
_cod_depositor_comments
;
The following automatic conversions were performed:

'_exptl_crystal_density_meas' value 'not measured' was changed to '?'
- the value is perceived as not measured.

Automatic conversion script
Id: cif_fix_values 4973 2017-02-22 13:04:09Z antanas 
;
_cod_database_code               4126249
_shelx_shelxl_version_number     2014/7
_shelx_space_group_comment
;
The symmetry employed for this shelxl refinement is uniquely defined
by the following loop, which should always be used as a source of
symmetry information in preference to the above space-group names.
They are only intended as comments.
;
_shelx_estimated_absorpt_t_min   0.633
_shelx_estimated_absorpt_t_max   0.927
_shelx_res_file
;

    sad_a.res created by SHELXL-2014/7


TITL sad_a.res in P2(1)
CELL  1.54178   6.4316   8.2971  11.1074   90.000   92.841   90.000
ZERR   2.000   0.0005   0.0006   0.0008    0.000    0.002    0.000
LATT -1
SYMM -X, 1/2+Y, -Z
SFAC C  H  N  O
UNIT 22 24 4 10
L.S. 10
BOND $H
FMAP 2
PLAN 20
SIZE 0.52 0.36 0.08
TEMP -173
CONF
EQIV $1 -x+1, y+1/2, -z+1
HTAB N2 O5_$1
ACTA
WGHT    0.048200    0.090500
FVAR       1.54894
O1    4    0.228197    0.860310    0.832978    11.00000    0.01820    0.02665 =
         0.04858    0.00219    0.00622    0.00334
O2    4    0.510322    0.999091    0.826330    11.00000    0.02963    0.01714 =
         0.08355   -0.00305    0.01600   -0.00374
O3    4    1.082378    0.294524    0.812162    11.00000    0.01349    0.02769 =
         0.01825    0.00210   -0.00076   -0.00052
O4    4    0.827755    0.002855    0.560898    11.00000    0.02161    0.01796 =
         0.02439   -0.00152    0.00128    0.00212
O5    4    0.501147    0.050057    0.486490    11.00000    0.02407    0.02370 =
         0.02961   -0.00453   -0.00538   -0.00394
N1    3    0.416821    0.871452    0.823176    11.00000    0.02080    0.02155 =
         0.03060    0.00290    0.00332    0.00048
N2    3    0.721111    0.255708    0.548799    11.00000    0.01864    0.01645 =
         0.02254   -0.00064   -0.00477    0.00138
H2N   2    0.637315    0.336785    0.541801    11.00000    0.02710
C1    1    0.535263    0.721932    0.807049    11.00000    0.01704    0.02062 =
         0.01984   -0.00046   -0.00122    0.00154
C2    1    0.738805    0.733812    0.770942    11.00000    0.01968    0.01949 =
         0.02058    0.00172   -0.00071   -0.00573
AFIX  43
H2    2    0.800404    0.835789    0.757109    11.00000   -1.20000
AFIX   0
C3    1    0.848374    0.592892    0.755855    11.00000    0.01332    0.02400 =
         0.01916   -0.00013    0.00061   -0.00266
AFIX  43
H3    2    0.987310    0.598070    0.730789    11.00000   -1.20000
AFIX   0
C4    1    0.759053    0.443204    0.776693    11.00000    0.01639    0.02104 =
         0.01433    0.00035   -0.00197   -0.00121
C5    1    0.555388    0.435949    0.813023    11.00000    0.01568    0.01960 =
         0.02479    0.00230   -0.00038   -0.00285
AFIX  43
H5    2    0.493360    0.334251    0.827280    11.00000   -1.20000
AFIX   0
C6    1    0.442368    0.575765    0.828569    11.00000    0.01344    0.02439 =
         0.02591    0.00128    0.00131   -0.00151
AFIX  43
H6    2    0.303385    0.571039    0.853600    11.00000   -1.20000
AFIX   0
C7    1    0.880111    0.290357    0.754686    11.00000    0.01230    0.01977 =
         0.02057    0.00253   -0.00073   -0.00245
AFIX  13
H7    2    0.801947    0.195772    0.785154    11.00000   -1.20000
AFIX   0
C8    1    0.916146    0.266720    0.620752    11.00000    0.01441    0.01760 =
         0.02047    0.00227   -0.00060   -0.00161
AFIX  13
H8    2    1.005799    0.354676    0.590153    11.00000   -1.20000
AFIX   0
C9    1    1.008255    0.101786    0.594762    11.00000    0.01729    0.02425 =
         0.02361   -0.00089    0.00162    0.00188
AFIX  23
H9A   2    1.104625    0.108116    0.528134    11.00000   -1.20000
H9B   2    1.084241    0.057845    0.667197    11.00000   -1.20000
AFIX   0
C10   1    0.665919    0.101834    0.528333    11.00000    0.02151    0.01921 =
         0.01713   -0.00034    0.00145    0.00052
C11   1    1.081910    0.261376    0.937441    11.00000    0.02213    0.03660 =
         0.02014    0.00144   -0.00238    0.00249
AFIX 137
H11A  2    1.001864    0.344589    0.977306    11.00000   -1.50000
H11B  2    1.225327    0.260868    0.971640    11.00000   -1.50000
H11C  2    1.018216    0.155772    0.949922    11.00000   -1.50000
AFIX   0
HKLF 4

REM  sad_a.res in P2(1)
REM R1 =  0.0256 for    2089 Fo > 4sig(Fo)  and  0.0257 for all    2094 data
REM    168 parameters refined using      1 restraints

END

WGHT      0.0445      0.0992

REM Highest difference peak  0.203,  deepest hole -0.153,  1-sigma level  0.033
Q1    1   0.8150  0.3654  0.7766  11.00000  0.05    0.20
Q2    1   0.8898  0.2795  0.6856  11.00000  0.05    0.17
Q3    1   0.7310  0.2011  0.4896  11.00000  0.05    0.15
Q4    1   0.9659  0.1876  0.6132  11.00000  0.05    0.14
Q5    1   0.7821  0.5176  0.7351  11.00000  0.05    0.14
Q6    1   0.6842  0.4408  0.8327  11.00000  0.05    0.13
Q7    1   0.6507  0.7272  0.8206  11.00000  0.05    0.13
Q8    1   1.1241  0.3984  0.8001  11.00000  0.05    0.13
Q9    1   0.5104  0.0815  0.5559  11.00000  0.05    0.12
Q10   1   0.9718  0.3355  0.6097  11.00000  0.05    0.12
Q11   1   0.6519  0.4431  0.7670  11.00000  0.05    0.12
Q12   1   0.5110  0.6642  0.8544  11.00000  0.05    0.12
Q13   1   0.8129  0.6561  0.7982  11.00000  0.05    0.12
Q14   1   0.7563  0.0927  0.7363  11.00000  0.05    0.12
Q15   1   0.8274  0.5144  0.8053  11.00000  0.05    0.11
Q16   1   0.7823 -0.0788  0.6016  11.00000  0.05    0.11
Q17   1   0.1954  0.7428  0.7996  11.00000  0.05    0.11
Q18   1   0.4474  0.6528  0.7859  11.00000  0.05    0.11
Q19   1   0.6267  0.7211  0.7629  11.00000  0.05    0.11
Q20   1   0.5330  0.5133  0.8536  11.00000  0.05    0.10
;
_shelx_res_checksum              11547
_shelx_hkl_file
;
  -1   0   0   89.89    3.60
   1   0   0   94.99    3.60
  -2   0   0 1320.27   48.80
  -2   0   0 1295.97   47.90
  -2   0   0 1221.18   47.80
  -2   0   0 1339.07   48.80
   2   0   0 1394.26   47.80
   2   0   0 1331.97   47.60
  -3   0   0 2974.70  104.99
  -3   0   0 2716.43  102.09
  -3   0   0 2967.80  103.79
  -3   0   0 2799.12  104.79
   3   0   0 2803.32  102.39
   3   0   0 2748.12  102.59
  -4   0   0  801.42   31.30
  -4   0   0  901.71   32.30
   4   0   0  849.61   31.50
   4   0   0  898.11   31.60
  -5   0   0  395.86   16.00
   5   0   0  381.96   15.00
   5   0   0  416.56   15.30
  -6   0   0   83.89    3.80
  -6   0   0   85.49    3.70
  -6   0   0   84.69    3.40
   6   0   0   87.19    3.40
   6   0   0   88.19    4.30
  -7   0   0    0.60    0.60
  -7   0   0    1.10    0.30
   7   0   0    0.60    0.30
   7  -1   0  152.88    5.70
   7  -1   0  147.79    5.70
  -7   1   0  151.08    5.60
  -7   1   0  150.18    5.80
  -7   1   0  147.19    5.90
   6  -1   0    7.50    1.40
   6  -1   0    7.70    0.70
  -6   1   0    6.40    0.90
  -6   1   0    7.30    0.70
  -6   1   0    6.40    0.90
   5  -1   0  194.18    7.20
   5  -1   0  190.28    7.70
   5  -1   0  199.78    8.20
  -5   1   0  184.88    8.50
  -5   1   0  196.28    7.40
   4  -1   0  134.49    5.70
   4  -1   0  133.39    5.40
  -4   1   0  132.99    6.00
  -4   1   0  139.39    5.20
   3  -1   0  264.27    9.40
   3  -1   0  223.78    9.20
  -3   1   0  251.97    9.10
  -3   1   0  245.08    9.80
   2  -1   0  903.81   32.80
   2  -1   0  920.31   32.50
  -2   1   0  851.61   32.70
  -2   1   0  917.31   32.80
   1  -1   0 1307.07   46.30
  -1   1   0 1241.18   46.80
   0  -1   0    0.20    0.20
   0   1   0    0.10    0.20
   1   1   0 1373.76   50.09
  -2  -1   0  921.61   33.90
  -2  -1   0  939.41   34.10
  -2  -1   0  918.41   33.90
   2   1   0  931.11   33.70
  -3  -1   0  254.17    9.90
  -3  -1   0  263.67   10.20
  -3  -1   0  249.18    9.90
   3   1   0  242.18    9.40
   3   1   0  239.98    9.70
  -4  -1   0  136.29    6.30
  -4  -1   0  137.89    6.10
  -4  -1   0  130.49    6.20
   4   1   0  136.19    5.40
  -5  -1   0  190.48    8.40
  -6  -1   0    7.10    0.90
  -6  -1   0    6.70    0.80
  -6  -1   0    7.50    0.90
   6   1   0    7.50    1.10
  -7  -1   0  155.58    5.70
  -7  -1   0  146.69    5.80
   7   1   0  136.49    5.50
   7  -2   0   48.80    2.10
   7  -2   0   47.00    2.00
  -7   2   0   47.40    2.40
  -7   2   0   50.29    2.00
  -7   2   0   47.20    2.10
   6  -2   0 1637.04   59.19
   6  -2   0 1565.74   57.89
   6  -2   0 1633.34   57.89
  -6   2   0 1571.04   57.99
  -6   2   0 1539.25   58.19
  -6   2   0 1660.83   57.79
   5  -2   0  396.16   15.00
   5  -2   0  369.86   14.20
   5  -2   0  376.66   13.70
  -5   2   0  367.26   13.80
  -5   2   0  351.46   14.90
   4  -2   0  241.68    9.20
   4  -2   0  225.28    9.60
   4  -2   0  234.58    9.40
  -4   2   0  236.48    9.70
  -4   2   0  244.78    8.80
   3  -2   0 1331.97   45.70
   3  -2   0 1167.98   45.60
  -3   2   0 1280.47   45.40
  -3   2   0 1250.07   46.00
   2  -2   0 1058.59   38.80
   2  -2   0 1126.09   38.60
   2  -2   0 1056.69   38.40
  -2   2   0 1045.00   38.30
  -2   2   0 1016.40   38.60
   1  -2   0 4345.57  155.48
   1  -2   0 4102.19  154.38
  -1   2   0 4364.76  156.28
   0  -2   0  176.98    6.90
   0  -2   0  178.98    6.60
   0   2   0  157.18    6.60
   0   2   0  168.98    6.60
  -1  -2   0 4171.48  150.28
  -1  -2   0 4242.88  150.78
  -1  -2   0 4130.59  151.28
   1   2   0 3932.41  149.59
  -2  -2   0 1125.39   39.50
  -2  -2   0 1063.79   39.10
  -2  -2   0 1091.69   39.20
   2   2   0 1072.69   38.80
   2   2   0 1002.70   39.20
  -3  -2   0 1311.17   46.90
  -3  -2   0 1180.68   47.10
  -3  -2   0 1305.37   46.40
  -4  -2   0  220.98    9.90
  -4  -2   0  231.18    9.60
   4   2   0  242.38    9.90
  -5  -2   0  365.36   14.60
   5   2   0  357.06   15.10
  -6  -2   0 1566.64   57.09
  -6  -2   0 1560.74   56.99
  -6  -2   0 1597.14   57.09
  -7  -2   0   48.80    2.10
  -7  -2   0   47.10    2.30
   7  -3   0   10.00    0.70
   7  -3   0    8.70    0.90
  -7   3   0    9.70    0.60
  -7   3   0   11.00    1.10
   6  -3   0    7.40    0.80
   6  -3   0    7.70    0.80
   6  -3   0    8.50    1.50
  -6   3   0    9.20    1.30
  -6   3   0    8.60    0.70
   5  -3   0  589.14   22.40
   5  -3   0  599.64   21.20
   5  -3   0  576.14   21.10
   5  -3   0  556.84   21.20
  -5   3   0  582.24   21.00
  -5   3   0  576.94   21.20
  -5   3   0  565.24   21.50
   4  -3   0  784.82   28.90
   4  -3   0  775.12   29.50
   4  -3   0  780.52   28.50
   4  -3   0  778.42   28.90
  -4   3   0  804.52   28.50
   3  -3   0   76.79    3.80
   3  -3   0   84.79    3.40
   3  -3   0   77.89    3.50
  -3   3   0   82.99    3.10
   2  -3   0 1162.38   42.40
   2  -3   0 1199.58   42.50
  -2   3   0 1172.58   42.30
  -2   3   0 1147.49   43.00
   1  -3   0 1670.43   59.79
   1  -3   0 1688.13   60.09
   1  -3   0 1656.23   59.79
   1  -3   0 1671.73   60.19
  -1   3   0 1601.94   59.89
  -1   3   0 1673.93   60.09
  -1   3   0 1628.84   59.69
   0  -3   0    1.20    0.60
   0  -3   0    0.00    0.40
   0  -3   0    0.90    0.90
   0   3   0    0.10    0.40
   0   3   0    0.70    0.50
  -1  -3   0 1756.12   63.49
  -1  -3   0 1884.11   63.59
  -1  -3   0 1756.32   63.59
   1   3   0 1593.44   63.59
   1   3   0 1728.53   62.89
  -2  -3   0 1184.28   43.50
   2   3   0 1167.48   43.20
  -3  -3   0   79.89    4.30
  -4  -3   0  719.33   27.80
  -5  -3   0  565.84   20.90
  -5  -3   0  569.74   21.00
  -6  -3   0    8.70    0.90
  -6  -3   0    6.40    0.80
  -7  -3   0    9.60    1.00
  -7  -3   0    8.50    0.70
  -7   4   0   68.49    2.60
   6  -4   0   45.70    2.20
   6  -4   0   44.10    2.00
   6  -4   0   45.40    2.00
  -6   4   0   47.70    2.50
  -6   4   0   47.20    1.90
   5  -4   0 1042.00   37.70
   5  -4   0 1076.49   37.70
   5  -4   0 1016.70   37.80
  -5   4   0 1033.80   37.60
  -5   4   0 1011.20   37.70
  -5   4   0 1059.99   37.60
  -5   4   0 1033.50   38.10
   4  -4   0  153.88    6.50
   4  -4   0  164.98    6.70
   4  -4   0  162.68    6.10
  -4   4   0  162.88    6.10
   3  -4   0  666.53   25.00
   3  -4   0  676.53   25.10
  -3   4   0  696.83   24.70
   2  -4   0  477.35   18.00
  -2   4   0  495.35   17.70
   1  -4   0  376.56   15.00
   1  -4   0  404.86   14.70
   1  -4   0  403.56   15.30
  -1   4   0  411.06   14.50
  -1   4   0  385.26   14.80
   0  -4   0 3705.13  135.19
   0  -4   0 3576.54  132.59
   0  -4   0 3673.53  133.69
   0  -4   0 3744.03  133.59
   0   4   0 3656.43  134.09
   0   4   0 3715.83  132.99
  -1  -4   0  390.56   15.60
  -1  -4   0  388.06   14.70
  -1  -4   0  399.46   16.30
   1   4   0  414.46   15.20
   1   4   0  404.36   14.60
  -2  -4   0  464.35   17.90
   2   4   0  448.06   16.70
  -3  -4   0  661.83   25.90
   3   4   0  676.73   24.40
  -4  -4   0  155.28    7.70
  -5  -4   0  990.90   36.10
  -6  -4   0   47.40    2.30
   6  -5   0   95.59    3.80
   6  -5   0  100.99    4.00
  -6   5   0   95.39    3.70
   5  -5   0    3.10    0.60
   5  -5   0    4.50    0.80
   5  -5   0    4.10    0.60
  -5   5   0    4.00    0.50
  -5   5   0    4.70    0.50
  -5   5   0    3.70    0.80
   4  -5   0  112.39    4.60
   4  -5   0  110.09    5.00
   4  -5   0  109.69    4.50
  -4   5   0  115.29    4.90
  -4   5   0  109.39    4.30
  -4   5   0  111.39    4.40
  -4   5   0  110.89    4.40
   3  -5   0   36.80    2.30
  -3   5   0   38.90    1.70
   2  -5   0  458.55   17.50
  -2   5   0  477.45   17.10
   1  -5   0  135.19    5.50
  -1   5   0  138.59    5.20
   0  -5   0    1.60    0.90
   0  -5   0    2.60    0.60
   0   5   0    2.90    0.70
   0   5   0    1.10    0.90
  -1  -5   0  125.49    5.20
  -1  -5   0  132.89    6.30
   1   5   0  130.09    5.10
   1   5   0  131.29    5.80
   1   5   0  137.09    5.80
  -2  -5   0  435.56   17.40
   2   5   0  420.16   16.50
   2   5   0  431.96   16.80
   2   5   0  435.96   15.90
  -3  -5   0   36.00    3.10
   3   5   0   35.30    1.80
   3   5   0   36.90    2.30
   3   5   0   34.90    2.50
  -4  -5   0  109.29    4.40
  -4  -5   0  108.89    4.60
   4   5   0  108.59    4.80
  -5  -5   0    4.30    0.70
  -6  -5   0  101.99    4.10
   6  -6   0  121.99    4.60
   6  -6   0  126.99    4.50
  -6   6   0  108.49    4.40
   5  -6   0  159.88    6.10
   5  -6   0  159.88    6.00
  -5   6   0  154.68    5.80
  -5   6   0  145.19    5.80
   4  -6   0  225.88    8.50
   4  -6   0  216.98    8.30
  -4   6   0  214.28    8.20
   3  -6   0  299.07   11.00
   3  -6   0  295.07   11.40
   3  -6   0  290.77   10.90
  -3   6   0  277.67   10.80
  -3   6   0  293.57   10.80
   2  -6   0    2.60    1.00
  -2   6   0    2.40    0.50
   1  -6   0  980.00   36.10
  -1   6   0  988.70   35.70
   0  -6   0  640.64   23.30
   0   6   0  610.44   23.70
   0   6   0  628.54   22.90
   0   6   0  653.13   23.00
   0   6   0  612.34   24.00
   1   6   0  960.60   35.10
   1   6   0  933.61   35.00
   1   6   0  915.91   33.90
   1   6   0  934.71   34.00
  -2  -6   0    2.00    1.10
   2   6   0    1.60    0.50
   2   6   0    2.30    0.90
   2   6   0    2.80    0.60
   2   6   0    2.30    1.20
  -3  -6   0  299.07   11.20
  -3  -6   0  285.77   11.00
   3   6   0  299.87   11.90
   3   6   0  289.47   11.00
  -4  -6   0  208.08    8.20
  -4  -6   0  213.08    7.90
   4   6   0  205.08    8.50
  -5  -6   0  149.88    5.70
  -5  -6   0  148.89    5.90
  -6  -6   0  116.09    4.50
   5  -7   0    5.70    0.70
   5  -7   0    6.00    0.60
  -5   7   0    5.30    0.50
   4  -7   0   94.29    3.80
   4  -7   0   96.89    4.00
  -4   7   0   90.79    3.70
   3  -7   0    5.70    0.70
   3  -7   0    6.80    0.90
   3  -7   0    5.20    0.70
  -3   7   0    6.30    0.70
   2  -7   0  149.59    6.40
   2  -7   0  153.08    6.00
   2  -7   0  150.38    5.90
  -2   7   0  149.49    5.80
  -2   7   0  152.58    5.90
   1  -7   0   75.29    3.10
   1  -7   0   73.09    3.60
   1  -7   0   71.99    3.30
   1  -7   0   75.39    3.20
  -1   7   0   78.99    3.20
  -1   7   0   76.49    3.20
   0  -7   0   14.10    1.10
   0   7   0   19.90    1.10
   0   7   0   14.80    1.30
   0   7   0   16.50    1.20
  -1  -7   0   70.69    3.10
  -1  -7   0   74.99    3.40
  -1  -7   0   70.29    3.10
   1   7   0   71.69    3.10
   1   7   0   70.69    3.10
   1   7   0   76.49    4.30
   1   7   0   78.39    3.10
   1   7   0   71.39    3.00
  -2  -7   0  147.09    5.90
  -2  -7   0  141.59    5.80
  -2  -7   0  154.98    6.10
   2   7   0  162.58    7.10
   2   7   0  145.59    5.90
   2   7   0  155.18    5.80
  -3  -7   0    8.10    1.00
  -3  -7   0   11.10    1.30
   3   7   0    6.60    0.90
   3   7   0    6.90    1.50
  -4  -7   0   91.19    3.80
  -4  -7   0   92.49    3.60
   4   7   0   85.29    3.50
   4   7   0   87.29    4.20
  -5  -7   0    6.60    0.90
  -5  -7   0    5.50    0.70
   4  -8   0   81.69    3.40
  -4   8   0   86.29    3.30
   3  -8   0   16.40    1.30
   3  -8   0   16.50    1.10
  -3   8   0   16.60    1.00
   2  -8   0  104.09    4.10
   2  -8   0   96.79    4.20
  -2   8   0  108.09    4.10
   1  -8   0   81.69    4.00
   1  -8   0   99.19    3.80
   1  -8   0   96.99    3.80
  -1   8   0   95.19    3.80
   0  -8   0  281.47   10.50
   0  -8   0  287.97   10.90
   0  -8   0  289.17   10.60
   0   8   0  281.17   10.50
   0   8   0  280.47   10.60
  -1  -8   0   91.19    3.70
  -1  -8   0   95.39    4.10
   1   8   0   91.39    3.70
   1   8   0   91.89    3.70
   1   8   0   93.29    3.70
  -2  -8   0  109.69    4.50
  -2  -8   0  102.09    4.10
  -2  -8   0  105.29    4.20
   2   8   0   98.79    5.20
   2   8   0  106.09    4.10
   2   8   0  108.69    4.10
  -3  -8   0   17.90    1.10
  -3  -8   0   18.60    1.50
   3   8   0   17.80    1.10
   3   8   0   18.60    1.10
  -4  -8   0   93.19    3.40
  -4  -8   0   85.79    3.60
   4   8   0   82.09    3.30
   3  -9   0   22.50    1.00
   3  -9   0   19.20    1.10
  -3   9   0   17.40    0.90
   2  -9   0   33.60    1.60
  -2   9   0   35.10    1.60
   1  -9   0   43.30    2.20
   1  -9   0   41.20    1.80
  -1   9   0   42.50    1.90
   0  -9   0    1.10    0.70
   0  -9   0    0.20    0.30
   0   9   0    0.70    0.50
  -1  -9   0   40.40    1.90
  -1  -9   0   44.00    2.20
   1   9   0   39.60    1.80
   1   9   0   43.70    1.80
  -2  -9   0   32.00    1.50
  -2  -9   0   34.30    1.80
  -2  -9   0   33.10    1.50
   2   9   0   31.70    1.50
   2   9   0   36.40    1.50
  -3  -9   0   21.60    1.30
  -3  -9   0   22.70    1.10
   3   9   0   22.40    1.10
   3   9  -1    7.80    0.70
  -3  -9   1    8.10    0.80
  -3  -9   1    9.00    0.90
   2   9  -1   11.40    0.80
   2   9  -1   11.40    0.80
  -2  -9   1   10.20    0.80
  -2  -9   1   11.50    0.90
  -2  -9   1   10.70    1.20
   1   9  -1   76.99    3.20
   1   9  -1   80.89    3.10
  -1  -9   1   80.09    3.50
  -1  -9   1   82.59    3.20
   0   9  -1   61.59    2.60
   0  -9   1   67.59    2.70
   0  -9   1   63.19    2.90
   0  -9   1   60.09    2.50
  -1   9  -1  208.48    7.60
   1  -9   1  203.68    7.50
   1  -9   1  190.38    7.70
  -2   9  -1   43.80    1.90
   2  -9   1   44.50    1.90
  -3   9  -1    7.80    0.80
   3  -9   1   10.70    0.70
  -4  -8   1  113.99    4.50
  -4  -8   1  114.19    4.40
   3   8  -1  137.49    5.30
   3   8  -1  137.39    5.30
  -3  -8   1  134.29    5.30
  -3  -8   1  145.49    5.60
  -3  -8   1  138.29    5.40
   2   8  -1  144.09    5.70
   2   8  -1  148.29    5.60
   2   8  -1  145.19    6.80
  -2  -8   1  150.38    6.00
  -2  -8   1  147.69    5.70
  -2  -8   1  153.38    5.70
   1   8  -1  125.89    4.90
   1   8  -1  128.79    4.90
   1   8  -1  125.09    4.90
  -1  -8   1  121.39    5.20
  -1  -8   1  127.19    5.00
   0   8  -1   34.20    1.80
   0   8  -1   36.20    1.70
   0  -8   1   36.40    1.70
   0  -8   1   37.10    2.10
   0  -8   1   37.90    1.80
  -1   8  -1  116.19    4.80
   1  -8   1  123.09    4.80
   1  -8   1  126.39    4.80
  -2   8  -1   35.90    1.80
   2  -8   1   36.40    1.80
  -3   8  -1   93.09    3.70
   3  -8   1   89.39    3.90
   3  -8   1   97.59    3.70
  -4   8  -1   20.90    1.10
   4  -8   1   20.20    1.10
   4  -8   1   21.30    1.20
  -5  -7   1   27.00    1.30
  -5  -7   1   25.90    1.40
   4   7  -1   73.49    3.00
   4   7  -1   76.09    3.80
  -4  -7   1   79.39    3.20
  -4  -7   1   77.09    3.40
   3   7  -1  279.87   11.10
   3   7  -1  262.87    9.90
  -3  -7   1  269.07   10.00
  -3  -7   1  250.17    9.90
  -3  -7   1  264.67   10.20
   2   7  -1  251.67   10.80
   2   7  -1  263.27    9.60
  -2  -7   1  256.17    9.80
  -2  -7   1  258.67    9.70
  -2  -7   1  248.78    9.60
   1   7  -1  213.18    9.20
   1   7  -1  201.98    7.80
   1   7  -1  199.88    7.80
   1   7  -1  196.98    7.70
   1   7  -1  209.28    7.80
  -1  -7   1  207.48    7.80
  -1  -7   1  208.28    8.00
   0   7  -1 2519.75   90.69
   0   7  -1 2508.75   90.69
   0   7  -1 2515.45   90.59
   0   7  -1 2494.25   90.59
   0  -7   1 2524.35   90.59
   0  -7   1 2564.74   90.69
   0  -7   1 2459.45   90.99
  -1   7  -1  379.66   13.80
  -1   7  -1  367.06   13.80
   1  -7   1  372.46   13.80
   1  -7   1  367.66   14.20
   1  -7   1  373.46   13.80
  -2   7  -1   45.60    2.20
  -2   7  -1   45.70    2.00
   2  -7   1   43.20    2.10
   2  -7   1   43.60    2.60
  -3   7  -1  498.35   18.00
   3  -7   1  489.35   18.10
   3  -7   1  487.95   18.20
  -4   7  -1   96.29    3.80
   4  -7   1   91.79    4.00
   4  -7   1   99.89    3.90
  -5   7  -1   45.30    1.80
   5  -7   1   44.30    1.90
   5  -7   1   43.40    2.00
  -5  -6   1  183.98    6.90
  -5  -6   1  175.38    6.80
   4   6  -1  133.19    5.90
  -4  -6   1  131.99    5.50
  -4  -6   1  137.69    5.30
   3   6  -1  353.96   13.70
  -3  -6   1  343.97   12.90
  -3  -6   1  337.27   12.70
  -3  -6   1  328.97   12.70
   2   6  -1   33.00    1.70
   2   6  -1   33.60    1.60
   2   6  -1   34.50    2.50
   2   6  -1   34.00    2.60
  -2  -6   1   29.70    2.90
   1   6  -1  450.25   16.80
   1   6  -1  442.66   17.70
   1   6  -1  476.65   16.90
   1   6  -1  461.15   18.00
  -1  -6   1  461.15   17.10
   0   6  -1   82.19    3.30
   0   6  -1   80.69    4.40
   0   6  -1   79.29    3.90
   0   6  -1   83.09    3.20
   0  -6   1   69.59    5.10
   0  -6   1   82.89    3.60
  -1   6  -1  334.57   12.30
   1  -6   1  324.07   14.50
   1  -6   1  338.17   12.70
  -2   6  -1  147.89    5.60
   2  -6   1  144.49    6.10
  -3   6  -1  123.49    4.80
  -3   6  -1  119.99    4.80
   3  -6   1  126.59    5.00
   3  -6   1  123.99    5.40
   3  -6   1  123.09    4.90
  -4   6  -1  227.08    8.60
  -4   6  -1  230.58    8.70
   4  -6   1  236.08    9.00
   4  -6   1  238.28    8.90
  -5   6  -1   58.69    2.40
  -5   6  -1   62.69    2.50
   5  -6   1   61.19    2.80
   5  -6   1   63.79    2.70
  -6   6  -1    8.50    0.50
   6  -6   1    7.80    0.80
   6  -6   1    8.40    0.70
  -6  -5   1  338.27   12.90
  -5  -5   1  102.99    4.10
  -5  -5   1   96.09    4.00
  -4  -5   1   88.09    3.80
  -4  -5   1   82.29    3.50
   3   5  -1  317.97   12.40
   3   5  -1  315.47   12.90
  -3  -5   1  327.77   13.80
   2   5  -1   36.40    2.40
   2   5  -1   35.60    1.70
   2   5  -1   35.00    2.30
  -2  -5   1   39.20    3.00
   1   5  -1 1037.10   38.20
   1   5  -1 1102.49   39.00
   1   5  -1 1013.10   39.00
  -1  -5   1 1007.40   39.60
  -1  -5   1 1099.09   38.40
  -1  -5   1 1065.89   39.60
   0   5  -1  554.14   21.90
   0   5  -1  568.84   21.00
   0   5  -1  569.74   21.70
   0  -5   1  598.14   22.80
   0  -5   1  594.34   21.30
  -1   5  -1  294.47   10.80
  -1   5  -1  283.57   11.30
   1  -5   1  299.77   11.10
  -2   5  -1  319.17   11.60
   2  -5   1  309.97   12.00
  -3   5  -1   91.19    3.60
   3  -5   1   88.19    4.10
  -4   5  -1  319.17   12.20
  -4   5  -1  335.47   12.70
  -4   5  -1  328.67   12.20
   4  -5   1  331.77   12.30
   4  -5   1  327.67   12.70
   4  -5   1  337.37   12.40
  -5   5  -1   71.79    2.90
  -5   5  -1   68.19    3.40
  -5   5  -1   72.59    2.90
   5  -5   1   71.79    3.10
   5  -5   1   77.79    3.30
  -6   5  -1  250.27    9.40
   6  -5   1  256.77    9.60
   6  -5   1  263.17    9.70
  -6  -4   1   69.59    3.00
  -5  -4   1  536.75   19.80
   4   4  -1  152.68    7.40
  -4  -4   1  159.28    7.80
   3   4  -1  123.89    5.60
   3   4  -1  121.09    4.80
  -3  -4   1  127.99    6.30
   2   4  -1  149.49    6.20
   2   4  -1  138.99    5.40
  -2  -4   1  141.79    6.60
  -2  -4   1  149.49    6.40
  -2  -4   1  133.69    5.50
   1   4  -1 1011.00   36.00
   1   4  -1  931.61   35.40
  -1  -4   1 1034.50   36.50
  -1  -4   1  965.80   36.60
  -1  -4   1  947.91   35.50
   0   4  -1  627.04   23.30
   0   4  -1  663.63   23.80
   0  -4   1  671.53   24.70
   0  -4   1  608.54   23.50
  -1   4  -1 1815.72   64.99
  -1   4  -1 1765.32   65.29
   1  -4   1 1822.72   65.19
  -2   4  -1 1615.64   56.89
   2  -4   1 1494.25   57.09
   2  -4   1 1622.24   57.29
  -3   4  -1  340.67   12.30
   3  -4   1  323.97   12.50
   3  -4   1  335.87   12.70
  -4   4  -1  374.46   13.70
   4  -4   1  367.06   14.10
   4  -4   1  372.16   14.10
  -5   4  -1 1240.68   44.00
  -5   4  -1 1213.88   44.00
  -5   4  -1 1186.58   44.50
   5  -4   1 1236.68   44.10
   5  -4   1 1203.98   44.20
  -6   4  -1  165.98    6.90
  -6   4  -1  177.88    6.40
   6  -4   1  170.28    6.50
   6  -4   1  164.18    6.50
   6  -4   1  181.38    6.70
  -7  -3   1   26.30    1.30
  -6  -3   1  179.78    6.90
  -6  -3   1  175.48    6.90
  -5  -3   1  794.12   29.10
  -4  -3   1  463.65   18.60
  -3  -3   1   94.89    4.60
  -3  -3   1  100.59    5.00
  -2  -3   1 2637.24   89.79
  -2  -3   1 2173.08   88.89
  -2  -3   1 2593.04   89.99
   1   3  -1 3570.84  128.39
  -1  -3   1 3542.75  129.59
  -1  -3   1 3410.66  128.49
   0   3  -1 1123.99   40.60
   0  -3   1 1080.89   40.60
   0  -3   1 1135.99   41.10
  -1   3  -1   21.80    1.00
  -1   3  -1   19.30    1.20
   1  -3   1   22.20    1.50
   1  -3   1   22.60    1.00
   1  -3   1   21.00    1.30
  -2   3  -1   35.30    1.50
  -2   3  -1   34.50    1.80
   2  -3   1   34.10    1.70
   2  -3   1   35.70    1.80
  -3   3  -1  900.41   31.50
   3  -3   1  855.21   32.40
   3  -3   1  825.02   31.80
   3  -3   1  897.31   31.80
  -4   3  -1  818.82   29.20
   4  -3   1  778.72   30.40
   4  -3   1  795.92   29.60
   4  -3   1  823.62   29.20
  -5   3  -1  911.41   34.90
  -5   3  -1  957.40   34.60
  -5   3  -1  992.30   34.50
  -5   3  -1  928.81   34.50
   5  -3   1  983.10   34.60
   5  -3   1  986.10   36.00
   5  -3   1  943.11   34.60
   5  -3   1  918.81   34.70
  -6   3  -1   33.10    2.10
  -6   3  -1   35.50    1.60
   6  -3   1   34.60    1.70
   6  -3   1   36.70    1.70
   6  -3   1   33.20    2.70
   6  -3   1   36.00    1.70
  -7   3  -1   42.70    1.70
  -7   3  -1   39.70    2.00
   7  -3   1   39.70    1.70
   7  -3   1   42.00    1.90
  -7  -2   1   87.99    3.60
  -6  -2   1    2.50    0.60
  -6  -2   1    2.40    0.60
  -5  -2   1   30.70    2.40
  -4  -2   1  112.29    5.40
  -4  -2   1  118.59    5.30
  -4  -2   1  106.79    5.50
  -3  -2   1  524.85   19.50
  -3  -2   1  514.05   19.60
  -3  -2   1  507.95   19.80
   2   2  -1    0.20    0.40
  -2  -2   1    1.10    0.60
  -2  -2   1    0.00    0.50
  -2  -2   1   -0.50    0.60
  -1  -2   1  879.31   33.30
  -1  -2   1  928.71   33.30
   0   2  -1 3579.14  136.29
   0  -2   1 3734.73  136.89
   0  -2   1 3910.01  136.09
  -1   2  -1  523.25   19.50
   1  -2   1  536.65   19.40
   1  -2   1  544.85   19.80
  -2   2  -1  887.81   33.00
  -2   2  -1  889.31   32.80
  -2   2  -1  899.71   33.20
   2  -2   1  963.00   33.00
   2  -2   1  900.01   33.40
  -3   2  -1  240.18    9.50
  -3   2  -1  244.98    8.80
   3  -2   1  224.58    9.00
   3  -2   1  251.67    9.10
  -4   2  -1  107.29    4.10
  -4   2  -1  104.79    4.90
   4  -2   1  106.09    4.40
   4  -2   1  101.39    4.90
  -5   2  -1    7.90    0.80
  -5   2  -1    9.90    1.50
   5  -2   1    7.70    1.10
   5  -2   1    8.60    1.50
   5  -2   1    8.30    0.70
  -6   2  -1  421.66   15.40
  -6   2  -1  403.56   15.80
   6  -2   1  419.96   16.80
   6  -2   1  414.96   15.50
   6  -2   1  447.46   15.60
  -7   2  -1   50.69    2.00
  -7   2  -1   48.20    2.40
   7  -2   1   51.19    2.10
   7  -2   1   47.10    2.10
  -7  -1   1   82.19    3.40
   6   1  -1  219.58    8.90
  -6  -1   1  223.58    8.50
  -6  -1   1  216.28    8.20
  -6  -1   1  226.68    8.60
   5   1  -1  220.08    8.70
  -5  -1   1  226.18    9.70
   4   1  -1   42.80    2.10
  -4  -1   1   44.60    2.70
  -4  -1   1   42.20    2.80
   3   1  -1  456.25   18.30
  -3  -1   1  492.65   18.70
  -3  -1   1  502.95   18.60
  -3  -1   1  513.65   18.70
   2   1  -1 1240.98   45.90
  -2  -1   1 1286.87   45.80
  -2  -1   1 1293.57   45.80
  -2  -1   1 1200.28   45.80
   0   1  -1  198.58    7.70
   0  -1   1  208.78    7.70
  -1   1  -1 2263.27   86.09
   1  -1   1 2454.55   85.39
   1  -1   1 2320.27   84.69
  -2   1  -1  114.19    4.60
  -2   1  -1  108.79    4.60
   2  -1   1  111.69    4.30
   2  -1   1  112.39    4.70
  -3   1  -1  146.29    5.40
  -3   1  -1  137.09    6.00
  -3   1  -1  141.59    6.00
   3  -1   1  152.58    5.60
  -4   1  -1 2254.57   83.49
  -4   1  -1 2379.16   82.59
   4  -1   1 2295.87   83.19
   4  -1   1 2223.78   82.79
  -5   1  -1  567.64   20.60
  -5   1  -1  545.75   21.70
   5  -1   1  589.74   21.60
   5  -1   1  546.45   20.90
   5  -1   1  552.84   20.40
  -6   1  -1   37.70    2.00
  -6   1  -1   35.80    2.20
  -6   1  -1   37.70    1.70
  -6   1  -1   39.70    2.00
   6  -1   1   40.10    2.80
   6  -1   1   43.90    1.80
  -7   1  -1  112.89    4.30
  -7   1  -1  115.69    4.70
  -7   1  -1  114.09    4.50
   7  -1   1  111.99    4.40
   7  -1   1  115.89    4.40
   7   0  -1    0.30    0.30
  -7   0   1    0.40    0.40
  -7   0   1    0.50    0.30
   6   0  -1 1462.85   52.39
  -6   0   1 1399.66   51.39
  -6   0   1 1421.06   51.69
  -6   0   1 1407.66   51.69
   5   0  -1    7.00    1.00
   5   0  -1    7.20    1.00
  -5   0   1    7.20    1.30
   4   0  -1  171.68    6.50
  -4   0   1  162.58    6.20
  -4   0   1  164.48    7.40
  -4   0   1  165.28    7.20
   3   0  -1  663.23   25.50
   3   0  -1  721.13   26.10
  -3   0   1  655.03   25.50
  -3   0   1  738.83   26.30
  -3   0   1  740.13   26.30
   2   0  -1  886.61   32.10
  -2   0   1  797.82   32.20
  -2   0   1  947.31   32.30
  -2   0   1  886.71   32.20
   1   0  -1  855.61   31.50
  -1   0  -1 2708.43  103.09
   1   0   1 2958.40  102.99
  -2   0  -1    0.90    0.30
  -2   0  -1    0.90    0.40
  -2   0  -1    0.20    0.40
   2   0   1    0.00    0.40
   2   0   1    0.40    0.30
  -3   0  -1   41.90    1.70
  -3   0  -1   38.30    2.00
  -3   0  -1   40.30    2.30
  -3   0  -1   42.30    2.30
   3   0   1   37.90    2.20
   3   0   1   40.60    1.90
  -4   0  -1   55.99    3.00
  -4   0  -1   48.60    3.30
  -4   0  -1   56.49    2.30
   4   0   1   56.49    2.50
   4   0   1   50.19    2.50
  -5   0  -1  139.99    6.60
   5   0   1  138.09    5.90
   5   0   1  148.59    6.30
  -6   0  -1   30.00    1.60
  -6   0  -1   29.20    1.50
  -6   0  -1   29.30    1.80
  -6   0  -1   28.90    1.70
   6   0   1   29.30    1.40
   6   0   1   29.40    2.30
  -7   0  -1   29.00    1.70
  -7   0  -1   28.00    1.50
   7   0   1   29.90    1.40
   7  -1  -1   77.09    3.20
   7  -1  -1   81.09    3.20
  -7   1   1   80.09    3.30
  -7   1   1   82.39    3.10
   6  -1  -1  231.58    9.40
   6  -1  -1  226.88    8.40
  -6   1   1  216.98    8.60
  -6   1   1  218.98    8.60
  -6   1   1  222.48    8.30
   5  -1  -1  229.68    9.00
   5  -1  -1  229.98    9.30
   5  -1  -1  225.18    8.40
  -5   1   1  222.88    9.80
   4  -1  -1   40.60    2.10
   4  -1  -1   39.60    2.20
   4  -1  -1   38.60    2.00
  -4   1   1   40.80    2.50
  -4   1   1   39.60    1.70
   3  -1  -1  452.85   17.20
   3  -1  -1  492.75   17.30
  -3   1   1  481.85   17.80
  -3   1   1  450.85   17.00
   2  -1  -1 1236.58   45.90
  -2   1   1 1247.28   46.60
  -2   1   1 1267.67   46.40
  -2   1   1 1293.07   46.00
  -1   1   1 9837.02  355.46
   0  -1  -1  194.08    7.20
   0   1   1  192.58    7.20
  -1  -1  -1 2194.78   82.89
  -1  -1  -1 2308.67   83.49
   1   1   1 2342.27   82.49
  -2  -1  -1  102.19    4.30
  -2  -1  -1  115.29    4.50
  -2  -1  -1  104.29    4.20
  -2  -1  -1  110.59    4.70
   2   1   1  112.29    4.30
   2   1   1  102.69    4.10
  -3  -1  -1  146.19    5.90
  -3  -1  -1  146.39    6.20
   3   1   1  129.99    5.40
  -4  -1  -1 2363.76   83.49
  -4  -1  -1 2285.17   83.79
   4   1   1 2213.98   82.69
  -5  -1  -1  555.94   21.70
   5   1   1  555.84   20.90
   5   1   1  564.64   22.30
  -6  -1  -1   37.40    2.10
  -6  -1  -1   39.40    1.90
  -6  -1  -1   36.50    1.90
   6   1   1   38.40    2.50
  -7  -1  -1  121.19    4.60
  -7  -1  -1  115.99    4.70
   7   1   1  109.39    4.40
   7  -2  -1   84.09    3.30
   7  -2  -1   84.29    3.40
   7  -2  -1   84.19    3.40
  -7   2   1   83.09    3.50
  -7   2   1   90.49    3.30
   6  -2  -1    1.70    0.50
   6  -2  -1    2.60    0.40
   6  -2  -1    2.00    1.00
  -6   2   1    4.70    0.90
  -6   2   1    1.20    0.50
  -6   2   1    2.50    0.40
   5  -2  -1   31.20    2.00
   5  -2  -1   32.10    1.50
   5  -2  -1   36.70    2.40
  -5   2   1   30.90    1.60
  -5   2   1   29.40    2.40
   4  -2  -1  114.59    4.80
   4  -2  -1  114.09    5.20
   4  -2  -1  120.79    4.80
  -4   2   1  117.59    5.40
  -4   2   1  115.99    4.50
   3  -2  -1  494.75   18.80
   3  -2  -1  528.75   18.90
  -3   2   1  513.25   19.30
  -3   2   1  514.15   18.60
   2  -2  -1   -0.80    0.50
   2  -2  -1   -0.50    0.30
  -2   2   1    0.60    0.30
  -2   2   1   -0.20    0.50
  -2   2   1    0.50    0.80
   1  -2  -1  884.91   31.80
   1  -2  -1  820.82   31.50
   1  -2  -1  879.21   31.80
  -1   2   1  891.71   31.90
   0  -2  -1 3737.53  132.29
   0  -2  -1 3527.65  133.39
   0   2   1 3623.74  133.59
   0   2   1 3694.63  131.99
  -1  -2  -1  562.94   20.70
  -1  -2  -1  553.44   20.70
   1   2   1  557.84   20.70
  -2  -2  -1  956.20   34.80
  -2  -2  -1  969.30   35.20
   2   2   1  929.81   35.00
  -3  -2  -1  248.78    9.60
  -3  -2  -1  242.38   10.10
   3   2   1  237.78    9.90
  -4  -2  -1   98.49    5.20
  -4  -2  -1   98.39    4.70
   4   2   1  100.69    5.10
  -5  -2  -1    6.70    1.60
  -5  -2  -1   11.60    1.50
   5   2   1    7.90    1.20
   5   2   1    9.50    1.80
  -6  -2  -1  415.76   15.30
  -6  -2  -1  408.76   15.20
  -6  -2  -1  419.56   15.30
   6   2   1  396.16   15.70
  -7  -2  -1   50.19    2.40
  -7  -2  -1   53.09    2.30
   7  -3  -1   28.70    1.30
   7  -3  -1   25.30    1.40
  -7   3   1   28.80    1.20
   6  -3  -1  184.98    6.90
   6  -3  -1  180.58    6.90
   6  -3  -1  176.48    7.90
  -6   3   1  180.08    7.20
  -6   3   1  182.68    6.80
   5  -3  -1  828.62   30.10
   5  -3  -1  757.22   28.90
   5  -3  -1  842.52   28.90
   5  -3  -1  781.82   28.80
  -5   3   1  754.72   28.80
  -5   3   1  783.12   29.10
  -5   3   1  797.82   28.70
   4  -3  -1  484.65   18.20
   4  -3  -1  487.95   18.30
   4  -3  -1  475.75   18.80
   4  -3  -1  489.45   17.90
  -4   3   1  505.35   17.90
   3  -3  -1   99.49    4.10
   3  -3  -1   97.99    4.00
   3  -3  -1   93.99    4.40
  -3   3   1  100.19    3.80
   2  -3  -1 2457.75   91.09
   2  -3  -1 2514.95   91.09
  -2   3   1 2502.75   90.89
  -2   3   1 2621.14   92.99
   1  -3  -1 3267.47  118.39
   1  -3  -1 3270.87  117.59
   1  -3  -1 3241.08  116.49
  -1   3   1 3194.08  116.49
  -1   3   1 3270.37  118.99
  -1   3   1 3132.39  116.99
   0  -3  -1 1073.69   38.90
   0  -3  -1 1049.40   39.30
   0  -3  -1 1092.09   39.40
   0   3   1 1077.59   39.30
  -1  -3  -1   24.10    1.70
  -1  -3  -1   22.00    1.60
   1   3   1   18.00    0.90
   1   3   1   16.60    1.40
  -2  -3  -1   32.00    2.40
   2   3   1   39.50    2.30
  -3  -3  -1  889.11   34.00
   3   3   1  912.11   33.80
  -4  -3  -1  754.62   29.50
   4   3   1  771.02   29.30
  -5  -3  -1  946.71   34.40
  -5  -3  -1  967.40   34.60
  -5  -3  -1  926.71   34.60
  -6  -3  -1   36.70    1.80
  -6  -3  -1   37.70    1.90
   6   3   1   31.00    2.00
  -7  -3  -1   40.60    1.80
  -7  -3  -1   40.30    1.90
   7  -4  -1   61.99    2.50
   7  -4  -1   59.39    2.40
  -7   4   1   61.29    2.40
   6  -4  -1   71.39    2.80
   6  -4  -1   65.19    2.80
   6  -4  -1   69.89    2.80
   6  -4  -1   69.89    3.00
  -6   4   1   68.59    3.20
  -6   4   1   69.29    2.70
   5  -4  -1  507.75   20.20
   5  -4  -1  562.34   19.80
   5  -4  -1  550.14   19.70
   5  -4  -1  553.64   19.90
   5  -4  -1  545.75   19.80
  -5   4   1  531.95   20.10
  -5   4   1  550.04   19.60
  -5   4   1  501.55   19.70
  -5   4   1  549.45   19.60
   4  -4  -1  159.58    6.70
   4  -4  -1  159.58    6.50
   4  -4  -1  163.18    6.10
  -4   4   1  163.38    6.10
   3  -4  -1  132.29    5.50
  -3   4   1  133.49    5.10
   2  -4  -1  151.38    5.90
  -2   4   1  151.18    5.60
  -2   4   1  140.69    6.50
   1  -4  -1  937.41   34.70
   1  -4  -1  954.30   35.40
  -1   4   1  993.90   34.50
  -1   4   1  921.61   35.10
   0  -4  -1  624.84   23.60
   0  -4  -1  600.24   22.70
   0  -4  -1  600.74   23.30
   0   4   1  644.14   22.60
   0   4   1  640.64   23.10
  -1  -4  -1 1850.71   65.69
  -1  -4  -1 1739.53   65.59
   1   4   1 1782.52   64.59
  -2  -4  -1 1556.44   56.39
   2   4   1 1445.26   55.39
   2   4   1 1567.54   55.09
  -3  -4  -1  322.27   13.10
   3   4   1  296.17   11.70
  -4  -4  -1  364.66   15.40
  -5  -4  -1 1202.28   43.20
  -5  -4  -1 1195.08   43.00
   5   4   1 1166.48   43.30
  -6  -4  -1  174.88    6.80
   6  -5  -1  329.57   12.10
   6  -5  -1  329.07   12.20
  -6   5   1  328.27   12.00
   5  -5  -1  104.29    4.00
   5  -5  -1  103.29    4.20
   5  -5  -1  105.59    4.30
  -5   5   1  102.89    4.00
  -5   5   1  103.79    4.00
   4  -5  -1   88.49    3.70
   4  -5  -1   89.39    4.20
   4  -5  -1   87.79    3.50
   4  -5  -1   84.49    3.60
  -4   5   1   83.89    3.50
  -4   5   1   88.69    3.50
   3  -5  -1  342.97   13.30
  -3   5   1  351.86   12.80
   2  -5  -1   41.10    2.30
  -2   5   1   41.40    1.80
   1  -5  -1 1106.29   40.70
   1  -5  -1 1097.89   41.60
  -1   5   1 1144.49   40.40
   0  -5  -1  552.54   22.10
   0  -5  -1  574.54   21.10
   0   5   1  626.44   20.90
   0   5   1  565.44   21.50
   0   5   1  544.55   21.70
  -1  -5  -1  290.57   11.90
   1   5   1  278.17   11.40
   1   5   1  284.97   11.40
   1   5   1  297.57   10.70
  -2  -5  -1  300.87   12.50
   2   5   1  297.27   11.00
   2   5   1  287.77   11.60
  -3  -5  -1   87.59    5.20
   3   5   1   90.19    3.70
   3   5   1   89.19    4.20
  -4  -5  -1  348.97   12.50
  -4  -5  -1  328.67   12.40
  -4  -5  -1  342.77   12.70
   4   5   1  327.07   12.90
   4   5   1  327.27   12.60
  -5  -5  -1   70.29    3.00
   5   5   1   64.29    3.10
  -6  -5  -1  267.87   10.00
   6  -6  -1   30.40    1.50
   6  -6  -1   28.20    1.30
   5  -6  -1  192.58    7.40
   5  -6  -1  200.98    7.50
  -5   6   1  191.48    7.20
   4  -6  -1  144.59    5.60
   4  -6  -1  137.89    5.40
  -4   6   1  134.99    5.30
   3  -6  -1  351.76   13.00
   3  -6  -1  356.96   13.60
   3  -6  -1  359.66   13.10
  -3   6   1  341.57   13.00
  -3   6   1  340.47   12.90
   2  -6  -1   39.80    2.40
  -2   6   1   36.10    1.80
   1  -6  -1  468.35   17.70
  -1   6   1  473.95   17.30
   0  -6  -1   80.19    3.60
   0   6   1   87.39    3.40
   0   6   1   80.79    3.30
   1   6   1  314.57   11.80
   1   6   1  325.57   12.90
   1   6   1  305.97   12.70
   1   6   1  327.57   11.90
  -2  -6  -1  134.29    7.10
   2   6   1  143.59    5.40
   2   6   1  143.69    6.60
   2   6   1  148.89    6.50
   2   6   1  141.29    5.60
  -3  -6  -1  129.29    5.20
  -3  -6  -1  123.29    5.00
   3   6   1  125.89    5.10
   3   6   1  130.69    5.90
   3   6   1  124.29    4.90
  -4  -6  -1  236.48    9.00
  -4  -6  -1  242.98    9.20
   4   6   1  237.68    9.60
  -5  -6  -1   56.89    2.40
  -5  -6  -1   59.29    2.60
  -6  -6  -1    8.90    0.80
   5  -7  -1   30.20    1.60
   5  -7  -1   29.70    1.40
  -5   7   1   29.20    1.30
   4  -7  -1   86.19    3.50
   4  -7  -1   79.19    3.30
  -4   7   1   77.09    3.20
   3  -7  -1  285.27   10.20
   3  -7  -1  260.07   10.00
   3  -7  -1  255.77   10.00
  -3   7   1  271.17   10.00
   2  -7  -1  274.17   10.10
   2  -7  -1  262.47   10.40
   2  -7  -1  259.67    9.90
  -2   7   1  262.07    9.90
  -2   7   1  262.57    9.90
   1  -7  -1  217.68    8.00
   1  -7  -1  209.38    8.20
   1  -7  -1  207.28    8.50
   1  -7  -1  214.98    8.00
  -1   7   1  211.18    8.10
  -1   7   1  210.88    8.10
   0  -7  -1 2473.95   91.29
   0  -7  -1 2460.35   91.49
   0  -7  -1 2599.94   91.29
   0   7   1 2548.84   91.29
   0   7   1 2518.75   91.49
   0   7   1 2592.14   91.39
  -1  -7  -1  351.66   13.30
  -1  -7  -1  348.77   13.50
  -1  -7  -1  353.96   13.50
  -1  -7  -1  373.26   13.70
  -1  -7  -1  361.26   13.50
   1   7   1  368.26   13.50
   1   7   1  355.16   13.40
   1   7   1  373.56   14.70
   1   7   1  383.26   13.60
   1   7   1  379.06   13.50
  -2  -7  -1   45.20    2.40
  -2  -7  -1   44.40    2.10
  -2  -7  -1   47.50    2.40
   2   7   1   49.40    3.20
   2   7   1   44.10    2.00
   2   7   1   45.10    2.10
   2   7   1   43.50    2.20
  -3  -7  -1  519.45   19.30
  -3  -7  -1  524.75   19.50
   3   7   1  525.35   19.20
   3   7   1  536.25   20.30
  -4  -7  -1  102.89    3.90
  -4  -7  -1  104.79    4.20
   4   7   1   93.39    3.80
   4   7   1   96.29    4.60
  -5  -7  -1   44.00    2.00
  -5  -7  -1   41.50    1.80
   4  -8  -1  117.09    4.50
  -4   8   1  111.99    4.30
   3  -8  -1  134.39    5.20
   3  -8  -1  144.49    5.40
  -3   8   1  127.69    5.10
   2  -8  -1  152.08    6.00
   2  -8  -1  147.39    5.80
  -2   8   1  151.28    5.80
   1  -8  -1  123.39    4.80
   1  -8  -1  120.99    5.00
  -1   8   1  125.89    4.90
   0  -8  -1   35.80    1.90
   0  -8  -1   38.90    1.80
   0  -8  -1   38.90    2.10
   0  -8  -1   36.20    1.70
   0   8   1   35.50    1.70
   0   8   1   35.30    1.80
  -1  -8  -1  104.19    4.40
  -1  -8  -1  112.09    4.40
  -1  -8  -1  104.19    4.50
  -1  -8  -1  121.39    4.80
   1   8   1  116.19    4.40
   1   8   1  114.99    4.40
   1   8   1  119.29    4.40
  -2  -8  -1   35.70    1.70
  -2  -8  -1   37.90    2.10
   2   8   1   33.70    2.60
   2   8   1   34.90    1.70
   2   8   1   37.20    1.70
  -3  -8  -1  103.59    4.00
  -3  -8  -1  105.09    4.30
   3   8   1   98.59    3.90
   3   8   1  101.89    3.90
  -4  -8  -1   23.80    1.20
  -4  -8  -1   23.80    1.40
   4   8   1   21.80    1.10
   3  -9  -1    7.60    0.70
   3  -9  -1    8.40    0.80
  -3   9   1    7.30    0.60
   2  -9  -1   12.00    1.00
   2  -9  -1   11.50    1.20
   2  -9  -1   11.30    0.80
  -2   9   1   12.10    0.80
   1  -9  -1   81.29    3.40
   1  -9  -1   85.89    3.30
   1  -9  -1   82.29    3.60
  -1   9   1   83.39    3.30
   0  -9  -1   60.69    2.60
   0  -9  -1   68.19    3.10
   0  -9  -1   67.19    3.00
   0   9   1   63.99    2.70
  -1  -9  -1  200.88    7.50
   1   9   1  190.08    7.20
   1   9   1  196.78    7.30
  -2  -9  -1   41.60    1.90
  -2  -9  -1   45.90    2.20
   2   9   1   46.00    1.90
  -3  -9  -1   10.10    0.90
  -3  -9  -1   10.30    0.70
   3   9   1   10.30    0.60
   2   9  -2   76.39    2.90
  -2  -9   2   70.09    2.90
  -2  -9   2   70.29    3.10
   1   9  -2  239.08    8.40
   1   9  -2  221.08    8.50
  -1  -9   2  222.38    8.60
  -1  -9   2  229.68    8.50
   0   9  -2   70.69    2.90
   0  -9   2   73.09    3.00
   0  -9   2   70.39    3.10
  -1   9  -2    3.90    0.60
   1  -9   2    3.40    0.50
   1  -9   2    3.50    0.80
  -2   9  -2   24.80    1.30
   2  -9   2   26.10    1.30
  -4  -8   2   23.60    1.30
   3   8  -2  271.57   10.00
   3   8  -2  265.07   10.00
  -3  -8   2  279.57   10.10
  -3  -8   2  268.77   10.10
  -3  -8   2  269.47   10.20
   2   8  -2  178.98    8.20
   2   8  -2  197.08    7.10
   2   8  -2  179.68    7.00
  -2  -8   2  184.08    7.10
  -2  -8   2  185.38    7.30
  -2  -8   2  191.08    7.10
   1   8  -2   91.99    3.60
   1   8  -2   86.29    3.70
   1   8  -2   91.29    3.60
  -1  -8   2   88.09    3.90
  -1  -8   2   90.69    3.70
   0   8  -2  143.19    5.70
   0   8  -2  147.89    5.60
   0  -8   2  146.09    5.60
   0  -8   2  148.79    5.90
   0  -8   2  146.99    5.70
  -1   8  -2  572.84   21.10
   1  -8   2  580.64   21.00
   1  -8   2  567.44   21.00
  -2   8  -2   53.09    2.40
   2  -8   2   53.99    2.40
  -3   8  -2   19.50    1.10
   3  -8   2   20.20    1.20
  -4   8  -2  274.97    9.90
   4  -8   2  263.87    9.90
  -5  -7   2    5.70    0.60
   4   7  -2  123.89    5.00
  -4  -7   2  137.69    5.20
  -4  -7   2  134.59    5.30
   3   7  -2   50.59    2.20
   3   7  -2   51.39    3.30
  -3  -7   2   48.30    2.40
  -3  -7   2   52.59    2.60
  -3  -7   2   50.39    2.30
   2   7  -2  100.09    4.00
   2   7  -2  104.19    5.40
  -2  -7   2   96.59    4.10
  -2  -7   2  100.09    4.10
  -2  -7   2   99.89    4.30
   1   7  -2  272.67    9.90
   1   7  -2  269.07   11.40
   1   7  -2  252.67    9.90
   1   7  -2  255.37    9.80
  -1  -7   2  275.77   10.20
  -1  -7   2  261.67   10.20
  -1  -7   2  265.77   10.00
   0   7  -2  831.22   30.20
   0   7  -2  826.12   30.30
   0   7  -2  833.12   30.40
   0   7  -2  816.62   30.30
   0  -7   2  862.91   30.40
   0  -7   2  817.22   30.60
   0  -7   2  837.22   30.30
  -1   7  -2  408.96   14.90
  -1   7  -2  402.06   15.00
   1  -7   2  404.26   15.00
   1  -7   2  411.86   15.00
   1  -7   2  395.06   15.30
  -2   7  -2  160.18    6.00
  -2   7  -2  150.88    5.90
   2  -7   2  155.18    6.00
   2  -7   2  148.39    6.40
  -3   7  -2  209.78    8.00
   3  -7   2  215.28    8.10
  -4   7  -2   60.99    2.50
  -4   7  -2   58.39    2.40
   4  -7   2   60.09    2.70
   4  -7   2   64.19    2.60
  -5   7  -2    2.00    0.30
  -5   7  -2    2.50    0.40
   5  -7   2    1.50    0.40
   5  -7   2    1.90    0.50
  -5  -6   2  249.38    9.30
   4   6  -2  114.89    5.40
  -4  -6   2  122.69    4.80
  -4  -6   2  118.09    4.70
   3   6  -2   39.00    2.80
  -3  -6   2   36.60    2.00
  -3  -6   2   39.50    2.00
   2   6  -2  354.26   13.50
   2   6  -2  363.96   14.60
   2   6  -2  380.06   14.70
   1   6  -2   19.40    1.80
   1   6  -2   20.40    2.20
   1   6  -2   18.40    1.10
  -1  -6   2   14.20    2.50
  -1  -6   2   18.90    1.40
   0   6  -2   24.70    2.40
   0   6  -2   28.50    2.00
   0   6  -2   29.60    1.40
   0   6  -2   28.20    1.40
   0  -6   2   29.10    1.80
   0  -6   2   27.60    3.10
  -1   6  -2  154.18    5.60
  -1   6  -2  138.49    6.20
   1  -6   2  145.69    6.00
   1  -6   2  139.79    7.70
  -2   6  -2    6.30    0.70
   2  -6   2    7.90    1.30
   2  -6   2    4.90    1.80
  -3   6  -2  544.15   20.30
  -3   6  -2  565.64   20.30
   3  -6   2  510.45   20.50
   3  -6   2  578.54   20.80
   3  -6   2  569.74   20.40
  -4   6  -2  419.16   15.50
   4  -6   2  407.16   15.70
   4  -6   2  438.26   15.60
  -5   6  -2   62.39    2.60
  -5   6  -2   65.79    2.60
   5  -6   2   67.39    2.80
   5  -6   2   64.09    2.80
  -5  -5   2   50.89    2.30
  -4  -5   2  212.58    8.10
   3   5  -2   81.19    4.20
   3   5  -2   85.99    4.00
  -3  -5   2   82.19    5.00
   2   5  -2   30.90    2.10
   2   5  -2   31.70    2.20
  -2  -5   2   30.10    2.70
  -2  -5   2   28.40    2.50
   1   5  -2  146.39    5.70
   1   5  -2  156.98    6.50
   1   5  -2  146.29    6.60
  -1  -5   2  154.88    6.00
  -1  -5   2  152.38    7.30
   0   5  -2   32.30    2.40
   0   5  -2   32.80    1.50
   0   5  -2   34.60    2.10
   0  -5   2   36.40    1.90
   0  -5   2   37.00    3.10
  -1   5  -2  224.58    9.10
  -1   5  -2  229.78    8.50
   1  -5   2  226.28   10.40
   1  -5   2  235.28    8.90
  -2   5  -2  396.86   14.40
   2  -5   2  385.66   14.80
  -3   5  -2  139.89    5.40
   3  -5   2  144.89    6.00
  -4   5  -2   11.30    1.60
  -4   5  -2   12.60    1.00
  -4   5  -2   14.90    1.00
   4  -5   2   12.70    1.10
   4  -5   2   11.90    1.30
  -5   5  -2  100.49    3.90
  -5   5  -2   97.99    4.40
  -5   5  -2  102.49    3.90
   5  -5   2   97.29    4.20
   5  -5   2  103.69    4.10
  -6   5  -2   27.40    1.20
   6  -5   2   25.70    1.50
   6  -5   2   27.20    1.40
  -4  -4   2 1010.50   38.60
   3   4  -2  413.26   15.70
  -3  -4   2  410.56   16.50
  -3  -4   2  392.36   16.10
   2   4  -2 1679.43   63.79
   2   4  -2 1795.62   64.19
  -2  -4   2 1645.74   63.59
  -2  -4   2 1781.12   64.79
  -2  -4   2 1893.31   64.99
   1   4  -2 2923.01  101.69
   1   4  -2 2513.85   99.59
  -1  -4   2 2810.52  100.79
  -1  -4   2 2655.23   99.79
  -1  -4   2 2929.21  101.09
   0   4  -2  287.37   10.80
   0   4  -2  263.57   10.20
   0  -4   2  294.67   11.80
   0  -4   2  272.87   10.50
  -1   4  -2  143.49    5.70
  -1   4  -2  136.29    5.30
   1  -4   2  144.29    5.60
  -2   4  -2  169.78    7.20
  -2   4  -2  188.48    6.80
   2  -4   2  182.68    7.00
   2  -4   2  186.08    7.10
  -3   4  -2  179.38    6.70
   3  -4   2  172.18    7.00
   3  -4   2  182.78    7.10
  -4   4  -2  428.76   15.60
   4  -4   2  422.56   16.00
  -5   4  -2  152.18    5.70
  -5   4  -2  145.49    5.80
  -5   4  -2  158.08    5.70
  -5   4  -2  144.99    6.20
   5  -4   2  150.18    5.90
   5  -4   2  145.69    5.70
  -6   4  -2    5.20    0.80
  -6   4  -2    5.00    0.50
   6  -4   2    5.30    0.70
   6  -4   2    3.60    0.60
   6  -4   2    5.40    0.80
  -4  -3   2   16.10    1.90
  -4  -3   2   18.30    2.10
   3   3  -2  315.57   12.40
  -3  -3   2  320.87   13.00
  -3  -3   2  320.07   12.80
   2   3  -2 1227.68   46.50
  -2  -3   2 1304.17   47.10
  -2  -3   2 1234.98   46.10
  -2  -3   2 1325.87   47.00
   1   3  -2  112.09    4.70
  -1  -3   2  115.09    5.10
  -1  -3   2  105.19    4.40
  -1  -3   2  121.49    5.30
   0   3  -2  346.87   12.80
   0  -3   2  366.36   13.60
   0  -3   2  332.17   12.50
   0  -3   2  318.77   12.60
  -1   3  -2 1190.98   42.20
  -1   3  -2 1155.08   41.90
   1  -3   2 1190.28   42.10
   1  -3   2 1140.59   42.50
   1  -3   2 1121.99   42.00
  -2   3  -2 1914.81   67.49
  -2   3  -2 1790.72   67.89
   2  -3   2 1927.61   67.69
   2  -3   2 1855.61   67.69
  -3   3  -2   15.80    0.80
   3  -3   2   12.00    1.20
   3  -3   2   12.30    1.10
  -4   3  -2  187.78    6.90
   4  -3   2  181.68    6.90
   4  -3   2  177.08    8.10
   4  -3   2  184.48    7.30
  -5   3  -2 1724.93   61.49
  -5   3  -2 1687.23   61.99
  -5   3  -2 1751.62   61.69
  -5   3  -2 1823.42   61.59
   5  -3   2 1616.94   61.59
   5  -3   2 1657.83   63.49
   5  -3   2 1669.43   61.69
   5  -3   2 1705.53   61.69
  -6   3  -2  116.09    4.20
  -6   3  -2  108.19    4.70
   6  -3   2   98.89    4.30
   6  -3   2  115.79    4.40
   6  -3   2  110.09    4.30
  -7   3  -2    8.50    0.60
  -7   3  -2    7.40    1.00
   7  -3   2    9.10    0.90
   7  -3   2    7.90    0.60
  -7  -2   2  294.57   11.00
  -6  -2   2   42.60    2.00
  -6  -2   2   39.70    1.90
  -5  -2   2   86.19    4.60
  -4  -2   2  262.47   10.90
  -4  -2   2  258.47   10.70
  -3  -2   2    5.60    1.10
  -3  -2   2    6.30    1.10
  -3  -2   2    6.10    0.90
   2   2  -2  740.33   27.00
   2   2  -2  683.93   27.00
  -2  -2   2  790.52   27.50
  -2  -2   2  746.23   27.10
  -2  -2   2  710.83   27.40
   1   2  -2  498.35   18.80
  -1  -2   2  498.75   19.10
  -1  -2   2  517.15   18.80
  -1  -2   2  545.85   19.40
  -1  -2   2  499.95   18.60
   0   2  -2 2497.35   92.39
   0  -2   2 2576.34   92.59
   0  -2   2 2687.63   91.89
   0  -2   2 2366.16   91.59
  -1   2  -2  963.30   35.60
   1  -2   2  996.00   35.80
   1  -2   2  980.60   35.50
  -2   2  -2  176.58    6.80
  -2   2  -2  170.38    6.40
   2  -2   2  187.78    6.70
   2  -2   2  166.48    7.10
  -3   2  -2  984.40   38.50
  -3   2  -2 1067.69   38.10
  -3   2  -2 1058.09   38.90
   3  -2   2 1045.30   38.90
   3  -2   2 1113.29   38.40
  -4   2  -2  808.42   27.80
   4  -2   2  726.13   27.80
   4  -2   2  761.02   28.90
  -5   2  -2  337.87   12.20
  -5   2  -2  322.17   12.60
  -5   2  -2  329.87   12.30
  -5   2  -2  337.27   12.40
   5  -2   2  329.67   12.30
   5  -2   2  299.37   12.20
   5  -2   2  363.36   13.80
  -6   2  -2  154.38    6.30
  -6   2  -2  160.28    5.90
   6  -2   2  160.28    6.00
   6  -2   2  161.38    7.40
   6  -2   2  145.79    5.90
  -7   2  -2   20.00    1.40
  -7   2  -2   18.00    0.90
   7  -2   2   15.70    1.00
   7  -2   2   17.50    1.00
  -7  -1   2  210.78    7.90
  -7  -1   2  202.88    7.70
   6   1  -2   42.60    2.40
  -6  -1   2   43.40    2.10
  -6  -1   2   44.60    1.90
   5   1  -2   63.29    3.00
  -5  -1   2   61.69    4.00
  -5  -1   2   61.59    3.70
   4   1  -2 1252.47   45.50
  -4  -1   2 1282.47   46.70
  -4  -1   2 1229.08   46.50
   3   1  -2   82.59    3.70
  -3  -1   2   88.89    4.10
  -3  -1   2   87.79    4.20
   2   1  -2  514.85   18.60
   2   1  -2  440.26   18.40
  -2  -1   2  466.65   18.70
  -2  -1   2  531.45   18.80
  -2  -1   2  561.14   19.00
  -1  -1   2 6008.10  212.88
  -1  -1   2 5464.55  211.38
  -1  -1   2 5875.61  211.48
  -1  -1   2 5913.01  209.88
   0  -1   2 3020.00  109.29
  -1   1  -2 1949.01   71.09
   1  -1   2 1985.60   70.99
   1  -1   2 1931.81   70.49
  -2   1  -2   89.99    3.50
  -2   1  -2   93.49    4.00
  -2   1  -2   98.39    4.00
  -2   1  -2   87.99    3.80
   2  -1   2  101.89    3.70
   2  -1   2   92.69    4.00
  -3   1  -2  444.36   15.90
  -3   1  -2  432.76   16.30
  -3   1  -2  428.56   16.50
  -3   1  -2  437.56   16.70
   3  -1   2  434.06   16.10
  -4   1  -2   44.70    2.70
  -4   1  -2   47.00    2.00
   4  -1   2   44.80    2.30
   4  -1   2   42.40    2.60
   5  -1   2  130.39    5.90
   5  -1   2  117.69    4.70
   5  -1   2  116.59    5.10
  -6   1  -2   30.40    1.70
  -6   1  -2   30.20    1.90
  -6   1  -2   29.30    1.40
  -6   1  -2   30.10    1.60
   6  -1   2   29.40    1.50
   6  -1   2   30.50    2.50
   6  -1   2   27.10    1.40
  -7   1  -2   58.09    2.60
  -7   1  -2   54.29    2.30
   7  -1   2   52.09    2.20
   7  -1   2   51.79    2.20
   7   0  -2    2.50    0.40
  -7   0   2    2.10    0.40
  -7   0   2    2.30    0.50
   6   0  -2  262.57   10.40
  -6   0   2  258.57    9.80
  -6   0   2  252.57    9.60
   5   0  -2   55.99    2.70
   5   0  -2   49.99    2.70
  -5   0   2   50.29    3.30
   4   0  -2   74.89    3.30
   4   0  -2   71.99    3.20
  -4   0   2   76.59    4.20
  -4   0   2   74.59    3.90
  -3   0   2  362.36   14.40
  -3   0   2  375.86   14.30
   2   0  -2  649.14   23.60
   2   0  -2  611.64   23.50
  -2   0   2  655.53   23.80
  -2   0   2  609.34   23.70
  -2   0   2  681.13   23.80
   1   0  -2 2554.04   99.29
   1   0  -2 2771.42   99.39
  -1   0   2 2637.04   99.39
  -1   0   2 2903.11   99.39
  -1   0  -2 4413.36  166.88
  -1   0  -2 4563.94  167.88
   1   0   2 4563.54  166.08
   1   0   2 4665.03  168.08
   1   0   2 4800.22  166.78
  -2   0  -2  619.94   22.00
  -2   0  -2  592.14   21.90
  -2   0  -2  598.64   22.10
   2   0   2  574.04   21.90
   2   0   2  595.74   21.70
  -3   0  -2 1872.81   66.39
  -3   0  -2 1744.43   66.89
  -3   0  -2 1844.92   67.29
  -3   0  -2 1884.41   68.89
   3   0   2 1866.41   66.59
  -4   0  -2   93.49    4.80
  -4   0  -2   88.69    4.40
   4   0   2   93.49    4.20
   4   0   2   94.39    3.90
   5   0   2    0.10    0.30
   5   0   2    1.10    0.60
   5   0   2    0.90    0.80
   5   0   2    0.50    1.10
  -6   0  -2  693.93   24.90
  -6   0  -2  698.73   25.00
  -6   0  -2  676.13   24.90
   6   0   2  639.14   24.70
   6   0   2  680.43   25.90
  -7   0  -2  187.98    7.10
  -7   0  -2  199.58    7.30
   7   0   2  185.38    7.00
   7   0   2  175.88    7.00
   7  -1  -2  201.28    7.60
  -7   1   2  203.58    7.80
  -7   1   2  211.28    7.60
   6  -1  -2   47.60    2.80
   6  -1  -2   46.80    2.00
  -6   1   2   44.00    2.20
  -6   1   2   44.30    2.00
   5  -1  -2   63.99    2.70
   5  -1  -2   65.29    3.10
   5  -1  -2   64.49    3.40
  -5   1   2   62.69    3.80
   4  -1  -2 1271.77   44.70
   4  -1  -2 1212.28   44.80
   4  -1  -2 1212.88   44.60
  -4   1   2 1204.88   45.40
   3  -1  -2   82.19    3.40
  -3   1   2   85.89    4.20
  -3   1   2   83.89    4.00
   2  -1  -2  501.25   19.20
   2  -1  -2  506.55   19.30
  -2   1   2  528.75   19.50
  -2   1   2  543.35   19.50
  -2   1   2  522.05   19.50
   1  -1  -2 5870.31  217.48
   1  -1  -2 6083.19  216.88
  -1   1   2 5871.21  217.38
  -1   1   2 5664.33  217.68
  -1   1   2 6390.56  217.38
   0  -1  -2 2950.40  100.49
   0  -1  -2 2928.01  102.69
   0   1   2 2438.56  101.59
  -1  -1  -2 1963.80   72.29
  -1  -1  -2 1992.10   71.99
   1   1   2 1974.00   73.39
  -2  -1  -2   99.89    4.20
  -2  -1  -2   96.79    4.00
   2   1   2   90.39    3.60
   2   1   2   91.89    3.80
   2   1   2   95.09    4.20
  -3  -1  -2  441.56   16.50
  -3  -1  -2  446.36   16.90
   3   1   2  440.46   16.90
   3   1   2  407.46   15.90
  -4  -1  -2   43.00    3.00
   4   1   2   43.40    2.20
   4   1   2   45.80    3.10
   5   1   2  120.49    6.50
   5   1   2  129.89    5.60
  -6  -1  -2   30.00    1.60
  -6  -1  -2   30.90    1.80
  -6  -1  -2   28.40    1.70
   6   1   2   28.30    2.20
   6   1   2   31.60    1.40
  -7  -1  -2   59.49    2.50
  -7  -1  -2   59.89    2.60
   7   1   2   52.59    2.30
   7  -2  -2  295.27   11.00
   7  -2  -2  291.97   11.00
  -7   2   2  310.17   11.00
  -7   2   2  299.67   11.10
   6  -2  -2   44.30    2.80
   6  -2  -2   45.20    2.00
   6  -2  -2   41.90    1.90
  -6   2   2   43.60    1.90
  -6   2   2   42.80    2.10
   5  -2  -2   89.39    4.10
   5  -2  -2   93.69    4.10
   5  -2  -2   96.49    4.50
   5  -2  -2   89.89    3.60
  -5   2   2   85.89    3.60
  -5   2   2   97.49    4.30
  -5   2   2   82.19    4.70
   4  -2  -2  252.47   10.30
   4  -2  -2  257.77    9.90
   4  -2  -2  258.17    9.90
  -4   2   2  263.47   10.70
   3  -2  -2    4.60    0.60
   3  -2  -2    4.80    0.80
  -3   2   2    5.10    0.40
  -3   2   2    4.30    0.90
  -3   2   2    5.80    1.30
   2  -2  -2  701.73   26.00
   2  -2  -2  697.43   26.40
   2  -2  -2  712.23   26.40
  -2   2   2  719.63   26.40
  -2   2   2  735.63   26.70
   1  -2  -2  497.85   19.30
   1  -2  -2  518.45   19.10
  -1   2   2  539.65   19.20
  -1   2   2  523.55   19.40
   0  -2  -2 2441.06   89.39
   0  -2  -2 2489.85   88.79
   0   2   2 2476.75   90.59
   0   2   2 2382.86   88.39
  -1  -2  -2 1036.30   36.60
  -1  -2  -2  960.50   36.50
   1   2   2  994.70   36.70
  -2  -2  -2  169.68    7.10
  -2  -2  -2  180.78    7.40
   2   2   2  178.28    7.30
  -3  -2  -2 1106.59   40.10
   3   2   2 1036.70   39.90
  -4  -2  -2  765.62   29.20
   4   2   2  774.62   29.10
   4   2   2  729.53   27.70
  -5  -2  -2  355.46   13.00
  -5  -2  -2  338.27   12.80
  -5  -2  -2  345.47   12.90
  -5  -2  -2  346.17   13.00
   5   2   2  345.67   13.40
  -6  -2  -2  166.28    6.40
  -6  -2  -2  164.48    6.30
  -6  -2  -2  166.18    6.40
   6   2   2  155.28    7.00
  -7  -2  -2   21.20    1.30
  -7  -2  -2   19.10    1.20
   7  -3  -2   72.19    2.70
   7  -3  -2   63.79    2.80
  -7   3   2   69.59    2.70
   6  -3  -2   26.00    1.30
   6  -3  -2   25.80    1.30
   6  -3  -2   24.80    1.50
   6  -3  -2   23.70    2.00
  -6   3   2   26.70    1.30
   5  -3  -2  644.04   23.80
   5  -3  -2  614.24   22.60
   5  -3  -2  584.54   22.70
   5  -3  -2  650.13   22.70
   5  -3  -2  611.34   23.20
  -5   3   2  618.54   22.60
   4  -3  -2   19.70    1.00
   4  -3  -2   20.30    1.40
   4  -3  -2   18.10    1.70
   4  -3  -2   19.20    1.60
  -4   3   2   19.80    1.10
   3  -3  -2  299.97   12.20
   3  -3  -2  305.67   11.70
   3  -3  -2  326.87   11.90
  -3   3   2  312.67   11.50
  -3   3   2  320.07   12.80
   2  -3  -2 1268.57   44.70
   2  -3  -2 1200.58   44.50
   2  -3  -2 1176.98   45.10
  -2   3   2 1248.48   44.40
  -2   3   2 1254.27   45.40
   1  -3  -2  102.99    4.30
   1  -3  -2  102.79    4.60
   1  -3  -2  102.59    4.10
  -1   3   2  111.59    4.70
  -1   3   2  102.39    3.90
   0  -3  -2  307.67   12.20
   0  -3  -2  332.57   12.50
   0   3   2  326.97   12.40
   0   3   2  313.77   11.70
  -1  -3  -2 1150.98   43.10
  -1  -3  -2 1223.08   43.20
   1   3   2 1206.38   43.30
   1   3   2 1108.99   42.40
  -2  -3  -2 1906.11   69.09
  -2  -3  -2 1890.41   68.79
   2   3   2 1854.81   68.99
  -3  -3  -2   14.10    1.80
   3   3   2   12.10    1.60
   3   3   2   12.80    1.00
  -4  -3  -2  181.88    8.80
   4   3   2  184.28    8.60
   4   3   2  186.38    7.20
  -5  -3  -2 1759.42   65.29
  -5  -3  -2 1859.81   65.49
  -5  -3  -2 1822.92   65.49
   5   3   2 1787.22   65.79
  -6  -3  -2  112.49    4.50
  -6  -3  -2  115.49    4.50
  -6  -3  -2  102.39    4.40
   6   3   2  105.69    4.80
  -7  -3  -2    8.30    0.70
  -7  -3  -2    9.40    0.90
   6  -4  -2   86.89    3.50
   6  -4  -2   84.29    3.60
   6  -4  -2   89.69    3.50
   6  -4  -2   91.39    3.50
  -6   4   2   89.09    3.40
   5  -4  -2  453.25   16.10
   5  -4  -2  435.76   16.20
   5  -4  -2  429.56   16.30
   5  -4  -2  440.26   16.20
   5  -4  -2  434.26   16.70
  -5   4   2  438.06   16.00
  -5   4   2  447.16   16.10
   4  -4  -2 1056.79   37.60
   4  -4  -2 1081.99   38.20
  -4   4   2  974.60   37.60
   3  -4  -2  439.46   16.40
  -3   4   2  430.36   17.40
  -3   4   2  433.96   15.90
   2  -4  -2 1940.21   68.59
  -2   4   2 1863.91   68.19
  -2   4   2 1867.91   69.39
   1  -4  -2 2690.13   97.19
   1  -4  -2 2672.23   97.99
  -1   4   2 2716.53   97.89
  -1   4   2 2689.53   96.99
   0  -4  -2  247.48    9.90
   0  -4  -2  269.57   10.80
   0   4   2  268.17    9.80
   0   4   2  269.37   10.60
  -1  -4  -2  136.19    6.20
  -1  -4  -2  130.59    6.00
   1   4   2  143.09    5.20
   1   4   2  132.19    6.00
   1   4   2  131.19    5.80
  -2  -4  -2  184.58    7.90
  -2  -4  -2  188.68    8.00
   2   4   2  177.38    6.80
   2   4   2  176.28    8.00
   2   4   2  171.08    7.20
  -3  -4  -2  174.48    8.20
   3   4   2  167.68    7.00
   3   4   2  178.68    8.60
  -4  -4  -2  417.06   17.60
   4   4   2  428.26   16.00
  -5  -4  -2  150.98    6.00
  -5  -4  -2  148.79    6.00
  -5  -4  -2  149.29    5.80
   5   4   2  155.98    6.30
  -6  -4  -2    5.60    0.70
  -6  -4  -2    5.30    0.80
   6  -5  -2   86.19    3.50
   6  -5  -2   88.09    3.40
  -6   5   2   85.69    3.30
   5  -5  -2   55.09    2.30
   5  -5  -2   51.29    2.30
   5  -5  -2   56.79    2.50
  -5   5   2   51.19    2.50
  -5   5   2   55.19    2.20
   4  -5  -2  228.28    8.70
   4  -5  -2  228.68    8.50
   4  -5  -2  230.78    9.20
   4  -5  -2  227.38    8.60
  -4   5   2  213.28    8.50
  -4   5   2  233.98    8.50
   3  -5  -2   89.59    4.20
  -3   5   2   86.69    3.50
   2  -5  -2   33.30    2.10
  -2   5   2   33.50    1.60
   1  -5  -2  148.89    7.10
   1  -5  -2  152.28    6.20
  -1   5   2  162.98    5.90
   0  -5  -2   33.20    2.60
   0   5   2   31.10    2.20
   0   5   2   34.60    1.60
  -1  -5  -2  211.78    9.50
  -1  -5  -2  221.68    9.60
   1   5   2  234.18    8.40
   1   5   2  218.08    9.00
  -2  -5  -2  380.46   15.20
   2   5   2  347.37   13.40
   2   5   2  368.06   14.30
   2   5   2  372.16   13.60
  -3  -5  -2  133.09    7.00
   3   5   2  138.89    5.90
   3   5   2  133.49    5.40
  -4  -5  -2   14.30    1.00
  -4  -5  -2   12.60    1.00
  -4  -5  -2   14.50    1.30
   4   5   2   12.40    1.20
   4   5   2   14.10    1.50
  -5  -5  -2  104.19    4.20
  -5  -5  -2  101.29    4.00
   5   5   2   99.49    4.50
  -6  -5  -2   27.10    1.50
   6  -6  -2   49.90    2.20
   6  -6  -2   52.89    2.10
   5  -6  -2  262.67    9.80
   5  -6  -2  272.17    9.70
  -5   6   2  240.78    9.70
  -5   6   2  267.67    9.60
   4  -6  -2  123.99    5.00
   4  -6  -2  123.19    4.80
  -4   6   2  120.49    4.70
   3  -6  -2   41.70    2.10
   3  -6  -2   41.50    2.60
   3  -6  -2   41.70    1.90
  -3   6   2   38.70    1.90
  -3   6   2   39.80    1.90
   2  -6  -2  383.96   14.60
  -2   6   2  375.46   14.00
   1  -6  -2   15.20    2.10
   1  -6  -2   19.90    1.60
  -1   6   2   21.10    1.20
   0  -6  -2   27.90    2.60
   0   6   2   27.10    1.30
   0   6   2   27.60    1.50
   1   6   2  138.29    6.50
   1   6   2  143.49    5.70
   1   6   2  151.68    6.60
   1   6   2  143.89    5.50
  -2  -6  -2    4.20    1.30
   2   6   2    5.30    1.20
   2   6   2    5.60    0.80
   2   6   2    7.10    1.50
   2   6   2    6.30    0.70
  -3  -6  -2  569.24   21.20
  -3  -6  -2  577.44   21.40
  -3  -6  -2  553.74   21.10
   3   6   2  614.54   22.10
   3   6   2  566.64   21.30
   3   6   2  585.04   21.00
  -4  -6  -2  426.16   15.50
  -4  -6  -2  427.26   15.80
  -4  -6  -2  399.46   15.50
   4   6   2  422.06   15.40
   4   6   2  436.66   16.20
  -5  -6  -2   61.19    2.50
  -5  -6  -2   66.49    2.80
   5   6   2   58.89    2.40
   5  -7  -2    7.60    0.60
   5  -7  -2    6.50    0.70
  -5   7   2    4.90    0.70
  -5   7   2    5.60    0.50
   4  -7  -2  136.09    5.30
   4  -7  -2  143.09    5.50
  -4   7   2  135.19    5.20
   3  -7  -2   48.90    2.20
   3  -7  -2   49.70    2.30
   3  -7  -2   54.69    2.50
  -3   7   2   50.69    2.20
   2  -7  -2   96.79    4.50
   2  -7  -2  100.19    4.10
   2  -7  -2   96.99    3.90
  -2   7   2   92.99    3.90
  -2   7   2   99.39    3.90
   1  -7  -2  279.37   10.20
   1  -7  -2  277.27   10.40
  -1   7   2  264.97   10.30
  -1   7   2  271.97   10.20
   0  -7  -2  831.22   29.90
   0  -7  -2  790.72   30.00
   0  -7  -2  827.22   29.90
   0   7   2  801.32   30.00
   0   7   2  837.62   29.90
   0   7   2  845.32   29.80
  -1  -7  -2  387.76   14.60
  -1  -7  -2  401.86   14.80
  -1  -7  -2  398.46   14.70
  -1  -7  -2  401.16   15.00
   1   7   2  396.86   14.90
   1   7   2  406.06   14.70
   1   7   2  400.86   15.90
   1   7   2  410.26   14.70
   1   7   2  398.36   14.70
  -2  -7  -2  155.58    6.00
  -2  -7  -2  157.28    6.30
  -2  -7  -2  148.59    6.00
   2   7   2  150.58    6.20
   2   7   2  167.98    6.00
   2   7   2  154.38    5.90
   2   7   2  163.28    7.10
  -3  -7  -2  213.88    8.20
  -3  -7  -2  201.98    7.90
  -3  -7  -2  214.98    8.00
   3   7   2  208.88    8.80
   3   7   2  219.58    7.90
   3   7   2  209.48    7.90
  -4  -7  -2   57.19    2.50
  -4  -7  -2   64.59    2.60
  -4  -7  -2   62.39    2.80
   4   7   2   62.19    2.50
  -5  -7  -2    1.70    0.30
  -5  -7  -2    1.50    0.50
   4  -8  -2   25.10    1.40
  -4   8   2   24.80    1.20
   3  -8  -2  294.17   10.30
   3  -8  -2  264.77   10.10
  -3   8   2  257.27   10.00
   2  -8  -2  189.18    7.20
   2  -8  -2  183.18    7.00
  -2   8   2  186.68    7.00
   1  -8  -2   92.99    3.80
   1  -8  -2   90.29    3.60
  -1   8   2   89.19    3.70
   0  -8  -2  149.09    5.80
   0  -8  -2  148.59    6.10
   0  -8  -2  146.99    6.00
   0   8   2  146.59    5.90
   0   8   2  171.88    6.00
  -1  -8  -2  526.85   20.70
  -1  -8  -2  563.34   20.90
  -1  -8  -2  554.04   20.80
  -1  -8  -2  549.65   21.00
   1   8   2  641.14   20.90
   1   8   2  583.84   20.70
   1   8   2  565.14   20.80
  -2  -8  -2   51.79    2.30
  -2  -8  -2   54.59    2.60
  -2  -8  -2   54.49    2.30
   2   8   2   49.60    3.20
   2   8   2   54.29    2.20
   2   8   2   53.39    2.20
  -3  -8  -2   22.70    1.20
  -3  -8  -2   21.10    1.20
  -3  -8  -2   22.70    1.50
   3   8   2   20.90    1.10
   3   8   2   23.00    1.20
  -4  -8  -2  295.07   10.70
  -4  -8  -2  292.97   10.60
   4   8   2  277.67   10.50
   2  -9  -2   67.39    3.00
   2  -9  -2   72.29    3.00
   2  -9  -2   74.49    2.90
  -2   9   2   71.79    2.80
   1  -9  -2  224.28    8.60
   1  -9  -2  223.78    8.50
   1  -9  -2  228.78    8.40
  -1   9   2  226.28    8.40
   0  -9  -2   67.19    2.70
   0  -9  -2   62.99    2.80
   0  -9  -2   70.39    3.00
   0   9   2   70.19    2.80
  -1  -9  -2    2.50    0.50
  -1  -9  -2    3.10    0.60
   1   9   2    3.30    0.50
   1   9   2    4.30    0.50
  -2  -9  -2   24.00    1.20
  -2  -9  -2   23.30    1.50
   2   9   2   25.10    1.10
   2   9  -3   18.40    1.00
  -2  -9   3   18.30    1.10
   1   9  -3   89.19    3.50
   1   9  -3   91.79    3.50
  -1  -9   3   88.09    3.60
   0   9  -3  142.79    5.30
   0  -9   3  139.69    5.40
   0  -9   3  130.89    5.30
  -1   9  -3    8.70    0.90
   1  -9   3    9.10    0.80
   1  -9   3    9.20    1.10
  -2   9  -3   54.49    2.20
   2  -9   3   54.29    2.20
   2  -9   3   53.29    2.40
  -4  -8   3   48.70    2.10
  -4  -8   3   53.19    2.20
   3   8  -3   17.90    1.10
   3   8  -3   17.40    1.10
  -3  -8   3   18.80    1.30
  -3  -8   3   20.10    1.20
   2   8  -3  138.39    5.20
   2   8  -3  134.09    5.10
   2   8  -3  124.59    6.30
  -2  -8   3  128.39    5.20
  -2  -8   3  136.99    5.20
   1   8  -3  173.58    6.50
   1   8  -3  177.48    6.60
   1   8  -3  163.78    6.60
  -1  -8   3  176.68    6.70
   0   8  -3   83.09    3.30
   0   8  -3   78.69    3.50
   0  -8   3   81.09    3.50
   0  -8   3   85.59    3.30
   0  -8   3   84.59    3.60
  -1   8  -3  163.08    6.30
   1  -8   3  157.98    6.30
   1  -8   3  168.98    6.30
  -2   8  -3  113.09    4.40
   2  -8   3  108.89    4.40
  -3   8  -3    6.80    0.70
   3  -8   3    5.60    0.60
  -4   8  -3    7.50    0.60
   4  -8   3    7.80    0.70
  -5  -7   3   44.40    1.90
   4   7  -3  115.39    4.60
  -4  -7   3  119.99    4.70
  -4  -7   3  124.49    4.80
   3   7  -3   36.60    1.80
   3   7  -3   37.10    2.90
  -3  -7   3   39.70    2.00
  -3  -7   3   36.10    1.90
   2   7  -3   64.19    2.70
   2   7  -3   64.39    4.10
  -2  -7   3   63.09    2.80
  -2  -7   3   61.79    2.90
   1   7  -3  123.49    4.70
   1   7  -3  125.29    6.20
   1   7  -3  111.99    4.60
   1   7  -3  116.49    4.70
  -1  -7   3  111.49    4.90
  -1  -7   3  117.99    4.80
   0   7  -3  792.62   28.50
   0   7  -3  769.02   28.60
   0   7  -3  796.22   28.50
   0  -7   3  788.12   28.50
   0  -7   3  785.72   28.60
   0  -7   3  763.02   28.80
  -1   7  -3   43.40    2.20
   1  -7   3   45.00    2.50
   1  -7   3   44.90    2.20
   1  -7   3   45.40    2.10
  -2   7  -3   15.70    1.30
  -2   7  -3   13.30    0.90
   2  -7   3   14.20    1.60
   2  -7   3   15.10    1.20
  -3   7  -3   23.00    1.30
   3  -7   3   21.90    1.40
  -4   7  -3    9.50    0.80
   4  -7   3    8.80    0.80
  -5   7  -3   20.20    0.90
  -5   7  -3   23.30    1.00
   5  -7   3   20.70    1.10
  -5  -6   3   44.70    2.10
   4   6  -3  228.58    9.70
  -4  -6   3  241.78    9.00
  -4  -6   3  238.58    9.00
   3   6  -3  244.08   10.20
  -3  -6   3  241.68    9.20
  -3  -6   3  242.98    9.20
   2   6  -3   53.29    2.30
   2   6  -3   55.09    3.20
   2   6  -3   57.19    3.50
  -2  -6   3   54.69    2.70
  -2  -6   3   55.69    2.80
  -2  -6   3   49.80    2.70
   1   6  -3  287.47   11.70
   1   6  -3  279.47   11.20
   1   6  -3  277.07   10.30
  -1  -6   3  257.37   12.20
  -1  -6   3  280.27   10.60
   0   6  -3  155.38    5.90
   0   6  -3  148.29    7.20
   0   6  -3  159.98    6.70
   0  -6   3  153.88    6.20
   0  -6   3  142.39    8.00
  -1   6  -3  592.54   23.10
  -1   6  -3  636.24   22.30
   1  -6   3  628.94   22.80
   1  -6   3  592.74   24.90
  -2   6  -3  319.07   12.00
  -2   6  -3  322.27   11.80
   2  -6   3  311.77   11.90
   2  -6   3  324.07   12.30
  -3   6  -3   75.69    3.30
  -3   6  -3   81.19    3.20
   3  -6   3   83.69    3.40
   3  -6   3   75.79    3.40
   3  -6   3   80.69    3.80
  -4   6  -3  141.79    5.60
   4  -6   3  149.19    5.70
  -5   6  -3    0.80    0.40
  -5   6  -3    0.50    0.40
   5  -6   3    0.70    0.50
   5  -6   3    0.50    0.50
  -5  -5   3   63.59    2.80
  -4  -5   3   55.99    2.60
  -4  -5   3   55.39    2.60
   3   5  -3   22.30    1.90
   3   5  -3   24.60    2.00
   2   5  -3  130.39    5.80
   2   5  -3  131.39    5.90
  -2  -5   3  137.49    5.30
  -2  -5   3  118.89    6.50
   1   5  -3   35.80    2.60
   1   5  -3   37.50    2.30
  -1  -5   3   32.60    1.90
  -1  -5   3   33.70    3.00
   0   5  -3   65.09    3.20
   0   5  -3   61.29    3.60
   0  -5   3   61.89    4.30
   0  -5   3   63.89    2.90
  -1   5  -3  171.48    6.20
  -1   5  -3  163.28    6.90
   1  -5   3  168.88    6.60
   1  -5   3  160.68    8.20
  -2   5  -3  407.86   14.30
  -2   5  -3  350.86   14.90
   2  -5   3  411.16   14.80
  -3   5  -3  361.86   13.30
   3  -5   3  360.66   13.80
  -4   5  -3    8.20    0.90
  -4   5  -3    8.40    0.80
  -4   5  -3    9.20    1.20
   4  -5   3    9.60    1.00
   4  -5   3    9.70    1.20
  -5   5  -3  117.59    4.50
  -5   5  -3  115.59    4.50
  -5   5  -3  113.79    4.90
   5  -5   3  119.59    4.70
   5  -5   3  116.29    4.70
  -6   5  -3   50.89    2.00
   6  -5   3   52.29    2.20
   6  -5   3   50.89    2.20
  -5  -4   3  467.95   17.50
  -4  -4   3  316.57   13.50
   3   4  -3   97.19    4.50
  -3  -4   3   95.79    5.10
  -3  -4   3   97.19    5.20
   2   4  -3  312.37   11.90
   2   4  -3  280.77   11.70
  -2  -4   3  297.77   12.70
  -2  -4   3  318.57   11.40
  -2  -4   3  317.07   12.70
   1   4  -3  377.86   15.20
   1   4  -3  406.86   15.10
  -1  -4   3  396.86   14.60
  -1  -4   3  398.46   16.00
   0   4  -3  381.46   15.60
   0   4  -3  403.56   14.90
   0  -4   3  380.56   14.50
   0  -4   3  402.86   16.00
  -1   4  -3   15.60    1.20
  -1   4  -3   14.30    0.80
   1  -4   3   14.80    1.20
   1  -4   3   13.70    2.10
   1  -4   3   15.30    1.00
  -2   4  -3  699.43   26.90
  -2   4  -3  721.53   26.30
   2  -4   3  758.72   26.70
   2  -4   3  725.33   26.60
  -3   4  -3  299.77   11.00
   3  -4   3  293.67   11.30
  -4   4  -3   97.89    3.90
  -4   4  -3   94.79    3.90
  -4   4  -3   98.69    4.30
   4  -4   3   96.69    4.00
   4  -4   3  100.49    3.90
  -5   4  -3  312.47   12.10
  -5   4  -3  323.87   11.60
  -5   4  -3  314.07   11.60
   5  -4   3  308.37   11.60
   5  -4   3  315.97   11.80
  -6   4  -3  164.78    6.50
  -6   4  -3  165.58    6.10
   6  -4   3  161.48    6.30
   6  -4   3  163.48    6.30
  -5  -3   3  657.53   24.30
  -4  -3   3 1017.50   38.50
  -3  -3   3  641.14   24.60
  -3  -3   3  635.64   24.50
   2   3  -3  519.35   19.90
  -2  -3   3  532.45   20.60
  -2  -3   3  548.85   20.50
   1   3  -3 2665.43   98.29
  -1  -3   3 2920.51   98.99
  -1  -3   3 2640.54   97.69
  -1  -3   3 2621.84   97.79
   0   3  -3  185.28    7.20
   0  -3   3  179.08    6.90
   0  -3   3  181.18    8.00
   0  -3   3  186.98    6.90
  -1   3  -3  242.78    9.40
  -1   3  -3  261.17    9.90
   1  -3   3  258.57    9.70
   1  -3   3  270.47    9.60
  -2   3  -3  715.03   26.20
  -2   3  -3  692.93   25.70
   2  -3   3  733.93   26.00
   2  -3   3  697.93   25.90
  -3   3  -3  393.66   15.40
  -3   3  -3  385.96   15.80
  -3   3  -3  418.36   14.90
   3  -3   3  430.86   15.20
  -4   3  -3  361.96   13.10
   4  -3   3  342.67   13.10
   4  -3   3  357.26   13.50
  -5   3  -3   49.20    2.10
  -5   3  -3   46.20    2.20
  -5   3  -3   45.90    2.10
  -5   3  -3   49.70    2.60
   5  -3   3   47.10    2.10
   5  -3   3   46.70    2.20
   5  -3   3   48.20    2.20
  -6   3  -3  454.85   17.00
  -6   3  -3  451.85   16.50
   6  -3   3  458.55   16.60
   6  -3   3  450.05   16.70
  -7  -2   3   47.60    2.10
  -7  -2   3   46.40    2.00
  -6  -2   3  361.36   13.30
  -6  -2   3  350.86   13.10
  -5  -2   3  192.58    7.40
  -5  -2   3  191.98    7.20
  -4  -2   3  273.37   11.50
  -4  -2   3  292.17   12.00
   3   2  -3  816.92   30.40
  -3  -2   3  848.72   31.00
  -3  -2   3  844.02   30.70
  -3  -2   3  772.22   30.70
   2   2  -3  588.64   21.40
   2   2  -3  535.95   21.30
  -2  -2   3  595.64   21.60
  -2  -2   3  588.64   22.00
  -2  -2   3  578.14   21.80
   1   2  -3 1704.63   64.99
  -1  -2   3 1855.61   64.49
  -1  -2   3 1727.63   64.19
  -1  -2   3 1641.84   64.19
  -1  -2   3 1963.10   65.09
   0   2  -3 1122.39   41.40
   0  -2   3 1104.99   41.20
   0  -2   3 1189.88   42.10
  -1   2  -3  628.64   23.00
   1  -2   3  631.54   22.80
   1  -2   3  616.04   23.20
  -2   2  -3 1527.25   56.79
  -2   2  -3 1536.85   56.39
   2  -2   3 1632.14   56.69
  -3   2  -3  395.46   14.20
  -3   2  -3  389.56   14.80
  -3   2  -3  397.36   15.20
   3  -2   3  402.86   14.60
   3  -2   3  365.06   15.20
  -4   2  -3   15.60    1.00
   4  -2   3   15.00    1.70
   4  -2   3   14.60    1.30
   4  -2   3   15.20    0.90
  -5   2  -3  209.78    7.90
  -5   2  -3  203.38    7.80
  -5   2  -3  209.38    8.10
  -5   2  -3  211.58    7.60
   5  -2   3  198.58    7.70
   5  -2   3  199.38    9.10
   5  -2   3  197.78    7.80
   5  -2   3  207.08    7.80
  -6   2  -3  253.77    9.30
  -6   2  -3  246.58    8.90
   6  -2   3  240.08    8.90
   6  -2   3  228.18    9.00
   6  -2   3  222.08   10.20
   6  -2   3  245.28    9.20
  -7   2  -3   13.20    0.70
  -7   2  -3   15.10    1.20
   7  -2   3   14.20    0.80
  -7  -1   3  225.78    8.40
  -7  -1   3  227.98    8.60
   6   1  -3    9.80    1.10
  -6  -1   3   10.70    1.00
  -6  -1   3   11.80    0.80
   5   1  -3    0.40    0.60
  -5  -1   3    0.60    0.90
  -5  -1   3    1.00    0.80
  -4  -1   3   58.69    3.40
  -4  -1   3   59.89    3.70
   3   1  -3   18.60    1.40
  -3  -1   3   19.40    1.80
  -3  -1   3   19.50    1.60
   2   1  -3  947.31   36.00
   2   1  -3  984.90   36.00
  -2  -1   3 1026.50   36.20
  -2  -1   3 1048.90   36.50
  -2  -1   3  912.01   36.00
   1   1  -3 1766.72   66.79
   1   1  -3 1761.12   67.39
  -1  -1   3 1892.91   67.49
  -1  -1   3 1989.90   67.09
  -1  -1   3 1803.02   66.39
   0   1  -3 6103.59  222.58
   0   1  -3 5926.21  222.98
   0  -1   3 6563.14  223.28
   0  -1   3 5970.20  221.68
  -1   1  -3 1321.47   46.30
   1  -1   3 1223.68   46.40
   1  -1   3 1282.77   46.20
   1  -1   3 1285.07   46.50
  -2   1  -3  917.61   33.80
  -2   1  -3  977.40   34.20
   2  -1   3  885.91   34.40
   2  -1   3  970.20   34.00
   2  -1   3  933.61   34.50
  -3   1  -3 1435.36   51.99
  -3   1  -3 1410.26   50.99
  -3   1  -3 1392.36   51.49
   3  -1   3 1421.16   51.29
   3  -1   3 1407.16   51.79
  -4   1  -3  756.92   27.00
  -4   1  -3  728.33   28.30
   4  -1   3  749.03   27.30
   4  -1   3  740.23   26.90
   4  -1   3  738.23   28.40
   4  -1   3  737.43   28.00
  -5   1  -3  295.67   10.60
  -5   1  -3  289.27   10.70
  -5   1  -3  275.57   10.60
   5  -1   3  293.27   11.80
   5  -1   3  247.88   10.60
   5  -1   3  284.67   10.50
  -6   1  -3   85.49    3.60
  -6   1  -3   86.79    3.80
  -6   1  -3   84.19    3.60
   6  -1   3   80.19    4.60
   6  -1   3   87.69    3.50
   6  -1   3   84.69    3.40
  -7   1  -3   10.80    1.10
  -7   1  -3    9.10    0.80
   7  -1   3   10.50    0.70
   7  -1   3    9.70    0.70
   7   0  -3   67.39    2.80
  -7   0   3   74.39    3.00
  -7   0   3   72.39    2.80
   6   0  -3   72.69    3.60
  -6   0   3   73.39    3.20
  -6   0   3   72.99    3.00
   5   0  -3    5.20    0.90
   5   0  -3    5.90    1.00
   5   0  -3    5.60    0.90
  -5   0   3    3.90    1.10
   4   0  -3  412.96   15.10
   4   0  -3  381.56   15.10
  -4   0   3  409.36   16.10
  -4   0   3  413.66   16.30
   3   0  -3 1830.22   69.39
  -3   0   3 1946.61   69.79
  -3   0   3 1953.80   69.99
   2   0  -3 1036.90   37.70
   2   0  -3 1009.00   37.70
  -2   0   3 1072.99   38.00
  -2   0   3  971.40   37.80
  -2   0   3 1072.29   38.00
   1   0  -3 5977.20  215.98
   1   0  -3 6029.00  215.28
  -1   0   3 5960.60  213.78
  -1   0   3 5577.84  215.38
  -1   0   3 5959.20  215.48
  -1   0   3 6008.20  215.88
  -1   0  -3 9462.85  353.26
   1   0   3 9938.61  351.96
   1   0   3 9999.00  352.96
   1   0   3 9646.23  354.86
  -2   0  -3    5.40    0.80
  -2   0  -3    5.10    1.00
  -2   0  -3    4.50    0.50
   2   0   3    6.40    0.70
   2   0   3    5.80    1.00
   2   0   3    5.70    0.90
  -3   0  -3 1800.22   63.39
  -3   0  -3 1754.92   62.89
  -3   0  -3 1721.53   62.29
   3   0   3 1689.53   62.69
   3   0   3 1665.03   62.39
  -4   0  -3  995.40   37.50
  -4   0  -3  970.20   36.90
   4   0   3 1000.40   37.60
   4   0   3  978.50   36.30
   4   0   3 1027.00   36.80
  -5   0  -3  312.07   11.70
  -5   0  -3  302.77   11.70
  -5   0  -3  300.47   11.70
   5   0   3  328.47   12.70
   5   0   3  311.07   11.50
  -6   0  -3    5.00    0.70
  -6   0  -3    4.40    0.70
  -6   0  -3    5.20    0.80
   6   0   3    4.40    0.70
   6   0   3    3.90    1.20
  -7   0  -3   21.50    1.20
  -7   0  -3   23.00    1.40
   7   0   3   22.00    1.10
   7   0   3   22.40    1.10
   7  -1  -3  222.18    8.50
  -7   1   3  234.78    8.50
  -7   1   3  232.38    8.70
   6  -1  -3   10.10    0.80
   6  -1  -3   10.60    1.30
  -6   1   3    9.90    0.80
  -6   1   3   10.50    1.00
   5  -1  -3    0.40    0.60
   5  -1  -3    0.90    0.30
   5  -1  -3    0.40    0.80
   5  -1  -3    0.40    0.60
  -5   1   3   -0.30    0.60
   4  -1  -3   50.99    2.70
   4  -1  -3   54.69    2.60
   4  -1  -3   54.49    2.60
  -4   1   3   55.59    3.30
   3  -1  -3   19.90    1.20
  -3   1   3   20.70    1.90
  -3   1   3   21.40    1.90
  -3   1   3   20.40    1.70
   2  -1  -3  809.12   35.00
   2  -1  -3  968.70   35.10
   2  -1  -3  938.61   34.70
  -2   1   3  980.00   35.40
  -2   1   3 1004.80   35.40
  -2   1   3 1045.90   35.40
   1  -1  -3 1580.54   63.49
   1  -1  -3 1847.72   64.09
  -1   1   3 1814.72   63.49
  -1   1   3 1651.53   64.49
  -1   1   3 1861.41   63.59
   0  -1  -3 6116.59  212.18
   0  -1  -3 5999.50  212.28
   0  -1  -3 5676.33  213.98
   0   1   3 5811.22  214.28
   0   1   3 5716.73  211.38
  -1  -1  -3 1239.68   46.20
  -1  -1  -3 1307.57   46.30
  -1  -1  -3 1336.07   46.10
   1   1   3 1185.78   45.80
   1   1   3 1282.37   46.50
  -2  -1  -3 1007.70   35.30
  -2  -1  -3  993.20   35.60
   2   1   3  981.60   35.60
   2   1   3  864.61   34.80
  -3  -1  -3 1510.75   53.09
  -3  -1  -3 1447.26   52.59
   3   1   3 1312.27   52.09
   3   1   3 1475.75   53.09
  -4  -1  -3  747.53   28.40
   4   1   3  732.53   28.40
   4   1   3  725.73   27.30
  -5  -1  -3  292.47   11.50
  -5  -1  -3  305.67   11.40
  -5  -1  -3  293.67   11.40
   5   1   3  303.47   11.10
   5   1   3  319.77   12.20
  -6  -1  -3   88.59    3.80
  -6  -1  -3   93.29    3.80
  -6  -1  -3   89.89    3.90
   6   1   3   90.19    3.50
   6   1   3   87.79    4.60
  -7  -1  -3   11.10    0.90
  -7  -1  -3   10.80    1.10
   7   1   3    9.70    0.70
   7   1   3   10.10    0.70
   7  -2  -3   46.60    1.90
   7  -2  -3   45.20    2.00
  -7   2   3   49.30    1.90
  -7   2   3   46.00    2.10
   6  -2  -3  368.76   13.70
   6  -2  -3  386.26   13.80
   6  -2  -3  374.66   14.70
  -6   2   3  368.66   13.70
  -6   2   3  370.26   14.00
   5  -2  -3  216.98    8.70
   5  -2  -3  207.38    7.70
   5  -2  -3  204.88    8.20
  -5   2   3  196.78    7.70
  -5   2   3  207.48    7.70
  -5   2   3  197.28    7.90
   4  -2  -3  290.67   11.50
   4  -2  -3  291.67   11.10
   4  -2  -3  285.37   10.70
   4  -2  -3  299.17   11.10
  -4   2   3  282.77   11.90
   3  -2  -3  766.52   30.20
   3  -2  -3  856.31   30.00
  -3   2   3  843.22   30.90
  -3   2   3  807.42   30.60
   2  -2  -3  585.04   22.20
   2  -2  -3  583.04   22.10
   2  -2  -3  581.14   21.70
  -2   2   3  620.04   22.30
  -2   2   3  598.74   22.40
   1  -2  -3 1794.12   64.39
   1  -2  -3 1719.73   63.69
  -1   2   3 1811.22   63.89
  -1   2   3 1709.93   64.69
   0  -2  -3 1116.39   39.40
   0  -2  -3 1109.99   39.10
   0  -2  -3  981.90   39.10
   0   2   3 1085.19   39.50
  -1  -2  -3  603.64   23.10
  -1  -2  -3  611.54   23.10
   1   2   3  640.24   23.40
  -2  -2  -3 1596.44   56.09
  -2  -2  -3 1420.06   56.29
   2   2   3 1556.64   55.99
  -3  -2  -3  422.36   16.10
   3   2   3  374.46   14.90
   3   2   3  402.96   15.90
  -4  -2  -3   15.70    2.10
   4   2   3   15.90    2.10
   4   2   3   15.10    1.30
  -5  -2  -3  218.48    8.40
  -5  -2  -3  216.08    8.50
  -5  -2  -3  211.18    8.50
  -5  -2  -3  212.38    8.30
   5   2   3  221.08    9.00
   5   2   3  240.98    8.40
  -6  -2  -3  259.47   10.00
  -6  -2  -3  266.07   10.10
  -6  -2  -3  260.07   10.10
   6   2   3  264.27    9.70
   6   2   3  273.17   10.80
  -7  -2  -3   14.40    1.00
  -7  -2  -3   15.40    1.10
   7  -3  -3  100.99    3.80
  -7   3   3   97.59    3.80
   6  -3  -3  166.68    7.50
   6  -3  -3  169.98    6.60
   6  -3  -3  183.38    6.60
  -6   3   3  176.68    6.60
  -6   3   3  177.68    6.80
   5  -3  -3  865.71   31.70
   5  -3  -3  850.91   31.70
   5  -3  -3  921.51   31.70
   5  -3  -3  822.92   31.80
   5  -3  -3  902.71   32.80
   5  -3  -3  869.01   32.30
  -5   3   3  903.21   31.60
  -5   3   3  834.22   31.90
  -5   3   3  883.11   31.70
   4  -3  -3 1065.49   39.80
   4  -3  -3 1096.69   39.40
   4  -3  -3 1051.89   39.20
   4  -3  -3 1073.39   38.80
   3  -3  -3  632.24   24.60
   3  -3  -3  700.63   24.30
   3  -3  -3  641.44   24.10
  -3   3   3  652.03   25.30
   2  -3  -3  527.95   20.60
   2  -3  -3  561.74   20.00
  -2   3   3  550.34   20.80
  -2   3   3  526.85   19.70
   1  -3  -3 2673.73   93.19
   1  -3  -3 2526.15   92.39
  -1   3   3 2609.24   94.69
  -1   3   3 2439.16   92.29
   0  -3  -3  167.28    7.00
   0   3   3  166.18    7.00
   0   3   3  157.08    6.10
  -1  -3  -3  249.38   10.20
  -1  -3  -3  258.87   10.20
   1   3   3  263.67   10.40
   1   3   3  243.18    9.40
  -2  -3  -3  753.32   27.10
  -2  -3  -3  726.53   26.80
   2   3   3  653.73   26.10
   2   3   3  709.23   27.10
  -3  -3  -3  423.86   17.00
   3   3   3  405.96   15.70
   3   3   3  427.76   16.90
  -4  -3  -3  372.96   15.80
   4   3   3  381.16   14.20
   4   3   3  360.56   15.60
  -5  -3  -3   50.79    2.40
  -5  -3  -3   49.50    2.20
  -5  -3  -3   47.40    2.30
  -5  -3  -3   49.70    2.40
   5   3   3   47.40    2.80
  -6  -3  -3  478.75   17.20
  -6  -3  -3  444.66   17.10
  -6  -3  -3  470.05   17.20
   6   3   3  468.25   16.90
   6   3   3  457.05   17.70
   6  -4  -3   84.49    3.20
   6  -4  -3   84.79    3.20
   6  -4  -3   79.09    3.30
   6  -4  -3   74.69    3.20
  -6   4   3   83.69    3.20
   5  -4  -3  405.26   14.70
   5  -4  -3  381.96   14.70
   5  -4  -3  414.76   14.60
   5  -4  -3  387.86   14.60
   5  -4  -3  395.06   15.30
  -5   4   3  396.16   14.50
  -5   4   3  398.66   14.70
  -5   4   3  395.76   14.50
   4  -4  -3  339.77   12.90
   4  -4  -3  360.96   13.60
   3  -4  -3  110.49    4.60
  -3   4   3   98.99    5.40
  -3   4   3  100.09    4.00
   2  -4  -3  302.87   12.60
   2  -4  -3  328.67   11.90
  -2   4   3  308.17   12.80
  -2   4   3  309.67   11.50
   1  -4  -3  383.86   15.20
   1  -4  -3  383.06   14.30
  -1   4   3  378.96   14.10
  -1   4   3  388.76   15.20
   0  -4  -3  372.66   14.60
   0   4   3  373.66   14.60
   0   4   3  352.86   13.50
  -1  -4  -3   14.50    1.70
  -1  -4  -3   13.50    1.60
   1   4   3   16.30    1.80
   1   4   3   14.30    1.00
   1   4   3   14.40    1.40
  -2  -4  -3  744.33   28.10
  -2  -4  -3  725.23   27.90
   2   4   3  684.43   27.10
   2   4   3  771.62   28.20
   2   4   3  730.93   26.70
  -3  -4  -3  301.87   12.30
   3   4   3  273.97   12.00
   3   4   3  249.38   10.10
   3   4   3  276.57   10.70
  -4  -4  -3  105.39    4.30
  -4  -4  -3  103.89    4.30
  -4  -4  -3  102.09    4.10
   4   4   3  104.09    4.60
   4   4   3   93.89    6.40
  -5  -4  -3  343.57   12.40
  -5  -4  -3  334.97   12.40
  -5  -4  -3  329.27   12.20
   5   4   3  321.37   12.00
   5   4   3  313.87   12.80
  -6  -4  -3  175.38    6.60
  -6  -4  -3  165.98    6.50
   6   4   3  169.78    6.30
   6  -5  -3  108.29    4.00
   6  -5  -3  102.09    4.10
   5  -5  -3   65.69    2.90
   5  -5  -3   69.99    2.80
   5  -5  -3   69.49    2.70
  -5   5   3   67.29    2.90
  -5   5   3   67.29    2.70
   4  -5  -3   59.99    2.60
   4  -5  -3   62.59    3.30
   4  -5  -3   55.59    2.70
   4  -5  -3   57.29    2.40
  -4   5   3   61.49    2.50
   3  -5  -3   25.70    2.10
  -3   5   3   22.80    1.20
  -3   5   3   21.70    2.40
   2  -5  -3  141.69    5.70
  -2   5   3  135.79    5.20
  -2   5   3  123.59    6.50
   1  -5  -3   34.10    2.00
   1  -5  -3   32.90    2.70
  -1   5   3   36.60    1.70
  -1   5   3   35.30    2.60
   0  -5  -3   62.29    3.80
   0   5   3   62.79    2.60
   0   5   3   60.09    3.60
  -1  -5  -3  165.18    7.60
   1   5   3  160.48    6.20
   1   5   3  158.88    6.90
  -2  -5  -3  380.16   15.80
  -2  -5  -3  387.26   15.70
   2   5   3  394.76   14.80
   2   5   3  375.46   13.90
   2   5   3  368.46   14.20
  -3  -5  -3  346.77   14.80
   3   5   3  324.17   12.80
   3   5   3  361.16   13.30
   3   5   3  332.87   12.50
  -4  -5  -3    9.00    0.80
  -4  -5  -3   10.60    1.30
  -4  -5  -3    9.10    0.90
   4   5   3    9.40    1.10
   4   5   3    8.80    0.70
   4   5   3    9.60    1.50
  -5  -5  -3  116.49    4.70
  -5  -5  -3  116.59    4.50
   5   5   3  115.89    5.10
   5   5   3  111.59    4.30
  -6  -5  -3   53.89    2.30
   5  -6  -3   47.40    2.00
   5  -6  -3   44.30    2.10
  -5   6   3   46.80    1.90
  -5   6   3   46.60    2.10
   4  -6  -3  244.18    9.50
   4  -6  -3  252.27    9.40
  -4   6   3  257.77    9.30
   3  -6  -3  263.97   10.30
   3  -6  -3  253.87    9.80
   3  -6  -3  249.58    9.60
  -3   6   3  261.77    9.60
   2  -6  -3   57.69    3.00
   2  -6  -3   48.30    2.60
  -2   6   3   52.79    2.30
   1  -6  -3  264.27   11.80
  -1   6   3  277.27   10.20
   0  -6  -3  148.49    7.50
   0   6   3  155.48    6.00
  -1  -6  -3  599.74   24.10
   1   6   3  618.54   22.10
   1   6   3  595.54   22.30
   1   6   3  616.04   23.10
  -2  -6  -3  321.27   11.70
  -2  -6  -3  313.87   11.90
  -2  -6  -3  318.47   11.80
   2   6   3  299.27   11.60
   2   6   3  293.27   11.90
   2   6   3  328.37   14.80
   2   6   3  334.87   12.70
   2   6   3  322.17   11.60
  -3  -6  -3   84.59    3.70
  -3  -6  -3   89.19    3.50
  -3  -6  -3   82.09    3.40
   3   6   3   87.79    4.30
   3   6   3   80.69    3.30
   3   6   3   79.09    3.60
  -4  -6  -3  139.09    5.60
  -4  -6  -3  147.29    5.60
  -4  -6  -3  142.69    5.80
   4   6   3  148.19    5.50
   4   6   3  148.59    6.30
  -5  -6  -3    0.80    0.50
  -5  -6  -3    0.80    0.40
   5   6   3    1.00    0.40
   5  -7  -3   47.30    1.80
   5  -7  -3   43.00    1.90
  -5   7   3   42.20    1.80
  -5   7   3   42.70    1.70
   4  -7  -3  127.19    5.00
   4  -7  -3  126.89    4.80
  -4   7   3  124.09    4.80
   3  -7  -3   33.90    1.60
  -3   7   3   34.80    1.60
   2  -7  -3   58.79    3.20
   2  -7  -3   62.19    2.80
   2  -7  -3   63.39    2.60
  -2   7   3   60.39    2.60
  -2   7   3   63.29    2.60
  -2   7   3   57.89    2.60
   1  -7  -3  118.99    4.80
   1  -7  -3  121.49    4.70
  -1   7   3  123.89    4.70
  -1   7   3  111.29    4.70
   0  -7  -3  775.92   29.50
   0  -7  -3  831.32   29.40
   0  -7  -3  842.52   29.30
   0   7   3  802.92   29.20
   0   7   3  813.22   29.30
   0   7   3  762.82   29.40
  -1  -7  -3   49.20    2.20
  -1  -7  -3   54.09    2.30
  -1  -7  -3   52.89    2.50
  -1  -7  -3   50.59    2.10
   1   7   3   46.90    2.40
   1   7   3   47.40    2.10
   1   7   3   50.99    2.20
   1   7   3   46.50    2.10
  -2  -7  -3   15.50    1.10
  -2  -7  -3   14.50    1.10
  -2  -7  -3   16.20    1.40
   2   7   3   15.10    1.00
   2   7   3   16.90    1.10
   2   7   3   12.30    1.20
   2   7   3   14.20    1.90
   2   7   3   14.80    1.00
  -3  -7  -3   25.10    1.30
  -3  -7  -3   27.70    1.40
  -3  -7  -3   25.50    1.70
   3   7   3   25.10    1.30
   3   7   3   22.00    2.10
   3   7   3   24.20    1.30
  -4  -7  -3   10.00    0.80
  -4  -7  -3    8.50    0.80
  -4  -7  -3   10.30    1.10
   4   7   3   10.30    0.70
   4   7   3    8.70    0.70
  -5  -7  -3   22.10    1.20
  -5  -7  -3   21.50    1.00
   5   7   3   20.50    1.00
   4  -8  -3   52.89    2.30
  -4   8   3   51.69    2.10
   3  -8  -3   17.80    1.10
   3  -8  -3   18.80    1.30
  -3   8   3   16.90    1.00
   2  -8  -3  137.29    5.40
   2  -8  -3  134.29    5.20
  -2   8   3  132.39    5.10
   1  -8  -3  178.58    6.90
   1  -8  -3  178.88    7.00
   1  -8  -3  180.48    6.80
  -1   8   3  177.08    6.80
   0  -8  -3   84.49    3.50
   0  -8  -3   84.89    3.30
   0  -8  -3   83.19    3.60
   0   8   3   82.89    3.40
  -1  -8  -3  158.78    6.30
  -1  -8  -3  149.39    5.90
  -1  -8  -3  166.98    6.20
  -1  -8  -3  160.68    6.00
   1   8   3  162.28    6.00
   1   8   3  157.88    6.00
  -2  -8  -3  107.99    4.20
  -2  -8  -3  105.29    4.40
  -2  -8  -3  106.89    4.20
   2   8   3  105.89    4.10
   2   8   3  104.29    4.10
   2   8   3  113.19    4.10
  -3  -8  -3    6.10    0.70
  -3  -8  -3    5.60    0.70
  -3  -8  -3    6.60    0.70
   3   8   3    6.80    0.70
   3   8   3    6.40    0.60
  -4  -8  -3   10.00    0.70
  -4  -8  -3   10.10    0.80
  -4  -8  -3   10.20    0.70
   4   8   3    8.80    0.60
   2  -9  -3   16.50    1.10
   2  -9  -3   17.80    1.10
   2  -9  -3   17.80    1.00
  -2   9   3   17.40    0.90
   1  -9  -3  106.49    4.00
   1  -9  -3  102.29    3.80
   1  -9  -3   91.09    4.00
  -1   9   3   96.79    3.80
   0  -9  -3  140.79    5.30
   0  -9  -3  134.19    5.20
   0  -9  -3  133.19    5.40
   0   9   3  144.39    5.20
  -1  -9  -3    8.30    1.00
  -1  -9  -3    8.70    0.80
   1   9   3    8.70    0.70
  -2  -9  -3   49.80    2.10
  -2  -9  -3   51.49    2.30
  -2  -9  -3   50.89    2.10
   2   9   3   49.20    2.00
   2   9   3   52.59    2.00
   2   9  -4   12.80    0.80
  -2  -9   4   14.20    1.00
   1   9  -4   53.09    2.20
   1   9  -4   52.99    2.30
  -1  -9   4   60.89    2.40
   0   9  -4  240.48    8.90
   0  -9   4  235.78    8.80
  -1   9  -4   27.60    1.40
   1  -9   4   24.10    1.20
  -2   9  -4   43.50    1.80
   2  -9   4   41.70    1.80
   3   8  -4   31.80    1.60
   3   8  -4   32.30    1.50
  -3  -8   4   33.50    1.70
  -3  -8   4   34.70    1.70
   2   8  -4  193.38    7.30
   2   8  -4  202.88    7.30
  -2  -8   4  182.98    7.30
   1   8  -4   41.80    2.00
   1   8  -4   40.70    1.90
   1   8  -4   40.20    1.90
  -1  -8   4   38.80    2.00
   0   8  -4   76.09    3.10
   0   8  -4   81.39    3.30
   0  -8   4   77.69    3.10
   0  -8   4   73.49    3.20
  -1   8  -4   28.40    1.60
   1  -8   4   28.40    1.50
   1  -8   4   26.90    1.50
  -2   8  -4   77.59    3.20
   2  -8   4   76.19    3.20
  -3   8  -4   52.29    2.30
   3  -8   4   58.09    2.40
   4   7  -4   54.09    2.30
  -4  -7   4   55.69    2.50
  -4  -7   4   56.69    2.50
   3   7  -4  465.25   17.20
   3   7  -4  472.65   18.60
  -3  -7   4  476.35   17.30
  -3  -7   4  463.15   17.30
   2   7  -4  159.68    6.30
   2   7  -4  178.88    8.00
   2   7  -4  170.38    6.40
  -2  -7   4  160.68    6.40
  -2  -7   4  154.88    6.40
   1   7  -4   37.10    3.30
   1   7  -4   37.70    1.80
   1   7  -4   35.50    1.80
   1   7  -4   35.20    1.70
  -1  -7   4   34.00    2.10
  -1  -7   4   34.10    1.90
   0   7  -4 1379.46   49.50
   0   7  -4 1326.17   49.60
   0   7  -4 1409.06   49.70
   0  -7   4 1358.56   49.90
   0  -7   4 1303.57   49.60
   0  -7   4 1431.86   49.50
  -1   7  -4  599.14   21.80
   1  -7   4  605.94   21.80
   1  -7   4  573.54   22.00
  -2   7  -4   25.90    1.60
   2  -7   4   25.10    1.50
  -3   7  -4  268.47    9.90
   3  -7   4  259.47    9.90
  -4   7  -4  148.89    5.60
  -5  -6   4  169.08    6.20
  -5  -6   4  154.08    6.10
   4   6  -4   26.00    2.20
  -4  -6   4   24.50    1.60
  -4  -6   4   25.80    1.60
   3   6  -4   25.10    2.40
   3   6  -4   23.30    1.40
  -3  -6   4   24.30    1.60
  -3  -6   4   24.60    1.60
   2   6  -4   30.20    1.60
   2   6  -4   32.80    2.80
  -2  -6   4   29.60    1.80
  -2  -6   4   30.50    1.80
   1   6  -4  317.07   12.80
   1   6  -4  293.27   11.20
   1   6  -4  305.47   12.10
  -1  -6   4  303.67   11.50
  -1  -6   4  279.97   13.30
   0   6  -4  139.29    5.40
   0   6  -4  145.39    6.20
   0  -6   4  142.49    5.70
   0  -6   4  125.89    7.40
  -1   6  -4  179.38    7.70
   1  -6   4  177.18    9.50
   1  -6   4  173.68    7.10
   1  -6   4  194.78    7.30
  -2   6  -4  705.03   25.80
   2  -6   4  679.83   25.70
   2  -6   4  724.33   26.00
  -3   6  -4   74.39    3.00
  -3   6  -4   66.49    2.90
   3  -6   4   69.49    3.50
   3  -6   4   71.39    3.10
  -4   6  -4  401.56   14.90
   4  -6   4  408.26   15.00
  -5   6  -4   49.00    2.10
  -5   6  -4   55.09    2.20
   5  -6   4   51.19    2.30
  -5  -5   4   61.89    2.70
  -5  -5   4   61.79    2.70
   4   5  -4   15.30    1.70
  -4  -5   4   16.50    1.30
  -4  -5   4   16.10    1.30
   3   5  -4  318.67   12.20
  -3  -5   4  265.67   13.00
  -3  -5   4  306.57   11.30
  -3  -5   4  307.87   11.30
   2   5  -4  293.37   11.60
   2   5  -4  297.07   11.30
   2   5  -4  261.67   10.40
  -2  -5   4  278.77   12.30
   1   5  -4  151.58    6.00
   1   5  -4  166.48    6.80
   1   5  -4  161.08    7.30
  -1  -5   4  153.48    7.80
  -1  -5   4  163.58    6.30
   0   5  -4  123.89    6.20
   0   5  -4  135.09    5.70
   0   5  -4  124.29    4.90
   0  -5   4  122.79    6.90
   0  -5   4  132.49    5.20
  -1   5  -4   43.00    2.50
   1  -5   4   43.20    3.80
   1  -5   4   46.40    2.40
  -2   5  -4  253.67   10.40
  -2   5  -4  264.47    9.70
   2  -5   4  248.28   12.10
   2  -5   4  283.07   10.20
  -3   5  -4  441.96   16.20
  -3   5  -4  433.96   16.30
   3  -5   4  450.45   16.40
  -4   5  -4   80.09    3.40
  -4   5  -4   84.09    3.80
  -4   5  -4   76.59    3.40
   4  -5   4   82.19    3.50
  -5   5  -4   46.90    2.00
  -5   5  -4   49.50    2.10
   5  -5   4   48.10    2.30
  -6   5  -4  102.69    3.90
   6  -5   4  105.99    4.00
  -5  -4   4  157.78    6.10
  -5  -4   4  152.08    6.00
  -4  -4   4 1028.40   36.70
  -4  -4   4 1018.60   36.70
  -4  -4   4  978.70   36.70
   3   4  -4    7.40    1.00
   3   4  -4    8.40    1.30
  -3  -4   4    7.30    1.60
   2   4  -4   89.49    4.20
   2   4  -4   93.19    4.20
  -2  -4   4   92.99    5.10
   1   4  -4 1327.27   52.79
   1   4  -4 1436.66   52.49
  -1  -4   4 1497.45   53.69
  -1  -4   4 1488.55   52.09
   0   4  -4  120.69    5.00
   0   4  -4  108.89    5.50
   0  -4   4  118.09    4.60
   0  -4   4  115.59    6.20
   0  -4   4  120.19    4.70
  -1   4  -4 1218.48   43.40
   1  -4   4 1154.38   44.60
   1  -4   4 1213.08   43.00
   1  -4   4 1139.59   42.90
  -2   4  -4  125.29    5.50
  -2   4  -4  132.59    4.90
   2  -4   4  132.19    5.30
   2  -4   4  129.89    5.20
  -3   4  -4  454.35   16.20
   3  -4   4  429.26   16.60
  -4   4  -4    2.20    0.70
  -4   4  -4    3.00    0.50
  -4   4  -4    2.10    0.50
   4  -4   4    2.10    0.60
  -5   4  -4  997.60   35.60
  -5   4  -4  966.50   35.90
   5  -4   4  979.50   35.80
  -6   4  -4  297.07   11.30
  -6   4  -4  302.27   11.00
   6  -4   4  295.27   11.20
   6  -4   4  311.67   11.20
  -6  -3   4  190.08    7.20
  -5  -3   4  357.06   13.40
  -5  -3   4  361.16   13.30
  -4  -3   4  230.48   10.30
   3   3  -4  103.09    4.70
  -3  -3   4   94.49    5.20
   2   3  -4  283.77   10.50
   2   3  -4  245.78   10.20
  -2  -3   4  282.17   11.40
   1   3  -4   37.80    2.00
  -1  -3   4   32.50    1.70
  -1  -3   4   36.50    2.70
  -1  -3   4   35.40    1.80
   0   3  -4  148.59    5.80
   0  -3   4  145.49    6.80
   0  -3   4  143.09    5.50
   0  -3   4  136.09    5.50
  -1   3  -4  179.18    6.90
   1  -3   4  170.58    7.80
   1  -3   4  168.68    6.50
   1  -3   4  162.88    6.50
  -2   3  -4  196.98    7.70
  -2   3  -4  189.38    7.10
   2  -3   4  191.68    7.40
  -3   3  -4  422.66   15.20
  -3   3  -4  391.56   15.70
  -3   3  -4  404.46   16.30
   3  -3   4  437.96   15.50
  -4   3  -4   72.99    3.00
   4  -3   4   70.09    3.40
  -5   3  -4   59.99    2.90
  -5   3  -4   59.29    2.60
  -5   3  -4   55.99    2.40
   5  -3   4   56.89    2.60
   5  -3   4   57.99    2.50
  -6   3  -4  148.49    6.10
  -6   3  -4  149.88    5.70
   6  -3   4  155.08    5.80
   6  -3   4  155.78    5.90
  -7  -2   4  145.19    5.60
  -7  -2   4  150.28    5.50
  -6  -2   4   30.90    1.50
  -6  -2   4   32.20    1.70
  -5  -2   4   51.39    2.30
  -5  -2   4   53.79    2.20
  -5  -2   4   42.60    2.60
  -4  -2   4   89.49    5.00
  -4  -2   4   83.49    4.50
   3   2  -4  213.48    8.60
  -3  -2   4  213.28    8.80
  -3  -2   4  208.08    9.20
   2   2  -4  117.69    5.10
  -2  -2   4  115.79    5.20
  -2  -2   4  120.69    5.60
   1   2  -4  937.81   34.80
   1   2  -4  916.61   34.60
  -1  -2   4  925.81   34.40
  -1  -2   4  973.40   34.90
  -1  -2   4  923.41   34.40
  -1  -2   4 1013.20   35.40
   0   2  -4  355.46   13.70
   0   2  -4  374.86   13.70
   0  -2   4  379.66   13.50
   0  -2   4  348.37   13.40
   0  -2   4  371.06   14.50
  -1   2  -4   28.60    1.60
   1  -2   4   25.50    1.80
   1  -2   4   29.80    1.40
   1  -2   4   26.00    2.20
   1  -2   4   24.30    1.30
  -2   2  -4  724.23   27.90
  -2   2  -4  802.52   28.50
   2  -2   4  793.52   28.20
  -3   2  -4   90.49    4.10
  -3   2  -4   88.99    3.50
  -3   2  -4   92.09    4.50
   3  -2   4   89.99    3.80
  -4   2  -4   83.09    3.30
  -4   2  -4   76.99    4.50
   4  -2   4   80.69    4.40
   4  -2   4   83.09    3.30
   4  -2   4   79.49    3.60
  -5   2  -4  137.59    5.70
  -5   2  -4  144.39    5.60
  -5   2  -4  134.99    5.30
  -5   2  -4  139.09    5.40
   5  -2   4  136.59    5.50
   5  -2   4  142.59    5.40
   5  -2   4  144.29    5.50
   5  -2   4  144.79    8.30
  -6   2  -4  175.98    6.90
  -6   2  -4  188.48    7.40
  -6   2  -4  191.58    7.20
   6  -2   4  194.18    7.20
   6  -2   4  204.98    7.10
   6  -2   4  170.88    7.10
  -7   2  -4  116.09    4.50
   7  -2   4  108.89    4.20
  -7  -1   4    8.50    0.70
  -7  -1   4    7.50    0.80
   6   1  -4  313.67   12.50
  -6  -1   4  334.07   12.10
  -6  -1   4  335.67   12.30
   5   1  -4  338.17   12.80
   5   1  -4  338.77   12.80
  -5  -1   4  330.87   12.50
  -5  -1   4  329.27   12.40
  -5  -1   4  339.07   12.60
  -4  -1   4   43.30    3.20
  -4  -1   4   41.00    2.80
   3   1  -4  332.47   13.10
  -3  -1   4  343.57   13.40
  -3  -1   4  338.17   13.60
   2   1  -4  579.24   22.40
  -2  -1   4  612.24   22.60
  -2  -1   4  611.24   22.80
   1   1  -4  172.08    6.90
   1   1  -4  184.48    7.20
  -1  -1   4  192.88    7.50
  -1  -1   4  184.28    7.30
  -1  -1   4  172.98    6.80
   0   1  -4  338.27   12.90
   0   1  -4  335.07   13.00
   0  -1   4  360.66   13.40
   0  -1   4  354.16   12.80
  -1   1  -4 1438.66   49.99
   1  -1   4 1408.66   49.80
   1  -1   4 1308.07   50.09
   1  -1   4 1350.46   50.39
  -2   1  -4    5.90    0.50
  -2   1  -4    8.80    0.90
   2  -1   4    5.80    0.70
   2  -1   4    6.50    1.00
   2  -1   4    6.10    1.10
  -3   1  -4  309.87   11.60
  -3   1  -4  316.67   12.30
  -3   1  -4  313.57   12.70
   3  -1   4  323.97   12.50
   3  -1   4  314.37   11.90
   3  -1   4  318.57   12.70
  -4   1  -4  118.29    5.50
  -4   1  -4  125.99    4.80
  -4   1  -4  120.99    6.10
   4  -1   4  129.99    5.90
   4  -1   4  118.39    4.70
   4  -1   4  124.49    6.20
   4  -1   4  120.89    5.10
  -5   1  -4   78.49    3.20
  -5   1  -4   72.19    3.30
   5  -1   4   73.39    3.00
   5  -1   4   71.59    4.20
   5  -1   4   67.59    3.10
   5  -1   4   70.39    2.90
  -6   1  -4   62.39    2.90
  -6   1  -4   64.39    3.10
  -6   1  -4   66.09    2.80
   6  -1   4   67.09    2.70
   6  -1   4   57.09    3.70
   6  -1   4   66.39    2.70
  -7   1  -4   19.90    1.30
   7  -1   4   19.50    1.00
   7   0  -4   39.60    1.80
  -7   0   4   51.99    2.10
  -7   0   4   42.70    1.90
   6   0  -4  349.27   13.20
  -6   0   4  358.86   12.70
  -6   0   4  345.27   12.50
  -6   0   4  298.27   12.80
   5   0  -4   52.19    2.70
   5   0  -4   51.69    2.70
  -5   0   4   52.99    2.40
  -5   0   4   49.90    2.20
  -5   0   4   50.19    2.30
   4   0  -4    3.20    0.70
   4   0  -4    4.50    0.80
  -4   0   4    6.00    1.50
  -4   0   4    2.80    1.00
   3   0  -4    2.30    0.50
   3   0  -4    1.60    0.80
  -3   0   4    1.10    0.80
   2   0  -4  654.63   26.20
   2   0  -4  697.23   25.80
  -2   0   4  704.23   26.00
  -2   0   4  672.73   26.00
  -2   0   4  748.83   26.10
   1   0  -4 1749.03   61.09
   1   0  -4 1612.44   61.09
  -1   0   4 1643.04   60.99
  -1   0   4 1800.72   60.99
  -1   0   4 1686.73   60.49
  -1   0   4 1558.34   60.89
   0   0  -4 1518.25   57.29
   0   0  -4 1623.84   57.19
   0   0   4 1616.34   57.39
   0   0   4 1558.74   57.49
   0   0   4 1578.04   56.99
  -1   0  -4  404.06   16.20
  -1   0  -4  460.95   16.20
   1   0   4  443.56   16.00
   1   0   4  441.56   16.60
  -2   0  -4  481.15   18.70
  -2   0  -4  498.25   18.40
   2   0   4  491.85   18.00
   2   0   4  495.55   18.80
  -3   0  -4  980.90   35.80
  -3   0  -4  897.91   35.10
   3   0   4  989.20   35.80
   3   0   4  918.51   35.10
   3   0   4  976.80   34.70
  -4   0  -4    0.00    0.60
  -4   0  -4    0.20    0.80
   4   0   4    0.90    1.10
   4   0   4    0.70    0.50
   4   0   4    0.50    0.70
   4   0   4    0.20    0.30
  -5   0  -4  226.78    9.00
  -5   0  -4  235.78    8.90
  -5   0  -4  228.88    9.00
   5   0   4  232.38    8.70
   5   0   4  246.98   10.10
  -6   0  -4   13.50    1.20
  -6   0  -4   13.60    1.10
  -6   0  -4   13.70    1.10
   6   0   4   13.70    0.90
   6   0   4   13.40    0.90
   6   0   4   11.90    1.70
  -7   0  -4  114.19    4.60
  -7   0  -4  124.79    4.70
   7   0   4  120.29    4.50
   7  -1  -4    8.10    0.60
   7  -1  -4    8.10    0.60
  -7   1   4    7.30    0.70
  -7   1   4    8.70    0.90
   6  -1  -4  349.67   13.30
   6  -1  -4  333.47   12.40
  -6   1   4  345.77   12.70
  -6   1   4  328.57   12.40
  -6   1   4  322.77   12.40
   5  -1  -4  346.07   12.70
   5  -1  -4  368.06   13.70
   5  -1  -4  346.07   13.30
  -5   1   4  336.47   13.00
  -5   1   4  339.87   12.70
  -5   1   4  345.77   12.80
   4  -1  -4   43.30    2.40
   4  -1  -4   45.90    2.30
   4  -1  -4   37.40    2.00
  -4   1   4   44.70    3.00
  -4   1   4   43.20    3.30
   3  -1  -4  320.07   13.10
   3  -1  -4  311.47   12.80
   3  -1  -4  354.76   12.60
  -3   1   4  357.96   13.70
  -3   1   4  343.47   13.60
  -3   1   4  339.07   13.50
   2  -1  -4  530.05   20.40
   2  -1  -4  550.24   21.00
   2  -1  -4  539.45   21.90
  -2   1   4  591.24   21.20
  -2   1   4  561.64   21.20
  -2   1   4  584.04   21.20
   1  -1  -4  179.18    6.80
   1  -1  -4  179.58    7.00
  -1   1   4  167.88    7.10
  -1   1   4  157.28    6.90
  -1   1   4  184.68    7.10
   0  -1  -4  290.97   11.90
   0  -1  -4  339.47   12.20
   0  -1  -4  321.57   11.80
   0  -1  -4  285.87   12.00
   0   1   4  350.86   12.40
   0   1   4  326.37   11.70
  -1  -1  -4 1263.87   47.90
  -1  -1  -4 1357.96   47.90
  -1  -1  -4 1258.67   47.70
   1   1   4 1302.07   47.30
   1   1   4 1373.46   48.20
  -2  -1  -4    6.20    1.00
   2   1   4    7.30    0.80
   2   1   4    5.80    1.30
  -3  -1  -4  325.47   13.10
  -3  -1  -4  325.47   12.60
   3   1   4  333.27   13.20
   3   1   4  297.17   12.30
  -4  -1  -4  130.99    6.60
   4   1   4  124.09    6.40
   4   1   4  129.29    5.60
   4   1   4  117.09    4.70
  -5  -1  -4   75.29    3.40
  -5  -1  -4   77.89    3.30
  -5  -1  -4   74.09    3.30
   5   1   4   81.09    4.20
   5   1   4   76.99    3.00
  -6  -1  -4   66.49    2.90
  -6  -1  -4   64.69    2.90
  -6  -1  -4   66.09    3.00
   6   1   4   67.19    2.70
   6   1   4   66.99    3.80
  -7  -1  -4   19.00    1.10
  -7  -1  -4   20.20    1.30
  -7  -1  -4   20.00    1.10
   7   1   4   20.20    1.00
   7  -2  -4  151.48    5.70
  -7   2   4  149.59    5.80
  -7   2   4  153.48    5.70
   6  -2  -4   32.10    2.20
   6  -2  -4   31.90    1.50
   6  -2  -4   32.40    1.50
  -6   2   4   31.30    1.60
  -6   2   4   31.30    1.50
  -6   2   4   31.10    1.70
   5  -2  -4   60.99    3.30
   5  -2  -4   54.89    3.00
   5  -2  -4   56.99    2.40
  -5   2   4   56.89    2.50
  -5   2   4   57.69    2.40
  -5   2   4   56.79    2.70
   4  -2  -4   95.09    4.40
   4  -2  -4   97.99    4.20
   4  -2  -4   90.19    3.60
   4  -2  -4   96.19    4.10
  -4   2   4   86.29    4.80
   3  -2  -4  221.48    8.20
   3  -2  -4  201.28    8.40
  -3   2   4  222.58    9.30
  -3   2   4  200.28    8.90
   2  -2  -4  109.09    5.10
   2  -2  -4  112.09    4.50
  -2   2   4  115.69    5.10
  -2   2   4  114.19    5.30
   1  -2  -4  801.42   32.90
   1  -2  -4  946.41   33.30
   1  -2  -4  945.91   33.60
  -1   2   4  932.21   33.40
   0  -2  -4  378.16   14.50
   0   2   4  370.16   14.60
  -1  -2  -4   26.20    1.70
  -1  -2  -4   26.10    1.90
  -1  -2  -4   27.60    1.90
   1   2   4   31.70    2.30
  -2  -2  -4  772.72   29.00
   2   2   4  744.43   28.30
   2   2   4  789.52   29.20
  -3  -2  -4   91.99    5.00
   3   2   4   88.69    4.90
   3   2   4   88.59    4.00
  -4  -2  -4   92.19    5.40
   4   2   4   83.29    3.30
   4   2   4   87.29    4.20
   4   2   4   86.09    5.20
  -5  -2  -4  148.49    6.00
  -5  -2  -4  145.89    5.90
  -5  -2  -4  149.09    5.90
  -5  -2  -4  146.09    5.80
   5   2   4  160.68    6.70
   5   2   4  147.69    5.60
  -6  -2  -4  203.28    7.80
  -6  -2  -4  203.28    7.70
  -6  -2  -4  205.18    7.70
   6   2   4  189.98    8.50
   6   2   4  202.88    7.50
  -7  -2  -4  118.99    4.50
  -7  -2  -4  113.59    4.40
  -7  -2  -4  111.69    4.40
   7   2   4  112.89    4.30
   7  -3  -4   28.90    1.20
  -7   3   4   26.50    1.40
  -7   3   4   27.70    1.20
   6  -3  -4  200.28    7.20
   6  -3  -4  193.78    7.20
   6  -3  -4  170.28    8.20
  -6   3   4  197.18    7.40
  -6   3   4  192.68    7.20
  -6   3   4  197.68    7.20
   5  -3  -4  412.36   14.30
   5  -3  -4  381.76   14.30
   5  -3  -4  381.46   14.90
   5  -3  -4  396.46   15.30
   5  -3  -4  374.96   14.20
  -5   3   4  368.16   14.40
  -5   3   4  381.06   14.20
  -5   3   4  400.56   14.30
   4  -3  -4  229.48    9.30
   4  -3  -4  239.88    8.90
   4  -3  -4  235.48    9.80
   4  -3  -4  250.27    9.50
   3  -3  -4  107.99    4.40
   3  -3  -4  100.09    4.70
   3  -3  -4   95.79    4.20
  -3   3   4  103.79    5.40
   2  -3  -4  286.77   10.70
   2  -3  -4  282.27   11.60
  -2   3   4  280.47   11.70
   1  -3  -4   32.90    2.40
   1  -3  -4   32.50    1.70
  -1   3   4   41.30    2.60
  -1   3   4   38.20    2.20
   0  -3  -4  145.09    6.30
   0   3   4  139.39    6.30
   0   3   4  131.99    5.20
  -1  -3  -4  172.68    7.40
  -1  -3  -4  168.88    7.30
   1   3   4  173.08    7.60
   1   3   4  163.48    6.40
  -2  -3  -4  194.68    8.50
  -2  -3  -4  183.98    8.20
   2   3   4  195.98    8.60
   2   3   4  186.68    7.60
  -3  -3  -4  448.86   17.40
   3   3   4  437.66   16.00
   3   3   4  394.96   15.30
   3   3   4  404.16   17.20
  -4  -3  -4   75.49    4.90
   4   3   4   66.19    4.70
   4   3   4   73.99    2.90
   4   3   4   81.09    3.80
  -5  -3  -4   64.29    2.80
  -5  -3  -4   65.59    3.00
  -5  -3  -4   64.39    2.90
  -5  -3  -4   63.49    2.70
   5   3   4   66.09    3.50
   5   3   4   58.99    2.50
  -6  -3  -4  160.98    6.20
  -6  -3  -4  167.78    6.20
  -6  -3  -4  153.38    6.10
   6   3   4  153.48    5.90
   6  -4  -4   40.20    1.70
   6  -4  -4   41.90    1.70
  -6   4   4   39.80    1.80
  -6   4   4   38.30    1.70
   5  -4  -4  169.28    6.40
   5  -4  -4  172.88    6.50
   5  -4  -4  169.48    6.40
  -5   4   4  166.58    6.30
  -5   4   4  172.08    6.50
   4  -4  -4 1060.69   39.20
   4  -4  -4 1098.99   39.10
   4  -4  -4 1003.00   39.30
   4  -4  -4 1078.89   39.10
   4  -4  -4 1115.69   39.80
  -4   4   4 1121.19   39.10
   3  -4  -4    9.10    1.40
  -3   4   4    8.40    2.00
   2  -4  -4   94.89    5.00
   2  -4  -4  102.59    4.20
  -2   4   4   93.19    5.10
   1  -4  -4 1436.76   52.59
   1  -4  -4 1389.66   51.69
  -1   4   4 1418.06   52.59
  -1   4   4 1418.46   51.19
   0  -4  -4  115.99    5.70
   0   4   4  116.59    4.50
   0   4   4  113.79    5.70
  -1  -4  -4 1239.98   45.00
   1   4   4 1198.08   45.00
   1   4   4 1157.68   44.10
   1   4   4 1219.38   43.60
  -2  -4  -4  126.99    6.30
  -2  -4  -4  131.79    6.60
   2   4   4  127.99    5.60
   2   4   4  125.79    6.50
   2   4   4  141.49    5.20
  -3  -4  -4  455.65   18.70
   3   4   4  466.15   17.20
   3   4   4  442.16   18.50
   3   4   4  435.16   16.40
  -4  -4  -4    2.60    0.70
  -4  -4  -4    2.50    0.50
  -4  -4  -4    2.00    0.70
   4   4   4    3.50    1.10
   4   4   4    2.10    0.40
  -5  -4  -4  994.10   36.80
  -5  -4  -4 1037.10   36.90
  -5  -4  -4 1016.90   36.60
   5   4   4 1012.30   37.50
   5   4   4  987.60   36.50
  -6  -4  -4  305.97   11.30
  -6  -4  -4  302.77   11.30
   6   4   4  302.47   11.10
   6  -5  -4   80.49    3.10
  -6   5   4   77.09    3.10
   5  -5  -4   60.09    2.80
   5  -5  -4   63.49    2.80
   5  -5  -4   65.49    2.70
  -5   5   4   65.49    2.70
  -5   5   4   64.49    2.50
   4  -5  -4   15.80    1.00
   4  -5  -4   16.60    1.20
   4  -5  -4   14.70    1.90
  -4   5   4   17.40    1.00
   3  -5  -4  306.07   12.00
   3  -5  -4  322.97   11.90
   3  -5  -4  340.57   12.60
  -3   5   4  301.57   13.70
  -3   5   4  330.07   11.80
   2  -5  -4  302.07   11.30
   2  -5  -4  287.37   12.40
  -2   5   4  282.17   12.40
   1  -5  -4  154.88    7.60
  -1   5   4  155.18    7.50
  -1   5   4  164.48    6.10
   0  -5  -4  123.49    6.40
   0   5   4  125.69    6.30
   0   5   4  129.09    5.00
  -1  -5  -4   42.10    3.30
   1   5   4   41.00    1.80
   1   5   4   42.10    3.20
   1   5   4   48.10    2.10
   1   5   4   42.60    2.70
  -2  -5  -4  270.47   11.70
   2   5   4  267.87   10.10
   2   5   4  258.57    9.80
   2   5   4  278.87   10.70
   2   5   4  252.77   11.60
  -3  -5  -4  462.85   16.80
  -3  -5  -4  444.76   16.70
  -3  -5  -4  436.96   16.90
   3   5   4  457.85   17.00
   3   5   4  489.55   17.60
   3   5   4  446.26   16.60
  -4  -5  -4   82.39    3.70
  -4  -5  -4   85.29    3.50
   4   5   4   88.99    4.30
   4   5   4   83.39    3.30
   4   5   4   85.19    4.20
  -5  -5  -4   43.90    2.00
  -5  -5  -4   42.90    2.10
   5   5   4   45.80    1.90
  -6  -5  -4  110.19    4.10
   6   5   4   98.89    3.90
   5  -6  -4  172.78    6.30
   5  -6  -4  155.98    6.30
  -5   6   4  170.88    6.30
  -5   6   4  165.58    6.10
   4  -6  -4   25.20    1.50
   4  -6  -4   27.30    1.40
  -4   6   4   28.60    1.30
   3  -6  -4   23.40    1.50
   3  -6  -4   22.80    2.10
   3  -6  -4   24.30    1.30
  -3   6   4   24.60    1.30
   2  -6  -4   31.00    1.50
   2  -6  -4   29.90    1.50
   2  -6  -4   30.20    2.20
   2  -6  -4   29.40    1.70
  -2   6   4   28.60    1.50
  -2   6   4   28.40    2.00
  -2   6   4   31.30    1.50
   1  -6  -4  299.27   13.10
  -1   6   4  296.67   11.10
   0  -6  -4  139.09    7.40
   0   6   4  145.99    5.60
  -1  -6  -4  196.88    7.20
  -1  -6  -4  198.98    7.30
  -1  -6  -4  181.78    9.00
   1   6   4  198.08    7.30
   1   6   4  187.88    7.00
   1   6   4  164.78    7.10
  -2  -6  -4  687.43   26.00
  -2  -6  -4  705.93   25.80
  -2  -6  -4  723.53   25.90
   2   6   4  746.93   25.80
   2   6   4  679.93   25.70
   2   6   4  723.43   26.80
   2   6   4  705.53   26.00
   2   6   4  696.83   25.70
  -3  -6  -4   78.49    3.20
  -3  -6  -4   72.89    3.20
  -3  -6  -4   74.99    3.40
   3   6   4   73.49    3.10
   3   6   4   82.09    4.10
   3   6   4   82.49    3.10
   3   6   4   74.99    3.40
  -4  -6  -4  409.76   15.00
  -4  -6  -4  429.06   15.00
  -4  -6  -4  414.66   15.20
   4   6   4  393.16   15.80
   4   6   4  414.76   14.90
   4   6   4  396.06   14.90
  -5  -6  -4   55.59    2.10
  -5  -6  -4   51.99    2.30
   5   6   4   49.40    2.00
   5   6   4   48.30    2.00
   5  -7  -4   22.50    1.10
   4  -7  -4   57.89    2.60
  -4   7   4   59.89    2.40
   3  -7  -4  462.55   17.30
  -3   7   4  475.25   17.10
   2  -7  -4  163.38    6.50
   2  -7  -4  169.58    6.30
  -2   7   4  163.68    6.20
  -2   7   4  162.38    6.20
   1  -7  -4   36.20    2.00
   1  -7  -4   36.50    1.80
  -1   7   4   34.90    1.80
  -1   7   4   38.10    1.80
   0  -7  -4 1420.36   50.59
   0  -7  -4 1365.36   50.49
   0  -7  -4 1428.06   50.49
   0   7   4 1321.87   50.59
   0   7   4 1443.46   50.49
  -1  -7  -4  570.74   21.60
  -1  -7  -4  592.04   21.50
  -1  -7  -4  596.34   21.40
  -1  -7  -4  570.64   21.40
   1   7   4  605.54   21.40
   1   7   4  575.74   21.60
   1   7   4  597.94   21.30
  -2  -7  -4   26.50    1.40
  -2  -7  -4   27.00    1.50
  -2  -7  -4   26.50    1.70
   2   7   4   25.20    1.30
   2   7   4   25.10    1.30
   2   7   4   26.50    1.30
  -3  -7  -4  272.27   10.10
  -3  -7  -4  262.67   10.30
  -3  -7  -4  281.87   10.10
   3   7   4  255.67   11.00
   3   7   4  278.77   10.00
   3   7   4  285.67   10.10
  -4  -7  -4  162.38    5.80
  -4  -7  -4  158.08    5.80
  -4  -7  -4  153.08    6.00
   4   7   4  151.38    5.80
   4   7   4  152.48    5.80
   3  -8  -4   34.90    1.70
   3  -8  -4   32.60    1.50
  -3   8   4   32.30    1.50
   2  -8  -4  212.58    7.80
   2  -8  -4  205.18    7.70
  -2   8   4  198.48    7.60
   1  -8  -4   47.70    2.00
   1  -8  -4   47.20    2.20
  -1   8   4   42.50    2.00
   0  -8  -4   80.49    3.40
   0  -8  -4   77.59    3.40
   0  -8  -4   82.59    3.20
   0   8   4   84.09    3.30
  -1  -8  -4   28.70    1.40
  -1  -8  -4   27.80    1.50
  -1  -8  -4   24.60    1.20
  -1  -8  -4   27.70    1.70
   1   8   4   27.60    1.40
   1   8   4   27.40    1.30
  -2  -8  -4   82.89    3.10
  -2  -8  -4   71.89    3.30
  -2  -8  -4   75.69    3.10
   2   8   4   73.99    3.00
   2   8   4   79.69    3.00
  -3  -8  -4   57.39    2.40
  -3  -8  -4   61.19    2.40
  -3  -8  -4   57.59    2.50
   3   8   4   60.99    2.30
   2  -9  -4   15.70    0.90
   2  -9  -4   16.20    1.00
   1  -9  -4   56.79    2.30
   1  -9  -4   57.59    2.40
  -1   9   4   56.79    2.30
   0  -9  -4  236.88    8.70
   0  -9  -4  213.38    9.00
   0  -9  -4  250.77    8.80
   0   9   4  247.48    8.70
  -1  -9  -4   24.20    1.40
  -1  -9  -4   23.70    1.20
  -1  -9  -4   27.00    1.30
   1   9   4   26.70    1.20
  -2  -9  -4   40.80    1.90
  -2  -9  -4   44.90    1.80
  -2  -9  -4   43.90    1.80
   2   9   4   41.40    1.70
   1   9  -5   12.60    0.80
  -1  -9   5   15.30    0.90
   0   9  -5   31.10    1.40
   0  -9   5   28.00    1.30
  -1   9  -5   27.30    1.30
   1  -9   5   26.70    1.20
   3   8  -5  159.08    6.20
  -3  -8   5  154.38    6.20
  -3  -8   5  182.88    6.30
   2   8  -5    6.70    0.80
   2   8  -5    6.10    0.80
  -2  -8   5    6.90    0.80
   1   8  -5   18.90    1.10
   1   8  -5   18.00    1.20
   1   8  -5   18.30    1.20
  -1  -8   5   17.90    1.30
   0   8  -5   65.69    2.80
   0  -8   5   62.39    2.60
   0  -8   5   66.59    2.80
  -1   8  -5  294.87   11.00
   1  -8   5  293.47   10.90
  -2   8  -5   91.69    3.70
   2  -8   5   91.19    3.70
   3  -8   5   36.90    1.70
   4   7  -5    4.40    0.60
  -4  -7   5    4.80    0.70
  -4  -7   5    4.70    0.70
   3   7  -5    8.70    1.90
   3   7  -5    5.80    0.80
  -3  -7   5    7.10    0.90
  -3  -7   5    5.60    0.80
   2   7  -5   99.29    4.10
   2   7  -5  107.49    4.20
   2   7  -5  103.39    5.70
  -2  -7   5  106.59    4.30
  -2  -7   5  106.69    4.30
   1   7  -5   97.19    3.90
   1   7  -5   98.09    3.90
   1   7  -5   89.19    3.80
   1   7  -5   93.79    5.40
  -1  -7   5   97.89    4.00
   0   7  -5   42.10    1.90
   0   7  -5   43.20    2.10
   0  -7   5   43.00    2.10
   0  -7   5   39.50    2.00
  -1   7  -5  357.46   13.60
   1  -7   5  369.46   13.50
  -2   7  -5  180.98    6.90
   2  -7   5  173.68    6.90
  -3   7  -5  185.48    7.20
   3  -7   5  194.78    7.30
  -4   7  -5   54.59    2.10
   4  -7   5   47.80    2.20
  -5  -6   5  199.28    7.90
  -5  -6   5  222.68    7.90
   4   6  -5   71.69    3.60
   4   6  -5   80.99    4.30
  -4  -6   5   88.59    3.50
  -4  -6   5   83.99    3.50
   3   6  -5   12.00    2.10
   3   6  -5   11.70    1.00
  -3  -6   5   12.60    1.30
  -3  -6   5   14.90    1.40
   2   6  -5  227.58    8.80
   2   6  -5  247.28   10.50
  -2  -6   5  234.38    9.00
  -2  -6   5  226.98    8.90
   1   6  -5  114.89    4.50
   1   6  -5  118.39    6.10
   1   6  -5  104.49    4.40
   1   6  -5  115.59    4.60
  -1  -6   5  113.69    4.80
  -1  -6   5  114.29    4.50
  -1  -6   5  113.19    4.60
   0   6  -5   49.99    2.50
   0   6  -5   48.70    2.30
   0   6  -5   47.80    2.30
   0  -6   5   51.69    2.70
   0  -6   5   54.59    2.30
   0  -6   5   56.99    2.70
   0  -6   5   55.59    2.40
  -1   6  -5   93.79    4.00
   1  -6   5   92.39    4.10
   1  -6   5   94.89    4.20
   1  -6   5   93.89    3.90
  -2   6  -5  215.18    8.20
   2  -6   5  212.18    8.40
   2  -6   5  210.48    8.30
   2  -6   5  212.48    8.20
  -3   6  -5  101.39    4.10
   3  -6   5  100.99    4.20
  -4   6  -5    7.00    0.80
   4  -6   5    4.90    0.70
  -5   6  -5    1.50    0.30
  -5   6  -5    1.50    0.40
   5  -6   5    2.10    0.50
  -5  -5   5  152.38    6.10
  -5  -5   5  164.18    6.10
   4   5  -5   54.79    3.40
  -4  -5   5   60.59    2.80
  -4  -5   5   64.29    2.80
   3   5  -5  141.89    6.60
  -3  -5   5  145.09    5.50
  -3  -5   5  134.79    5.60
  -3  -5   5  144.99    5.70
   2   5  -5  138.89    6.10
   2   5  -5  150.48    6.60
   2   5  -5  143.19    5.40
   2   5  -5  140.39    6.70
  -2  -5   5  130.19    7.20
   1   5  -5   23.70    2.40
   1   5  -5   22.60    1.30
   1   5  -5   23.60    1.80
  -1  -5   5   22.40    2.70
  -1  -5   5   23.90    1.70
   0   5  -5    5.10    1.60
   0   5  -5    6.10    1.10
   0   5  -5    6.40    0.80
   0  -5   5    6.70    1.00
   0  -5   5    6.20    1.70
  -1   5  -5  407.16   15.70
   1  -5   5  434.76   15.20
   1  -5   5  363.16   17.10
  -2   5  -5   11.00    1.30
   2  -5   5   10.80    1.20
   2  -5   5    8.90    2.20
   2  -5   5   11.80    1.40
  -3   5  -5   88.59    3.60
   3  -5   5   87.69    3.70
   3  -5   5   86.49    4.40
  -4   5  -5    4.20    0.60
   4  -5   5    5.50    0.80
  -5   5  -5   37.30    1.60
  -5   5  -5   39.50    1.70
   5  -5   5   36.30    1.80
  -6  -4   5  130.49    5.00
  -5  -4   5  287.17   10.70
  -5  -4   5  279.67   10.70
  -5  -4   5  290.17   10.60
   4   4  -5  243.98    9.50
  -4  -4   5  227.28    9.00
  -4  -4   5  230.48    9.00
  -4  -4   5  243.28    8.90
   3   4  -5  861.21   31.80
   3   4  -5  852.21   31.20
  -3  -4   5  805.52   32.40
   2   4  -5   24.60    1.70
   2   4  -5   25.80    2.00
   2   4  -5   25.90    2.00
  -2  -4   5   21.00    2.40
   1   4  -5 1346.37   49.10
   1   4  -5 1344.67   48.90
   1   4  -5 1314.27   49.40
  -1  -4   5 1382.56   48.50
  -1  -4   5 1297.47   48.70
  -1  -4   5 1328.97   50.19
   0   4  -5   87.09    4.90
   0   4  -5   94.19    4.40
   0   4  -5   99.29    4.40
   0  -4   5  101.19    4.00
   0  -4   5  103.09    4.10
   0  -4   5   97.29    5.50
  -1   4  -5  208.98    8.30
   1  -4   5  192.38    9.50
   1  -4   5  199.28    7.80
   1  -4   5  207.88    7.80
  -2   4  -5   65.99    3.40
   2  -4   5   71.29    4.80
   2  -4   5   70.19    3.20
  -3   4  -5   84.89    4.60
  -3   4  -5   87.39    4.20
   3  -4   5   87.09    5.70
   3  -4   5   92.79    4.00
  -4   4  -5   57.99    2.50
  -4   4  -5   58.59    2.80
  -4   4  -5   54.09    2.40
   4  -4   5   55.19    2.60
  -5   4  -5  132.79    5.30
  -5   4  -5  131.89    5.00
   5  -4   5  124.49    5.20
  -6   4  -5   26.10    1.10
   6  -4   5   23.20    1.30
  -6  -3   5    6.10    0.70
  -6  -3   5    7.60    0.80
  -5  -3   5  178.08    6.90
  -5  -3   5  177.28    6.80
   4   3  -5  381.46   15.80
  -4  -3   5  398.76   17.20
  -4  -3   5  410.06   14.60
  -4  -3   5  392.16   14.80
  -4  -3   5  395.96   14.70
   3   3  -5   85.19    3.80
   3   3  -5   89.99    4.40
  -3  -3   5   85.09    4.90
   2   3  -5  177.38    7.40
   2   3  -5  190.48    7.80
  -2  -3   5  185.68    8.40
   1   3  -5  464.25   18.30
   1   3  -5  480.65   18.00
   1   3  -5  486.45   18.30
  -1  -3   5  472.15   19.00
  -1  -3   5  490.65   17.70
  -1  -3   5  494.05   17.80
   0   3  -5  207.18    8.10
   0   3  -5  210.38    8.00
   0   3  -5  179.68    8.40
   0  -3   5  206.58    9.10
   0  -3   5  193.68    7.60
   0  -3   5  211.38    7.70
  -1   3  -5  330.77   12.60
   1  -3   5  317.07   12.20
   1  -3   5  334.67   12.30
   1  -3   5  327.67   13.70
  -2   3  -5  746.73   27.50
   2  -3   5  739.83   27.20
   2  -3   5  735.13   28.80
  -3   3  -5  203.18    9.00
  -3   3  -5  214.28    7.80
  -3   3  -5  202.08    8.40
   3  -3   5  210.48    8.20
  -4   3  -5  308.97   11.10
  -4   3  -5  296.57   11.10
  -4   3  -5  292.37   11.60
   4  -3   5  300.17   11.00
   4  -3   5  284.97   11.20
  -5   3  -5  707.63   25.60
  -5   3  -5  718.63   25.30
   5  -3   5  678.73   25.30
   5  -3   5  678.33   25.50
  -6   3  -5  194.68    7.10
  -6   3  -5  197.88    7.40
   6  -3   5  185.48    7.30
  -7  -2   5  462.35   16.80
  -6  -2   5  151.88    5.70
  -6  -2   5  144.29    5.70
   5   2  -5   45.20    2.40
   5   2  -5   47.40    2.70
  -5  -2   5   47.40    2.20
  -5  -2   5   45.90    2.10
   4   2  -5   45.30    2.20
  -4  -2   5   48.10    3.60
  -4  -2   5   45.70    3.10
   3   2  -5  228.08    9.10
   3   2  -5  243.88    9.90
  -3  -2   5  247.58   10.50
  -3  -2   5  239.48   10.00
   2   2  -5   46.40    2.60
   2   2  -5   41.00    2.20
  -2  -2   5   43.70    2.60
  -2  -2   5   45.00    3.00
   1   2  -5   60.89    3.10
   1   2  -5   61.39    2.80
  -1  -2   5   62.09    3.20
  -1  -2   5   62.69    2.70
  -1  -2   5   66.19    3.60
   0   2  -5 1143.09   42.10
   0   2  -5 1137.29   42.20
   0  -2   5 1083.09   41.70
   0  -2   5 1201.58   42.90
   0  -2   5 1201.08   41.80
  -1   2  -5  320.47   11.90
   1  -2   5  310.57   11.70
   1  -2   5  305.57   12.70
  -2   2  -5  545.75   20.10
   2  -2   5  528.35   19.80
  -3   2  -5   93.49    3.60
  -3   2  -5   88.19    4.20
  -3   2  -5   89.89    4.70
   3  -2   5   89.99    3.90
  -4   2  -5   52.09    3.00
  -4   2  -5   50.99    3.60
  -4   2  -5   54.59    2.30
   4  -2   5   53.19    2.30
   4  -2   5   50.79    2.60
  -5   2  -5  470.75   17.60
  -5   2  -5  477.35   17.30
   5  -2   5  452.25   17.30
   5  -2   5  496.65   17.30
   5  -2   5  463.25   17.50
  -6   2  -5  182.28    7.20
   6  -2   5  173.08    7.00
   6  -2   5  200.38    6.90
  -7  -1   5   48.00    2.00
  -7  -1   5   48.00    2.10
   6   1  -5   63.69    3.20
  -6  -1   5   65.69    2.80
  -6  -1   5   68.79    3.00
  -6  -1   5   69.79    2.80
   5   1  -5   80.69    3.90
  -5  -1   5   86.59    3.70
  -5  -1   5   92.39    3.60
   4   1  -5  294.97   11.10
  -4  -1   5  283.47   12.20
  -4  -1   5  294.27   12.60
   3   1  -5   37.30    2.30
  -3  -1   5   37.90    2.80
  -3  -1   5   37.50    2.60
   2   1  -5  280.07   11.20
   2   1  -5  272.67   10.80
  -2  -1   5  289.97   11.60
  -2  -1   5  295.87   11.50
   1   1  -5  402.16   15.50
   1   1  -5  377.16   15.10
  -1  -1   5  407.16   15.60
  -1  -1   5  428.96   15.00
  -1  -1   5  423.56   15.80
   0   1  -5 1172.98   43.40
   0   1  -5 1178.48   43.60
   0  -1   5 1215.68   44.00
   0  -1   5 1212.38   43.30
  -1   1  -5   62.89    2.90
   1  -1   5   66.79    2.80
  -2   1  -5  219.48    8.80
  -2   1  -5  213.08    8.30
   2  -1   5  200.28    8.00
  -3   1  -5  158.88    6.90
  -3   1  -5  154.68    5.70
  -3   1  -5  156.38    6.40
   3  -1   5  132.09    6.50
   3  -1   5  145.59    6.90
   3  -1   5  146.69    5.90
  -4   1  -5   82.49    4.20
  -4   1  -5   82.29    4.70
   4  -1   5   82.39    4.40
   4  -1   5   85.19    3.30
   4  -1   5   75.79    4.80
   4  -1   5   77.89    3.60
  -5   1  -5    4.80    0.70
  -5   1  -5    5.20    0.80
   5  -1   5    5.70    0.70
   5  -1   5    3.70    0.70
   5  -1   5    5.90    0.70
   5  -1   5    4.20    1.30
  -6   1  -5    9.20    1.10
  -6   1  -5    9.90    0.90
   6  -1   5   10.90    0.80
   6  -1   5   11.40    0.80
   6  -1   5    9.60    0.90
  -7   0   5    0.70    0.40
  -7   0   5    0.50    0.40
   6   0  -5  394.46   14.80
   6   0  -5  362.96   14.00
  -6   0   5  376.36   14.10
  -6   0   5  393.96   14.30
  -6   0   5  383.96   14.10
   5   0  -5   15.70    1.40
   5   0  -5   14.10    1.50
  -5   0   5   16.30    1.20
  -5   0   5   15.10    1.00
  -5   0   5   14.20    1.20
   4   0  -5    2.90    0.70
   4   0  -5    2.80    0.70
  -4   0   5    2.80    1.10
  -4   0   5    3.00    1.30
   3   0  -5  923.01   36.00
   3   0  -5 1018.50   36.50
  -3   0   5  937.71   37.00
  -3   0   5 1015.20   36.90
  -3   0   5 1029.30   37.00
   2   0  -5  463.85   17.50
  -2   0   5  487.75   17.90
  -2   0   5  449.46   17.70
  -2   0   5  441.26   17.60
   1   0  -5 6165.98  226.68
   1   0  -5 6606.34  228.78
  -1   0   5 6040.40  227.08
  -1   0   5 6101.89  224.98
  -1   0   5 6157.38  228.28
  -1   0   5 6323.37  226.88
   0   0  -5 6420.66  233.88
   0   0  -5 6442.46  231.78
   0   0   5 6551.64  231.08
   0   0   5 6181.08  233.28
  -1   0  -5 3444.86  118.19
  -1   0  -5 3367.46  118.09
  -1   0  -5 2869.21  117.29
   1   0   5 3341.97  116.99
   1   0   5 3189.58  117.69
  -2   0  -5   68.19    3.20
  -2   0  -5   64.09    3.50
   2   0   5   65.29    3.60
   2   0   5   62.29    2.80
  -3   0  -5   56.09    3.50
  -3   0  -5   60.99    3.10
   3   0   5   59.29    3.60
   3   0   5   59.39    2.60
   3   0   5   55.19    3.10
  -4   0  -5  380.56   16.00
  -4   0  -5  370.86   15.30
   4   0   5  406.06   15.40
   4   0   5  389.86   14.20
   4   0   5  384.06   16.00
  -5   0  -5   89.79    3.90
  -5   0  -5   89.39    3.80
  -5   0  -5   87.29    3.80
   5   0   5   93.09    4.90
   5   0   5   92.79    3.60
  -6   0  -5   96.69    4.00
  -6   0  -5  100.49    4.00
  -6   0  -5   95.49    4.10
   6   0   5   99.69    3.80
   6   0   5   99.59    3.90
   7  -1  -5   48.00    2.00
  -7   1   5   50.89    2.20
  -7   1   5   46.70    2.00
   6  -1  -5   69.69    3.60
   6  -1  -5   69.79    2.80
  -6   1   5   72.89    3.10
  -6   1   5   68.79    2.90
  -6   1   5   69.29    2.90
   5  -1  -5   96.39    4.40
   5  -1  -5   83.99    4.20
   5  -1  -5   91.79    3.60
  -5   1   5   93.79    3.70
  -5   1   5   88.79    3.60
  -5   1   5   89.09    3.90
   4  -1  -5  296.27   11.20
   4  -1  -5  288.67   11.00
   4  -1  -5  278.77   10.50
  -4   1   5  273.37   12.30
   3  -1  -5   37.50    2.40
   3  -1  -5   36.50    1.90
  -3   1   5   37.00    2.60
  -3   1   5   34.40    2.70
  -3   1   5   37.20    2.70
   2  -1  -5  283.57   11.00
   2  -1  -5  272.67   10.30
   2  -1  -5  256.57   10.50
  -2   1   5  289.57   11.20
  -2   1   5  264.97   11.00
  -2   1   5  281.77   11.20
   1  -1  -5  421.46   15.20
   1  -1  -5  363.76   14.70
  -1   1   5  409.06   15.30
  -1   1   5  382.16   15.10
   0  -1  -5 1115.19   43.70
   0  -1  -5 1280.67   44.20
   0   1   5 1220.08   43.50
   0   1   5 1197.88   44.40
  -1  -1  -5   68.79    3.00
  -1  -1  -5   60.19    3.20
  -1  -1  -5   60.89    3.20
   1   1   5   62.79    3.60
   1   1   5   68.99    2.60
  -2  -1  -5  185.18    8.30
  -2  -1  -5  189.38    7.90
   2   1   5  207.18    8.60
  -3  -1  -5  143.89    6.40
  -3  -1  -5  139.49    6.80
   3   1   5  153.28    7.10
   3   1   5  141.19    6.20
  -4  -1  -5   80.49    5.10
   4   1   5   87.89    3.40
   4   1   5   84.39    5.20
   4   1   5   96.29    4.50
  -5  -1  -5    5.80    0.80
  -5  -1  -5    4.90    0.80
  -5  -1  -5    5.50    0.80
   5   1   5    5.00    0.60
   5   1   5    4.70    1.30
  -6  -1  -5    9.50    1.00
  -6  -1  -5   10.30    0.90
  -6  -1  -5    9.40    1.10
   6   1   5   10.80    0.80
   6   1   5   11.40    0.80
   7  -2  -5  486.95   17.30
  -7   2   5  471.35   17.40
  -7   2   5  469.45   17.30
   6  -2  -5  155.08    6.00
   6  -2  -5  162.88    6.00
   6  -2  -5  152.48    6.80
  -6   2   5  155.78    6.00
  -6   2   5  160.38    6.20
  -6   2   5  161.58    6.00
   5  -2  -5   45.10    2.70
   5  -2  -5   50.29    2.10
   5  -2  -5   46.10    2.10
  -5   2   5   49.40    2.10
  -5   2   5   50.49    2.40
  -5   2   5   49.40    2.20
   4  -2  -5   48.00    2.60
   4  -2  -5   48.90    2.00
   4  -2  -5   48.40    2.50
  -4   2   5   44.00    3.20
   3  -2  -5  233.48    8.90
   3  -2  -5  200.58    9.60
  -3   2   5  236.08    9.90
  -3   2   5  250.47   10.20
   2  -2  -5   41.20    2.10
   2  -2  -5   40.90    2.70
   2  -2  -5   42.60    2.40
  -2   2   5   45.90    2.90
  -2   2   5   47.60    2.80
   1  -2  -5   53.59    3.10
   1  -2  -5   53.19    2.40
  -1   2   5   63.29    3.40
  -1   2   5   58.69    3.10
   0  -2  -5 1099.99   42.50
   0   2   5 1199.08   42.70
  -1  -2  -5  264.37   11.10
  -1  -2  -5  290.87   11.50
  -1  -2  -5  273.97   11.40
   1   2   5  321.07   12.00
  -2  -2  -5  489.35   19.70
   2   2   5  504.35   19.00
   2   2   5  519.15   20.00
  -3  -2  -5   85.39    4.90
   3   2   5   86.99    5.10
   3   2   5   86.89    4.10
   3   2   5   85.49    3.30
  -4  -2  -5   57.69    2.80
  -4  -2  -5   49.70    4.00
  -4  -2  -5   56.29    3.10
   4   2   5   52.59    4.10
   4   2   5   59.69    3.30
  -5  -2  -5  494.25   18.80
  -5  -2  -5  511.35   18.70
  -5  -2  -5  506.65   18.90
  -5  -2  -5  515.25   18.80
   5   2   5  553.34   19.80
   5   2   5  439.16   18.50
   5   2   5  547.95   18.60
  -6  -2  -5  191.98    7.20
  -6  -2  -5  188.88    7.20
  -6  -2  -5  190.78    7.30
   6   2   5  182.98    7.00
   6  -3  -5    6.80    0.70
   6  -3  -5    6.10    0.60
  -6   3   5    4.20    0.70
  -6   3   5    6.20    0.60
  -6   3   5    7.40    0.80
   5  -3  -5  175.48    6.90
   5  -3  -5  191.08    6.90
   5  -3  -5  182.58    7.90
   5  -3  -5  177.28    7.80
   5  -3  -5  183.68    6.90
  -5   3   5  188.18    7.00
  -5   3   5  179.58    7.10
   4  -3  -5  409.26   15.20
   4  -3  -5  381.96   15.40
   4  -3  -5  443.16   16.30
   4  -3  -5  406.76   15.80
   4  -3  -5  434.56   15.20
  -4   3   5  411.76   15.50
   3  -3  -5   87.79    4.20
   3  -3  -5   84.09    3.30
   3  -3  -5   83.49    3.80
  -3   3   5   81.99    4.90
   2  -3  -5  169.28    6.80
   2  -3  -5  181.98    7.90
  -2   3   5  173.78    7.90
  -2   3   5  164.78    7.50
   1  -3  -5  454.85   17.90
  -1   3   5  450.75   17.50
  -1   3   5  455.55   17.90
   0  -3  -5  201.28    8.90
   0   3   5  210.58    9.00
  -1  -3  -5  319.67   13.10
   1   3   5  334.17   13.40
   1   3   5  315.17   12.50
   1   3   5  321.37   11.90
  -2  -3  -5  723.03   28.20
   2   3   5  732.83   28.30
   2   3   5  735.43   27.20
  -3  -3  -5  191.28    9.70
   3   3   5  227.38    8.70
   3   3   5  210.48    9.90
   3   3   5  209.18    7.80
  -4  -3  -5  293.37   11.80
  -4  -3  -5  314.17   11.70
  -4  -3  -5  327.67   12.00
  -4  -3  -5  320.87   11.80
   4   3   5  319.77   12.70
   4   3   5  318.27   11.60
  -5  -3  -5  750.32   27.60
  -5  -3  -5  734.33   27.30
  -5  -3  -5  751.12   27.50
  -5  -3  -5  743.13   27.50
   5   3   5  780.82   28.40
   5   3   5  719.13   27.40
   5   3   5  779.62   27.30
  -6  -3  -5  210.68    8.00
  -6  -3  -5  215.78    8.00
  -6  -3  -5  205.98    7.90
   6   3   5  208.78    7.70
   6   3   5  210.38    7.80
   6  -4  -5  145.49    5.50
   6  -4  -5  151.18    5.50
  -6   4   5  143.19    5.50
   5  -4  -5  296.77   11.10
   5  -4  -5  299.37   11.10
  -5   4   5  295.27   11.30
  -5   4   5  310.17   11.20
   4  -4  -5  235.98    8.60
   4  -4  -5  229.58    8.70
   4  -4  -5  225.78    9.40
  -4   4   5  241.68    8.50
  -4   4   5  220.88    8.90
   3  -4  -5  811.12   29.80
  -3   4   5  796.42   31.30
   2  -4  -5   25.10    2.50
   2  -4  -5   24.20    1.70
  -2   4   5   24.80    2.50
   1  -4  -5 1333.67   48.90
  -1   4   5 1272.27   48.80
   0  -4  -5  100.89    5.20
   0   4   5   88.99    5.10
  -1  -4  -5  199.08    9.20
   1   4   5  207.08    9.40
   1   4   5  212.88    7.80
  -2  -4  -5   67.29    5.80
   2   4   5   77.59    3.80
   2   4   5   69.89    4.50
   2   4   5   74.19    3.10
   2   4   5   71.39    2.80
  -3  -4  -5   88.49    5.60
   3   4   5   89.39    5.60
   3   4   5   93.69    3.70
   3   4   5  103.09    4.70
   3   4   5  102.19    4.00
  -4  -4  -5   59.79    2.90
  -4  -4  -5   58.59    2.70
  -4  -4  -5   59.09    2.60
  -4  -4  -5   57.09    2.80
   4   4   5   62.89    2.90
   4   4   5   67.39    3.60
   4   4   5   64.19    2.50
  -5  -4  -5  143.29    5.50
  -5  -4  -5  143.89    5.40
  -5  -4  -5  140.89    5.50
  -5  -4  -5  144.69    5.60
   5   4   5  132.39    5.30
   5   4   5  141.89    5.30
   5   4   5  136.29    6.20
  -6  -4  -5   24.70    1.30
  -6  -4  -5   25.60    1.40
   6   4   5   27.00    1.10
   6   4   5   24.80    1.30
   6  -5  -5   10.60    0.70
   6  -5  -5    9.90    0.70
  -6   5   5   10.90    0.80
   5  -5  -5  172.88    6.50
   5  -5  -5  169.88    6.60
  -5   5   5  176.68    6.60
  -5   5   5  170.98    6.40
   4  -5  -5   64.49    2.70
   4  -5  -5   63.79    2.80
  -4   5   5   67.29    2.60
   3  -5  -5  151.58    5.70
   3  -5  -5  141.59    5.70
   3  -5  -5  129.59    6.20
   3  -5  -5  146.79    5.60
  -3   5   5  150.58    5.50
   2  -5  -5  133.59    6.80
   2  -5  -5  115.99    5.60
  -2   5   5  129.99    6.70
   1  -5  -5   22.40    2.50
  -1   5   5   20.60    2.40
   0  -5  -5    9.00    2.20
   0   5   5    4.60    0.60
   0   5   5    6.00    1.80
  -1  -5  -5  414.66   17.30
   1   5   5  419.36   15.20
   1   5   5  432.76   15.50
   1   5   5  398.96   17.20
  -2  -5  -5   10.90    2.00
   2   5   5   10.70    1.10
   2   5   5   11.30    2.10
   2   5   5   10.90    1.70
   2   5   5   10.40    0.80
  -3  -5  -5   93.19    4.10
  -3  -5  -5   98.89    3.80
  -3  -5  -5   88.19    3.70
   3   5   5   97.59    3.70
   3   5   5   99.59    4.70
   3   5   5   94.09    4.00
   3   5   5   90.79    3.70
  -4  -5  -5    5.80    0.80
  -4  -5  -5    5.50    0.70
  -4  -5  -5    5.20    0.80
   4   5   5    4.90    0.70
   4   5   5    5.80    0.70
   4   5   5    5.10    1.30
  -5  -5  -5   38.00    1.90
  -5  -5  -5   38.50    1.90
  -5  -5  -5   40.80    1.70
   5   5   5   37.00    1.60
   5   5   5   38.20    1.70
   5  -6  -5  232.18    8.40
  -5   6   5  229.78    8.40
  -5   6   5  215.68    8.30
   4  -6  -5   87.59    3.70
  -4   6   5   95.19    3.60
   3  -6  -5   14.00    1.20
   3  -6  -5   12.80    0.90
  -3   6   5   13.10    0.90
   2  -6  -5  231.48    8.70
   2  -6  -5  231.18    8.80
  -2   6   5  233.38    8.60
   1  -6  -5  121.69    4.70
   1  -6  -5  116.89    4.90
  -1   6   5  123.79    4.70
   0  -6  -5   55.79    2.30
   0  -6  -5   52.79    2.50
   0  -6  -5   52.49    2.30
   0   6   5   53.29    2.30
   0   6   5   50.89    2.40
  -1  -6  -5   90.99    3.70
  -1  -6  -5   90.99    3.90
  -1  -6  -5   93.99    3.80
   1   6   5   95.29    3.70
   1   6   5   99.89    4.00
   1   6   5   97.29    3.70
  -2  -6  -5  225.88    8.20
  -2  -6  -5  220.68    8.10
  -2  -6  -5  212.48    8.00
   2   6   5  210.78    8.10
   2   6   5  215.48    8.00
   2   6   5  210.58    8.00
   2   6   5  217.08    8.30
  -3  -6  -5  103.79    4.10
  -3  -6  -5  104.29    4.30
  -3  -6  -5  104.69    4.20
   3   6   5  102.89    4.00
   3   6   5  114.09    4.10
   3   6   5   99.99    5.00
  -4  -6  -5    4.80    0.70
  -4  -6  -5    6.10    0.70
  -4  -6  -5    6.50    0.80
   4   6   5    7.40    0.70
   4   6   5    7.00    0.70
  -5  -6  -5    1.00    0.40
  -5  -6  -5    1.00    0.40
   5   6   5    1.30    0.30
   4  -7  -5    3.60    0.60
   4  -7  -5    4.50    0.60
  -4   7   5    5.20    0.60
  -4   7   5    4.40    0.60
   3  -7  -5    6.70    0.80
   3  -7  -5    7.30    0.70
  -3   7   5    8.00    0.70
   2  -7  -5  108.39    4.50
   2  -7  -5  113.39    4.40
  -2   7   5  110.29    4.30
   1  -7  -5  103.39    4.30
   1  -7  -5  105.19    4.10
  -1   7   5  105.79    4.10
   0  -7  -5   47.20    2.10
   0  -7  -5   44.80    2.20
   0  -7  -5   46.40    2.10
   0   7   5   48.80    2.10
  -1  -7  -5  339.17   13.00
  -1  -7  -5  362.96   12.90
  -1  -7  -5  337.27   12.80
   1   7   5  354.06   12.90
   1   7   5  356.46   12.80
  -2  -7  -5  181.78    6.80
  -2  -7  -5  177.98    6.80
   2   7   5  174.78    6.70
   2   7   5  182.38    6.70
   2   7   5  175.88    6.70
  -3  -7  -5  218.28    7.90
  -3  -7  -5  203.28    8.00
  -3  -7  -5  214.58    7.90
   3   7   5  205.38    7.80
   3   7   5  212.18    7.80
  -4  -7  -5   52.29    2.40
  -4  -7  -5   57.29    2.30
  -4  -7  -5   57.69    2.30
   4   7   5   58.09    2.20
   3  -8  -5  179.38    6.70
   3  -8  -5  182.48    6.80
  -3   8   5  178.38    6.70
   2  -8  -5    7.90    0.80
   2  -8  -5    8.70    0.90
  -2   8   5    7.00    0.70
   1  -8  -5   19.70    1.20
   1  -8  -5   19.70    1.30
  -1   8   5   20.40    1.10
   0  -8  -5   69.79    2.90
   0  -8  -5   72.49    3.00
   0   8   5   70.59    2.90
  -1  -8  -5  303.37   10.70
  -1  -8  -5  277.17   10.70
  -1  -8  -5  282.07   10.60
   1   8   5  296.77   10.70
  -2  -8  -5   91.19    3.60
  -2  -8  -5   95.59    3.60
   2   8   5   91.59    3.50
   2   8   5   88.99    3.50
  -3  -8  -5   34.00    1.70
  -3  -8  -5   40.10    1.60
  -3  -8  -5   39.00    1.60
   3   8   5   38.50    1.50
   1  -9  -5   15.80    0.80
   1  -9  -5   16.30    1.00
  -1   9   5   14.30    0.80
   0  -9  -5   28.60    1.20
   0  -9  -5   30.90    1.40
   0   9   5   31.60    1.40
  -1  -9  -5   28.60    1.30
   1   9   5   29.70    1.30
   3   8  -6   28.80    1.30
  -3  -8   6   25.60    1.50
  -3  -8   6   28.30    1.40
   2   8  -6    3.90    0.50
  -2  -8   6    4.60    0.70
   1   8  -6  115.39    4.90
   1   8  -6  135.99    4.90
  -1  -8   6  131.49    4.90
   0   8  -6   20.20    1.30
  -1   8  -6   75.69    3.20
   1  -8   6   80.39    3.10
  -2   8  -6   59.79    2.50
   2  -8   6   57.29    2.40
  -4  -7   6   45.80    2.10
  -4  -7   6   49.60    2.10
   3   7  -6   18.30    1.10
   3   7  -6   17.30    1.10
  -3  -7   6   14.40    1.30
  -3  -7   6   17.80    1.30
   2   7  -6  195.48    9.50
   2   7  -6  226.48    8.20
   2   7  -6  218.08    8.10
  -2  -7   6  222.48    8.20
   1   7  -6  213.78    8.10
   1   7  -6  213.48    7.90
   1   7  -6  204.58    8.00
  -1  -7   6  218.78    8.00
  -1  -7   6  202.68    7.90
   0   7  -6  300.37   10.80
   0   7  -6  287.47   11.00
   0  -7   6  286.37   10.80
  -1   7  -6  696.63   25.20
   1  -7   6  675.73   25.10
  -2   7  -6  128.69    5.00
   2  -7   6  123.29    5.00
  -3   7  -6    6.10    0.60
   3  -7   6    5.80    0.70
  -5  -6   6   46.20    2.00
  -5  -6   6   43.40    2.00
   4   6  -6  283.17   11.10
  -4  -6   6  320.87   11.30
  -4  -6   6  299.47   11.30
   3   6  -6   62.79    2.60
   3   6  -6   59.29    4.00
  -3  -6   6   61.69    2.80
  -3  -6   6   60.39    2.60
  -3  -6   6   58.59    2.80
   2   6  -6   84.49    4.90
   2   6  -6   84.19    3.30
   2   6  -6   76.39    3.20
  -2  -6   6   76.89    3.30
  -2  -6   6   79.49    3.40
  -2  -6   6   73.89    3.50
   1   6  -6   37.10    1.80
   1   6  -6   35.90    3.20
   1   6  -6   38.90    1.80
   1   6  -6   38.20    1.90
  -1  -6   6   35.80    1.80
  -1  -6   6   35.00    2.00
   0   6  -6  359.66   13.30
   0   6  -6  360.76   13.50
   0  -6   6  359.06   13.70
   0  -6   6  367.56   13.40
   0  -6   6  348.27   13.60
   0  -6   6  363.26   13.30
  -1   6  -6  204.18    7.70
   1  -6   6  204.98    7.60
   1  -6   6  184.18    7.80
   1  -6   6  196.38    7.80
  -2   6  -6   39.00    1.90
   2  -6   6   31.20    2.10
   2  -6   6   36.50    1.90
  -3   6  -6  107.59    4.30
   3  -6   6  104.79    4.30
  -4   6  -6   12.50    0.90
   4  -6   6   13.80    1.00
  -5  -5   6   43.80    2.00
  -5  -5   6   39.80    1.80
  -5  -5   6   42.70    2.00
   4   5  -6   51.99    3.30
  -4  -5   6   55.19    2.50
  -4  -5   6   52.29    2.60
  -4  -5   6   52.29    2.30
   3   5  -6  115.99    5.70
   3   5  -6  112.99    4.30
  -3  -5   6  107.49    4.40
  -3  -5   6  107.29    4.50
  -3  -5   6  104.69    4.60
   2   5  -6  159.58    6.00
   2   5  -6  163.28    7.50
  -2  -5   6  158.18    6.00
  -2  -5   6  148.39    6.10
  -2  -5   6  147.09    6.20
   1   5  -6  198.68    8.50
   1   5  -6  209.28    9.20
   1   5  -6  197.28    8.30
   1   5  -6  206.58    7.50
  -1  -5   6  178.58    9.40
   0   5  -6  170.88    6.50
   0   5  -6  174.38    7.30
   0  -5   6  180.58    6.90
   0  -5   6  154.18    8.40
  -1   5  -6  171.98    6.90
  -1   5  -6  184.98    7.60
   1  -5   6  184.38    7.00
   1  -5   6  190.38    6.70
   1  -5   6  155.88    8.90
   1  -5   6  156.58    6.90
  -2   5  -6  102.49    4.10
   2  -5   6   94.39    4.20
  -3   5  -6   85.59    3.40
   3  -5   6   80.59    3.50
   3  -5   6   78.29    3.50
  -4   5  -6   47.20    2.20
   4  -5   6   52.59    2.40
  -5   5  -6   56.19    2.30
  -5   5  -6   56.79    2.20
   5  -5   6   56.89    2.40
  -6  -4   6  184.18    6.90
  -6  -4   6  186.18    6.90
   5   4  -6  114.29    5.70
  -5  -4   6  137.59    5.10
  -5  -4   6  136.99    5.20
  -5  -4   6  134.79    5.20
   4   4  -6  181.18    7.50
  -4  -4   6  166.88    6.60
  -4  -4   6  171.88    6.80
  -4  -4   6  175.88    6.80
   3   4  -6   14.80    1.80
  -3  -4   6   13.60    1.40
  -3  -4   6   14.80    1.40
  -3  -4   6   13.80    1.10
   2   4  -6  115.39    5.50
   2   4  -6  106.99    4.20
   2   4  -6  113.59    5.40
  -2  -4   6  103.99    6.00
   1   4  -6  629.84   23.10
   1   4  -6  626.74   22.80
   1   4  -6  626.14   23.50
   1   4  -6  596.94   22.10
  -1  -4   6  593.34   22.40
  -1  -4   6  565.94   24.00
   0   4  -6  249.78    9.20
   0   4  -6  256.57   10.00
   0  -4   6  229.88   11.00
   0  -4   6  249.08    9.50
   0  -4   6  252.07    9.50
  -1   4  -6    8.70    1.20
   1  -4   6    9.30    1.10
   1  -4   6    6.40    0.80
   1  -4   6    7.00    1.70
  -2   4  -6  892.81   32.60
   2  -4   6  901.11   32.20
   2  -4   6  835.32   34.30
  -3   4  -6   42.20    2.00
   3  -4   6   41.00    2.30
   3  -4   6   42.00    2.10
  -4   4  -6   87.49    3.60
   4  -4   6   86.79    3.70
  -5   4  -6   88.09    3.40
  -5   4  -6   88.09    3.50
   5  -4   6   92.59    3.70
  -6  -3   6  118.99    4.60
  -6  -3   6  118.29    4.60
   5   3  -6  464.65   18.00
  -5  -3   6  463.05   17.60
  -5  -3   6  484.65   17.50
  -5  -3   6  492.95   17.60
   4   3  -6 1257.97   45.90
  -4  -3   6 1258.47   45.40
  -4  -3   6 1237.08   45.50
  -4  -3   6 1252.67   45.40
   3   3  -6  501.25   18.70
   3   3  -6  495.45   19.30
  -3  -3   6  475.55   19.80
   2   3  -6  727.43   26.80
   2   3  -6  747.73   27.10
   2   3  -6  674.83   25.90
  -2  -3   6  709.63   27.70
   1   3  -6 1335.67   48.20
   1   3  -6 1343.67   47.80
   1   3  -6 1267.27   48.30
  -1  -3   6 1266.97   48.80
  -1  -3   6 1317.47   47.50
   0   3  -6   37.90    2.80
   0   3  -6   40.70    2.30
   0   3  -6   40.20    2.40
   0  -3   6   46.10    2.10
   0  -3   6   41.30    3.10
   0  -3   6   41.50    2.00
  -1   3  -6   23.10    1.60
   1  -3   6   21.70    2.60
   1  -3   6   23.00    1.50
  -2   3  -6   96.89    4.50
   2  -3   6   99.99    4.30
  -3   3  -6  194.78    8.80
  -3   3  -6  193.48    8.20
   3  -3   6  203.08    7.90
  -4   3  -6  243.58    8.90
   4  -3   6  224.58    9.00
  -5   3  -6   23.40    1.10
  -5   3  -6   23.30    1.30
   5  -3   6   21.90    1.40
   6  -3   6   44.30    2.00
  -6  -2   6   16.40    1.20
  -6  -2   6   15.40    1.00
   5   2  -6  190.08    7.90
  -5  -2   6  201.48    7.50
  -5  -2   6  198.08    7.50
   4   2  -6  223.08    8.70
   4   2  -6  209.18    9.20
  -4  -2   6  219.38    8.30
  -4  -2   6  225.38    8.20
  -4  -2   6  197.88   10.90
   3   2  -6   58.89    3.00
   3   2  -6   60.09    3.50
  -3  -2   6   60.59    3.90
  -3  -2   6   59.59    3.60
   2   2  -6  212.98    8.80
   2   2  -6  206.68    8.40
  -2  -2   6  208.18    9.00
  -2  -2   6  211.38    9.30
   1   2  -6  636.84   24.90
   1   2  -6  644.54   25.00
   1   2  -6  629.34   24.60
  -1  -2   6  681.33   25.20
  -1  -2   6  670.53   25.50
  -1  -2   6  730.03   24.40
   0   2  -6  522.75   19.40
   0   2  -6  515.15   19.60
   0   2  -6  472.75   21.20
   0  -2   6  516.35   19.20
   0  -2   6  538.25   20.30
   0  -2   6  555.54   19.90
  -1   2  -6  631.04   23.60
   1  -2   6  643.04   23.40
  -2   2  -6  284.67   11.20
   2  -2   6  289.57   11.00
  -3   2  -6   44.00    3.10
  -3   2  -6   42.30    2.50
   3  -2   6   41.00    2.30
  -4   2  -6    5.80    0.70
   4  -2   6    6.60    0.70
   4  -2   6    5.90    0.80
   4  -2   6    7.10    0.90
  -5   2  -6  477.05   17.40
   5  -2   6  486.55   17.40
   5  -2   6  466.65   17.60
  -6   2  -6   16.90    1.30
   6  -2   6   14.60    1.00
   6   1  -6  172.08    6.80
  -6  -1   6  188.48    7.00
  -6  -1   6  192.48    7.00
  -6  -1   6  186.78    7.10
   5   1  -6   67.89    3.40
   5   1  -6   67.79    3.20
  -5  -1   6   62.69    2.80
  -5  -1   6   69.59    2.90
  -5  -1   6   62.69    2.90
   4   1  -6    6.40    1.10
  -4  -1   6    5.50    1.60
  -4  -1   6    4.70    1.30
   3   1  -6   15.50    1.60
   3   1  -6   16.80    1.40
  -3  -1   6   16.10    2.00
  -3  -1   6   15.30    1.80
   2   1  -6 1241.58   46.10
   2   1  -6 1223.08   45.80
  -2  -1   6 1285.67   46.50
  -2  -1   6 1253.47   46.50
   1   1  -6  445.86   16.90
   1   1  -6  406.26   16.80
  -1  -1   6  463.55   17.20
  -1  -1   6  449.36   17.10
  -1  -1   6  442.36   16.30
   0   1  -6  413.66   15.80
   0   1  -6  417.56   16.00
   0  -1   6  436.46   15.60
  -1   1  -6 1806.32   64.99
   1  -1   6 1770.22   64.69
  -2   1  -6  303.17   11.90
  -2   1  -6  311.57   12.40
   2  -1   6  305.57   11.60
  -3   1  -6  158.58    6.80
  -3   1  -6  159.58    7.30
   3  -1   6  152.28    6.30
  -4   1  -6  435.66   15.60
  -4   1  -6  426.56   15.70
   4  -1   6  421.26   15.70
   4  -1   6  406.26   15.60
   4  -1   6  430.46   15.70
   4  -1   6  425.46   15.50
  -5   1  -6   11.00    0.80
  -5   1  -6   12.20    1.00
   5  -1   6   10.50    0.80
   5  -1   6   13.00    0.90
   5  -1   6   11.10    1.00
  -6   1  -6    6.40    0.70
  -6   1  -6    6.10    0.80
   6  -1   6    5.70    0.80
   6  -1   6    7.60    0.70
  -7   0   6  201.38    7.40
   6   0  -6  106.09    4.90
   6   0  -6  103.49    4.00
  -6   0   6  108.09    4.40
  -6   0   6  107.89    4.20
  -6   0   6  104.49    4.20
   5   0  -6   22.60    1.80
   5   0  -6   23.90    1.90
   5   0  -6   22.90    1.10
  -5   0   6   22.90    1.30
  -5   0   6   22.80    1.50
  -5   0   6   22.50    1.40
   4   0  -6   12.10    1.30
   4   0  -6   14.00    1.40
   4   0  -6   10.60    0.70
  -4   0   6   12.70    1.80
  -4   0   6   11.50    2.10
   3   0  -6  288.77   11.40
   3   0  -6  280.17   11.00
  -3   0   6  270.67   11.90
  -3   0   6  282.37   11.80
   2   0  -6  954.00   35.30
   2   0  -6  877.21   35.10
  -2   0   6  987.30   35.80
  -2   0   6  991.30   35.60
   1   0  -6 5375.96  191.88
  -1   0   6 5191.08  190.88
  -1   0   6 5131.29  188.68
   0   0  -6  408.46   15.40
   0   0  -6  403.56   15.00
   0   0   6  376.36   16.20
   0   0   6  418.36   14.80
  -1   0  -6 2375.56   85.39
  -1   0  -6 2409.96   85.09
   1   0   6 2307.57   84.69
   1   0   6 2288.07   85.59
  -2   0  -6 1198.98   43.30
  -2   0  -6 1172.08   42.90
   2   0   6 1090.49   43.50
   2   0   6 1197.68   42.40
  -3   0  -6   60.89    3.30
  -3   0  -6   61.19    3.80
   3   0   6   56.99    2.40
   3   0   6   59.89    3.90
  -4   0  -6  452.15   17.10
  -4   0  -6  472.45   17.00
  -4   0  -6  464.55   16.90
   4   0   6  466.45   16.80
   4   0   6  443.46   18.10
   4   0   6  457.25   17.00
   4   0   6  462.65   16.90
  -5   0  -6  207.08    7.90
  -5   0  -6  210.18    7.90
   5   0   6  204.08    7.80
   5   0   6  195.38    7.80
   5   0   6  205.68    7.60
   5   0   6  208.18    7.70
  -6   0  -6    2.50    0.60
  -6   0  -6    3.40    0.60
  -6   0  -6    3.50    0.50
   6   0   6    2.70    0.40
   6   0   6    2.40    0.50
   6  -1  -6  190.08    7.30
   6  -1  -6  196.48    7.30
  -6   1   6  188.48    7.40
  -6   1   6  202.28    7.50
  -6   1   6  207.28    7.60
   5  -1  -6   61.29    3.30
   5  -1  -6   66.79    2.70
   5  -1  -6   71.19    3.60
  -5   1   6   71.19    2.80
  -5   1   6   66.79    3.10
  -5   1   6   68.89    2.90
   4  -1  -6    6.10    1.10
   4  -1  -6    5.10    0.50
   4  -1  -6    6.20    1.20
  -4   1   6    5.80    1.50
  -4   1   6    6.30    1.70
   3  -1  -6   17.30    1.30
   3  -1  -6   18.40    1.80
   3  -1  -6   16.40    1.50
   3  -1  -6   15.50    0.80
  -3   1   6   15.40    1.90
  -3   1   6   15.30    2.00
  -3   1   6   14.60    2.00
   2  -1  -6 1230.48   45.30
   2  -1  -6 1171.48   44.90
   2  -1  -6 1327.67   44.40
  -2   1   6 1208.18   45.50
  -2   1   6 1175.88   45.50
   1  -1  -6  447.96   16.80
  -1   1   6  434.26   17.00
  -1   1   6  421.16   16.90
   0  -1  -6  421.36   16.30
   0   1   6  426.66   15.60
   0   1   6  422.06   16.60
  -1  -1  -6 1801.62   63.59
  -1  -1  -6 1762.72   63.89
  -1  -1  -6 1629.24   63.79
   1   1   6 1787.12   64.29
  -2  -1  -6  308.57   12.00
  -2  -1  -6  305.87   12.50
   2   1   6  299.17   12.80
  -3  -1  -6  163.68    7.10
  -3  -1  -6  159.88    7.60
   3   1   6  159.18    7.80
   3   1   6  145.19    6.80
   3   1   6  159.28    5.90
  -4  -1  -6  424.56   16.10
  -4  -1  -6  433.06   16.40
  -4  -1  -6  424.96   16.00
  -4  -1  -6  444.96   16.30
   4   1   6  455.65   16.00
   4   1   6  447.46   17.30
   4   1   6  436.16   16.00
   4   1   6  439.16   16.10
  -5  -1  -6   11.80    1.20
  -5  -1  -6   11.30    1.10
   5   1   6   10.80    1.10
   5   1   6   12.30    1.50
   5   1   6   11.10    0.80
   5   1   6   11.10    1.70
  -6  -1  -6    6.60    0.80
  -6  -1  -6    6.10    0.80
  -6  -1  -6    5.70    0.70
   6   1   6    7.70    0.70
   6   1   6    7.30    0.70
   6  -2  -6   15.00    0.90
   6  -2  -6   14.70    0.90
  -6   2   6   17.00    1.30
  -6   2   6   16.40    1.10
  -6   2   6   16.90    1.00
   5  -2  -6  205.28    8.60
   5  -2  -6  203.58    7.60
   5  -2  -6  209.98    7.60
  -5   2   6  196.18    7.60
  -5   2   6  197.98    7.90
  -5   2   6  206.08    7.70
   4  -2  -6  233.08    8.40
   4  -2  -6  215.88    8.40
   4  -2  -6  236.78    9.40
   4  -2  -6  226.58    9.10
  -4   2   6  221.28    8.70
  -4   2   6  226.08    8.50
   3  -2  -6   61.49    2.90
   3  -2  -6   60.69    2.40
   3  -2  -6   61.99    3.30
   3  -2  -6   55.09    3.60
  -3   2   6   56.99    3.70
  -3   2   6   56.79    3.90
   2  -2  -6  210.48    8.90
   2  -2  -6  216.88    8.20
   2  -2  -6  217.78    9.20
  -2   2   6  215.38    9.40
  -2   2   6  205.98    9.20
   1  -2  -6  687.43   24.80
  -1   2   6  653.03   24.90
  -1   2   6  601.84   24.50
   0  -2  -6  511.45   20.30
   0   2   6  540.35   20.60
  -1  -2  -6  620.64   23.00
  -1  -2  -6  579.14   23.40
   1   2   6  635.44   23.80
  -2  -2  -6  290.47   12.30
   2   2   6  297.17   12.60
  -3  -2  -6   41.40    3.30
   3   2   6   42.90    3.60
  -4  -2  -6    6.60    0.70
  -4  -2  -6    7.90    1.00
  -4  -2  -6    7.80    0.80
   4   2   6    8.90    1.60
   4   2   6    5.90    0.80
   4   2   6    7.10    0.70
   4   2   6    6.80    0.80
  -5  -2  -6  504.45   19.00
  -5  -2  -6  529.45   18.90
   5   2   6  486.05   19.80
   5   2   6  525.85   18.70
  -6  -2  -6   14.50    1.00
  -6  -2  -6   15.70    1.10
  -6  -2  -6   14.80    1.10
   6   2   6   18.50    0.90
   6   2   6   15.20    0.90
   6  -3  -6  131.59    4.90
  -6   3   6  127.19    4.90
  -6   3   6  126.19    5.10
   5  -3  -6  504.75   18.20
   5  -3  -6  490.45   18.20
   5  -3  -6  512.45   18.20
  -5   3   6  495.65   18.20
  -5   3   6  482.55   18.40
   4  -3  -6 1254.87   45.30
   4  -3  -6 1202.38   45.90
   4  -3  -6 1298.57   45.30
  -4   3   6 1276.07   45.30
  -4   3   6 1218.08   45.60
  -4   3   6 1255.87   45.20
   3  -3  -6  442.86   19.50
   3  -3  -6  484.05   17.50
  -3   3   6  455.75   18.90
   2  -3  -6  653.23   26.20
   2  -3  -6  716.63   25.00
  -2   3   6  648.94   25.90
  -2   3   6  682.03   26.30
   1  -3  -6 1184.58   45.20
  -1   3   6 1175.08   44.70
  -1   3   6 1256.07   45.30
   0  -3  -6   41.30    3.00
   0   3   6   39.20    3.00
   0   3   6   36.80    2.50
  -1  -3  -6   19.50    2.10
   1   3   6   23.00    2.40
  -2  -3  -6   83.79    5.10
   2   3   6   98.99    3.90
   2   3   6   98.19    3.70
   2   3   6   99.89    5.60
  -3  -3  -6  183.98    9.30
   3   3   6  196.18    9.50
   3   3   6  205.68    7.30
  -4  -3  -6  242.78    9.20
  -4  -3  -6  235.78    9.50
  -4  -3  -6  240.18    9.40
   4   3   6  269.07    9.20
   4   3   6  254.57   10.40
   4   3   6  244.78    9.20
  -5  -3  -6   20.80    1.40
  -5  -3  -6   23.50    1.30
  -5  -3  -6   23.70    1.50
  -5  -3  -6   21.50    1.80
   5   3   6   24.40    1.20
   5   3   6   25.70    1.20
   5   3   6   22.90    2.10
  -6  -3  -6   41.80    1.90
  -6  -3  -6   43.40    1.90
  -6  -3  -6   43.80    1.90
   6   3   6   43.60    1.90
   6  -4  -6  190.88    7.10
   6  -4  -6  192.88    7.20
   6  -4  -6  201.88    7.10
  -6   4   6  183.48    7.30
  -6   4   6  196.58    7.20
   5  -4  -6  143.09    5.30
   5  -4  -6  135.69    5.40
  -5   4   6  141.49    5.60
  -5   4   6  145.39    5.50
   4  -4  -6  181.88    6.70
   4  -4  -6  167.78    7.50
  -4   4   6  180.28    6.90
  -4   4   6  183.28    6.70
  -4   4   6  183.18    7.10
   3  -4  -6   16.50    0.90
   3  -4  -6   15.40    1.70
   3  -4  -6   15.60    1.30
  -3   4   6   15.10    1.40
  -3   4   6   17.70    1.00
   2  -4  -6   97.39    5.60
  -2   4   6   95.89    5.50
   1  -4  -6  529.35   22.40
  -1   4   6  599.34   22.60
   0  -4  -6  226.08   10.60
   0   4   6  249.97   10.80
  -1  -4  -6   10.50    2.10
   1   4   6    8.30    1.90
   2   4   6  924.21   33.40
   2   4   6  897.11   35.40
   2   4   6  927.71   33.20
  -3  -4  -6   53.09    2.10
  -3  -4  -6   46.60    2.40
  -3  -4  -6   45.40    2.20
   3   4   6   47.00    2.30
   3   4   6   45.50    2.00
   3   4   6   44.20    2.00
   3   4   6   45.30    2.00
  -4  -4  -6   97.79    3.80
  -4  -4  -6   95.19    4.10
  -4  -4  -6   93.49    3.90
   4   4   6   89.59    3.70
   4   4   6   94.79    4.80
   4   4   6   97.29    3.70
  -5  -4  -6   93.39    3.70
  -5  -4  -6   82.69    3.90
  -5  -4  -6   91.39    3.50
  -5  -4  -6   86.29    3.60
   5   4   6   91.09    3.50
   5   4   6   88.59    3.40
   5  -5  -6   44.60    2.00
   5  -5  -6   45.70    1.90
  -5   5   6   45.70    2.00
  -5   5   6   42.30    1.90
   4  -5  -6   56.79    2.50
  -4   5   6   56.69    2.30
  -4   5   6   56.19    2.50
   3  -5  -6  103.09    4.90
   3  -5  -6  109.99    4.40
  -3   5   6  110.59    4.20
   2  -5  -6  149.19    5.80
   2  -5  -6  148.19    5.70
  -2   5   6  147.89    5.60
   1  -5  -6  182.58    9.00
  -1   5   6  178.18    8.80
   0  -5  -6  161.38    8.30
   0   5   6  170.98    8.30
  -1  -5  -6  178.68    6.80
  -1  -5  -6  188.08    6.80
  -1  -5  -6  170.18    8.80
  -1  -5  -6  181.38    7.10
   1   5   6  178.48    8.80
   1   5   6  182.18    6.80
   1   5   6  175.78    6.70
  -2  -5  -6  105.39    4.00
  -2  -5  -6  105.69    4.20
  -2  -5  -6  105.79    4.10
   2   5   6   99.29    4.10
   2   5   6  103.79    4.00
   2   5   6  107.69    4.30
   2   5   6  110.19    4.10
  -3  -5  -6   82.49    3.40
  -3  -5  -6   83.69    3.80
  -3  -5  -6   87.79    3.50
   3   5   6   87.39    3.40
   3   5   6   87.89    3.40
   3   5   6   92.99    4.20
   3   5   6   85.49    3.40
  -4  -5  -6   53.19    2.20
  -4  -5  -6   52.99    2.50
   4   5   6   52.69    2.20
   4   5   6   49.50    3.20
   4   5   6   52.19    2.20
  -5  -5  -6   51.29    2.30
  -5  -5  -6   55.89    2.20
   5   5   6   47.90    2.10
   5  -6  -6   46.50    1.90
  -5   6   6   48.50    2.00
  -5   6   6   45.10    1.80
   4  -6  -6  330.27   12.00
  -4   6   6  316.67   12.00
  -4   6   6  327.47   11.90
   3  -6  -6   53.39    2.70
   3  -6  -6   62.19    2.50
  -3   6   6   60.49    2.40
   2  -6  -6   78.09    3.20
   2  -6  -6   81.09    3.20
   2  -6  -6   77.99    3.40
  -2   6   6   80.49    3.20
   1  -6  -6   35.40    1.70
   1  -6  -6   33.20    1.90
  -1   6   6   38.10    1.70
   0  -6  -6  384.76   14.10
   0  -6  -6  374.86   14.00
   0  -6  -6  381.76   14.00
   0   6   6  380.06   14.00
  -1  -6  -6  209.78    7.80
  -1  -6  -6  201.88    7.80
  -1  -6  -6  205.48    7.90
   1   6   6  208.88    7.80
   1   6   6  214.18    7.70
  -2  -6  -6   38.10    1.80
  -2  -6  -6   39.70    1.90
  -2  -6  -6   36.20    1.60
   2   6   6   41.30    1.70
   2   6   6   38.80    1.70
   2   6   6   39.90    1.80
  -3  -6  -6  120.89    4.50
  -3  -6  -6  114.29    4.50
   3   6   6  114.19    4.50
   3   6   6  120.39    4.50
   3   6   6  116.29    4.50
  -4  -6  -6   15.50    0.90
   4   6   6   13.50    0.90
   4   6   6   15.40    0.90
   4  -7  -6   47.60    2.00
  -4   7   6   50.39    2.10
  -4   7   6   47.20    1.90
   3  -7  -6   18.40    1.20
   3  -7  -6   19.40    1.00
  -3   7   6   19.90    1.10
   2  -7  -6  224.78    8.60
   2  -7  -6  230.58    8.50
  -2   7   6  229.78    8.50
   1  -7  -6  210.68    8.00
   1  -7  -6  211.88    8.10
  -1   7   6  218.08    8.00
   0  -7  -6  308.67   11.60
   0  -7  -6  314.17   11.70
   0  -7  -6  317.37   11.60
   0   7   6  317.77   11.60
  -1  -7  -6  677.53   26.10
  -1  -7  -6  739.63   26.00
  -1  -7  -6  726.33   26.20
   1   7   6  729.03   26.10
  -2  -7  -6  129.99    5.10
  -2  -7  -6  132.59    5.10
   2   7   6  135.29    4.90
   2   7   6  128.29    5.00
  -3  -7  -6    7.40    0.70
  -3  -7  -6    7.90    0.70
   3   7   6    8.10    0.70
   3   7   6    6.90    0.60
   3  -8  -6   24.50    1.20
   3  -8  -6   25.60    1.20
  -3   8   6   25.90    1.20
  -3   8   6   27.30    1.30
   2  -8  -6    3.60    0.60
   2  -8  -6    3.40    0.50
  -2   8   6    3.30    0.50
   1  -8  -6  135.69    5.10
   1  -8  -6  137.19    5.20
  -1   8   6  133.69    5.10
   0  -8  -6   22.10    1.30
   0  -8  -6   23.10    1.10
   0   8   6   23.00    1.20
  -1  -8  -6   75.29    3.00
  -1  -8  -6   80.89    3.10
  -1  -8  -6   76.89    3.10
   1   8   6   82.09    3.10
  -2  -8  -6   61.49    2.50
  -2  -8  -6   62.99    2.50
   2   8   6   60.09    2.40
   2   8  -7   76.59    3.00
  -2  -8   7   77.29    3.00
   1   8  -7   11.50    0.90
   1   8  -7   12.90    0.80
   0   8  -7   80.59    3.30
  -1   8  -7   44.50    1.90
   1  -8   7   39.90    1.80
   3   7  -7   89.19    3.50
   3   7  -7   87.39    3.50
  -3  -7   7   87.29    3.60
  -3  -7   7   89.89    3.60
   2   7  -7  187.28    6.70
   2   7  -7  177.78    6.70
  -2  -7   7  168.98    6.70
  -2  -7   7  177.98    6.80
   1   7  -7  173.08    7.20
   1   7  -7  202.28    7.00
   1   7  -7  177.98    7.10
  -1  -7   7  190.18    7.00
   0   7  -7  237.48    9.30
   0  -7   7  255.97    9.20
  -1   7  -7  280.47   10.70
   1  -7   7  292.07   10.70
  -2   7  -7  413.76   15.10
   2  -7   7  403.06   15.00
  -3   7  -7   28.70    1.40
   3  -7   7   33.40    1.50
   4   6  -7   15.20    0.90
  -4  -6   7   15.40    1.20
  -4  -6   7   15.50    1.20
  -4  -6   7   13.80    0.90
   3   6  -7   79.59    3.20
   3   6  -7   81.79    4.60
   3   6  -7   83.49    3.30
  -3  -6   7   81.99    3.40
  -3  -6   7   76.39    3.50
  -3  -6   7   80.19    3.20
   2   6  -7  165.58    6.20
   2   6  -7  165.48    7.80
   2   6  -7  158.18    6.10
  -2  -6   7  159.78    6.20
  -2  -6   7  166.38    6.30
  -2  -6   7  152.38    6.30
   1   6  -7   55.09    2.30
   1   6  -7   57.49    2.40
   1   6  -7   48.50    2.50
  -1  -6   7   55.99    2.40
   0   6  -7  223.58    8.50
   0   6  -7  215.38    8.70
   0  -6   7  220.38    8.60
   0  -6   7  233.98    8.90
   0  -6   7  245.88    8.60
  -1   6  -7   82.79    3.50
   1  -6   7   77.29    3.50
   1  -6   7   84.09    3.80
  -2   6  -7  642.64   23.40
   2  -6   7  618.14   23.40
   2  -6   7  654.53   23.60
  -3   6  -7  176.08    6.80
   3  -6   7  182.48    6.90
  -4   6  -7  145.09    5.50
  -5  -5   7   39.60    1.80
  -5  -5   7   36.20    1.60
  -5  -5   7   37.60    1.90
   4   5  -7  107.59    4.20
   4   5  -7  110.09    5.40
  -4  -5   7  106.29    4.50
  -4  -5   7  113.69    4.40
  -4  -5   7  110.29    4.30
   3   5  -7    9.80    0.90
   3   5  -7   11.50    2.10
  -3  -5   7    8.70    0.90
  -3  -5   7    7.80    1.00
  -3  -5   7    9.50    1.00
   2   5  -7  146.39    6.90
   2   5  -7  132.09    5.20
   2   5  -7  143.69    5.30
  -2  -5   7  136.29    5.30
  -2  -5   7  137.49    5.40
  -2  -5   7  120.69    5.50
   1   5  -7   26.90    1.70
   1   5  -7   32.80    1.60
   1   5  -7   32.30    3.10
   1   5  -7   30.80    1.50
  -1  -5   7   32.00    1.60
  -1  -5   7   29.60    2.00
   0   5  -7   42.00    1.90
   0   5  -7   39.40    2.20
   0  -5   7   48.20    2.00
   0  -5   7   43.30    2.40
  -1   5  -7   32.10    1.90
   1  -5   7   30.70    1.90
   1  -5   7   32.60    2.10
   1  -5   7   35.30    1.70
  -2   5  -7  169.68    6.80
   2  -5   7  178.98    7.00
  -3   5  -7   83.19    3.60
   3  -5   7   82.29    3.60
   3  -5   7   92.09    3.80
  -4   5  -7   43.20    2.00
   4  -5   7   45.50    2.10
  -5   5  -7   19.00    0.90
   5  -5   7   20.70    1.10
  -5  -4   7   64.39    2.70
  -5  -4   7   61.99    2.90
  -5  -4   7   68.99    2.80
   4   4  -7  833.12   31.10
   4   4  -7  873.71   32.30
  -4  -4   7  864.71   31.20
  -4  -4   7  878.71   31.30
  -4  -4   7  844.02   31.40
   3   4  -7  392.36   14.50
   3   4  -7  358.66   13.00
  -3  -4   7  354.86   13.20
  -3  -4   7  345.27   13.10
  -3  -4   7  322.17   13.30
   2   4  -7  579.34   21.20
   2   4  -7  554.04   19.70
  -2  -4   7  574.04   19.80
  -2  -4   7  518.55   19.80
  -2  -4   7  466.95   19.80
   1   4  -7  128.29    6.30
   1   4  -7  121.09    5.90
   1   4  -7  115.79    5.50
   1   4  -7  125.79    4.80
  -1  -4   7  120.39    6.60
  -1  -4   7  131.49    5.20
   0   4  -7   95.79    4.50
   0   4  -7   96.49    3.80
   0  -4   7   90.19    5.60
   0  -4   7   94.99    4.10
  -1   4  -7  134.79    5.70
   1  -4   7  125.29    5.20
   1  -4   7  117.29    6.80
  -2   4  -7    9.70    1.10
   2  -4   7    9.70    1.20
   2  -4   7    8.50    1.10
  -3   4  -7  446.06   17.60
   3  -4   7  495.75   17.70
   3  -4   7  491.55   17.80
  -4   4  -7  138.09    5.50
   4  -4   7  145.59    5.60
  -5   4  -7  174.58    6.80
  -5   4  -7  187.78    6.90
   5  -4   7  189.88    7.00
  -6  -3   7   64.39    2.60
  -6  -3   7   64.29    2.70
   5   3  -7   34.30    2.30
  -5  -3   7   38.20    1.90
  -5  -3   7   37.10    1.80
  -5  -3   7   34.40    1.90
   4   3  -7  202.38    7.80
   4   3  -7  214.38    8.80
  -4  -3   7  216.48    8.10
  -4  -3   7  209.78    8.00
  -4  -3   7  208.58    8.10
   3   3  -7  125.79    5.60
   3   3  -7  120.09    4.50
  -3  -3   7  104.89    4.80
  -3  -3   7  122.19    4.70
  -3  -3   7  117.99    4.70
   2   3  -7    3.10    1.30
   2   3  -7    2.20    0.40
   2   3  -7    3.00    1.10
  -2  -3   7    2.40    1.20
   1   3  -7  230.78    9.80
   1   3  -7  228.88    8.50
   1   3  -7  235.58    9.60
  -1  -3   7  219.78   10.10
  -1  -3   7  228.88    8.90
   0   3  -7   92.19    4.10
   0   3  -7   82.69    3.40
   0  -3   7   88.79    3.80
   0  -3   7   83.79    5.00
  -1   3  -7  376.36   14.20
   1  -3   7  359.56   13.80
  -2   3  -7  163.68    7.00
   2  -3   7  166.28    6.70
  -3   3  -7   17.60    1.20
   3  -3   7   18.00    1.50
   3  -3   7   18.50    1.30
  -4   3  -7  456.65   17.00
   4  -3   7  482.35   17.20
   4  -3   7  446.76   17.10
  -5   3  -7  188.78    7.20
   5  -3   7  193.68    7.30
   6   2  -7    9.10    0.70
  -6  -2   7   10.20    1.00
  -6  -2   7   10.70    0.80
   5   2  -7   26.40    2.00
   5   2  -7   24.20    1.20
  -5  -2   7   24.60    1.40
  -5  -2   7   25.70    1.50
   4   2  -7   36.60    1.60
   4   2  -7   36.90    2.40
  -4  -2   7   38.60    1.90
  -4  -2   7   37.80    1.80
  -4  -2   7   36.50    2.10
   3   2  -7  106.69    4.70
   3   2  -7   97.29    3.70
   3   2  -7   99.79    5.00
  -3  -2   7   94.49    5.40
  -3  -2   7   87.09    5.20
   2   2  -7  433.86   16.10
   2   2  -7  452.75   17.20
   2   2  -7  466.05   17.40
  -2  -2   7  415.86   17.60
  -2  -2   7  446.26   17.80
   1   2  -7 1208.68   42.70
   1   2  -7 1102.39   42.70
  -1  -2   7 1140.09   42.90
  -1  -2   7 1132.39   43.10
  -1  -2   7 1169.18   41.90
   0   2  -7  223.28    9.40
   0   2  -7  240.98    9.20
   0  -2   7  235.28    9.70
   0  -2   7  230.08    8.90
  -1   2  -7   61.89    3.00
   1  -2   7   55.09    2.70
  -2   2  -7  196.98    8.30
  -2   2  -7  203.98    8.80
   2  -2   7  205.78    8.00
  -3   2  -7  314.27   11.90
   3  -2   7  332.67   12.00
   3  -2   7  315.07   12.00
  -4   2  -7  314.57   11.90
   4  -2   7  320.87   12.00
   4  -2   7  321.57   12.00
  -5   2  -7    1.30    0.40
   5  -2   7    0.70    0.60
   6  -2   7  140.69    5.30
   6   1  -7   56.89    2.30
  -6  -1   7   60.99    2.50
  -6  -1   7   56.89    2.60
  -6  -1   7   60.39    2.50
   5   1  -7  251.87   10.00
  -5  -1   7  231.18    9.30
  -5  -1   7  249.38    9.20
  -5  -1   7  244.68    9.20
   4   1  -7   30.90    2.20
   4   1  -7   31.00    1.90
  -4  -1   7   25.30    1.80
  -4  -1   7   26.20    1.60
  -4  -1   7   25.40    1.50
   3   1  -7  136.19    5.10
   3   1  -7  144.09    6.00
   3   1  -7  137.19    6.30
  -3  -1   7  122.89    6.70
  -3  -1   7  132.59    6.70
   2   1  -7  883.21   33.00
   2   1  -7  890.41   32.80
   2   1  -7  888.41   31.90
  -2  -1   7  862.91   33.50
  -2  -1   7  881.71   33.40
   1   1  -7   66.39    3.60
   1   1  -7   72.79    3.60
  -1  -1   7   68.49    3.10
  -1  -1   7   70.19    3.90
   0   1  -7  150.28    6.40
   0   1  -7  150.08    6.10
   0  -1   7  148.89    5.90
  -1   1  -7  695.83   25.40
   1  -1   7  666.73   25.00
  -2   1  -7  356.86   13.80
  -2   1  -7  359.36   14.30
   2  -1   7  349.37   13.40
  -3   1  -7  116.89    5.80
  -3   1  -7  112.29    5.30
   3  -1   7  104.99    4.70
  -4   1  -7  273.57   10.30
   4  -1   7  277.07   10.20
   4  -1   7  276.47   10.40
   4  -1   7  281.17   10.50
  -5   1  -7    8.40    0.70
  -5   1  -7    7.80    0.90
   5  -1   7    7.30    0.70
   5  -1   7    7.00    0.80
   5  -1   7    7.80    0.90
  -6   1  -7   18.50    1.30
   6  -1   7   20.00    1.10
   6   0  -7   67.09    2.70
  -6   0   7   67.59    2.80
  -6   0   7   64.79    2.70
  -6   0   7   69.89    3.00
   5   0  -7   88.69    4.30
   5   0  -7   84.69    3.40
  -5   0   7   85.39    3.70
  -5   0   7   86.09    3.60
  -5   0   7   84.09    3.50
   4   0  -7    2.20    1.00
   4   0  -7    0.80    0.30
   4   0  -7    1.40    0.80
  -4   0   7    0.50    0.60
  -4   0   7    1.20    0.50
  -4   0   7    0.60    0.60
   3   0  -7   99.29    4.70
   3   0  -7  100.49    5.00
  -3   0   7   88.29    5.30
  -3   0   7   97.99    5.30
   2   0  -7 1538.75   54.09
   2   0  -7 1532.15   55.19
   2   0  -7 1458.35   54.89
  -2   0   7 1449.76   55.49
   1   0  -7  241.48   10.60
   1   0  -7  270.17   10.50
  -1   0   7  259.27   10.70
  -1   0   7  256.57    9.80
   0   0  -7  370.66   14.90
   0   0   7  395.76   14.30
  -1   0  -7  550.74   20.70
  -1   0  -7  563.84   21.10
   1   0   7  538.35   20.30
  -2   0  -7  258.97   10.40
  -2   0  -7  269.47   10.90
   2   0   7  247.38    9.80
  -3   0  -7  414.46   17.00
  -3   0  -7  424.46   16.50
  -4   0  -7    3.60    0.70
  -4   0  -7    3.80    0.60
  -4   0  -7    2.90    0.50
   4   0   7    2.70    0.70
   4   0   7    2.40    0.60
   4   0   7    1.80    0.50
   4   0   7    1.30    0.40
  -5   0  -7  459.05   16.70
  -5   0  -7  450.35   16.70
   5   0   7  438.66   16.60
   5   0   7  459.95   16.50
   5   0   7  446.66   16.60
  -6   0  -7  118.09    4.50
   6   0   7  118.09    4.40
   6   0   7  111.89    4.40
   6  -1  -7   58.99    2.40
   6  -1  -7   57.39    2.40
  -6   1   7   56.89    2.50
  -6   1   7   63.99    2.80
  -6   1   7   63.49    2.60
   5  -1  -7  244.88    9.30
   5  -1  -7  242.58    9.30
   5  -1  -7  252.87   10.30
  -5   1   7  255.57    9.40
  -5   1   7  252.37    9.60
  -5   1   7  254.67    9.40
   4  -1  -7   25.80    1.30
   4  -1  -7   30.90    2.30
   4  -1  -7   27.30    1.30
   4  -1  -7   27.00    1.90
  -4   1   7   25.30    1.50
  -4   1   7   27.30    1.70
   3  -1  -7  138.39    6.20
   3  -1  -7  147.09    5.70
   3  -1  -7  136.89    6.50
  -3   1   7  124.89    6.80
   2  -1  -7  852.11   30.70
   2  -1  -7  891.11   31.00
   2  -1  -7  853.11   31.70
   2  -1  -7  861.71   32.10
  -2   1   7  830.62   32.30
  -2   1   7  801.92   32.30
   1  -1  -7   75.59    3.90
  -1   1   7   68.09    3.90
  -1   1   7   74.69    4.10
   0  -1  -7  147.69    6.70
   0   1   7  152.68    6.00
   0   1   7  153.18    7.00
  -1  -1  -7  722.23   26.10
   1   1   7  674.33   26.80
  -2  -1  -7  352.36   14.20
  -2  -1  -7  356.66   13.80
   2   1   7  333.57   14.50
  -3  -1  -7  111.69    5.50
  -3  -1  -7  119.39    6.20
   3   1   7  111.69    6.40
  -4  -1  -7  275.97   10.30
  -4  -1  -7  283.47   10.70
  -4  -1  -7  287.07   10.50
   4   1   7  278.37   10.50
   4   1   7  272.37   10.30
   4   1   7  277.07   10.40
  -5  -1  -7    7.40    0.90
  -5  -1  -7    7.60    1.00
   5   1   7    7.70    0.70
   5   1   7    8.30    0.90
   5   1   7    7.80    0.70
   5   1   7    7.10    1.00
  -6  -1  -7   19.80    1.10
  -6  -1  -7   21.60    1.10
   6   1   7   21.70    1.00
   6  -2  -7    9.90    0.70
   6  -2  -7   11.90    0.70
   6  -2  -7   10.50    0.90
  -6   2   7   10.90    1.00
  -6   2   7   11.40    0.90
  -6   2   7   12.80    1.10
   5  -2  -7   25.80    2.20
   5  -2  -7   24.90    1.30
  -5   2   7   26.90    1.50
  -5   2   7   27.70    1.80
   4  -2  -7   35.50    1.70
   4  -2  -7   34.20    1.70
   4  -2  -7   36.20    2.30
   4  -2  -7   36.60    2.60
  -4   2   7   36.60    2.10
  -4   2   7   38.00    1.80
   3  -2  -7   94.89    4.70
   3  -2  -7   99.99    3.70
   3  -2  -7  101.19    4.30
   3  -2  -7   94.69    5.20
  -3   2   7   98.19    5.50
  -3   2   7   81.69    5.10
   2  -2  -7  429.16   16.00
   2  -2  -7  468.85   17.80
   2  -2  -7  470.15   16.70
  -2   2   7  435.56   17.80
  -2   2   7  396.46   17.50
   1  -2  -7 1192.08   43.50
  -1   2   7 1181.18   43.60
  -1   2   7 1107.69   43.30
   0  -2  -7  233.08   10.00
   0   2   7  230.98   10.20
  -1  -2  -7   55.59    3.60
   1   2   7   65.49    4.00
  -2  -2  -7  197.48    9.10
   2   2   7  204.58    9.50
  -3  -2  -7  327.27   11.90
  -3  -2  -7  326.97   12.10
  -3  -2  -7  336.67   12.30
   3   2   7  313.97   11.80
   3   2   7  319.17   11.90
   3   2   7  313.77   11.90
  -4  -2  -7  332.47   12.60
  -4  -2  -7  329.57   12.50
  -4  -2  -7  333.67   12.30
   4   2   7  337.97   12.20
   4   2   7  335.17   12.40
  -5  -2  -7    0.60    0.50
  -5  -2  -7    1.70    0.50
   5   2   7    0.20    0.40
   5   2   7    0.60    0.40
   5   2   7    0.10    0.60
   5   2   7    0.50    0.40
  -6  -2  -7  147.39    5.40
  -6  -2  -7  143.79    5.40
   6   2   7  133.79    5.30
   6  -3  -7   68.59    2.80
   6  -3  -7   70.49    2.60
  -6   3   7   69.09    2.80
  -6   3   7   65.29    2.90
   5  -3  -7   37.70    1.70
   5  -3  -7   37.90    1.70
   5  -3  -7   38.70    1.90
   5  -3  -7   36.40    1.70
  -5   3   7   37.30    2.10
  -5   3   7   39.20    1.80
   4  -3  -7  218.18    8.30
   4  -3  -7  221.28    8.20
   4  -3  -7  216.28    8.90
   4  -3  -7  221.88    8.20
  -4   3   7  224.08    8.30
  -4   3   7  221.58    8.20
  -4   3   7  222.38    8.60
   3  -3  -7  114.09    5.00
   3  -3  -7  119.39    4.40
   3  -3  -7  109.29    4.50
   3  -3  -7  117.39    4.70
  -3   3   7  118.59    4.60
  -3   3   7  116.89    4.90
  -3   3   7  116.59    4.50
   2  -3  -7    2.30    1.60
  -2   3   7    0.40    1.00
   1  -3  -7  232.68   10.20
  -1   3   7  221.78    9.80
  -1   3   7  224.88   10.20
   0  -3  -7   86.19    4.90
   0   3   7   84.49    4.50
   0   3   7   87.49    5.00
  -1  -3  -7  361.46   14.90
   1   3   7  357.56   15.10
   2   3   7  156.18    5.90
   2   3   7  158.38    8.00
  -3  -3  -7   18.50    1.00
  -3  -3  -7   15.80    1.30
  -3  -3  -7   18.60    1.50
  -3  -3  -7   20.20    1.30
   3   3   7   19.60    1.00
   3   3   7   18.10    1.10
   3   3   7   19.10    1.10
  -4  -3  -7  475.85   17.20
  -4  -3  -7  482.95   17.40
  -4  -3  -7  488.15   17.60
   4   3   7  483.45   17.30
   4   3   7  467.45   17.20
   4   3   7  429.36   18.40
  -5  -3  -7  198.98    7.60
  -5  -3  -7  198.58    7.70
   5   3   7  195.48    7.50
   5   3   7  203.78    7.40
   5  -4  -7   72.09    2.90
   5  -4  -7   66.99    2.70
   5  -4  -7   66.69    2.60
  -5   4   7   64.49    2.90
  -5   4   7   67.99    2.80
   4  -4  -7  872.51   32.10
   4  -4  -7  911.31   32.30
   4  -4  -7  859.31   32.20
  -4   4   7  879.71   32.20
  -4   4   7  916.61   32.50
  -4   4   7  881.21   32.10
   3  -4  -7  318.47   14.00
   3  -4  -7  352.26   13.20
   3  -4  -7  370.86   13.40
  -3   4   7  371.66   13.50
  -3   4   7  365.96   13.20
  -3   4   7  370.16   13.30
   2  -4  -7  544.85   20.50
   2  -4  -7  578.34   20.70
  -2   4   7  546.25   20.50
  -2   4   7  582.14   20.80
   1  -4  -7  128.89    6.80
  -1   4   7  118.99    6.60
   0  -4  -7   96.99    5.60
   0   4   7   91.59    5.50
  -1  -4  -7  123.49    6.70
   1   4   7  134.59    7.00
  -2  -4  -7   11.20    1.00
  -2  -4  -7    9.00    0.90
  -2  -4  -7   10.30    0.70
  -2  -4  -7    8.00    1.00
   2   4   7   10.50    0.80
   2   4   7    9.20    0.80
  -3  -4  -7  518.15   18.90
  -3  -4  -7  516.45   18.60
  -3  -4  -7  518.45   18.70
  -3  -4  -7  478.05   18.40
   3   4   7  498.25   18.50
   3   4   7  514.45   18.50
  -4  -4  -7  147.09    5.80
  -4  -4  -7  142.79    5.50
  -4  -4  -7  145.39    5.70
   4   4   7  145.89    5.40
   4   4   7  141.29    5.50
   4   4   7  147.19    5.50
  -5  -4  -7  188.68    7.10
  -5  -4  -7  174.88    7.00
   5   4   7  196.88    6.80
   5   4   7  179.78    6.90
   5  -5  -7   39.60    1.80
   5  -5  -7   41.70    1.70
  -5   5   7   41.40    1.80
   4  -5  -7  117.89    4.60
   4  -5  -7  121.99    4.60
  -4   5   7  116.99    4.50
  -4   5   7  113.39    4.60
   3  -5  -7    9.20    0.80
   3  -5  -7    9.30    1.00
  -3   5   7   10.90    1.10
  -3   5   7   10.50    0.90
   2  -5  -7  148.09    5.70
   2  -5  -7  143.19    5.60
  -2   5   7  143.79    5.50
   1  -5  -7   29.40    1.50
   1  -5  -7   31.40    1.60
  -1   5   7   29.10    1.50
  -1   5   7   32.50    1.60
   0  -5  -7   45.30    2.10
   0  -5  -7   42.50    2.00
   0  -5  -7   46.50    2.00
   0   5   7   43.50    2.00
  -1  -5  -7   34.10    1.70
  -1  -5  -7   32.60    1.50
  -1  -5  -7   33.30    1.70
  -1  -5  -7   32.70    1.70
   1   5   7   33.30    1.60
  -2  -5  -7  170.78    6.80
  -2  -5  -7  176.88    6.70
  -2  -5  -7  181.58    6.90
  -2  -5  -7  188.68    6.90
   2   5   7  182.38    6.80
   2   5   7  182.38    6.70
  -3  -5  -7   87.89    3.60
  -3  -5  -7   98.99    4.00
  -3  -5  -7   97.39    3.70
  -3  -5  -7   94.19    3.80
   3   5   7   90.29    3.60
   3   5   7   85.59    3.60
   3   5   7   94.69    3.60
  -4  -5  -7   45.70    2.00
  -4  -5  -7   44.00    2.00
  -4  -5  -7   46.40    2.20
   4   5   7   48.20    1.90
   4   5   7   43.10    1.90
  -5  -5  -7   21.10    1.10
   4  -6  -7   18.20    1.00
   4  -6  -7   16.10    1.00
  -4   6   7   16.50    1.10
  -4   6   7   17.90    0.90
   3  -6  -7   84.69    3.40
   3  -6  -7   85.99    3.40
  -3   6   7   84.49    3.40
  -3   6   7   81.39    3.30
   2  -6  -7  163.08    6.20
   2  -6  -7  159.58    6.20
   2  -6  -7  162.78    6.10
  -2   6   7  160.88    6.10
   1  -6  -7   55.39    2.40
  -1   6   7   52.79    2.30
   0  -6  -7  234.08    8.80
   0  -6  -7  241.18    8.80
   0   6   7  228.28    8.80
  -1  -6  -7   88.69    3.60
  -1  -6  -7   91.29    3.50
  -1  -6  -7   90.39    3.60
   1   6   7   88.69    3.60
  -2  -6  -7  691.63   24.30
  -2  -6  -7  639.74   24.20
  -2  -6  -7  675.63   24.30
   2   6   7  672.33   24.30
   2   6   7  658.93   24.20
  -3  -6  -7  201.98    7.30
  -3  -6  -7  194.88    7.30
   3   6   7  202.48    7.30
   3   6   7  188.48    7.30
  -4  -6  -7  148.99    5.50
   4   6   7  147.39    5.50
   3  -7  -7   91.79    3.60
  -3   7   7   98.79    3.60
  -3   7   7   89.09    3.60
   2  -7  -7  172.98    6.30
   2  -7  -7  154.98    6.40
  -2   7   7  170.98    6.30
   1  -7  -7  209.98    7.80
   1  -7  -7  211.78    7.80
  -1   7   7  202.78    7.80
   0  -7  -7  263.17    9.90
   0  -7  -7  273.87    9.80
   0   7   7  260.47    9.80
  -1  -7  -7  279.87   10.80
  -1  -7  -7  290.17   10.70
   1   7   7  303.37   10.70
  -2  -7  -7  399.56   14.90
  -2  -7  -7  421.86   14.90
   2   7   7  398.96   14.80
  -3  -7  -7   33.30    1.40
   3   7   7   30.60    1.30
   2  -8  -7   77.59    2.80
   2  -8  -7   67.79    2.80
  -2   8   7   71.59    2.80
   1  -8  -7   14.30    0.80
   1  -8  -7   12.90    0.90
  -1   8   7   12.10    0.80
   0  -8  -7   75.59    3.10
   0  -8  -7   82.89    3.10
   0   8   7   82.99    3.10
  -1  -8  -7   40.70    1.80
  -1  -8  -7   41.70    1.60
   1   8   7   42.70    1.70
   3   7  -8   72.59    2.70
  -3  -7   8   69.59    2.80
  -3  -7   8   68.99    2.90
   2   7  -8   23.90    1.10
  -2  -7   8   19.70    1.00
  -2  -7   8   21.20    1.20
   1   7  -8  229.28    8.60
   1   7  -8  228.98    8.40
  -1  -7   8  228.78    8.50
   0   7  -8    1.60    0.60
  -1   7  -8   19.80    1.30
   1  -7   8   19.10    1.20
  -2   7  -8  111.69    4.40
   2  -7   8  118.69    4.50
   4   6  -8  100.59    3.90
  -4  -6   8  107.89    4.00
  -4  -6   8  100.09    3.90
  -4  -6   8  107.99    4.10
   3   6  -8   23.40    1.20
   3   6  -8   23.70    1.20
  -3  -6   8   23.60    1.20
  -3  -6   8   21.60    1.50
  -3  -6   8   20.90    1.40
   2   6  -8   15.50    1.00
   2   6  -8   15.10    1.10
  -2  -6   8   15.70    1.00
  -2  -6   8   14.30    1.20
   1   6  -8    2.00    0.60
   1   6  -8    1.30    0.40
   1   6  -8    1.70    0.50
  -1  -6   8    2.00    0.50
   0   6  -8   48.90    2.30
   0  -6   8   44.80    2.10
   0  -6   8   52.09    2.60
   0  -6   8   48.20    2.20
  -1   6  -8  281.27   10.70
   1  -6   8  292.77   10.70
   1  -6   8  278.47   10.80
  -2   6  -8  116.69    4.70
   2  -6   8  126.19    4.90
   2  -6   8  116.49    4.80
  -3   6  -8   95.49    3.90
   3  -6   8  100.79    4.00
   3  -6   8  101.49    4.00
   4   5  -8   12.50    0.90
  -4  -5   8   12.80    1.30
  -4  -5   8   14.70    1.10
  -4  -5   8   13.60    0.90
   3   5  -8  195.48    7.10
   3   5  -8  188.78    7.10
   3   5  -8  183.98    8.50
  -3  -5   8  186.58    7.20
  -3  -5   8  191.78    7.20
  -3  -5   8  187.38    7.30
   2   5  -8  100.79    5.60
   2   5  -8  104.89    4.10
   2   5  -8   96.09    3.90
  -2  -5   8  104.69    4.10
  -2  -5   8  104.99    4.30
  -2  -5   8   95.49    4.20
   1   5  -8   25.20    1.30
   1   5  -8   26.50    1.40
   1   5  -8   25.00    1.60
  -1  -5   8   26.80    1.90
  -1  -5   8   26.30    1.50
   0   5  -8   15.20    1.30
   0   5  -8   14.50    1.00
   0  -5   8   14.70    1.60
   0  -5   8   16.40    1.10
  -1   5  -8  340.77   13.10
   1  -5   8  354.86   12.90
   1  -5   8  353.86   13.20
  -2   5  -8  264.47   10.10
   2  -5   8  266.27   10.20
  -3   5  -8   86.09    3.60
   3  -5   8   91.79    3.80
   3  -5   8   89.99    3.70
  -4   5  -8   80.19    2.80
   4  -5   8   56.19    3.00
  -5  -4   8    7.80    0.80
  -5  -4   8    7.90    0.70
  -5  -4   8    8.40    0.90
   4   4  -8   12.90    0.90
   4   4  -8   13.00    1.90
  -4  -4   8   11.70    1.20
  -4  -4   8   14.90    1.00
  -4  -4   8   12.20    1.30
   3   4  -8  432.66   17.00
   3   4  -8  425.56   15.60
  -3  -4   8  415.56   15.80
  -3  -4   8  423.16   15.70
  -3  -4   8  426.86   15.70
   2   4  -8   93.89    5.10
   2   4  -8   87.29    3.50
   2   4  -8   91.79    3.60
  -2  -4   8   88.49    3.70
  -2  -4   8   87.29    3.90
   1   4  -8   64.29    2.90
   1   4  -8   65.29    2.80
   1   4  -8   64.49    4.20
   1   4  -8   65.19    2.70
  -1  -4   8   66.39    2.80
  -1  -4   8   69.69    2.80
  -1  -4   8   65.49    3.10
   0   4  -8  120.99    4.90
   0   4  -8  118.89    4.70
   0  -4   8  122.29    4.90
   0  -4   8  127.19    4.80
   0  -4   8  121.19    5.10
  -1   4  -8   87.89    3.80
   1  -4   8   90.09    3.90
   1  -4   8   88.69    3.60
   1  -4   8   85.59    3.70
  -2   4  -8   37.00    1.90
   2  -4   8   33.00    2.10
   2  -4   8   33.70    2.00
  -3   4  -8   13.10    1.10
   3  -4   8   14.80    1.20
   3  -4   8   16.60    1.50
  -4   4  -8    4.00    0.50
   4  -4   8    4.40    0.80
   4  -4   8    4.80    0.70
  -5   4  -8   81.39    3.00
   5  -4   8   76.29    3.10
   5   3  -8   57.29    2.50
  -5  -3   8   64.99    2.70
  -5  -3   8   65.79    2.60
  -5  -3   8   62.79    2.80
   4   3  -8  179.48    7.70
   4   3  -8  173.98    6.60
  -4  -3   8  178.68    6.90
  -4  -3   8  174.38    6.80
  -4  -3   8  174.98    6.70
   3   3  -8  899.61   33.00
   3   3  -8  961.30   34.40
  -3  -3   8  917.61   33.10
  -3  -3   8  874.21   33.20
  -3  -3   8  903.31   33.30
   2   3  -8  538.15   19.50
   2   3  -8  564.54   21.00
   2   3  -8  510.65   19.40
  -2  -3   8  532.05   19.50
  -2  -3   8  519.45   19.60
   1   3  -8  341.67   13.60
   1   3  -8  325.47   12.00
   1   3  -8  336.67   13.20
  -1  -3   8  332.87   12.40
  -1  -3   8  289.67   13.60
   0   3  -8   95.59    4.50
   0  -3   8  101.29    4.30
  -1   3  -8   77.69    3.70
  -1   3  -8   77.79    3.90
   1  -3   8   76.29    3.60
   1  -3   8   86.69    3.50
   1  -3   8   82.49    3.70
   1  -3   8   74.59    3.60
  -2   3  -8  112.19    4.50
  -2   3  -8  106.89    4.40
   2  -3   8  113.49    4.60
   2  -3   8  108.29    4.50
  -3   3  -8  893.61   32.40
   3  -3   8  892.61   32.50
   3  -3   8  882.71   32.50
  -4   3  -8  210.58    8.00
   4  -3   8  216.38    8.10
   4  -3   8  206.38    8.10
  -5   3  -8   58.79    2.40
   5  -3   8   62.19    2.60
  -6  -2   8   48.00    2.00
  -6  -2   8   47.50    2.10
   5   2  -8   60.69    2.50
  -5  -2   8   60.99    2.80
  -5  -2   8   67.89    2.80
  -5  -2   8   64.79    2.70
   4   2  -8   73.99    2.90
   4   2  -8   78.99    4.10
  -4  -2   8   73.99    3.30
  -4  -2   8   70.59    3.10
  -4  -2   8   71.19    3.10
   3   2  -8   96.29    3.80
   3   2  -8  102.69    5.00
  -3  -2   8   98.69    4.10
  -3  -2   8   91.89    3.90
  -3  -2   8   97.19    3.90
   2   2  -8   56.49    3.40
   2   2  -8   53.59    2.20
   2   2  -8   51.19    3.20
  -2  -2   8   40.30    4.50
  -2  -2   8   47.90    3.50
   1   2  -8    7.80    1.60
   1   2  -8    8.20    1.70
  -1  -2   8    5.30    1.80
  -1  -2   8    8.30    1.00
   0   2  -8  267.47   10.60
   0  -2   8  269.27   10.30
  -1   2  -8   67.89    3.30
   1  -2   8   61.39    3.00
  -2   2  -8   40.90    2.00
  -2   2  -8   40.40    3.10
   2  -2   8   40.50    2.10
   2  -2   8   42.30    2.30
   2  -2   8   42.90    2.90
   2  -2   8   40.10    2.30
  -3   2  -8   97.89    3.90
   3  -2   8   95.79    4.10
   3  -2   8   96.39    4.00
  -4   2  -8   35.70    1.70
   4  -2   8   37.10    1.90
   4  -2   8   33.80    1.90
  -5   2  -8  128.49    5.00
   5  -2   8  134.89    5.10
  -6  -1   8   25.70    1.30
  -6  -1   8   26.20    1.40
   5   1  -8   26.50    1.30
   5   1  -8   25.50    2.10
  -5  -1   8   26.50    1.50
  -5  -1   8   27.50    1.50
   4   1  -8  268.67   10.50
   4   1  -8  252.77    9.90
   4   1  -8  254.67    9.40
  -4  -1   8  249.08    9.50
  -4  -1   8  248.48    9.60
  -4  -1   8  246.28    9.50
   3   1  -8  509.05   18.20
   3   1  -8  533.35   19.50
  -3  -1   8  475.55   18.30
  -3  -1   8  499.65   18.40
  -3  -1   8  477.75   18.30
   2   1  -8  474.45   18.20
   2   1  -8  478.75   18.10
   2   1  -8  460.85   16.90
  -2  -1   8  434.66   18.60
   1   1  -8  130.19    6.00
   1   1  -8  125.29    4.90
  -1  -1   8  132.79    6.40
  -1  -1   8  125.19    5.30
   0   1  -8  214.48    9.40
   0  -1   8  229.08    8.60
   0  -1   8  220.18    9.50
  -1   1  -8   95.69    4.50
  -1   1  -8   98.59    4.90
   1  -1   8   94.79    4.10
  -2   1  -8 1108.29   41.50
  -2   1  -8 1096.39   40.90
  -3   1  -8  477.85   17.20
   3  -1   8  472.45   17.20
   3  -1   8  448.46   17.20
  -4   1  -8  478.15   17.20
   4  -1   8  452.25   17.30
   4  -1   8  474.55   17.30
  -5   1  -8   81.59    3.20
   5  -1   8   89.09    3.50
   5  -1   8   80.89    3.40
   6   0  -8   79.29    3.00
  -6   0   8   77.39    3.10
  -6   0   8   80.89    3.20
  -6   0   8   78.89    3.30
   5   0  -8  167.68    7.50
   5   0  -8  173.78    6.40
   5   0  -8  176.48    6.50
  -5   0   8  174.28    6.60
  -5   0   8  172.18    6.80
  -5   0   8  169.28    6.50
   4   0  -8    1.30    0.80
   4   0  -8    2.20    0.50
   4   0  -8    0.60    0.30
   4   0  -8    2.20    1.10
  -4   0   8    1.20    0.60
  -4   0   8    0.60    0.70
  -4   0   8    0.90    0.60
  -4   0   8    1.00    0.60
   3   0  -8  241.28    9.00
   3   0  -8  248.08    9.40
   3   0  -8  252.17   10.20
   3   0  -8  229.18    9.00
  -3   0   8  239.08    9.10
  -3   0   8  235.88    9.30
  -3   0   8  252.17    9.20
   2   0  -8    9.00    1.80
   2   0  -8    7.20    1.50
   2   0  -8    8.40    0.70
  -2   0   8    6.60    1.70
   1   0  -8  349.27   13.20
   1   0  -8  375.86   14.50
  -1   0   8  351.56   14.70
   0   0  -8  643.64   25.40
   0   0   8  682.53   24.60
   0   0   8  682.33   25.80
  -1   0  -8 1614.14   57.29
   1   0   8 1515.05   56.79
  -2   0  -8  219.08    9.70
  -2   0  -8  222.38    9.20
  -3   0  -8   50.99    2.30
  -3   0  -8   50.19    2.20
   3   0   8   51.49    2.30
   3   0   8   49.70    2.40
  -4   0  -8   30.10    1.50
  -4   0  -8   31.00    1.60
   4   0   8   27.60    1.70
   4   0   8   27.90    1.60
   4   0   8   28.80    1.40
  -5   0  -8   19.70    1.20
   5   0   8   19.10    1.00
   5   0   8   19.10    1.30
   5   0   8   20.50    1.20
   6  -1  -8   27.90    1.20
  -6   1   8   24.70    1.20
  -6   1   8   25.50    1.40
  -6   1   8   27.90    1.50
   5  -1  -8   26.60    1.30
   5  -1  -8   28.00    1.30
   5  -1  -8   24.40    2.20
   5  -1  -8   26.30    1.40
  -5   1   8   25.40    1.50
  -5   1   8   26.70    1.70
  -5   1   8   29.30    1.70
   4  -1  -8  258.97    9.10
   4  -1  -8  247.88   10.30
   4  -1  -8  242.98    9.60
   4  -1  -8  237.28    9.20
   4  -1  -8  240.38    9.10
  -4   1   8  241.48    9.50
  -4   1   8  248.58    9.20
   3  -1  -8  512.05   18.00
   3  -1  -8  513.15   19.30
   3  -1  -8  489.25   18.00
   3  -1  -8  476.35   18.10
   3  -1  -8  491.15   18.00
   3  -1  -8  494.45   18.40
  -3   1   8  491.95   18.30
  -3   1   8  490.35   17.90
  -3   1   8  482.15   18.10
   2  -1  -8  463.65   17.90
   2  -1  -8  467.35   16.40
  -2   1   8  410.86   18.10
   1  -1  -8  125.09    5.90
  -1   1   8  113.69    6.00
   0  -1  -8  213.38    9.40
   0   1   8  221.28    9.50
  -2  -1  -8 1075.69   38.50
  -2  -1  -8 1045.90   39.00
   2   1   8  967.40   41.80
  -3  -1  -8  459.85   17.60
  -3  -1  -8  480.45   17.40
  -3  -1  -8  469.75   17.30
   3   1   8  476.95   17.20
   3   1   8  471.15   17.40
   3   1   8  475.25   17.40
  -4  -1  -8  462.75   17.10
  -4  -1  -8  481.35   17.40
  -4  -1  -8  476.35   17.30
   4   1   8  468.65   17.20
   4   1   8  462.85   17.10
   4   1   8  460.25   17.30
  -5  -1  -8   87.59    3.50
  -5  -1  -8   85.29    3.60
   5   1   8   88.69    3.60
   5   1   8   87.09    3.50
   5   1   8   87.69    3.40
   6  -2  -8   48.10    2.10
   6  -2  -8   51.59    2.00
  -6   2   8   50.39    2.20
  -6   2   8   49.50    2.10
   5  -2  -8   64.69    2.60
   5  -2  -8   63.69    2.80
   5  -2  -8   67.19    2.60
  -5   2   8   66.79    2.80
  -5   2   8   67.99    3.00
   4  -2  -8   76.39    2.90
   4  -2  -8   71.49    2.90
   4  -2  -8   70.39    3.10
   4  -2  -8   70.19    2.90
  -4   2   8   73.39    3.40
  -4   2   8   73.19    3.10
   3  -2  -8   95.69    4.30
   3  -2  -8   98.19    3.80
   3  -2  -8   96.39    3.80
   3  -2  -8   97.79    3.80
   3  -2  -8   97.89    4.00
  -3   2   8  100.29    3.80
  -3   2   8   92.99    3.90
  -3   2   8   99.89    4.20
   2  -2  -8   51.19    3.50
  -2   2   8   43.10    3.30
  -2   2   8   46.90    3.50
   1  -2  -8    7.90    1.90
  -1   2   8    5.00    1.40
  -1   2   8    8.80    1.90
   0  -2  -8  275.57   11.40
   0   2   8  250.87   11.10
   0   2   8  259.07   11.40
   1   2   8   56.79    4.00
  -2  -2  -8   45.30    2.10
  -2  -2  -8   44.20    1.90
   2   2   8   37.30    4.10
   2   2   8   42.80    1.90
  -3  -2  -8   96.29    3.90
  -3  -2  -8  100.09    4.10
  -3  -2  -8  103.79    4.30
   3   2   8   99.29    4.00
   3   2   8   98.19    3.80
  -4  -2  -8   36.20    2.00
  -4  -2  -8   35.90    1.60
  -4  -2  -8   38.00    1.90
   4   2   8   34.40    1.70
   4   2   8   36.80    1.60
   4   2   8   37.80    1.90
  -5  -2  -8  127.59    5.10
  -5  -2  -8  138.69    5.10
   5   2   8  125.19    5.00
   5   2   8  133.99    4.90
   5   2   8  131.19    5.10
   5  -3  -8   63.89    2.70
   5  -3  -8   65.39    2.60
   5  -3  -8   64.29    2.50
  -5   3   8   64.09    2.90
  -5   3   8   63.09    2.70
   4  -3  -8  185.38    6.90
   4  -3  -8  184.88    6.80
   4  -3  -8  181.68    7.00
  -4   3   8  183.88    6.80
  -4   3   8  183.08    7.30
  -4   3   8  184.88    7.00
   3  -3  -8  960.40   34.20
   3  -3  -8  936.11   34.10
  -3   3   8  959.50   34.10
  -3   3   8  892.01   34.10
  -3   3   8  953.20   34.40
   2  -3  -8  533.65   20.00
   2  -3  -8  549.45   20.10
  -2   3   8  555.94   20.30
  -2   3   8  547.65   19.90
   1  -3  -8  339.27   13.80
  -1   3   8  292.27   13.20
  -1   3   8  323.37   13.80
   0  -3  -8   97.39    5.40
   0   3   8   84.79    4.90
   0   3   8   96.59    5.50
  -1  -3  -8   85.09    3.40
  -1  -3  -8   80.19    3.30
   1   3   8   81.59    3.30
   1   3   8   77.59    5.00
  -2  -3  -8  114.29    4.60
  -2  -3  -8  114.39    4.40
   2   3   8  114.19    4.50
   2   3   8  118.39    4.40
  -3  -3  -8  886.71   33.00
  -3  -3  -8  916.91   33.40
  -3  -3  -8  933.31   33.20
   3   3   8  917.51   32.90
   3   3   8  899.51   33.10
  -4  -3  -8  222.98    8.30
  -4  -3  -8  222.18    8.40
   4   3   8  216.18    8.10
   4   3   8  227.18    8.30
   4   3   8  207.58    8.20
  -5  -3  -8   60.49    2.50
  -5  -3  -8   59.69    2.50
   5   3   8   52.59    2.40
   5   3   8   62.59    2.50
   5  -4  -8    8.10    0.70
   5  -4  -8    9.10    0.80
  -5   4   8    7.20    0.80
   4  -4  -8   12.50    0.90
   4  -4  -8   12.70    1.00
  -4   4   8   15.30    1.10
  -4   4   8   14.10    0.90
  -4   4   8   12.00    1.20
   3  -4  -8  453.95   16.30
   3  -4  -8  430.76   16.10
  -3   4   8  431.06   16.20
  -3   4   8  433.86   16.40
  -3   4   8  452.25   16.10
   2  -4  -8   93.69    3.80
   2  -4  -8   94.69    3.90
  -2   4   8   93.89    3.70
  -2   4   8   97.49    4.10
   1  -4  -8   66.99    2.80
   1  -4  -8   70.29    2.90
  -1   4   8   66.49    2.80
   0  -4  -8  125.69    4.90
   0  -4  -8  119.99    4.70
   0   4   8  123.19    4.70
  -1  -4  -8   92.99    3.70
  -1  -4  -8   90.49    3.60
   1   4   8   89.69    3.60
  -2  -4  -8   33.80    1.80
  -2  -4  -8   33.90    1.60
   2   4   8   35.80    1.70
   2   4   8   36.90    1.60
  -3  -4  -8   17.40    1.20
  -3  -4  -8   17.20    1.30
  -3  -4  -8   17.00    0.90
   3   4   8   14.60    1.00
   3   4   8   15.30    1.00
  -4  -4  -8    4.50    0.50
  -4  -4  -8    4.50    0.70
  -4  -4  -8    3.50    0.60
   4   4   8    3.50    0.50
  -5  -4  -8   80.09    3.10
  -5  -4  -8   74.79    3.00
   5   4   8   75.89    3.00
   4  -5  -8   14.80    1.00
   4  -5  -8   14.60    0.90
  -4   5   8   13.20    1.00
  -4   5   8   14.30    0.90
   3  -5  -8  202.78    7.60
   3  -5  -8  200.08    7.50
  -3   5   8  206.18    7.50
  -3   5   8  195.58    7.60
   2  -5  -8  108.29    4.20
   2  -5  -8  105.69    4.10
  -2   5   8   98.59    4.10
   1  -5  -8   28.80    1.50
   1  -5  -8   26.40    1.40
  -1   5   8   26.10    1.40
   0  -5  -8   15.20    1.10
   0  -5  -8   16.60    1.00
   0   5   8   14.30    1.00
  -1  -5  -8  340.87   12.90
  -1  -5  -8  357.56   12.80
   1   5   8  347.47   12.80
  -2  -5  -8  269.87   10.00
  -2  -5  -8  271.67   10.20
   2   5   8  273.87   10.10
  -3  -5  -8   88.29    3.40
  -3  -5  -8   87.89    3.60
  -3  -5  -8   91.69    3.70
   3   5   8   87.49    3.40
   3   5   8   85.29    3.40
  -4  -5  -8   61.69    2.50
  -4  -5  -8   66.99    2.70
  -4  -5  -8   61.79    2.60
   4   5   8   59.89    2.50
   4  -6  -8  108.59    4.00
   4  -6  -8   99.79    4.00
  -4   6   8  103.19    4.00
  -4   6   8  106.19    3.90
   3  -6  -8   25.20    1.20
   3  -6  -8   24.90    1.30
  -3   6   8   22.30    1.30
  -3   6   8   24.70    1.20
   2  -6  -8   13.60    0.90
   2  -6  -8   13.60    1.00
   2  -6  -8   12.10    0.90
  -2   6   8   14.90    1.00
   1  -6  -8    1.60    0.40
   1  -6  -8    1.10    0.40
  -1   6   8    0.90    0.50
  -1   6   8    1.10    0.50
   0  -6  -8   48.10    2.20
   0  -6  -8   50.69    2.10
   0   6   8   51.59    2.20
  -1  -6  -8  220.78    9.60
  -1  -6  -8  279.57    9.40
  -1  -6  -8  235.58    9.50
   1   6   8  283.47    9.50
  -2  -6  -8  118.89    4.60
  -2  -6  -8  118.99    4.50
   2   6   8  123.49    4.60
  -3  -6  -8  102.49    3.90
   3   6   8  103.99    3.90
  -3   7   8   73.99    2.80
   2  -7  -8   26.10    1.20
  -2   7   8   26.20    1.30
   1  -7  -8  239.58    8.70
  -1   7   8  232.98    9.00
   0  -7  -8    2.50    0.40
   0  -7  -8    1.20    0.70
   0   7   8    2.30    0.50
  -1  -7  -8   19.10    1.10
  -1  -7  -8   22.00    1.00
   1   7   8   23.00    1.10
  -2  -7  -8   97.99    4.00
   2   7   8  113.69    4.00
   1   7  -9   47.20    2.00
   0   7  -9   32.60    1.60
  -1   7  -9  506.65   18.50
   3   6  -9    5.10    0.60
  -3  -6   9    4.10    0.60
  -3  -6   9    4.30    0.60
  -3  -6   9    4.20    0.50
   2   6  -9   52.99    2.40
   2   6  -9   60.69    2.30
  -2  -6   9   57.09    2.30
   1   6  -9   10.50    0.80
   1   6  -9   11.10    1.00
  -1  -6   9   10.80    0.80
   0   6  -9   31.30    1.70
   0  -6   9   28.30    1.50
  -1   6  -9  399.46   14.90
   1  -6   9  400.36   15.00
   1  -6   9  413.26   14.90
  -2   6  -9  359.06   13.80
   2  -6   9  376.76   13.90
   2  -6   9  388.06   13.80
   4   5  -9   62.19    2.50
  -4  -5   9   63.39    2.50
  -4  -5   9   66.69    2.70
  -4  -5   9   61.89    2.60
   3   5  -9   71.09    2.90
  -3  -5   9   72.19    2.90
  -3  -5   9   67.59    2.90
  -3  -5   9   68.89    3.00
   2   5  -9   30.60    1.50
   2   5  -9   31.30    1.50
   2   5  -9   23.90    2.90
  -2  -5   9   31.90    1.80
  -2  -5   9   31.20    1.50
   1   5  -9   34.00    1.60
   1   5  -9   35.90    1.80
  -1  -5   9   31.90    1.60
   0   5  -9   18.60    1.40
   0  -5   9   23.10    1.70
   0  -5   9   18.80    1.20
  -1   5  -9  176.58    6.90
   1  -5   9  175.28    7.00
  -2   5  -9  124.59    4.90
   2  -5   9  122.69    5.00
   2  -5   9  124.09    4.90
  -3   5  -9   21.40    1.20
   3  -5   9   22.70    1.30
   3  -5   9   23.00    1.50
   4   4  -9  305.27   11.30
   4   4  -9  291.17   11.20
  -4  -4   9  328.87   11.50
  -4  -4   9  298.27   11.40
  -4  -4   9  313.47   11.30
   3   4  -9  229.88    8.20
   3   4  -9  209.08    9.50
   3   4  -9  214.28    8.20
  -3  -4   9  216.78    8.30
  -3  -4   9  228.08    8.40
  -3  -4   9  221.28    8.30
   2   4  -9   59.19    3.90
   2   4  -9   60.89    2.50
   2   4  -9   64.39    2.60
   2   4  -9   54.79    2.70
  -2  -4   9   62.09    2.70
  -2  -4   9   65.59    2.90
   1   4  -9  148.29    5.80
   1   4  -9  150.08    5.60
   1   4  -9  144.39    5.70
  -1  -4   9  145.29    5.60
  -1  -4   9  153.98    5.70
  -1  -4   9  137.29    6.50
   0   4  -9  323.47   12.20
   0  -4   9  324.27   12.00
   0  -4   9  327.27   12.30
   0  -4   9  325.97   12.10
  -1   4  -9   89.69    3.80
   1  -4   9   91.79    4.00
   1  -4   9   91.59    3.60
   1  -4   9   91.49    3.80
  -2   4  -9  532.65   19.70
   2  -4   9  537.95   19.80
  -3   4  -9  111.89    4.50
   3  -4   9  115.09    4.60
  -4   4  -9   53.19    2.20
   4  -4   9   48.80    2.30
   4  -4   9   50.79    2.20
   5   3  -9  134.29    5.20
  -5  -3   9  141.69    5.40
  -5  -3   9  144.29    5.40
  -5  -3   9  146.69    5.40
   4   3  -9  126.09    6.80
   4   3  -9  122.19    4.70
   4   3  -9  124.29    4.80
  -4  -3   9  120.59    4.90
  -4  -3   9  125.19    4.80
  -4  -3   9  130.19    5.00
   3   3  -9  436.56   15.90
   3   3  -9  427.46   17.40
   3   3  -9  455.55   16.00
  -3  -3   9  410.16   16.00
  -3  -3   9  438.06   16.20
  -3  -3   9  447.86   16.10
   2   3  -9  222.68    8.90
   2   3  -9  246.38    8.80
   2   3  -9  232.08    8.70
   2   3  -9  237.68   10.30
  -2  -3   9  235.38    9.00
  -2  -3   9  237.58    8.90
   1   3  -9   30.70    1.60
   1   3  -9   31.90    1.70
   1   3  -9   32.00    1.50
  -1  -3   9   31.50    2.00
  -1  -3   9   34.50    1.70
  -1  -3   9   33.40    1.70
   0   3  -9  119.39    4.70
   0   3  -9  112.89    4.50
   0  -3   9  106.39    4.70
   0  -3   9  120.59    4.50
   0  -3   9  114.79    4.60
  -1   3  -9   12.50    1.20
   1  -3   9   12.20    1.00
   1  -3   9   12.50    1.20
   1  -3   9   11.40    1.40
  -2   3  -9   52.49    2.40
  -2   3  -9   51.99    2.40
   2  -3   9   51.39    2.60
   2  -3   9   53.49    2.50
  -3   3  -9   17.70    1.20
   3  -3   9   17.50    1.50
   3  -3   9   18.50    1.20
  -4   3  -9    3.00    0.50
   4  -3   9    3.70    0.70
   4  -3   9    4.40    0.70
   5   2  -9    8.10    0.70
   5   2  -9    8.10    0.60
  -5  -2   9    8.90    1.10
  -5  -2   9    9.30    0.80
  -5  -2   9    9.10    0.90
   4   2  -9  398.56   16.30
   4   2  -9  421.36   15.20
   4   2  -9  426.96   15.10
  -4  -2   9  433.96   15.40
  -4  -2   9  397.66   15.30
  -4  -2   9  406.56   15.20
   3   2  -9  122.29    4.60
   3   2  -9  116.49    4.50
   3   2  -9  119.19    5.80
  -3  -2   9  116.79    4.60
  -3  -2   9  112.09    4.80
  -3  -2   9  117.99    4.80
   2   2  -9  296.87   10.70
   2   2  -9  274.07   10.80
   2   2  -9  299.67   10.80
   2   2  -9  288.57   12.20
  -2  -2   9  291.37   10.90
  -2  -2   9  287.17   10.80
   1   2  -9  134.19    5.10
   1   2  -9  131.79    5.30
   1   2  -9  133.29    5.20
  -1  -2   9  137.69    5.40
  -1  -2   9  133.99    5.30
  -1  -2   9  138.29    5.20
   0   2  -9    7.20    0.90
   0  -2   9    8.60    1.00
  -1   2  -9  808.62   29.50
   1  -2   9  819.82   29.40
   1  -2   9  792.72   29.50
  -2   2  -9   73.89    3.10
   2  -2   9   72.89    3.10
   2  -2   9   71.69    3.20
   2  -2   9   74.89    3.30
  -3   2  -9   17.50    1.20
   3  -2   9   18.30    1.50
   3  -2   9   17.80    1.30
  -4   2  -9   39.60    1.80
   4  -2   9   38.20    1.90
   4  -2   9   36.60    2.00
  -5   2  -9   62.39    2.40
   5  -2   9   60.59    2.60
   5  -2   9   66.49    2.60
   5   1  -9    7.00    0.60
   5   1  -9    7.90    0.70
  -5  -1   9    7.30    0.80
  -5  -1   9    5.80    0.70
   4   1  -9  120.49    5.90
   4   1  -9  129.59    4.80
  -4  -1   9  126.09    4.90
  -4  -1   9  129.19    5.10
  -4  -1   9  122.89    4.90
   3   1  -9   48.90    2.10
   3   1  -9   48.20    2.00
   3   1  -9   48.60    2.40
   3   1  -9   46.40    3.20
  -3  -1   9   46.90    2.40
  -3  -1   9   47.80    2.20
   2   1  -9   81.39    3.20
   2   1  -9   76.69    3.20
   2   1  -9   75.89    3.10
   2   1  -9   76.59    4.40
  -2  -1   9   79.59    3.40
  -2  -1   9   76.09    3.10
   1   1  -9  134.69    6.50
   1   1  -9  139.59    5.50
  -1  -1   9  123.09    6.70
  -1  -1   9  142.09    5.70
  -1  -1   9  153.08    5.80
   0  -1   9   33.80    2.80
   0  -1   9   35.80    2.00
  -1   1  -9  111.09    6.80
  -1   1  -9  131.29    5.10
   1  -1   9  129.99    5.10
   1  -1   9  134.89    5.00
  -2   1  -9    2.40    0.50
   2  -1   9    1.70    0.80
   2  -1   9    3.00    0.60
  -3   1  -9   65.39    2.80
   3  -1   9   62.29    2.90
   3  -1   9   66.49    2.80
  -4   1  -9   77.09    3.10
   4  -1   9   78.49    3.20
   4  -1   9   74.19    3.30
   5  -1   9   56.59    2.30
   5  -1   9   52.19    2.30
   5   0  -9    6.00    0.60
  -5   0   9    4.90    0.60
  -5   0   9    5.90    0.70
  -5   0   9    6.60    1.00
   4   0  -9  176.98    7.90
   4   0  -9  178.68    6.70
  -4   0   9  174.68    7.00
  -4   0   9  182.28    6.90
  -4   0   9  183.88    7.00
   3   0  -9  111.69    4.40
   3   0  -9  107.39    4.80
   3   0  -9  118.19    5.70
   3   0  -9  115.09    4.40
  -3   0   9  115.59    4.70
  -3   0   9  119.69    4.70
   2   0  -9  477.25   17.70
   2   0  -9  486.45   17.70
   2   0  -9  479.75   17.80
  -2   0   9  499.45   17.70
   1   0  -9  588.94   22.30
  -1   0   9  545.95   22.50
   0   0   9  157.18    7.40
   0   0   9  152.58    6.20
  -1   0  -9   94.29    3.70
   1   0   9   86.19    3.80
  -2   0  -9 2015.10   72.09
   2   0   9 1982.70   72.19
   2   0   9 1993.60   72.19
  -3   0  -9   30.40    1.50
   3   0   9   30.50    1.80
   3   0   9   30.20    1.60
  -4   0  -9  190.28    7.20
  -4   0  -9  191.68    7.20
   4   0   9  194.28    7.30
   4   0   9  185.38    7.30
  -5   0  -9   45.00    2.00
   5   0   9   53.09    2.10
   5   0   9   49.10    2.20
   5  -1  -9    7.30    0.70
  -5   1   9    6.90    1.00
  -5   1   9    6.50    0.70
   4  -1  -9  113.99    6.20
   4  -1  -9  131.59    5.00
   4  -1  -9  124.89    4.80
   4  -1  -9  128.39    4.80
   4  -1  -9  127.59    4.80
  -4   1   9  130.19    4.90
  -4   1   9  125.99    5.20
  -4   1   9  124.49    5.00
   3  -1  -9   47.40    2.10
   3  -1  -9   47.60    2.00
   3  -1  -9   46.20    2.10
  -3   1   9   48.10    2.40
  -3   1   9   45.90    2.40
  -3   1   9   45.70    2.00
   2  -1  -9   73.79    3.20
   2  -1  -9   79.49    3.10
   2  -1  -9   78.69    3.20
  -2   1   9   79.79    3.10
  -2   1   9   80.79    3.50
   1  -1  -9  133.59    6.80
   1  -1  -9  148.69    5.60
  -1   1   9  117.69    6.70
  -1   1   9  151.68    5.40
   0  -1  -9   34.70    2.80
   0   1   9   31.00    2.70
  -1  -1  -9  134.29    5.20
  -1  -1  -9  140.19    5.30
   1   1   9  135.99    5.20
   1   1   9  129.59    5.70
  -2  -1  -9    1.90    0.40
  -2  -1  -9    2.20    0.50
   2   1   9    2.90    0.60
   2   1   9    2.50    0.70
  -3  -1  -9   67.79    3.10
  -3  -1  -9   67.19    2.80
  -3  -1  -9   68.19    2.90
   3   1   9   65.59    3.00
   3   1   9   65.39    2.80
  -4  -1  -9   76.59    3.20
  -4  -1  -9   76.69    3.10
  -4  -1  -9   76.39    3.30
   4   1   9   78.39    3.30
   4   1   9   77.19    3.20
  -5  -1  -9   51.79    2.20
  -5  -1  -9   51.59    2.20
   5   1   9   56.79    2.30
   5   1   9   52.79    2.20
   5  -2  -9    8.70    0.80
  -5   2   9    8.00    1.00
  -5   2   9   11.50    1.10
   4  -2  -9  439.56   15.90
   4  -2  -9  442.96   16.00
   4  -2  -9  412.66   15.90
  -4   2   9  439.16   16.20
  -4   2   9  433.86   15.90
   3  -2  -9  116.19    4.70
   3  -2  -9  119.79    4.50
   3  -2  -9  119.09    4.60
  -3   2   9  116.19    4.90
  -3   2   9  116.19    4.50
   2  -2  -9  297.37   11.00
   2  -2  -9  273.07   10.90
   2  -2  -9  297.77   11.10
  -2   2   9  315.27   11.40
  -2   2   9  305.17   11.00
   1  -2  -9  144.59    5.60
   1  -2  -9  139.79    5.50
  -1   2   9  142.79    5.40
   0  -2  -9    7.30    0.80
   0  -2  -9    7.40    0.80
   0  -2  -9    6.00    0.80
   0   2   9    5.80    0.70
  -1  -2  -9  837.32   31.10
  -1  -2  -9  872.31   31.20
   1   2   9  862.01   31.10
  -2  -2  -9   74.59    3.10
  -2  -2  -9   76.99    3.20
   2   2   9   75.49    3.20
   2   2   9   76.79    3.10
  -3  -2  -9   18.70    1.40
  -3  -2  -9   18.20    1.20
  -3  -2  -9   19.40    1.10
   3   2   9   19.40    1.20
   3   2   9   20.00    1.40
  -4  -2  -9   36.30    1.90
  -4  -2  -9   35.40    1.60
  -4  -2  -9   37.40    1.80
   4   2   9   37.70    1.80
   4   2   9   40.70    1.90
  -5  -2  -9   65.89    2.80
  -5  -2  -9   70.59    2.70
   5   2   9   70.89    2.80
   5   2   9   65.69    2.70
   5  -3  -9  150.28    5.50
   5  -3  -9  129.19    5.40
   5  -3  -9  144.79    5.40
  -5   3   9  146.29    5.60
  -5   3   9  149.39    5.50
   4  -3  -9  129.19    4.90
   4  -3  -9  124.49    5.00
   4  -3  -9  126.29    4.80
  -4   3   9  129.99    5.20
  -4   3   9  128.29    4.90
   3  -3  -9  432.96   16.40
   3  -3  -9  442.46   16.30
  -3   3   9  446.96   16.60
  -3   3   9  456.95   16.20
   2  -3  -9  240.68    9.30
   2  -3  -9  249.38    9.40
  -2   3   9  255.77    9.70
  -2   3   9  253.37    9.30
   1  -3  -9   31.70    1.70
   1  -3  -9   34.30    1.60
  -1   3   9   34.50    1.60
   0  -3  -9  116.69    4.60
   0  -3  -9  111.29    4.40
   0   3   9  114.99    4.50
   0   3   9  117.19    4.50
  -1  -3  -9   12.00    0.80
  -1  -3  -9   10.60    1.00
   1   3   9   11.10    0.90
  -2  -3  -9   53.59    2.20
  -2  -3  -9   51.89    2.40
   2   3   9   53.19    2.50
   2   3   9   56.19    2.30
  -3  -3  -9   18.60    1.00
  -3  -3  -9   19.00    1.40
  -3  -3  -9   19.40    1.20
   3   3   9   17.60    1.10
   3   3   9   19.80    1.30
  -4  -3  -9    4.40    0.70
  -4  -3  -9    4.10    0.60
   4   3   9    4.00    0.70
   4   3   9    3.90    0.60
   4  -4  -9  341.97   11.90
   4  -4  -9  334.27   12.00
  -4   4   9  309.87   12.10
  -4   4   9  316.57   11.90
  -4   4   9  313.77   11.80
   3  -4  -9  254.97    9.40
   3  -4  -9  250.07    9.30
  -3   4   9  246.78    9.20
  -3   4   9  246.38    9.60
   2  -4  -9   68.39    2.80
   2  -4  -9   63.39    2.70
  -2   4   9   65.49    2.70
   1  -4  -9  164.18    6.10
   1  -4  -9  153.88    6.00
  -1   4   9  155.48    6.00
   0  -4  -9  329.57   12.30
   0  -4  -9  332.57   12.20
   0   4   9  330.97   12.20
  -1  -4  -9   90.89    3.70
  -1  -4  -9   89.19    3.60
   1   4   9   92.29    3.60
  -2  -4  -9  568.54   20.80
  -2  -4  -9  563.44   20.60
   2   4   9  565.94   20.60
  -3  -4  -9  123.09    4.80
  -3  -4  -9  121.29    4.90
  -3  -4  -9  115.79    4.60
   3   4   9  123.29    4.80
   3   4   9  125.79    4.70
  -4  -4  -9   52.29    2.20
  -4  -4  -9   52.99    2.30
   4   4   9   52.19    2.20
   4   4   9   52.09    2.20
   4  -5  -9   64.79    2.60
   4  -5  -9   68.79    2.60
  -4   5   9   62.69    2.60
  -4   5   9   63.59    2.50
   3  -5  -9   75.69    3.10
   3  -5  -9   76.39    3.10
  -3   5   9   80.69    3.10
   2  -5  -9   30.40    1.60
   2  -5  -9   30.10    1.50
  -2   5   9   31.10    1.50
   1  -5  -9   35.80    1.60
   1  -5  -9   35.50    1.70
  -1   5   9   34.30    1.70
   0  -5  -9   21.40    1.10
   0  -5  -9   21.60    1.30
   0   5   9   20.30    1.20
  -1  -5  -9  169.98    6.80
  -1  -5  -9  183.88    6.70
   1   5   9  181.78    6.70
  -2  -5  -9  120.89    4.90
  -2  -5  -9  124.09    4.70
  -2  -5  -9  122.69    5.00
   2   5   9  131.79    4.80
  -3  -5  -9   23.60    1.30
  -3  -5  -9   23.00    1.20
   3   5   9   21.90    1.30
   3   5   9   24.00    1.20
   3  -6  -9    3.80    0.50
   3  -6  -9    5.20    0.60
  -3   6   9    5.30    0.60
   2  -6  -9   63.29    2.80
   2  -6  -9   59.39    2.50
  -2   6   9   59.69    2.40
   1  -6  -9   10.40    0.70
   1  -6  -9    9.60    0.80
  -1   6   9    8.80    0.80
   0  -6  -9   26.00    1.40
   0  -6  -9   30.10    1.30
   0   6   9   29.70    1.40
  -1  -6  -9  408.46   14.20
  -1  -6  -9  364.36   14.30
   1   6   9  398.06   14.30
  -2  -6  -9  330.97   12.60
  -2  -6  -9  337.97   12.50
  -2  -6  -9  334.87   12.80
   2   6   9  371.06   12.60
   1  -7  -9   52.49    2.10
   0  -7  -9   32.20    1.30
   0   7   9   29.80    1.30
  -1  -7  -9  470.85   17.20
   1   7   9  479.35   17.20
   2   6 -10   47.70    1.90
  -2  -6  10   48.80    1.90
   1   6 -10    7.60    0.80
  -1  -6  10    7.10    0.60
   0   6 -10    6.90    0.90
  -1   6 -10   55.39    2.30
   1  -6  10   53.99    2.20
   3   5 -10   30.40    1.30
  -3  -5  10   27.90    1.50
  -3  -5  10   27.30    1.30
   2   5 -10    9.60    0.80
   2   5 -10    9.20    0.90
  -2  -5  10    8.70    0.80
   1   5 -10   52.89    2.20
   1   5 -10   54.39    2.40
  -1  -5  10   54.39    2.30
   0   5 -10  104.99    4.20
   0  -5  10  104.39    4.30
   0  -5  10  107.79    4.10
   0  -5  10  100.49    4.00
  -1   5 -10   68.19    2.90
   1  -5  10   69.09    2.90
   1  -5  10   68.19    3.10
  -2   5 -10   38.10    1.80
   2  -5  10   40.80    2.10
   2  -5  10   42.00    1.90
   4   4 -10   31.80    1.40
  -4  -4  10   32.00    1.60
  -4  -4  10   31.80    1.50
  -4  -4  10   32.50    1.40
   3   4 -10  382.26   14.40
   3   4 -10  401.06   14.30
  -3  -4  10  386.66   14.40
  -3  -4  10  396.76   14.50
   2   4 -10   57.89    2.50
   2   4 -10   61.09    2.50
   2   4 -10   62.59    2.60
  -2  -4  10   62.49    2.80
  -2  -4  10   58.89    2.50
   1   4 -10   11.20    0.90
   1   4 -10   10.20    1.00
  -1  -4  10   10.30    1.00
  -1  -4  10   10.00    0.90
   0   4 -10   50.29    2.30
   0  -4  10   49.30    2.30
   0  -4  10   46.50    2.40
   0  -4  10   45.30    2.10
  -1   4 -10  105.39    4.40
   1  -4  10  108.89    4.30
   1  -4  10  107.69    4.50
  -2   4 -10    7.80    0.90
   2  -4  10    9.40    1.20
  -3   4 -10   32.10    1.50
   3  -4  10   32.40    1.60
   4   3 -10  135.59    5.20
   4   3 -10  138.69    5.10
  -4  -3  10  133.19    5.20
  -4  -3  10  134.99    5.20
  -4  -3  10  144.49    5.40
   3   3 -10   28.50    1.40
   3   3 -10   27.20    1.40
  -3  -3  10   27.00    1.40
  -3  -3  10   29.30    1.70
   2   3 -10    9.70    0.90
   2   3 -10   11.30    0.90
   2   3 -10   10.70    1.00
  -2  -3  10   11.10    1.30
  -2  -3  10   10.00    1.00
   1   3 -10   19.80    1.30
   1   3 -10   19.60    1.10
  -1  -3  10   19.10    1.30
  -1  -3  10   19.10    1.20
   0   3 -10  306.17   11.30
   0  -3  10  295.87   11.10
   0  -3  10  294.77   11.30
   0  -3  10  305.87   11.20
  -1   3 -10  290.77   11.00
   1  -3  10  294.37   10.90
   1  -3  10  288.97   11.00
  -2   3 -10  141.09    5.60
   2  -3  10  142.99    5.60
   2  -3  10  148.29    5.80
  -3   3 -10   14.10    1.00
   3  -3  10   16.00    1.30
  -4   3 -10   15.30    0.90
   4  -3  10   13.90    1.10
   4  -3  10   14.40    0.90
   5   2 -10   28.10    1.20
  -5  -2  10   27.60    1.40
  -5  -2  10   27.80    1.30
  -5  -2  10   27.60    1.40
   4   2 -10   16.30    0.90
   4   2 -10   15.70    1.00
  -4  -2  10   14.80    1.00
  -4  -2  10   15.50    1.20
  -4  -2  10   16.50    1.30
   3   2 -10   37.90    1.80
   3   2 -10   33.70    2.90
   3   2 -10   38.70    1.70
  -3  -2  10   40.00    1.80
  -3  -2  10   38.30    2.10
   2   2 -10   16.20    1.00
   2   2 -10   16.40    1.10
   2   2 -10   15.00    1.10
  -2  -2  10   16.00    1.10
  -2  -2  10   16.90    1.50
   1   2 -10   66.69    2.70
   1   2 -10   69.89    2.90
  -1  -2  10   66.79    2.80
  -1  -2  10   67.29    3.00
   0   2 -10    5.70    0.80
   0  -2  10    5.30    0.70
  -1   2 -10   81.59    3.50
   1  -2  10   84.19    3.60
   1  -2  10   83.09    3.50
  -2   2 -10   12.90    1.00
   2  -2  10   10.80    1.20
   2  -2  10   11.10    1.30
  -3   2 -10   43.50    2.00
   3  -2  10   42.40    2.00
   3  -2  10   44.70    2.20
  -4   2 -10  242.58    8.60
   4  -2  10  231.88    8.70
   4  -2  10  222.48    8.70
   5   1 -10  207.18    7.20
  -5  -1  10  181.08    7.20
  -5  -1  10  194.28    7.20
   4   1 -10   83.59    3.30
   4   1 -10   85.39    3.30
  -4  -1  10   89.09    3.50
  -4  -1  10   81.29    3.40
  -4  -1  10   79.99    3.30
   3   1 -10   47.80    2.20
   3   1 -10   49.80    2.10
   3   1 -10   49.30    2.10
  -3  -1  10   52.49    2.50
   2   1 -10   54.99    2.20
   2   1 -10   49.20    2.30
   2   1 -10   55.49    2.40
  -2  -1  10   56.59    2.60
  -2  -1  10   52.19    2.30
   1   1 -10   22.10    1.40
   1   1 -10   22.20    1.20
  -1  -1  10   22.20    1.60
  -1  -1  10   27.30    1.40
   0   1 -10   24.10    1.40
   0  -1  10   26.10    1.50
  -1   1 -10  285.17   10.80
   1  -1  10  287.77   10.80
   1  -1  10  286.47   10.70
  -2   1 -10  281.67   10.10
   2  -1  10  258.57   10.10
   2  -1  10  264.17   10.10
   2  -1  10  272.87   10.20
  -3   1 -10   99.89    3.90
   3  -1  10   99.19    4.10
   3  -1  10   94.29    3.90
  -4   1 -10   30.10    1.40
   4  -1  10   27.40    1.40
   4  -1  10   26.00    1.60
   5   0 -10   80.49    2.90
  -5   0  10   72.79    3.10
   4   0 -10    1.50    0.30
   4   0 -10    1.10    0.40
  -4   0  10    1.40    0.60
  -4   0  10    1.40    0.60
  -4   0  10    0.60    0.50
   3   0 -10    2.10    0.50
   3   0 -10    1.80    0.50
   3   0 -10    1.50    0.40
  -3   0  10    2.00    0.80
   2   0 -10  950.20   34.20
   2   0 -10  954.80   34.40
  -2   0  10  893.91   34.30
  -2   0  10  986.40   34.50
   1   0 -10   71.79    2.90
  -1   0  10   67.09    2.90
   0   0 -10   30.30    1.60
   0   0  10   30.90    1.60
  -1   0 -10  534.35   19.70
  -1   0 -10  531.25   19.80
   1   0  10  550.44   19.80
  -2   0 -10  159.18    6.10
   2   0  10  159.08    6.10
   2   0  10  159.88    6.30
  -3   0 -10   38.30    1.80
   3   0  10   39.30    1.90
   3   0  10   39.80    2.10
  -4   0 -10  262.67    9.70
   4   0  10  264.57    9.90
   4   0  10  266.37    9.90
   5  -1 -10  206.68    7.20
  -5   1  10  192.98    7.30
  -5   1  10  191.08    7.40
   4  -1 -10   93.39    3.70
   4  -1 -10   86.29    3.40
   4  -1 -10   90.39    3.40
  -4   1  10   82.79    3.60
  -4   1  10   87.49    3.70
  -4   1  10   83.59    3.50
   3  -1 -10   47.30    2.00
   3  -1 -10   48.20    2.10
  -3   1  10   48.90    2.40
  -3   1  10   50.39    2.40
  -3   1  10   47.70    2.00
   2  -1 -10   54.29    2.30
   2  -1 -10   55.89    2.40
  -2   1  10   56.29    2.40
   1  -1 -10   22.80    1.30
  -1   1  10   22.90    1.30
   0  -1 -10   25.30    1.40
   0  -1 -10   26.40    1.40
   0   1  10   23.60    1.40
  -1  -1 -10  288.17   10.50
  -1  -1 -10  294.97   10.40
   1   1  10  244.38   10.40
   1   1  10  289.87   10.40
  -2  -1 -10  277.27   10.50
  -2  -1 -10  285.27   10.60
   2   1  10  286.87   10.60
   2   1  10  287.77   10.70
  -3  -1 -10  101.69    4.00
  -3  -1 -10  101.09    3.90
  -3  -1 -10   97.89    4.10
   3   1  10   99.69    4.00
   3   1  10  100.19    4.10
  -4  -1 -10   25.50    1.30
  -4  -1 -10   25.50    1.20
  -4  -1 -10   24.80    1.40
   4   1  10   28.40    1.40
   4   1  10   29.10    1.50
   5  -2 -10   26.90    1.10
   5  -2 -10   26.60    1.20
  -5   2  10   27.40    1.40
  -5   2  10   26.60    1.30
   4  -2 -10   15.90    0.90
   4  -2 -10   16.30    1.00
   4  -2 -10   16.50    1.00
  -4   2  10   16.80    1.30
  -4   2  10   16.40    1.30
   3  -2 -10   38.00    1.80
   3  -2 -10   37.30    1.70
   3  -2 -10   39.40    1.80
  -3   2  10   38.00    2.10
  -3   2  10   39.10    1.70
  -3   2  10   38.70    2.10
   2  -2 -10   15.70    1.10
   2  -2 -10   17.20    1.10
  -2   2  10   18.30    1.10
   1  -2 -10   70.69    3.00
   1  -2 -10   71.69    3.00
  -1   2  10   73.49    3.00
   0  -2 -10    5.50    0.70
   0  -2 -10    6.40    0.80
   0  -2 -10    6.20    0.70
   0   2  10    4.60    0.60
  -1  -2 -10   91.49    3.60
  -1  -2 -10   93.69    3.70
   1   2  10   86.89    3.60
  -2  -2 -10   11.50    1.00
  -2  -2 -10   12.30    0.90
   2   2  10   12.60    1.00
   2   2  10   10.70    1.20
  -3  -2 -10   44.70    2.20
  -3  -2 -10   45.50    1.90
  -3  -2 -10   43.90    2.10
   3   2  10   45.90    2.00
   3   2  10   45.60    2.20
  -4  -2 -10  218.78    8.80
  -4  -2 -10  240.18    8.80
   4   2  10  240.98    8.80
   4   2  10  246.78    8.80
   4  -3 -10  142.49    5.50
   4  -3 -10  147.79    5.40
  -4   3  10  142.79    5.70
   3  -3 -10   30.90    1.50
   3  -3 -10   32.50    1.50
  -3   3  10   29.30    1.70
  -3   3  10   30.50    1.40
   2  -3 -10   12.00    1.00
   2  -3 -10   11.80    0.90
  -2   3  10   12.20    1.00
   1  -3 -10   20.50    1.20
   1  -3 -10   19.70    1.30
  -1   3  10   20.60    1.20
   0  -3 -10  319.87   11.80
   0  -3 -10  313.87   11.60
   0   3  10  313.17   11.70
  -1  -3 -10  302.27   11.30
  -1  -3 -10  301.37   11.10
   1   3  10  300.37   11.20
  -2  -3 -10  154.48    5.80
  -2  -3 -10  153.98    6.00
   2   3  10  156.08    5.90
  -3  -3 -10   16.30    0.90
  -3  -3 -10   17.30    1.10
  -3  -3 -10   15.70    1.20
   3   3  10   16.00    1.00
   3   3  10   16.60    1.20
  -4  -3 -10   13.40    0.90
  -4  -3 -10   12.90    0.90
   4   3  10   14.70    0.90
   4   3  10   15.80    1.00
   4  -4 -10   35.70    1.50
   4  -4 -10   33.70    1.50
   3  -4 -10  428.36   15.70
   3  -4 -10  423.96   15.60
  -3   4  10  427.36   15.50
   2  -4 -10   66.19    2.80
   2  -4 -10   63.39    2.60
  -2   4  10   65.09    2.70
   1  -4 -10   10.00    0.80
   1  -4 -10   11.10    0.90
  -1   4  10   10.40    0.90
   0  -4 -10   47.60    2.00
   0  -4 -10   49.20    2.20
   0   4  10   47.50    2.10
   0   4  10   44.80    2.10
  -1  -4 -10  106.79    4.30
  -1  -4 -10  111.09    4.20
   1   4  10  106.79    4.20
  -2  -4 -10    9.30    0.70
  -2  -4 -10    9.70    1.00
  -2  -4 -10    8.90    0.90
   2   4  10   10.20    0.80
  -3  -4 -10   30.50    1.50
  -3  -4 -10   32.20    1.60
  -3  -4 -10   30.30    1.40
   3   4  10   36.20    1.50
   3   4  10   34.20    1.60
   3  -5 -10   30.50    1.40
   3  -5 -10   29.20    1.30
  -3   5  10   29.60    1.30
   2  -5 -10    9.60    0.70
   2  -5 -10   10.30    0.80
  -2   5  10    9.90    0.80
   1  -5 -10   57.69    2.40
   1  -5 -10   55.19    2.20
  -1   5  10   52.99    2.30
   0  -5 -10  102.19    4.00
   0  -5 -10  102.89    3.90
   0   5  10   98.09    3.90
  -1  -5 -10   70.39    2.70
  -1  -5 -10   66.49    2.80
   1   5  10   66.69    2.70
  -2  -5 -10   40.30    1.70
  -2  -5 -10   40.10    1.80
  -2  -5 -10   40.10    1.90
   2   5  10   43.80    1.80
   2  -6 -10   52.69    2.20
  -2   6  10   54.09    2.10
   1  -6 -10    6.90    0.60
   1  -6 -10    7.10    0.70
  -1   6  10    6.10    0.70
   0  -6 -10    7.60    0.60
   0  -6 -10    7.20    0.70
   0   6  10    6.80    0.60
  -1  -6 -10   57.19    2.20
  -1  -6 -10   53.89    2.30
  -1  -6 -10   53.59    2.20
   1   6  10   55.89    2.20
   2   5 -11   13.50    1.10
  -2  -5  11   15.70    0.80
   1   5 -11    2.80    0.50
  -1  -5  11    2.20    0.40
   0   5 -11  113.09    4.30
   0  -5  11  108.39    4.20
  -1   5 -11   24.50    1.30
   1  -5  11   24.50    1.40
   1  -5  11   24.60    1.20
   3   4 -11   20.20    1.00
  -3  -4  11   19.00    1.00
  -3  -4  11   18.90    1.20
   2   4 -11  244.58    9.10
   2   4 -11  251.07    8.90
  -2  -4  11  236.08    9.00
  -2  -4  11  242.38    9.10
   1   4 -11    2.30    0.60
  -1  -4  11    2.60    0.50
   0   4 -11   16.00    1.20
   0  -4  11   16.70    1.10
   0  -4  11   16.30    1.40
  -1   4 -11  169.58    6.60
   1  -4  11  175.68    6.70
   2  -4  11   11.00    1.10
   3   3 -11  350.76   12.50
  -3  -3  11  323.37   12.50
  -3  -3  11  351.06   12.60
   2   3 -11   14.10    1.00
   2   3 -11   14.40    0.90
  -2  -3  11   12.90    0.90
  -2  -3  11   15.10    1.30
   1   3 -11   15.70    1.10
  -1  -3  11   15.30    1.00
  -1  -3  11   15.10    1.10
   0   3 -11  206.18    7.90
   0  -3  11  206.18    7.80
  -1   3 -11   26.60    1.50
   1  -3  11   27.10    1.60
   1  -3  11   27.40    1.70
  -2   3 -11   24.40    1.30
   2  -3  11   26.70    1.60
  -3   3 -11  195.08    7.50
   3  -3  11  206.98    7.60
   4   2 -11   14.60    0.80
  -4  -2  11   13.00    1.10
  -4  -2  11   12.10    0.80
   3   2 -11   37.00    1.80
   3   2 -11   40.40    1.60
   3   2 -11   36.20    1.70
  -3  -2  11   39.40    2.00
  -3  -2  11   36.90    1.80
   2   2 -11  178.68    6.60
   2   2 -11  172.18    6.70
  -2  -2  11  177.58    6.80
   1   2 -11   36.40    1.80
  -1  -2  11   35.10    1.70
  -1  -2  11   35.60    1.90
   0   2 -11   96.59    3.90
   0  -2  11   93.49    3.80
  -1   2 -11    1.90    0.60
   1  -2  11    1.60    0.60
   1  -2  11    0.80    0.80
  -2   2 -11   24.00    1.30
   2  -2  11   26.60    1.60
   2  -2  11   23.60    1.50
  -3   2 -11   11.60    0.80
   3  -2  11   11.50    1.10
   4   1 -11   68.39    2.60
  -4  -1  11   63.89    2.80
   3   1 -11  180.68    7.10
   3   1 -11  189.98    7.00
  -3  -1  11  193.08    7.20
   2   1 -11   53.89    2.40
   2   1 -11   54.59    2.20
  -2  -1  11   50.59    2.20
  -2  -1  11   53.69    2.50
   1   1 -11   48.50    2.20
  -1  -1  11   46.90    2.20
  -1  -1  11   50.39    2.40
   0   1 -11   42.60    2.10
   0  -1  11   43.20    2.00
  -1   1 -11  168.78    6.40
   1  -1  11  157.88    6.60
   1  -1  11  172.98    6.40
  -2   1 -11  104.89    4.20
   2  -1  11  101.89    4.20
   2  -1  11  110.09    4.40
  -3   1 -11   19.70    1.10
   3  -1  11   17.30    1.10
   3  -1  11   20.40    1.40
   4   0 -11   11.00    0.70
  -4   0  11    9.90    1.00
   3   0 -11    0.50    0.40
   3   0 -11    0.10    0.30
  -3   0  11   -0.20    0.70
   2   0 -11   23.50    1.30
  -2   0  11   24.10    1.30
  -2   0  11   24.10    1.70
   1   0 -11   98.79    3.90
  -1   0  11   96.89    3.80
  -1   0  11   91.19    4.00
   0   0 -11   99.19    4.00
   0   0  11   97.39    3.90
   0   0  11   96.09    4.00
  -1   0 -11  120.09    4.70
   1   0  11  120.39    4.70
  -2   0 -11  281.57   10.40
   2   0  11  269.17   10.40
   2   0  11  287.87   10.50
  -3   0 -11   45.40    2.00
   3   0  11   42.80    2.00
   3   0  11   47.00    2.20
   4  -1 -11   59.39    2.30
   4  -1 -11   61.09    2.40
  -4   1  11   61.59    2.50
   3  -1 -11  192.08    7.20
  -3   1  11  194.48    7.40
   2  -1 -11   55.09    2.40
  -2   1  11   57.29    2.40
  -2   1  11   55.19    2.70
   1  -1 -11   49.10    2.30
  -1   1  11   53.69    2.30
   0  -1 -11   44.70    2.00
   0   1  11   42.40    2.00
  -1  -1 -11  189.18    7.10
   1   1  11  189.28    7.20
  -2  -1 -11  103.59    4.30
  -2  -1 -11  108.89    4.20
  -2  -1 -11  106.39    4.20
   2   1  11  106.29    4.20
   2   1  11  107.49    4.30
  -3  -1 -11   17.70    1.10
  -3  -1 -11   20.30    1.10
   3   1  11   20.10    1.30
   3   1  11   19.70    1.20
   4  -2 -11   12.90    0.90
   4  -2 -11   14.40    0.80
   3  -2 -11   38.60    1.80
   3  -2 -11   43.40    1.80
  -3   2  11   39.40    2.00
  -3   2  11   40.50    1.70
   2  -2 -11  185.38    7.00
   2  -2 -11  179.98    7.00
  -2   2  11  190.68    7.00
   1  -2 -11   35.40    1.70
   1  -2 -11   34.90    1.70
  -1   2  11   37.70    1.80
   0  -2 -11   91.29    3.70
   0  -2 -11   99.89    3.80
   0  -2 -11   93.89    3.80
   0   2  11   96.79    3.80
  -1  -2 -11    0.70    0.40
  -1  -2 -11    1.10    0.50
   1   2  11    1.10    0.60
   1   2  11    0.60    0.60
  -2  -2 -11   26.50    1.40
  -2  -2 -11   25.70    1.50
  -2  -2 -11   28.00    1.30
   2   2  11   27.30    1.40
  -3  -2 -11   12.00    0.80
  -3  -2 -11   11.10    0.80
  -3  -2 -11   11.60    0.90
   3   2  11   13.10    1.10
   3   2  11   13.30    0.90
   3  -3 -11  369.46   12.60
   3  -3 -11  340.47   12.60
  -3   3  11  354.36   12.50
  -3   3  11  308.27   12.60
   2  -3 -11   14.90    1.00
   2  -3 -11   13.50    0.90
  -2   3  11   16.20    1.00
   1  -3 -11   17.70    1.10
   1  -3 -11   16.80    1.10
  -1   3  11   17.30    1.10
   0  -3 -11  197.28    7.50
   0  -3 -11  198.88    7.40
   0   3  11  198.38    7.50
  -1  -3 -11   26.90    1.30
  -1  -3 -11   27.40    1.40
   1   3  11   25.70    1.30
  -2  -3 -11   26.50    1.50
  -2  -3 -11   25.40    1.40
  -2  -3 -11   28.00    1.30
   2   3  11   28.60    1.40
  -3  -3 -11  203.88    7.50
  -3  -3 -11  197.68    7.40
  -3  -3 -11  199.18    7.50
   3   3  11  194.38    7.50
   3   3  11  207.58    7.50
   3  -4 -11   21.90    1.10
   3  -4 -11   20.60    1.10
  -3   4  11   21.50    1.00
   2  -4 -11  251.17    9.50
   2  -4 -11  259.57    9.60
  -2   4  11  265.57    9.50
   1  -4 -11    1.30    0.40
  -1   4  11    2.10    0.50
   0  -4 -11   16.40    0.90
   0  -4 -11   18.10    1.10
   0   4  11   15.30    1.10
  -1  -4 -11  182.18    6.70
  -1  -4 -11  177.98    6.60
   1   4  11  171.68    6.60
  -2  -4 -11    9.50    0.60
  -2  -4 -11   10.00    0.90
  -2  -4 -11    9.40    0.80
   2   4  11    9.20    0.70
   2  -5 -11   16.30    0.90
  -2   5  11   17.10    0.90
   1  -5 -11    3.20    0.40
   1  -5 -11    3.10    0.40
  -1   5  11    3.10    0.50
   0  -5 -11  107.79    3.90
   0  -5 -11  105.39    4.00
   0   5  11   93.29    3.90
  -1  -5 -11   22.30    1.10
  -1  -5 -11   22.00    1.20
  -1  -5 -11   24.10    1.00
   1   5  11   22.10    1.10
   1   4 -12    7.70    0.80
   0   4 -12  174.58    6.40
   0  -4  12  165.68    6.30
   2   3 -12  203.48    7.50
  -2  -3  12  201.78    7.60
   1   3 -12   11.60    1.00
   0   3 -12   69.29    2.80
   0  -3  12   64.69    2.70
  -1   3 -12   48.10    2.10
   1  -3  12   49.50    2.20
   3   2 -12    1.70    0.40
  -3  -2  12    2.10    0.60
   2   2 -12  173.88    6.60
  -2  -2  12  174.38    6.60
   1   2 -12    9.00    0.90
  -1  -2  12    8.20    0.80
   0   2 -12   66.99    2.80
   0  -2  12   66.59    2.80
  -1   2 -12   37.60    1.80
   1  -2  12   40.50    1.90
  -2   2 -12    0.90    0.40
   2  -2  12    1.40    0.60
   2  -2  12    1.60    0.60
   3   1 -12   86.39    3.50
  -3  -1  12   92.99    3.60
   2   1 -12   34.20    1.60
  -2  -1  12   33.60    1.80
   1   1 -12   27.00    1.40
  -1  -1  12   24.50    1.50
  -1  -1  12   25.80    1.40
   0   1 -12   21.80    1.30
   0  -1  12   22.80    1.30
  -1   1 -12   11.50    1.00
   1  -1  12   11.50    1.00
  -2   1 -12  116.19    4.50
   2  -1  12  116.89    4.60
   3   0 -12   37.40    1.70
  -3   0  12   39.10    1.90
   2   0 -12   48.70    2.10
  -2   0  12   45.00    2.00
  -2   0  12   46.60    2.20
   1   0 -12   67.09    2.80
  -1   0  12   62.29    2.80
  -1   0  12   68.09    2.70
   0   0 -12   36.90    1.80
   0   0  12   35.70    1.80
  -1   0 -12   24.30    1.30
   1   0  12   26.00    1.40
  -2   0 -12   56.49    2.30
   2   0  12   56.39    2.40
   2   0  12   53.59    2.40
   3  -1 -12   94.99    3.70
  -3   1  12   93.59    3.70
   2  -1 -12   36.60    1.70
  -2   1  12   35.20    1.60
  -2   1  12   34.10    1.90
   1  -1 -12   26.30    1.40
  -1   1  12   23.90    1.60
  -1   1  12   26.30    1.40
   0  -1 -12   23.10    1.20
   0   1  12   17.80    1.40
   0   1  12   22.50    1.30
  -1  -1 -12   11.90    0.80
   1   1  12   11.60    1.00
  -2  -1 -12  135.79    5.10
   3  -2 -12    2.40    0.40
  -3   2  12    1.30    0.50
   2  -2 -12  186.48    7.00
  -2   2  12  187.78    6.90
  -2   2  12  184.78    7.10
   1  -2 -12    7.50    0.70
   1  -2 -12    8.00    0.80
  -1   2  12    8.90    0.90
   0  -2 -12   60.19    2.60
   0  -2 -12   60.69    2.50
   0   2  12   61.39    2.60
  -1  -2 -12   39.60    1.70
  -1  -2 -12   38.70    1.70
   1   2  12   35.70    1.80
  -2  -2 -12    0.70    0.30
  -2  -2 -12    1.10    0.40
  -2  -2 -12    0.90    0.40
   2   2  12    0.80    0.40
   2  -3 -12  200.68    7.50
   2  -3 -12  206.78    7.50
  -2   3  12  200.68    7.50
  -2   3  12  205.38    7.60
   1  -3 -12   11.20    0.80
   1  -3 -12   10.70    0.80
  -1   3  12   13.10    0.90
   0  -3 -12   61.69    2.50
   0  -3 -12   63.39    2.50
   0   3  12   61.89    2.60
  -1  -3 -12   48.30    1.90
  -1  -3 -12   46.50    2.00
   1  -4 -12    7.80    0.70
  -1   4  12    8.10    0.70
   0  -4 -12  160.98    5.90
   0  -4 -12  168.78    6.00
   0   4  12  148.59    5.90
   1   1 -13   24.50    1.20
  -1  -1  13   22.90    1.10
   0   1 -13   30.80    1.40
   0  -1  13   29.70    1.40
   1   0 -13    1.10    0.40
  -1   0  13    1.60    0.60
  -1   0  13    1.00    0.40
   0   0 -13   26.40    1.30
   0   0  13   26.30    1.30
  -1   0 -13   80.89    3.50
   1   0  13   92.99    3.40
   1  -1 -13   23.70    1.20
  -1   1  13   24.40    1.40
  -1   1  13   24.30    1.20
   0   1  13   30.60    1.40

_computing_structure_solution     'SHELXT 2014/4 (Sheldrick, 2014)'
;
_shelx_hkl_checksum              22248
loop_
_space_group_symop_operation_xyz
'x, y, z'
'-x, y+1/2, -z'
loop_
_atom_site_label
_atom_site_type_symbol
_atom_site_fract_x
_atom_site_fract_y
_atom_site_fract_z
_atom_site_U_iso_or_equiv
_atom_site_adp_type
_atom_site_occupancy
_atom_site_site_symmetry_order
_atom_site_calc_flag
_atom_site_refinement_flags_posn
_atom_site_refinement_flags_adp
O1 O 0.2282(2) 0.86031(19) 0.83298(15) 0.0310(4) Uani 1 1 d . .
O2 O 0.5103(2) 0.99909(19) 0.82633(19) 0.0430(4) Uani 1 1 d . .
O3 O 1.08238(19) 0.29452(18) 0.81216(11) 0.0199(3) Uani 1 1 d . .
O4 O 0.8278(2) 0.00285(16) 0.56090(11) 0.0213(3) Uani 1 1 d . .
O5 O 0.5011(2) 0.05006(17) 0.48649(12) 0.0260(3) Uani 1 1 d . .
N1 N 0.4168(3) 0.8715(2) 0.82318(15) 0.0242(4) Uani 1 1 d . .
N2 N 0.7211(2) 0.2557(2) 0.54880(14) 0.0194(3) Uani 1 1 d . .
H2N H 0.637(4) 0.337(3) 0.542(2) 0.027(6) Uiso 1 1 d . .
C1 C 0.5353(3) 0.7219(2) 0.80705(16) 0.0192(4) Uani 1 1 d . .
C2 C 0.7388(3) 0.7338(2) 0.77094(16) 0.0200(4) Uani 1 1 d . .
H2 H 0.8004 0.8358 0.7571 0.024 Uiso 1 1 calc R U
C3 C 0.8484(3) 0.5929(2) 0.75585(15) 0.0188(4) Uani 1 1 d . .
H3 H 0.9873 0.5981 0.7308 0.023 Uiso 1 1 calc R U
C4 C 0.7591(3) 0.4432(2) 0.77669(15) 0.0173(4) Uani 1 1 d . .
C5 C 0.5554(3) 0.4359(2) 0.81302(16) 0.0201(4) Uani 1 1 d . .
H5 H 0.4934 0.3343 0.8273 0.024 Uiso 1 1 calc R U
C6 C 0.4424(3) 0.5758(2) 0.82857(16) 0.0212(4) Uani 1 1 d . .
H6 H 0.3034 0.5710 0.8536 0.025 Uiso 1 1 calc R U
C7 C 0.8801(3) 0.2904(2) 0.75469(16) 0.0176(4) Uani 1 1 d . .
H7 H 0.8019 0.1958 0.7852 0.021 Uiso 1 1 calc R U
C8 C 0.9161(3) 0.2667(2) 0.62075(15) 0.0175(4) Uani 1 1 d . .
H8 H 1.0058 0.3547 0.5902 0.021 Uiso 1 1 calc R U
C9 C 1.0083(3) 0.1018(2) 0.59476(16) 0.0217(4) Uani 1 1 d . .
H9A H 1.1046 0.1081 0.5281 0.026 Uiso 1 1 calc R U
H9B H 1.0842 0.0578 0.6672 0.026 Uiso 1 1 calc R U
C10 C 0.6659(3) 0.1018(2) 0.52833(15) 0.0193(4) Uani 1 1 d . .
C11 C 1.0819(3) 0.2614(3) 0.93744(17) 0.0264(4) Uani 1 1 d . .
H11A H 1.0019 0.3446 0.9773 0.040 Uiso 1 1 calc R U
H11B H 1.2253 0.2609 0.9716 0.040 Uiso 1 1 calc R U
H11C H 1.0182 0.1558 0.9499 0.040 Uiso 1 1 calc R U
loop_
_atom_site_aniso_label
_atom_site_aniso_U_11
_atom_site_aniso_U_22
_atom_site_aniso_U_33
_atom_site_aniso_U_23
_atom_site_aniso_U_13
_atom_site_aniso_U_12
O1 0.0182(7) 0.0267(7) 0.0486(9) 0.0022(6) 0.0062(6) 0.0033(6)
O2 0.0296(8) 0.0171(7) 0.0836(13) -0.0031(8) 0.0160(8) -0.0037(7)
O3 0.0135(6) 0.0277(7) 0.0182(6) 0.0021(5) -0.0008(5) -0.0005(5)
O4 0.0216(7) 0.0180(7) 0.0244(7) -0.0015(5) 0.0013(5) 0.0021(5)
O5 0.0241(7) 0.0237(7) 0.0296(7) -0.0045(6) -0.0054(5) -0.0039(5)
N1 0.0208(8) 0.0215(9) 0.0306(9) 0.0029(7) 0.0033(7) 0.0005(7)
N2 0.0186(8) 0.0164(8) 0.0225(7) -0.0006(6) -0.0048(6) 0.0014(7)
C1 0.0170(8) 0.0206(9) 0.0198(9) -0.0005(7) -0.0012(7) 0.0015(7)
C2 0.0197(9) 0.0195(9) 0.0206(9) 0.0017(7) -0.0007(7) -0.0057(7)
C3 0.0133(8) 0.0240(10) 0.0192(8) -0.0001(7) 0.0006(6) -0.0027(7)
C4 0.0164(9) 0.0210(9) 0.0143(8) 0.0004(7) -0.0020(6) -0.0012(7)
C5 0.0157(8) 0.0196(9) 0.0248(10) 0.0023(7) -0.0004(7) -0.0029(7)
C6 0.0134(8) 0.0244(10) 0.0259(9) 0.0013(8) 0.0013(7) -0.0015(8)
C7 0.0123(8) 0.0198(9) 0.0206(9) 0.0025(7) -0.0007(6) -0.0024(7)
C8 0.0144(8) 0.0176(9) 0.0205(9) 0.0023(7) -0.0006(6) -0.0016(7)
C9 0.0173(8) 0.0243(10) 0.0236(9) -0.0009(8) 0.0016(7) 0.0019(8)
C10 0.0215(9) 0.0192(9) 0.0171(8) -0.0003(7) 0.0014(7) 0.0005(8)
C11 0.0221(9) 0.0366(11) 0.0201(9) 0.0014(9) -0.0024(7) 0.0025(9)
loop_
_atom_type_symbol
_atom_type_description
_atom_type_scat_dispersion_real
_atom_type_scat_dispersion_imag
_atom_type_scat_source
C C 0.0181 0.0091 'International Tables Vol C Tables 4.2.6.8 and 6.1.1.4'
H H 0.0000 0.0000 'International Tables Vol C Tables 4.2.6.8 and 6.1.1.4'
N N 0.0311 0.0180 'International Tables Vol C Tables 4.2.6.8 and 6.1.1.4'
O O 0.0492 0.0322 'International Tables Vol C Tables 4.2.6.8 and 6.1.1.4'
loop_
_geom_angle_atom_site_label_1
_geom_angle_atom_site_label_2
_geom_angle_atom_site_label_3
_geom_angle
C11 O3 C7 112.93(13)
C10 O4 C9 108.55(14)
O2 N1 O1 123.51(17)
O2 N1 C1 118.62(15)
O1 N1 C1 117.87(16)
C10 N2 C8 111.48(15)
C10 N2 H2N 124.6(17)
C8 N2 H2N 121.2(17)
C6 C1 C2 122.31(17)
C6 C1 N1 119.30(15)
C2 C1 N1 118.39(16)
C3 C2 C1 117.93(17)
C3 C2 H2 121.0
C1 C2 H2 121.0
C2 C3 C4 121.21(15)
C2 C3 H3 119.4
C4 C3 H3 119.4
C5 C4 C3 119.27(17)
C5 C4 C7 120.65(16)
C3 C4 C7 120.03(15)
C6 C5 C4 120.52(17)
C6 C5 H5 119.7
C4 C5 H5 119.7
C1 C6 C5 118.75(16)
C1 C6 H6 120.6
C5 C6 H6 120.6
O3 C7 C4 111.95(15)
O3 C7 C8 105.11(13)
C4 C7 C8 111.61(14)
O3 C7 H7 109.4
C4 C7 H7 109.4
C8 C7 H7 109.4
N2 C8 C9 99.90(14)
N2 C8 C7 111.95(14)
C9 C8 C7 112.23(14)
N2 C8 H8 110.8
C9 C8 H8 110.8
C7 C8 H8 110.8
O4 C9 C8 104.04(13)
O4 C9 H9A 110.9
C8 C9 H9A 110.9
O4 C9 H9B 110.9
C8 C9 H9B 110.9
H9A C9 H9B 109.0
O5 C10 N2 128.32(18)
O5 C10 O4 121.99(17)
N2 C10 O4 109.69(15)
O3 C11 H11A 109.5
O3 C11 H11B 109.5
H11A C11 H11B 109.5
O3 C11 H11C 109.5
H11A C11 H11C 109.5
H11B C11 H11C 109.5
loop_
_geom_bond_atom_site_label_1
_geom_bond_atom_site_label_2
_geom_bond_distance
O1 N1 1.227(2)
O2 N1 1.218(2)
O3 C11 1.419(2)
O3 C7 1.421(2)
O4 C10 1.361(2)
O4 C9 1.456(2)
O5 C10 1.214(2)
N1 C1 1.471(3)
N2 C10 1.342(3)
N2 C8 1.456(2)
N2 H2N 0.86(3)
C1 C6 1.378(3)
C1 C2 1.392(3)
C2 C3 1.380(3)
C2 H2 0.9500
C3 C4 1.393(3)
C3 H3 0.9500
C4 C5 1.391(3)
C4 C7 1.514(3)
C5 C6 1.384(3)
C5 H5 0.9500
C6 H6 0.9500
C7 C8 1.530(2)
C7 H7 1.0000
C8 C9 1.524(3)
C8 H8 1.0000
C9 H9A 0.9900
C9 H9B 0.9900
C11 H11A 0.9800
C11 H11B 0.9800
C11 H11C 0.9800
loop_
_geom_hbond_atom_site_label_D
_geom_hbond_atom_site_label_H
_geom_hbond_atom_site_label_A
_geom_hbond_distance_DH
_geom_hbond_distance_HA
_geom_hbond_distance_DA
_geom_hbond_angle_DHA
_geom_hbond_site_symmetry_A
N2 H2N O5 0.86(3) 2.00(3) 2.847(2) 167(2) 2_656
loop_
_geom_torsion_atom_site_label_1
_geom_torsion_atom_site_label_2
_geom_torsion_atom_site_label_3
_geom_torsion_atom_site_label_4
_geom_torsion
O2 N1 C1 C6 166.34(19)
O1 N1 C1 C6 -13.5(2)
O2 N1 C1 C2 -13.3(3)
O1 N1 C1 C2 166.80(17)
C6 C1 C2 C3 0.5(3)
N1 C1 C2 C3 -179.88(16)
C1 C2 C3 C4 -0.4(3)
C2 C3 C4 C5 0.2(3)
C2 C3 C4 C7 177.60(16)
C3 C4 C5 C6 -0.1(3)
C7 C4 C5 C6 -177.49(15)
C2 C1 C6 C5 -0.4(3)
N1 C1 C6 C5 179.97(17)
C4 C5 C6 C1 0.2(3)
C11 O3 C7 C4 78.68(19)
C11 O3 C7 C8 -159.99(15)
C5 C4 C7 O3 -132.07(17)
C3 C4 C7 O3 50.6(2)
C5 C4 C7 C8 110.43(18)
C3 C4 C7 C8 -66.9(2)
C10 N2 C8 C9 22.43(18)
C10 N2 C8 C7 -96.54(18)
O3 C7 C8 N2 178.53(15)
C4 C7 C8 N2 -59.91(19)
O3 C7 C8 C9 67.12(18)
C4 C7 C8 C9 -171.32(14)
C10 O4 C9 C8 19.31(17)
N2 C8 C9 O4 -24.02(16)
C7 C8 C9 O4 94.76(16)
C8 N2 C10 O5 169.01(18)
C8 N2 C10 O4 -11.7(2)
C9 O4 C10 O5 173.76(17)
C9 O4 C10 N2 -5.61(19)
