#------------------------------------------------------------------------------
#$Date: 2018-01-01 05:22:27 +0200 (Mon, 01 Jan 2018) $
#$Revision: 204641 $
#$URL: file:///home/coder/svn-repositories/cod/cif/4/12/69/4126953.cif $
#------------------------------------------------------------------------------
#
# This file is available in the Crystallography Open Database (COD),
# http://www.crystallography.net/
#
# All data on this site have been placed in the public domain by the
# contributors.
#
data_4126953
loop_
_publ_author_name
'Harada, Jun'
'Yoneyama, Naho'
'Yokokura, Seiya'
'Takahashi, Yukihiro'
'Miura, Atsushi'
'Kitamura, Noboru'
'Inabe, Tamotsu'
_publ_section_title
;
 Ferroelectricity and Piezoelectricity in Free-Standing Polycrystalline
 Films of Plastic Crystals.
;
_journal_name_full               'Journal of the American Chemical Society'
_journal_paper_doi               10.1021/jacs.7b10539
_journal_year                    2017
_chemical_formula_moiety         'Cl4 Fe, 0.5(C8 H12 N2)'
_chemical_formula_sum            'C4 H12 Cl4 Fe N'
_chemical_formula_weight         271.80
_space_group_crystal_system      orthorhombic
_space_group_IT_number           28
_space_group_name_Hall           'P 2 -2a'
_space_group_name_H-M_alt        'P m a 2'
_symmetry_space_group_name_Hall  'P 2 -2a'
_symmetry_space_group_name_H-M   'P m a 2'
_atom_sites_solution_hydrogens   geom
_atom_sites_solution_primary     dual
_audit_creation_date             2017-08-03
_audit_creation_method
;
Olex2 1.2
(compiled 2017.07.20 svn.r3457 for OlexSys, GUI svn.r5370)
;
_cell_angle_alpha                90
_cell_angle_beta                 90
_cell_angle_gamma                90
_cell_formula_units_Z            2
_cell_length_a                   14.268(5)
_cell_length_b                   6.442(2)
_cell_length_c                   6.451(2)
_cell_measurement_reflns_used    5996
_cell_measurement_temperature    300
_cell_measurement_theta_max      27.346
_cell_measurement_theta_min      2.855
_cell_volume                     592.9(3)
_computing_cell_refinement       'SAINT v8.34A (Bruker, 2013)'
_computing_data_collection       'Bruker APEX2 2014.1-1 (Bruker, 2014)'
_computing_data_reduction        'SAINT v8.34A (Bruker, 2013)'
_computing_molecular_graphics    'Olex2 (Dolomanov et al., 2009)'
_computing_publication_material  'Olex2 (Dolomanov et al., 2009)'
_computing_structure_refinement  'ShelXL (Sheldrick, 2015)'
_computing_structure_solution    'ShelXT (Sheldrick, 2015)'
_diffrn_ambient_temperature      300
_diffrn_detector_area_resol_mean 8.3333
_diffrn_measured_fraction_theta_full 1.000
_diffrn_measured_fraction_theta_max 0.996
_diffrn_measurement_device_type  'Bruker APEX-II CCD'
_diffrn_measurement_method       '\f and \w scans'
_diffrn_radiation_type           MoK\a
_diffrn_radiation_wavelength     0.71073
_diffrn_reflns_av_R_equivalents  0.0154
_diffrn_reflns_av_unetI/netI     0.0174
_diffrn_reflns_Laue_measured_fraction_full 1.000
_diffrn_reflns_Laue_measured_fraction_max 0.996
_diffrn_reflns_limit_h_max       18
_diffrn_reflns_limit_h_min       -18
_diffrn_reflns_limit_k_max       8
_diffrn_reflns_limit_k_min       -8
_diffrn_reflns_limit_l_max       8
_diffrn_reflns_limit_l_min       -8
_diffrn_reflns_number            8298
_diffrn_reflns_point_group_measured_fraction_full 1.000
_diffrn_reflns_point_group_measured_fraction_max 0.997
_diffrn_reflns_theta_full        25.242
_diffrn_reflns_theta_max         27.508
_diffrn_reflns_theta_min         2.855
_diffrn_source                   'rotating-anode X-ray tube'
_diffrn_standards_number         0
_exptl_absorpt_coefficient_mu    2.117
_exptl_absorpt_correction_T_max  0.7041
_exptl_absorpt_correction_T_min  0.6083
_exptl_absorpt_correction_type   multi-scan
_exptl_absorpt_process_details
'SADABS-2014/4 (Bruker,2014/4) was used for absorption correction. wR2(int) was 0.0873 before and 0.0412 after correction. The Ratio of minimum to maximum transmission is 0.8639. The \l/2 correction factor is Not present.'
_exptl_crystal_colour            yellow
_exptl_crystal_colour_primary    yellow
_exptl_crystal_density_diffrn    1.522
_exptl_crystal_description       block
_exptl_crystal_F_000             274
_exptl_crystal_size_max          0.25
_exptl_crystal_size_mid          0.188
_exptl_crystal_size_min          0.125
_refine_diff_density_max         0.241
_refine_diff_density_min         -0.170
_refine_diff_density_rms         0.048
_refine_ls_abs_structure_details
;
 Refined as an inversion twin.
;
_refine_ls_abs_structure_Flack   0.06(3)
_refine_ls_extinction_method     none
_refine_ls_goodness_of_fit_ref   1.089
_refine_ls_hydrogen_treatment    constr
_refine_ls_matrix_type           full
_refine_ls_number_parameters     74
_refine_ls_number_reflns         1419
_refine_ls_number_restraints     49
_refine_ls_restrained_S_all      1.161
_refine_ls_R_factor_all          0.0249
_refine_ls_R_factor_gt           0.0246
_refine_ls_shift/su_max          0.000
_refine_ls_shift/su_mean         0.000
_refine_ls_structure_factor_coef Fsqd
_refine_ls_weighting_details
'w=1/[\s^2^(Fo^2^)+(0.0465P)^2^+0.0512P] where P=(Fo^2^+2Fc^2^)/3'
_refine_ls_weighting_scheme      calc
_refine_ls_wR_factor_gt          0.0714
_refine_ls_wR_factor_ref         0.0720
_reflns_Friedel_coverage         0.837
_reflns_Friedel_fraction_full    1.000
_reflns_Friedel_fraction_max     0.997
_reflns_number_gt                1397
_reflns_number_total             1419
_reflns_threshold_expression     'I > 2\s(I)'
_iucr_refine_instructions_details
;
TITL Tetramethylammonium tetrachloroferrate(III) at 300 K Pma2
CELL 0.71073  14.26840   6.44160   6.45100  90.0000  90.0000  90.0000
ZERR    2.00   0.00530   0.00240   0.00240   0.0000   0.0000   0.0000
LATT -1
SYMM -X, -Y, Z
SYMM 0.5+X, -Y, Z
SYMM 0.5-X, Y, Z
SFAC C H N CL FE
UNIT 8 24 2 8 2
TEMP 27
SIZE 0.125 0.188 0.25
L.S. 5
BOND $H
CONF
LIST 4
ACTA
RIGU
FMAP 2
PLAN 20
TWIN
WGHT    0.046500    0.051200
BASF   0.05903
FVAR       0.30642
FE1   5    0.250000    0.422054    0.414513    10.50000    0.04712    0.06128 =
         0.06182    0.00056    0.00000    0.00000
CL1   4    0.377025    0.543648    0.553190    11.00000    0.06004    0.11430 =
         0.10672    0.00710   -0.01841   -0.01820
CL2   4    0.250000    0.084790    0.451203    10.50000    0.12815    0.06142 =
         0.15153    0.00803    0.00000    0.00000
CL3   4    0.250000    0.495412    0.084921    10.50000    0.12147    0.14003 =
         0.06069    0.00815    0.00000    0.00000
N1    3    0.500000    0.000000    0.001054    10.50000    0.07649    0.06119 =
         0.06726    0.00000    0.00000    0.00750
PART -1 10.5
C1    1    0.597144   -0.033528   -0.094555    10.50000    0.12747    0.18842 =
         0.13090    0.04088    0.04809    0.05793
AFIX 137
H1A   2    0.590390   -0.086390   -0.232889    10.50000   -1.50000
H1B   2    0.631634   -0.131334   -0.012165    10.50000   -1.50000
H1C   2    0.630265    0.096134   -0.098507    10.50000   -1.50000
AFIX   0
C2    1    0.501869    0.222260    0.067113    10.50000    0.16319    0.10367 =
         0.16597   -0.01141    0.01278    0.00297
AFIX 137
H2A   2    0.476851    0.234104    0.204749    10.50000   -1.50000
H2B   2    0.464657    0.303565   -0.026589    10.50000   -1.50000
H2C   2    0.565301    0.271925    0.065624    10.50000   -1.50000
AFIX   0
C3    1    0.446876    0.069222   -0.165968    10.50000    0.14887    0.17649 =
         0.13801    0.03520   -0.02935   -0.00065
AFIX 137
H3A   2    0.418607    0.200094   -0.131930    10.50000   -1.50000
H3B   2    0.398763   -0.030424   -0.196312    10.50000   -1.50000
H3C   2    0.486589    0.085777   -0.284951    10.50000   -1.50000
AFIX   0
C4    1    0.468425   -0.149479    0.153152    10.50000    0.19678    0.10620 =
         0.16224    0.05638    0.07624    0.02089
AFIX 137
H4A   2    0.403052   -0.127939    0.181007    10.50000   -1.50000
H4B   2    0.503607   -0.132316    0.278838    10.50000   -1.50000
H4C   2    0.477664   -0.287377    0.100544    10.50000   -1.50000
PART 0
AFIX   0
HKLF 4
 
REM  Tetramethylammonium tetrachloroferrate(III) at 300 K Pma2
REM R1 =  0.0246 for    1397 Fo > 4sig(Fo)  and  0.0249 for all    1419 data
REM     74 parameters refined using     49 restraints
 
END  
     
WGHT      0.0465      0.0512 

REM Highest difference peak  0.241,  deepest hole -0.170,  1-sigma level  0.048
Q1    1   0.5000  0.0000  0.2478  10.50000  0.05    0.24
Q2    1   0.5937  0.1098  0.0200  11.00000  0.05    0.23
Q3    1   0.3795  0.5261  0.4195  11.00000  0.05    0.21
Q4    1   0.3732  0.4296  0.5097  11.00000  0.05    0.21
Q5    1   0.3020  0.1377  0.4240  11.00000  0.05    0.20
Q6    1   0.2500  0.3875  0.5366  10.50000  0.05    0.20
Q7    1   0.3337  0.5985  0.5901  11.00000  0.05    0.20
Q8    1   0.2500  0.2561  0.4384  10.50000  0.05    0.18
Q9    1   0.3091  0.4380  0.4085  11.00000  0.05    0.18
Q10   1   0.3193  0.4491  0.4573  11.00000  0.05    0.18
Q11   1   0.2500  0.1192  0.3177  10.50000  0.05    0.17
Q12   1   0.5000  0.0000 -0.2523  10.50000  0.05    0.17
Q13   1   0.2500  0.3540  0.1224  10.50000  0.05    0.13
Q14   1   0.2922  0.5592  0.1313  11.00000  0.05    0.13
Q15   1   0.3711  0.4234  0.3248  11.00000  0.05    0.13
Q16   1   0.2500  0.4423  0.2349  10.50000  0.05    0.12
Q17   1   0.3331  0.5908  0.2406  11.00000  0.05    0.12
Q18   1   0.2500  0.1159  0.5312  10.50000  0.05    0.12
Q19   1   0.5000  0.0000  0.1014  10.50000  0.05    0.12
Q20   1   0.4091  0.5716  0.5876  11.00000  0.05    0.11
;
_cod_data_source_file            ja7b10539_si_003.cif
_cod_data_source_block           TMA_FeCl4_300K
_cod_original_cell_volume        592.9(4)
_cod_database_code               4126953
_shelxl_version_number           2014/6
_shelx_space_group_comment
;
The symmetry employed for this shelxl refinement is uniquely defined
by the following loop, which should always be used as a source of
symmetry information in preference to the above space-group names.
They are only intended as comments.
;
_shelx_estimated_absorpt_t_max   0.778
_shelx_estimated_absorpt_t_min   0.620
_olex2_refinement_description
;
1. Twinned data refinement
 Scales: 0.94(3)
 0.06(3)
2. Fixed Uiso
 At 1.5 times of:
  All C(H,H,H) groups
3. Rigid body (RIGU) restrains
 All non-hydrogen atoms
 with sigma for 1-2 distances of 0.004 and sigma for 1-3 distances of 0.004
4. Others
 Fixed Sof: C1(0.5) H1A(0.5) H1B(0.5) H1C(0.5) C2(0.5) H2A(0.5) H2B(0.5)
 H2C(0.5) C3(0.5) H3A(0.5) H3B(0.5) H3C(0.5) C4(0.5) H4A(0.5) H4B(0.5) H4C(0.5)
5.a Idealised Me refined as rotating group:
 C1(H1A,H1B,H1C), C4(H4A,H4B,H4C)
;
_olex2_submission_special_instructions 'No special instructions were received'
loop_
_space_group_symop_operation_xyz
'x, y, z'
'-x, -y, z'
'x+1/2, -y, z'
'-x+1/2, y, z'
loop_
_atom_site_label
_atom_site_type_symbol
_atom_site_fract_x
_atom_site_fract_y
_atom_site_fract_z
_atom_site_U_iso_or_equiv
_atom_site_adp_type
_atom_site_occupancy
_atom_site_site_symmetry_order
_atom_site_calc_flag
_atom_site_refinement_flags_posn
_atom_site_refinement_flags_adp
_atom_site_refinement_flags_occupancy
_atom_site_disorder_assembly
_atom_site_disorder_group
Fe1 Fe 0.2500 0.42205(7) 0.41451(8) 0.05674(18) Uani 1 2 d S TU P . .
Cl1 Cl 0.37702(8) 0.54365(19) 0.55319(19) 0.0937(4) Uani 1 1 d . U . . .
Cl2 Cl 0.2500 0.0848(2) 0.4512(5) 0.1137(8) Uani 1 2 d S TU P . .
Cl3 Cl 0.2500 0.4954(4) 0.0849(2) 0.1074(5) Uani 1 2 d S TU P . .
N1 N 0.5000 0.0000 0.0011(7) 0.0683(9) Uani 1 2 d S TU P . .
C1 C 0.5971(15) -0.034(4) -0.095(4) 0.149(7) Uani 0.5 1 d . U P A -1
H1A H 0.5904 -0.0864 -0.2329 0.223 Uiso 0.5 1 calc R U P A -1
H1B H 0.6316 -0.1313 -0.0122 0.223 Uiso 0.5 1 calc R U P A -1
H1C H 0.6303 0.0961 -0.0985 0.223 Uiso 0.5 1 calc R U P A -1
C2 C 0.5019(19) 0.222(2) 0.067(4) 0.144(6) Uani 0.5 1 d . U P A -1
H2A H 0.4769 0.2341 0.2047 0.216 Uiso 0.5 1 calc R U P A -1
H2B H 0.4647 0.3036 -0.0266 0.216 Uiso 0.5 1 calc R U P A -1
H2C H 0.5653 0.2719 0.0656 0.216 Uiso 0.5 1 calc R U P A -1
C3 C 0.4469(18) 0.069(4) -0.166(3) 0.154(7) Uani 0.5 1 d . U P A -1
H3A H 0.4186 0.2001 -0.1319 0.232 Uiso 0.5 1 calc R U P A -1
H3B H 0.3988 -0.0304 -0.1963 0.232 Uiso 0.5 1 calc R U P A -1
H3C H 0.4866 0.0858 -0.2850 0.232 Uiso 0.5 1 calc R U P A -1
C4 C 0.4684(17) -0.149(3) 0.153(3) 0.155(7) Uani 0.5 1 d . U P A -1
H4A H 0.4031 -0.1279 0.1810 0.233 Uiso 0.5 1 calc R U P A -1
H4B H 0.5036 -0.1323 0.2788 0.233 Uiso 0.5 1 calc R U P A -1
H4C H 0.4777 -0.2874 0.1005 0.233 Uiso 0.5 1 calc R U P A -1
loop_
_atom_site_aniso_label
_atom_site_aniso_U_11
_atom_site_aniso_U_22
_atom_site_aniso_U_33
_atom_site_aniso_U_23
_atom_site_aniso_U_13
_atom_site_aniso_U_12
Fe1 0.0471(3) 0.0613(3) 0.0618(3) 0.0006(3) 0.000 0.000
Cl1 0.0600(5) 0.1143(7) 0.1067(8) 0.0071(6) -0.0184(5) -0.0182(4)
Cl2 0.1282(14) 0.0614(6) 0.152(2) 0.0080(8) 0.000 0.000
Cl3 0.1215(14) 0.1400(13) 0.0607(7) 0.0082(9) 0.000 0.000
N1 0.076(2) 0.0612(18) 0.067(2) 0.000 0.000 0.0075(18)
C1 0.127(10) 0.188(15) 0.131(12) 0.041(14) 0.048(10) 0.058(10)
C2 0.163(15) 0.104(7) 0.166(13) -0.011(7) 0.013(11) 0.003(7)
C3 0.149(14) 0.176(14) 0.138(11) 0.035(9) -0.029(10) -0.001(11)
C4 0.197(15) 0.106(8) 0.162(13) 0.056(9) 0.076(11) 0.021(9)
loop_
_atom_type_symbol
_atom_type_description
_atom_type_scat_dispersion_real
_atom_type_scat_dispersion_imag
_atom_type_scat_source
C C 0.0033 0.0016 'International Tables Vol C Tables 4.2.6.8 and 6.1.1.4'
H H 0.0000 0.0000 'International Tables Vol C Tables 4.2.6.8 and 6.1.1.4'
N N 0.0061 0.0033 'International Tables Vol C Tables 4.2.6.8 and 6.1.1.4'
Cl Cl 0.1484 0.1585 'International Tables Vol C Tables 4.2.6.8 and 6.1.1.4'
Fe Fe 0.3463 0.8444 'International Tables Vol C Tables 4.2.6.8 and 6.1.1.4'
loop_
_geom_angle_atom_site_label_1
_geom_angle_atom_site_label_2
_geom_angle_atom_site_label_3
_geom_angle
_geom_angle_site_symmetry_1
Cl1 Fe1 Cl1 113.47(8) 4
Cl1 Fe1 Cl2 108.33(6) 4
Cl1 Fe1 Cl2 108.33(6) .
Cl1 Fe1 Cl3 108.93(5) .
Cl1 Fe1 Cl3 108.93(5) 4
Cl3 Fe1 Cl2 108.75(11) .
C2 N1 C1 103.5(14) .
C3 N1 C1 103.1(14) .
C3 N1 C2 85.6(16) .
C3 N1 C4 124.7(15) .
C4 N1 C1 117.4(11) .
C4 N1 C2 116.7(14) .
N1 C1 H1A 109.5 .
N1 C1 H1B 109.5 .
N1 C1 H1C 109.5 .
H1A C1 H1B 109.5 .
H1A C1 H1C 109.5 .
H1B C1 H1C 109.5 .
N1 C2 H2A 109.5 .
N1 C2 H2B 109.5 .
N1 C2 H2C 109.5 .
N1 C2 C3 45.0(9) .
H2A C2 H2B 109.5 .
H2A C2 H2C 109.5 .
H2B C2 H2C 109.5 .
C3 C2 H2A 126.9 .
C3 C2 H2B 64.6 .
C3 C2 H2C 122.5 .
N1 C3 C2 49.4(10) .
N1 C3 H3A 109.5 .
N1 C3 H3B 109.5 .
N1 C3 H3C 109.5 .
C2 C3 H3A 63.3 .
C2 C3 H3B 141.1 .
C2 C3 H3C 108.7 .
H3A C3 H3B 109.5 .
H3A C3 H3C 109.5 .
H3B C3 H3C 109.5 .
N1 C4 H4A 109.5 .
N1 C4 H4B 109.5 .
N1 C4 H4C 109.5 .
H4A C4 H4B 109.5 .
H4A C4 H4C 109.5 .
H4B C4 H4C 109.5 .
loop_
_geom_bond_atom_site_label_1
_geom_bond_atom_site_label_2
_geom_bond_distance
_geom_bond_site_symmetry_2
Fe1 Cl1 2.1676(12) 4
Fe1 Cl1 2.1677(12) .
Fe1 Cl2 2.1854(16) .
Fe1 Cl3 2.1781(18) .
N1 C1 1.532(17) .
N1 C2 1.494(14) .
N1 C3 1.39(2) .
N1 C4 1.447(13) .
C1 H1A 0.9600 .
C1 H1B 0.9600 .
C1 H1C 0.9600 .
C2 H2A 0.9600 .
C2 H2B 0.9600 .
C2 H2C 0.9600 .
C2 C3 1.96(3) .
C3 H3A 0.9600 .
C3 H3B 0.9600 .
C3 H3C 0.9600 .
C4 H4A 0.9600 .
C4 H4B 0.9600 .
C4 H4C 0.9600 .
loop_
_geom_torsion_atom_site_label_1
_geom_torsion_atom_site_label_2
_geom_torsion_atom_site_label_3
_geom_torsion_atom_site_label_4
_geom_torsion
C1 N1 C2 C3 102.4(14)
C1 N1 C3 C2 -102.9(15)
C4 N1 C2 C3 -126.9(16)
C4 N1 C3 C2 119.7(16)
loop_
_refln_index_h
_refln_index_k
_refln_index_l
_refln_F_squared_meas
_refln_F_squared_sigma
-2 0 0 308.75 11.58
2 0 0 316.01 11.63
-2 0 0 295.24 11.6
2 0 0 296.85 11.6
-2 0 0 281.08 11.51
3 0 0 0 0
-3 0 0 0.02 0.01
-3 0 0 0 0.01
-3 0 0 0 0
3 0 0 0.02 0.01
4 0 0 270.09 10.57
4 0 0 260.25 10.5
-4 0 0 262.22 10.37
-4 0 0 269.08 10.43
-4 0 0 276.49 10.49
-6 0 0 344.47 13.84
-6 0 0 360.1 13.95
-6 0 0 355.95 14.05
6 0 0 357.26 14.03
6 0 0 366.52 13.97
-7 0 0 0.03 0.01
-7 0 0 0.01 0.02
7 0 0 0.02 0.02
-7 0 0 0.01 0.01
7 0 0 0.04 0.01
-8 0 0 567.58 21.57
8 0 0 547.99 21.71
-8 0 0 540.11 21.29
-8 0 0 547.99 21.62
8 0 0 548.78 21.5
9 0 0 0.1 0.03
-9 0 0 0.05 0.02
-9 0 0 0.02 0.01
9 0 0 0.03 0.02
-9 0 0 0.02 0.02
-10 0 0 55.25 2.18
-10 0 0 57.4 2.18
10 0 0 56.7 2.19
-10 0 0 56.84 2.17
-11 0 0 0.02 0.02
-11 0 0 0.04 0.02
11 0 0 0.01 0.02
-11 0 0 0 0.02
-12 0 0 5.98 0.25
-12 0 0 5.45 0.24
12 0 0 5.48 0.25
-12 0 0 5.97 0.23
-13 0 0 -0.01 0.03
13 0 0 0.03 0.03
-13 0 0 -0.01 0.03
14 0 0 18.4 0.74
-14 0 0 18.23 0.74
-14 0 0 18.38 0.73
-15 0 0 -0.01 0.03
15 0 0 0 0.04
-15 0 0 -0.01 0.03
16 0 0 21.23 0.86
-16 0 0 21.33 0.85
-16 0 0 21.21 0.85
-17 0 0 0.06 0.04
-17 0 0 0.03 0.04
17 0 0 0 0.04
-18 0 0 1.26 0.1
18 0 0 1.18 0.12
-18 0 0 1.06 0.09
0 1 0 306.62 11.51
0 -1 0 298.65 11.51
0 -1 0 290.51 11.62
0 -1 0 297.79 11.52
0 -1 0 300.82 11.62
-1 1 0 77.03 3.06
1 -1 0 80.62 3.16
-1 -1 0 78.45 3.1
-1 -1 0 77.71 3.02
-1 -1 0 79.89 3.03
1 -1 0 76.55 3.19
1 -1 0 81.19 3.11
1 -1 0 79.39 3.03
-2 -1 0 510.42 19.86
2 -1 0 525.69 19.94
2 -1 0 516.12 20.01
-2 -1 0 489.62 19.87
-2 -1 0 499.98 19.87
-2 -1 0 521 19.74
-2 -1 0 518.46 19.74
-2 1 0 532.79 19.95
-2 1 0 521.5 19.9
3 -1 0 188 7.35
-3 -1 0 180.95 7.17
-3 -1 0 184.21 7.24
-3 1 0 188.46 7.33
-3 1 0 186.64 7.27
-3 -1 0 183.67 7.17
-3 1 0 191.26 7.18
-3 -1 0 178.77 7.24
3 -1 0 183.09 7.3
3 1 0 182.17 7.27
-4 -1 0 22.34 0.89
-4 -1 0 22.38 0.89
4 -1 0 23.24 0.89
-4 1 0 23.78 0.89
-4 1 0 23.13 0.89
-4 -1 0 22.53 0.89
-4 1 0 23.36 0.89
4 -1 0 22.78 0.89
-4 -1 0 22.97 0.89
4 1 0 23.99 0.89
-5 1 0 115.85 4.41
-5 -1 0 113.12 4.4
-5 1 0 120.9 4.4
5 1 0 110.99 4.62
-5 -1 0 114.59 4.4
-5 1 0 111.34 4.48
-5 -1 0 115.09 4.39
-5 -1 0 110.95 4.39
5 -1 0 117.46 4.41
-6 -1 0 118.37 4.56
6 -1 0 118.57 4.85
-6 -1 0 117.5 4.55
-6 1 0 123.63 4.56
6 1 0 119.02 4.56
6 -1 0 119.57 4.57
-6 -1 0 116.85 4.55
-6 1 0 118.22 4.55
-6 -1 0 116.47 4.55
-6 1 0 117.21 4.55
-7 1 0 23.37 0.91
7 -1 0 23.78 0.91
-7 -1 0 23.04 0.9
-7 -1 0 23.14 0.9
-7 1 0 23.02 0.9
7 -1 0 22.86 0.91
-7 1 0 23.35 0.9
7 1 0 23.28 0.91
-7 -1 0 23.61 0.9
-7 -1 0 23.66 0.91
-8 -1 0 185.68 7.08
-8 -1 0 184.39 7.31
-8 -1 0 186.89 7.08
-8 1 0 183.56 7.29
-8 1 0 177.57 7.22
8 -1 0 188.72 7.09
-8 -1 0 184.46 7.23
8 -1 0 188.04 7.1
-8 1 0 182.2 7.39
8 1 0 180.65 7.48
-9 1 0 6.17 0.25
9 1 0 5.92 0.26
-9 1 0 6.38 0.25
9 -1 0 6.24 0.27
-9 -1 0 6.34 0.26
9 -1 0 6.16 0.26
-9 1 0 6.4 0.26
-9 -1 0 6.2 0.25
-9 -1 0 6.26 0.26
-9 -1 0 6.08 0.26
-10 -1 0 28.8 1.16
-10 -1 0 30.03 1.15
-10 -1 0 29.1 1.16
-10 1 0 30.16 1.16
10 -1 0 30.05 1.16
10 1 0 29.91 1.16
10 -1 0 29.88 1.17
-10 1 0 30.34 1.15
-10 1 0 29.26 1.15
-11 1 0 15.23 0.59
-11 -1 0 15.19 0.6
-11 -1 0 14.82 0.6
-11 -1 0 14.9 0.59
11 -1 0 15.31 0.61
11 1 0 14.79 0.6
-11 1 0 15.26 0.6
-11 1 0 14.77 0.59
12 1 0 0.3 0.04
12 -1 0 0.29 0.05
-12 1 0 0.24 0.03
-12 1 0 0.3 0.03
-12 1 0 0.34 0.05
-12 -1 0 0.32 0.04
-12 -1 0 0.27 0.04
-12 -1 0 0.34 0.03
13 -1 0 6.46 0.29
-13 1 0 6.04 0.26
-13 -1 0 6.33 0.27
-13 -1 0 6.49 0.27
-13 1 0 6.48 0.28
-13 1 0 6.41 0.27
13 1 0 6.33 0.28
-14 -1 0 12.34 0.51
14 1 0 12.13 0.51
-14 1 0 12.58 0.51
-14 -1 0 12.37 0.5
-14 1 0 12.42 0.5
14 -1 0 12.18 0.52
-15 -1 0 0.93 0.08
-15 1 0 0.95 0.08
15 1 0 0.9 0.09
15 -1 0 0.98 0.1
-15 1 0 1.02 0.09
-15 -1 0 1.09 0.09
-16 -1 0 11.59 0.49
16 1 0 11.51 0.5
16 -1 0 11.84 0.51
-16 1 0 11.68 0.49
-16 -1 0 11.73 0.49
-16 1 0 11.87 0.48
-17 1 0 0.23 0.05
-17 -1 0 0.26 0.05
17 -1 0 0.38 0.07
17 1 0 0.39 0.06
-17 -1 0 0.32 0.06
-17 1 0 0.27 0.05
-18 -1 0 0.68 0.08
18 -1 0 0.7 0.09
-18 1 0 0.63 0.07
-18 1 0 0.74 0.08
-18 -1 0 0.85 0.08
18 1 0 0.73 0.09
0 2 0 1000 37.45
0 -2 0 960.03 37.63
0 -2 0 952.57 37.68
0 -2 0 986.81 37.45
1 -2 0 2.36 0.1
1 -2 0 2.49 0.1
-1 -2 0 2.29 0.1
-1 -2 0 2.23 0.09
-1 -2 0 2.24 0.09
-1 -2 0 2.32 0.1
-1 -2 0 2.31 0.1
1 -2 0 2.2 0.1
-1 2 0 2.33 0.09
-2 2 0 190.73 7.56
-2 -2 0 194.94 7.53
-2 -2 0 192 7.59
2 -2 0 191.7 7.53
-2 -2 0 193.45 7.35
-2 2 0 191.85 7.41
2 -2 0 191.28 7.6
-2 -2 0 190.3 7.52
2 -2 0 188.77 7.68
3 -2 0 69.78 2.7
3 -2 0 68.51 2.69
-3 -2 0 69.9 2.69
-3 2 0 69.65 2.69
-3 2 0 71.95 2.67
-3 -2 0 68.81 2.69
-3 2 0 70.63 2.77
-3 -2 0 68.05 2.68
-3 -2 0 71.16 2.68
-3 -2 0 69.49 2.68
-4 -2 0 10.18 0.41
-4 -2 0 10.61 0.41
-4 -2 0 10.39 0.41
-4 2 0 10.48 0.41
4 -2 0 10.65 0.42
-4 -2 0 10.4 0.41
4 -2 0 10.58 0.42
-4 2 0 10.88 0.41
-4 -2 0 10.44 0.41
-4 2 0 10.89 0.42
-5 -2 0 60.41 2.37
5 -2 0 60.52 2.38
5 -2 0 62.15 2.38
5 2 0 61.69 2.38
-5 -2 0 62.22 2.37
-5 -2 0 61.86 2.38
-5 2 0 63.53 2.47
-5 2 0 63.22 2.37
-5 -2 0 61.14 2.41
-5 2 0 61.69 2.38
6 2 0 102.34 4.03
-6 2 0 109.25 4.04
6 -2 0 104.55 4.05
-6 2 0 107.96 4.02
-6 -2 0 104.2 4.12
-6 -2 0 106.54 4.21
-6 2 0 103.7 4.03
-6 -2 0 102.59 4.02
-6 -2 0 102.38 4.03
6 -2 0 104.55 4.04
-7 -2 0 1.78 0.08
-7 2 0 1.79 0.09
7 2 0 1.76 0.08
-7 2 0 1.65 0.08
-7 -2 0 1.81 0.09
7 -2 0 1.68 0.1
-7 -2 0 1.88 0.08
7 -2 0 1.77 0.09
-7 2 0 1.83 0.08
-7 -2 0 1.69 0.08
-8 -2 0 172.12 6.76
-8 2 0 176.86 6.74
-8 -2 0 178.56 6.74
-8 2 0 174.88 6.75
-8 -2 0 172.57 6.84
8 -2 0 174.36 6.76
8 -2 0 174.24 6.77
-8 2 0 181.69 6.74
-8 -2 0 176.65 6.79
8 2 0 174.01 6.75
-9 -2 0 3.14 0.13
9 -2 0 3.06 0.15
-9 2 0 3.07 0.13
-9 2 0 3.03 0.14
-9 2 0 3.01 0.13
9 2 0 2.83 0.14
-9 -2 0 3.06 0.14
-9 -2 0 2.9 0.13
-9 -2 0 2.97 0.13
9 -2 0 2.95 0.14
10 2 0 8.97 0.36
-10 2 0 9.08 0.36
-10 -2 0 8.85 0.36
-10 -2 0 8.79 0.37
-10 2 0 8.96 0.35
10 -2 0 8.97 0.37
-10 2 0 9.12 0.37
-10 -2 0 8.64 0.36
10 -2 0 8.81 0.38
-11 -2 0 13.1 0.53
11 -2 0 13.49 0.55
-11 2 0 13.67 0.53
11 -2 0 12.77 0.54
-11 2 0 13.59 0.53
-11 -2 0 13.66 0.54
-11 2 0 13.11 0.54
-11 -2 0 13.55 0.53
11 2 0 13.43 0.54
-12 -2 0 0.38 0.04
-12 -2 0 0.44 0.04
-12 2 0 0.39 0.04
-12 -2 0 0.36 0.05
-12 2 0 0.39 0.04
12 2 0 0.4 0.05
12 -2 0 0.39 0.06
-12 2 0 0.38 0.05
-13 2 0 11.61 0.49
13 2 0 11.75 0.48
-13 -2 0 11.94 0.48
13 -2 0 11.82 0.5
-13 2 0 11.64 0.47
-13 2 0 11.88 0.47
-13 -2 0 11.68 0.48
-14 2 0 5.93 0.25
14 -2 0 6.13 0.28
-14 -2 0 5.96 0.27
14 2 0 5.86 0.27
-14 2 0 5.64 0.27
-14 -2 0 6.04 0.26
15 -2 0 0.82 0.1
15 2 0 0.94 0.09
-15 -2 0 1.05 0.09
-15 2 0 0.92 0.09
-15 -2 0 1.09 0.08
-15 2 0 0.93 0.07
16 2 0 7.29 0.33
-16 -2 0 7.46 0.33
-16 -2 0 7.26 0.32
-16 2 0 7.16 0.33
16 -2 0 7.4 0.34
-17 -2 0 0.36 0.05
-17 -2 0 0.33 0.06
17 -2 0 0.41 0.07
0 -3 0 98.33 3.82
0 3 0 102.27 3.8
0 -3 0 98.6 3.82
0 -3 0 96.32 3.8
0 -3 0 100.4 3.89
-1 3 0 114.82 4.3
1 -3 0 112.41 4.32
1 -3 0 108.25 4.31
1 -3 0 113.81 4.31
-1 -3 0 109.1 4.3
1 -3 0 112.56 4.32
1 3 0 114.98 4.3
-1 -3 0 113.08 4.32
-1 -3 0 111.37 4.31
-1 -3 0 111.14 4.33
-2 -3 0 24.5 0.94
-2 -3 0 24.06 0.96
2 -3 0 24.81 0.95
-2 -3 0 24.78 0.95
-2 -3 0 24.02 0.94
2 -3 0 24.82 0.96
2 -3 0 24.38 0.95
-2 -3 0 24.25 0.96
-2 3 0 25.32 0.96
-2 3 0 25.14 0.94
-3 3 0 275.52 10.67
-3 -3 0 273.11 10.38
3 -3 0 277.42 10.83
-3 -3 0 269.66 10.62
-3 3 0 264.36 10.44
-3 -3 0 268.43 10.67
3 -3 0 269.54 10.65
3 -3 0 265.75 10.66
-4 -3 0 2.02 0.1
-4 3 0 1.9 0.08
-4 -3 0 2.06 0.1
-4 -3 0 2.13 0.09
4 -3 0 1.89 0.1
-4 3 0 2.03 0.1
4 -3 0 2.01 0.11
-5 -3 0 214.28 8.21
-5 -3 0 211.68 8.21
-5 -3 0 213.49 8.49
5 -3 0 216.78 8.22
-5 3 0 211.3 8.22
-5 3 0 215.57 8.28
-5 3 0 220.81 8.22
5 -3 0 207.41 8.23
-6 -3 0 18.02 0.73
-6 -3 0 18.85 0.72
6 3 0 19.19 0.73
6 -3 0 18.19 0.74
-6 -3 0 18.6 0.73
-6 3 0 19.09 0.74
-6 3 0 19.1 0.72
-6 3 0 18.51 0.73
6 -3 0 18.74 0.73
-6 -3 0 18.45 0.72
-7 -3 0 34.72 1.39
-7 3 0 37.11 1.4
7 -3 0 36.11 1.42
-7 3 0 35.24 1.4
7 -3 0 36.72 1.41
-7 -3 0 35.75 1.41
-7 -3 0 36.43 1.41
-7 3 0 37.21 1.41
7 3 0 36.66 1.41
-7 -3 0 37.33 1.39
-8 3 0 15.78 0.61
-8 -3 0 15.96 0.61
-8 -3 0 15.46 0.63
-8 3 0 15.83 0.63
8 -3 0 15.34 0.64
8 3 0 15.98 0.62
-8 -3 0 15.75 0.62
-8 3 0 15.68 0.62
8 -3 0 16.05 0.63
-8 -3 0 15.74 0.61
9 3 0 13.07 0.55
-9 -3 0 14.1 0.54
9 -3 0 14.02 0.56
-9 -3 0 13.75 0.55
9 -3 0 13.88 0.57
-9 3 0 13.9 0.54
-9 -3 0 13.76 0.54
-9 3 0 13.62 0.54
-9 3 0 14.13 0.56
-9 -3 0 13.75 0.55
-10 -3 0 0.98 0.06
-10 -3 0 1.08 0.07
10 -3 0 0.93 0.09
-10 -3 0 1.03 0.06
-10 3 0 1.06 0.06
10 3 0 1.08 0.07
-10 3 0 0.93 0.07
-10 3 0 1.06 0.06
10 -3 0 0.99 0.07
-10 -3 0 1.07 0.07
11 -3 0 35.35 1.38
-11 3 0 35.18 1.35
11 3 0 34.84 1.36
-11 3 0 34.37 1.36
-11 -3 0 34.51 1.36
-11 -3 0 35.79 1.37
11 -3 0 35.12 1.37
-11 -3 0 34.76 1.35
-12 3 0 2.08 0.1
-12 -3 0 1.97 0.12
-12 -3 0 1.92 0.1
12 -3 0 2.06 0.13
12 3 0 2.02 0.11
-13 -3 0 16.63 0.66
-13 3 0 16.98 0.66
-13 -3 0 16.27 0.67
13 3 0 16.58 0.67
13 -3 0 16.62 0.69
-14 3 0 1.5 0.09
-14 -3 0 1.62 0.11
-14 -3 0 1.56 0.09
14 3 0 1.6 0.11
14 -3 0 1.68 0.13
-15 -3 0 1.66 0.1
15 -3 0 1.61 0.13
-15 -3 0 1.54 0.11
16 -3 0 0.96 0.11
-16 -3 0 0.89 0.07
-16 -3 0 0.94 0.09
-17 -3 0 0.65 0.08
17 -3 0 0.61 0.09
-17 -3 0 0.6 0.06
0 -4 0 1.03 0.05
0 -4 0 0.99 0.06
0 4 0 1.04 0.05
0 -4 0 1.02 0.05
-1 -4 0 0.08 0.02
1 -4 0 0.02 0.02
-1 -4 0 0.06 0.01
-1 4 0 0.07 0.01
1 -4 0 0.05 0.01
-1 -4 0 0.06 0.02
-1 -4 0 0.06 0.01
1 -4 0 0.07 0.02
1 4 0 0.08 0.02
-2 -4 0 15.84 0.62
-2 -4 0 15.79 0.61
2 -4 0 15.93 0.63
-2 4 0 16.08 0.62
-2 4 0 16.12 0.63
-2 -4 0 16.02 0.63
2 -4 0 16.46 0.63
2 4 0 16.01 0.63
2 -4 0 15.8 0.64
-2 -4 0 15.88 0.63
3 -4 0 39.15 1.56
-3 -4 0 38.79 1.55
3 -4 0 41.56 1.55
-3 -4 0 39.39 1.55
3 -4 0 41.07 1.54
-3 4 0 39.74 1.55
3 4 0 40.01 1.54
-3 4 0 40.17 1.53
-4 4 0 9.09 0.38
-4 -4 0 9.17 0.37
-4 -4 0 9.15 0.38
4 -4 0 9.16 0.37
-4 4 0 9.3 0.36
4 -4 0 9.68 0.39
-4 -4 0 9.31 0.37
-5 -4 0 24.06 0.98
-5 -4 0 25.31 0.98
-5 4 0 25.72 0.96
-5 -4 0 24.27 0.98
-5 4 0 25.36 0.98
5 -4 0 25.25 0.99
5 -4 0 25.57 0.98
-6 -4 0 3.96 0.17
-6 -4 0 4.22 0.17
-6 -4 0 3.91 0.18
6 -4 0 3.68 0.19
6 -4 0 3.92 0.18
-6 4 0 4.02 0.17
-7 -4 0 0.61 0.05
-7 4 0 0.56 0.05
-7 -4 0 0.54 0.05
7 -4 0 0.57 0.05
7 4 0 0.49 0.04
7 -4 0 0.48 0.06
-8 4 0 0.68 0.05
8 -4 0 0.54 0.05
-8 -4 0 0.5 0.05
8 4 0 0.45 0.04
-8 -4 0 0.54 0.05
8 -4 0 0.62 0.06
-9 -4 0 0.62 0.03
9 -4 0 0.58 0.07
-9 -4 0 0.63 0.06
9 -4 0 0.65 0.06
-9 -4 0 0.56 0.06
-9 4 0 0.67 0.05
9 4 0 0.71 0.05
-9 -4 0 0.64 0.03
-10 -4 0 5.87 0.25
10 -4 0 5.57 0.25
-10 4 0 5.79 0.24
10 4 0 5.61 0.24
-10 -4 0 5.7 0.23
-10 -4 0 5.55 0.25
10 -4 0 5.67 0.27
-10 -4 0 5.86 0.23
-11 -4 0 9.26 0.38
-11 -4 0 9.09 0.36
11 -4 0 9.31 0.39
11 4 0 9.21 0.38
-11 -4 0 9.04 0.36
-11 4 0 9.04 0.37
-11 -4 0 9.04 0.39
11 -4 0 9.44 0.41
12 4 0 1.71 0.1
12 -4 0 1.86 0.11
-12 -4 0 1.76 0.11
12 -4 0 1.68 0.13
-12 -4 0 1.77 0.08
-12 4 0 1.71 0.1
-13 -4 0 5.2 0.22
-13 4 0 5.63 0.23
-13 -4 0 5.5 0.25
13 -4 0 5.41 0.27
-14 4 0 0.04 0.03
-14 -4 0 0.03 0.04
-14 -4 0 0.06 0.02
14 -4 0 0.03 0.05
15 -4 0 0.27 0.07
-15 -4 0 0.17 0.05
-15 -4 0 0.32 0.04
-16 -4 0 -0.01 0.02
16 -4 0 0.04 0.05
-16 -4 0 0.04 0.05
0 -5 0 0.36 0.03
0 -5 0 0.38 0.04
0 -5 0 0.41 0.05
0 5 0 0.42 0.03
0 -5 0 0.41 0.03
1 -5 0 5.06 0.21
1 -5 0 5 0.22
-1 -5 0 4.9 0.22
1 -5 0 5.04 0.21
-1 5 0 5.18 0.2
-1 -5 0 4.71 0.22
-1 -5 0 4.9 0.2
-1 -5 0 4.91 0.2
1 5 0 5.11 0.21
2 -5 0 0.36 0.05
-2 -5 0 0.31 0.02
2 -5 0 0.33 0.03
-2 -5 0 0.35 0.04
-2 -5 0 0.31 0.02
-2 -5 0 0.49 0.05
2 5 0 0.35 0.03
-2 5 0 0.36 0.04
-3 -5 0 25.71 1.01
3 -5 0 25.87 1.02
3 -5 0 25.7 1.01
-3 -5 0 25.45 1.01
-3 5 0 26.16 1.01
3 5 0 26.03 1.01
4 -5 0 2.5 0.13
4 -5 0 2.23 0.11
-4 5 0 2.49 0.12
-4 -5 0 2.4 0.12
4 5 0 2.4 0.12
-4 -5 0 2.21 0.12
-5 -5 0 23.85 0.93
5 5 0 23.39 0.92
5 -5 0 23.59 0.94
-5 5 0 23.49 0.92
5 -5 0 23.42 0.92
-5 -5 0 22.95 0.92
-6 -5 0 0.31 0.04
-6 5 0 0.3 0.04
-6 -5 0 0.4 0.05
-6 -5 0 0.37 0.04
6 -5 0 0.35 0.06
6 -5 0 0.37 0.04
-7 -5 0 1.3 0.08
-7 5 0 1.12 0.08
-7 -5 0 1.4 0.08
7 -5 0 1.32 0.08
-7 -5 0 1.19 0.08
7 -5 0 1.15 0.1
-8 -5 0 1.26 0.08
8 -5 0 1.11 0.09
8 5 0 0.95 0.07
-8 5 0 1.22 0.08
8 -5 0 1.04 0.08
-8 -5 0 1.1 0.08
9 -5 0 0.88 0.08
-9 -5 0 1.09 0.08
-9 -5 0 0.94 0.08
9 5 0 0.98 0.07
9 -5 0 1.01 0.1
-9 5 0 1.08 0.07
-10 5 0 1.23 0.08
10 -5 0 1.25 0.11
-10 -5 0 1.11 0.09
10 -5 0 1.11 0.09
-10 -5 0 1.13 0.08
11 -5 0 5.7 0.26
-11 -5 0 6.02 0.26
-11 5 0 6 0.25
-11 -5 0 5.67 0.26
11 -5 0 5.33 0.28
12 -5 0 1.05 0.11
12 -5 0 1.11 0.09
-12 -5 0 1.24 0.1
-12 5 0 1.04 0.08
13 -5 0 2.63 0.16
-13 -5 0 2.94 0.16
13 -5 0 2.62 0.18
-13 5 0 2.62 0.14
-14 5 0 0.04 0.03
-14 -5 0 0.05 0.04
14 -5 0 0.03 0.05
0 -6 0 12.46 0.52
0 6 0 12.8 0.52
0 -6 0 12.53 0.49
-1 -6 0 0.05 0.04
-1 -6 0 0.04 0.02
1 -6 0 -0.01 0.03
-1 -6 0 0.05 0.04
-1 6 0 0.1 0.04
1 -6 0 0.04 0.02
-1 -6 0 0.03 0.02
-2 -6 0 19.17 0.75
-2 -6 0 17.7 0.71
2 6 0 18.66 0.73
-2 -6 0 18.77 0.75
2 -6 0 18.22 0.73
-2 -6 0 18.48 0.71
2 -6 0 19.07 0.75
-2 6 0 18.79 0.75
3 -6 0 2.97 0.14
3 -6 0 3.28 0.17
3 6 0 3.05 0.14
-3 6 0 2.99 0.16
-3 -6 0 2.99 0.15
-3 -6 0 3.04 0.16
-4 -6 0 7.68 0.33
4 6 0 7.42 0.31
-4 -6 0 7.27 0.32
4 -6 0 7.88 0.34
-4 6 0 7.38 0.32
4 -6 0 7.69 0.32
5 -6 0 1.43 0.11
-5 -6 0 1.38 0.1
-5 6 0 1.6 0.1
5 6 0 1.46 0.09
5 -6 0 1.34 0.09
-5 -6 0 1.46 0.09
6 -6 0 8.22 0.34
-6 -6 0 8.31 0.34
6 6 0 7.73 0.34
-6 6 0 7.73 0.35
6 -6 0 8.35 0.37
-6 -6 0 8.57 0.35
-7 -6 0 0.22 0.05
7 -6 0 0.16 0.05
-7 6 0 0.23 0.05
7 -6 0 0.19 0.04
7 6 0 0.25 0.04
-8 6 0 4.59 0.21
8 6 0 4.49 0.21
8 -6 0 4.59 0.24
8 -6 0 4.27 0.21
-8 -6 0 4.53 0.22
9 -6 0 0.07 0.05
9 6 0 0.01 0.03
-9 -6 0 0.03 0.04
-9 6 0 0.01 0.04
9 -6 0 -0.01 0.03
-10 6 0 4.73 0.22
10 -6 0 4.73 0.23
10 -6 0 4.63 0.25
-10 -6 0 4.48 0.22
10 6 0 4.63 0.22
-11 -6 0 0.56 0.07
11 -6 0 0.65 0.08
11 6 0 0.64 0.07
11 -6 0 0.52 0.09
-11 6 0 0.65 0.07
12 6 0 1.24 0.1
12 -6 0 1.27 0.11
12 -6 0 1.24 0.13
-12 -6 0 1.34 0.11
-12 6 0 1.32 0.1
0 -7 0 1.27 0.1
0 -7 0 1.09 0.06
0 7 0 1.06 0.09
1 -7 0 2.12 0.13
-1 -7 0 1.93 0.09
1 -7 0 1.94 0.1
1 7 0 1.97 0.12
-1 -7 0 2.11 0.12
-1 7 0 1.92 0.12
2 7 0 0.06 0.04
-2 7 0 0.12 0.04
2 -7 0 0.16 0.05
-2 -7 0 0.09 0.04
2 -7 0 0.1 0.03
-2 -7 0 0.1 0.04
-3 -7 0 0.2 0.05
3 -7 0 0.2 0.05
-3 -7 0 0.24 0.05
-3 7 0 0.31 0.05
3 -7 0 0.33 0.04
-4 7 0 0.3 0.05
4 -7 0 0.24 0.04
-4 -7 0 0.17 0.05
-4 -7 0 0.19 0.04
4 -7 0 0.26 0.06
-5 -7 0 0.4 0.06
5 -7 0 0.35 0.05
-5 7 0 0.43 0.06
5 -7 0 0.36 0.06
6 -7 0 -0.01 0.03
-6 -7 0 0.03 0.04
-6 7 0 0.09 0.04
6 -7 0 0.08 0.05
7 -7 0 0.88 0.08
7 7 0 0.86 0.08
-7 -7 0 0.9 0.09
-7 7 0 0.76 0.08
7 -7 0 0.88 0.1
-8 -7 0 0.8 0.08
8 -7 0 0.74 0.08
8 -7 0 0.89 0.1
8 7 0 0.81 0.08
-8 7 0 0.72 0.08
9 7 0 0.52 0.07
9 -7 0 0.48 0.08
-9 -7 0 0.4 0.06
-9 7 0 0.5 0.07
9 -7 0 0.53 0.07
10 7 0 0.24 0.05
-10 7 0 0.33 0.06
10 -7 0 0.33 0.06
10 -7 0 0.24 0.07
0 8 0 0.7 0.09
0 -8 0 0.86 0.05
0 -8 0 0.88 0.09
-1 8 0 0.04 0.04
1 8 0 0.05 0.05
1 -8 0 0.05 0.04
-1 -8 0 0.04 0.04
1 -8 0 0.04 0.02
2 -8 0 0.94 0.07
2 8 0 0.9 0.09
-2 8 0 0.82 0.09
2 -8 0 0.93 0.1
3 8 0 0 0.04
-3 8 0 -0.01 0.04
3 -8 0 -0.01 0.04
3 -8 0 -0.03 0.02
4 8 0 0.17 0.05
4 -8 0 0.22 0.06
-4 8 0 0.21 0.06
4 -8 0 0.2 0.04
-5 -8 0 -0.05 0.04
5 -8 0 0 0.03
5 -8 0 0.03 0.05
5 8 0 0.02 0.04
-5 8 0 0.03 0.04
0 0 1 345.25 13.63
0 0 1 351.09 13.68
0 0 -1 361.34 13.67
0 0 -1 355.14 13.6
0 0 1 351.09 13.63
1 0 -1 0.01 0
-1 0 -1 0.01 0.01
-1 0 1 0.01 0
-1 0 -1 0.01 0
1 0 -1 0.01 0
-1 0 1 0.01 0.01
1 0 1 0.03 0.01
1 0 1 0.02 0.01
2 0 -1 661.01 25.59
-2 0 1 662.85 25.6
2 0 1 680.03 25.61
-2 0 -1 684.22 25.6
-2 0 1 651.7 25.55
2 0 1 661.35 25.53
2 0 -1 641.72 25.62
3 0 -1 0.02 0.01
-3 0 1 0.05 0.01
3 0 -1 0.06 0.01
-3 0 -1 0.03 0.01
-3 0 1 0.02 0.01
3 0 1 0.02 0.01
4 0 -1 405.27 15.57
-4 0 -1 395.11 15.4
-4 0 1 377.1 15.17
-4 0 -1 409.4 15.44
4 0 -1 412.65 15.47
4 0 1 388.77 15.45
-4 0 -1 403.06 15.41
-4 0 1 386.43 15.39
-4 0 1 388.11 15.49
4 0 1 394.97 15.44
5 0 1 0.08 0.01
-5 0 1 0.03 0.01
-5 0 -1 0.02 0.01
5 0 -1 0 0.01
5 0 -1 0.06 0.01
-5 0 1 0.01 0.01
-5 0 -1 0.02 0.01
-5 0 1 0.02 0.01
-5 0 -1 0.02 0.01
5 0 1 0.02 0.01
-6 0 1 167.41 6.7
6 0 1 169.65 6.37
6 0 -1 166.49 6.8
-6 0 1 171.54 6.37
-6 0 -1 161.74 6.37
-6 0 -1 166.73 6.57
6 0 -1 165.8 6.61
6 0 1 169.3 6.62
-6 0 -1 157.66 6.57
-6 0 1 162.38 6.43
-7 0 -1 0 0.01
-7 0 -1 0.01 0.02
-7 0 1 0.02 0.01
-7 0 1 -0.02 0.01
-7 0 -1 -0.01 0.01
-7 0 1 0.01 0.01
7 0 1 0 0.01
7 0 -1 0.02 0.02
7 0 -1 0 0.01
7 0 1 0.08 0.02
8 0 1 177.3 6.89
-8 0 -1 181.6 6.89
-8 0 -1 174.13 6.88
8 0 -1 182.71 6.88
-8 0 -1 174.3 7.15
-8 0 1 179.38 6.88
8 0 -1 179.69 7.32
8 0 1 181.68 6.88
-8 0 1 180.05 6.97
-8 0 1 180.31 6.89
-9 0 1 0 0.02
-9 0 1 0.01 0.02
-9 0 -1 0.01 0.02
9 0 -1 0.02 0.02
9 0 -1 -0.02 0.02
-9 0 -1 0.02 0.02
9 0 1 0.08 0.02
9 0 1 0.02 0.02
-9 0 -1 0 0.01
-9 0 1 0 0.01
-10 0 -1 41.38 1.59
-10 0 1 40.53 1.59
10 0 -1 40.63 1.59
-10 0 1 41.91 1.57
10 0 1 40.62 1.59
-10 0 1 41.15 1.59
-10 0 -1 40.12 1.58
-10 0 -1 41.37 1.58
-11 0 1 0.02 0.02
-11 0 -1 0.04 0.02
-11 0 -1 0.01 0.02
-11 0 1 0 0.02
11 0 1 0.02 0.02
11 0 -1 0.03 0.03
-11 0 -1 -0.01 0.02
-12 0 1 16.32 0.68
-12 0 -1 18.44 0.69
-12 0 1 15.39 0.68
-12 0 -1 18.03 0.68
12 0 -1 18.14 0.69
12 0 1 15.79 0.69
-12 0 -1 18.13 0.68
13 0 -1 -0.02 0.03
-13 0 1 -0.03 0.03
-13 0 1 0.01 0.03
-13 0 -1 -0.02 0.02
-13 0 -1 0.06 0.03
13 0 1 -0.01 0.03
-13 0 -1 0.01 0.02
-14 0 -1 15.17 0.61
-14 0 1 14.75 0.61
-14 0 -1 14.81 0.6
-14 0 1 14.84 0.61
14 0 -1 15.09 0.62
14 0 1 15.51 0.62
-14 0 -1 14.99 0.6
-15 0 -1 0.02 0.03
-15 0 -1 0.01 0.03
-15 0 1 -0.02 0.03
-15 0 1 0.02 0.03
15 0 -1 0.01 0.04
15 0 1 -0.05 0.04
-16 0 -1 11.51 0.47
-16 0 1 11.59 0.47
-16 0 1 11.29 0.47
16 0 -1 10.56 0.48
-16 0 -1 10.78 0.46
16 0 1 11.37 0.48
17 0 -1 0.02 0.05
-17 0 1 0.04 0.04
17 0 1 -0.01 0.04
-17 0 -1 -0.02 0.04
-17 0 1 0.07 0.04
-17 0 -1 0.01 0.03
-18 0 -1 1.14 0.09
-18 0 -1 1.31 0.1
18 0 1 1.27 0.11
-18 0 1 0.91 0.09
18 0 -1 1.19 0.12
-18 0 1 1 0.09
0 -1 -1 447.22 18.14
0 -1 1 481.97 18.35
0 -1 1 472.24 18.18
0 -1 1 473.59 18.19
0 -1 1 470.16 18.11
0 1 -1 470.84 18.2
0 1 1 478.12 18.24
0 -1 -1 479.31 18.26
0 -1 -1 467.73 18.24
-1 1 1 74.87 2.78
1 1 -1 71.21 2.86
1 -1 1 72.27 2.78
-1 1 1 73.16 2.78
1 -1 1 70.71 2.79
1 -1 1 69.19 2.9
-1 -1 -1 73.61 2.78
-1 -1 -1 74.23 2.78
1 -1 -1 74.09 2.78
1 -1 -1 72.38 2.78
-1 -1 1 71.04 2.77
-1 -1 1 70.42 2.84
1 -1 -1 75.45 2.94
-1 1 -1 74.57 2.78
1 1 1 71.37 2.78
-1 -1 1 70.62 2.87
-1 1 -1 70.04 2.92
-1 -1 1 70.9 2.78
-2 -1 -1 152.4 5.6
2 1 -1 154.18 5.59
-2 1 1 133.01 5.61
2 -1 1 137.9 5.52
-2 1 1 135.29 5.71
2 -1 1 134.42 5.74
2 -1 1 138.54 5.61
-2 -1 -1 151.9 5.63
-2 -1 -1 150.08 5.65
-2 -1 1 136.37 5.57
-2 -1 1 134.38 5.58
2 -1 -1 150.95 5.73
-2 -1 1 135.24 5.64
2 1 1 136.07 5.49
2 -1 -1 156.12 5.69
2 1 1 136.21 5.66
2 -1 -1 150.36 5.63
-2 -1 1 135.63 5.68
-2 1 -1 153.71 5.68
-3 1 1 141.41 5.31
-3 -1 -1 131.96 5.46
3 -1 1 140.75 5.35
-3 -1 -1 138.8 5.45
-3 1 1 137.45 5.58
3 -1 1 138.69 5.62
3 -1 1 131.84 5.53
-3 -1 -1 139.82 5.43
3 -1 -1 143.71 5.48
-3 -1 1 135.54 5.38
3 -1 -1 138.07 5.6
-3 -1 1 136.6 5.49
-3 -1 1 134.77 5.41
3 -1 -1 135.43 5.56
-3 1 -1 138.13 5.54
-3 1 -1 140.43 5.43
3 1 1 145.11 5.39
-3 -1 1 141.46 5.39
4 -1 1 225.74 9.42
-4 -1 -1 236.31 9.34
-4 -1 -1 242.57 9.28
-4 1 1 238.83 9.22
-4 -1 -1 242.07 9.39
4 -1 1 230.64 9.39
4 1 -1 235.23 9.38
-4 -1 -1 247.44 9.34
-4 1 1 226.94 9.28
-4 -1 1 225.81 9.15
-4 -1 1 227.79 9.25
-4 1 -1 250.45 9.43
-4 -1 1 221.97 9.32
4 -1 -1 240.91 9.45
-4 1 -1 241.54 9.34
-4 1 -1 243.83 9.2
4 1 1 246.17 9.24
-4 -1 1 229.04 9.26
4 -1 -1 244.98 9.41
-5 1 1 82.41 3.18
-5 1 1 83.83 3.17
5 1 -1 81.67 3.19
-5 1 1 84.67 3.18
5 -1 1 84.14 3.19
-5 -1 -1 84.03 3.18
5 -1 1 80.46 3.19
-5 -1 -1 80.31 3.18
-5 -1 -1 82.04 3.18
-5 -1 -1 80.66 3.18
-5 1 -1 83.05 3.17
-5 -1 1 83.39 3.17
-5 -1 1 83.98 3.18
-5 -1 1 82.96 3.18
-5 1 -1 80 3.18
5 1 1 87.63 3.18
5 -1 -1 85.48 3.24
5 -1 -1 78.64 3.35
-5 -1 1 83.17 3.17
-5 1 -1 80.55 3.36
-6 1 1 44.21 1.75
6 -1 1 42.96 1.75
-6 -1 -1 47.66 1.75
6 -1 1 42.72 1.75
-6 1 1 42.75 1.75
-6 -1 -1 46.52 1.75
-6 1 1 44.04 1.74
-6 -1 -1 48.95 1.75
-6 -1 -1 48.51 1.75
6 1 -1 47.73 1.75
-6 -1 1 42.71 1.75
6 -1 -1 47.38 1.75
6 -1 -1 46.79 1.76
-6 -1 1 41.68 1.75
-6 1 -1 46.84 1.75
-6 1 -1 48.42 1.75
-6 -1 1 42.94 1.74
-6 -1 1 42.71 1.75
6 1 1 44.1 1.75
-6 1 -1 49.15 1.76
-7 1 1 21.72 0.84
7 -1 1 21.28 0.84
7 -1 1 21.27 0.85
-7 -1 -1 21.8 0.84
-7 1 1 21.18 0.84
-7 -1 -1 21.58 0.84
7 1 -1 22.03 0.84
-7 1 1 21.44 0.83
-7 -1 -1 22.56 0.84
-7 -1 -1 21.58 0.84
-7 1 -1 21.88 0.84
-7 -1 1 21.49 0.84
-7 1 -1 21.44 0.84
-7 -1 1 20.84 0.84
7 1 1 21.79 0.84
-7 -1 1 21.36 0.83
7 -1 -1 21.8 0.84
-7 -1 1 21.16 0.84
7 -1 -1 21.5 0.85
-7 1 -1 21.87 0.84
-8 -1 -1 83.54 3.44
8 -1 1 90.95 3.46
-8 -1 -1 89.98 3.44
-8 1 1 90.8 3.46
-8 -1 -1 85.83 3.64
8 -1 1 92.53 3.45
8 1 -1 88.64 3.46
-8 1 1 93.6 3.45
-8 -1 -1 87.25 3.44
-8 1 1 93.75 3.44
-8 -1 1 89.56 3.44
-8 -1 1 92.51 3.46
8 -1 -1 89.5 3.55
8 1 1 92.56 3.45
-8 1 -1 86.05 3.45
-8 1 -1 89.12 3.62
-8 -1 1 89.98 3.45
8 -1 -1 88.63 3.47
-8 1 -1 87.1 3.45
-8 -1 1 91.4 3.44
-9 1 1 10.91 0.44
-9 1 1 11.01 0.43
-9 -1 -1 10.87 0.44
-9 -1 -1 10.93 0.44
-9 1 1 10.68 0.43
9 -1 1 11.09 0.45
9 1 -1 11.25 0.44
-9 -1 -1 10.71 0.43
9 -1 1 10.93 0.44
9 1 1 11.31 0.44
-9 1 -1 10.71 0.43
-9 -1 1 10.9 0.44
-9 -1 1 10.56 0.43
9 -1 -1 11.29 0.45
9 -1 -1 10.92 0.44
-9 -1 1 10.87 0.44
-9 1 -1 10.78 0.43
-9 -1 1 10.95 0.43
-9 1 -1 10.83 0.44
10 -1 1 6.45 0.3
10 -1 1 6.46 0.31
-10 1 1 6.64 0.31
-10 1 1 6.64 0.3
-10 -1 -1 8.54 0.31
10 1 -1 8.16 0.31
-10 -1 -1 7.93 0.3
-10 -1 -1 8.34 0.31
-10 1 1 6.63 0.29
10 -1 -1 8.06 0.31
10 -1 -1 8.11 0.32
-10 -1 1 6.45 0.29
-10 1 -1 8.35 0.31
-10 1 -1 8.22 0.3
-10 -1 1 6.77 0.3
-10 -1 1 6.78 0.3
10 1 1 6.55 0.3
-10 1 -1 7.85 0.3
11 1 -1 9.4 0.39
-11 -1 -1 9.3 0.39
-11 -1 -1 9.17 0.39
11 -1 1 9.57 0.4
-11 1 1 9.54 0.39
-11 -1 -1 9.27 0.38
-11 1 1 9.49 0.37
-11 1 1 9.55 0.38
-11 1 -1 9.51 0.39
-11 -1 1 9.81 0.39
-11 1 -1 9.38 0.38
11 1 1 9.98 0.39
11 -1 -1 9.35 0.4
-11 1 -1 9.71 0.38
-11 -1 1 9.54 0.39
12 1 -1 13.56 0.52
12 -1 1 11.56 0.51
-12 -1 -1 13.5 0.51
-12 -1 -1 12.86 0.5
-12 1 1 11.27 0.51
-12 -1 -1 13.11 0.51
-12 1 1 10.96 0.5
-12 1 -1 13.29 0.51
12 1 1 11.73 0.51
-12 1 -1 12.77 0.5
12 -1 -1 13.41 0.52
-12 -1 1 11.73 0.5
-12 -1 1 12.33 0.51
-12 1 -1 13.36 0.5
-13 -1 -1 5.39 0.24
13 -1 1 5.7 0.26
-13 -1 -1 5.62 0.25
-13 1 1 5.67 0.25
-13 1 1 5.71 0.24
13 1 -1 5.63 0.25
-13 -1 -1 5.44 0.24
-13 1 -1 5.36 0.24
-13 1 -1 5.31 0.23
13 1 1 5.58 0.25
-13 1 -1 5.76 0.25
13 -1 -1 5.52 0.26
-13 -1 1 5.78 0.25
-13 -1 1 5.84 0.25
-14 -1 -1 5.54 0.25
-14 -1 -1 5.65 0.25
-14 1 1 5.6 0.24
-14 -1 -1 5.55 0.24
-14 1 1 5.4 0.25
14 -1 1 5.82 0.26
14 1 -1 5.53 0.26
-14 -1 1 5.44 0.25
-14 1 -1 5.63 0.24
14 -1 -1 5.56 0.26
14 1 1 5.65 0.25
-14 -1 1 5.5 0.25
-14 1 -1 6.03 0.26
-14 1 -1 5.75 0.24
15 1 -1 1.05 0.09
-15 1 1 1 0.08
-15 -1 -1 1.14 0.09
15 -1 1 0.85 0.09
-15 1 1 1.03 0.09
-15 -1 -1 1.05 0.08
15 1 1 1.01 0.09
-15 1 -1 0.96 0.07
-15 -1 1 0.84 0.08
15 -1 -1 1.02 0.1
-15 1 -1 0.98 0.09
-15 1 -1 0.98 0.07
-15 -1 1 0.94 0.08
-16 -1 -1 7.94 0.35
16 1 -1 8.02 0.36
-16 1 1 8.06 0.35
-16 -1 -1 7.84 0.35
16 -1 1 8.08 0.36
-16 1 1 8.23 0.34
-16 -1 1 8.05 0.35
16 1 1 8.07 0.35
-16 1 -1 8.25 0.36
-16 -1 1 8.08 0.35
-16 1 -1 7.53 0.34
16 -1 -1 8.07 0.37
17 -1 1 0.26 0.06
-17 -1 -1 0.45 0.06
-17 1 1 0.35 0.05
-17 1 1 0.35 0.06
-17 -1 -1 0.41 0.06
17 1 -1 0.38 0.07
17 -1 -1 0.38 0.07
-17 1 -1 0.5 0.07
-17 -1 1 0.45 0.06
-17 -1 1 0.42 0.06
-17 1 -1 0.5 0.06
-18 1 1 0.48 0.06
-18 -1 -1 0.54 0.07
18 1 -1 0.47 0.08
-18 1 1 0.33 0.06
18 -1 1 0.39 0.07
-18 -1 -1 0.45 0.06
-18 1 -1 0.5 0.07
-18 -1 1 0.35 0.06
18 -1 -1 0.51 0.08
-18 -1 1 0.4 0.06
0 -2 1 141.83 5.46
0 -2 -1 140.07 5.37
0 -2 1 141.79 5.46
0 2 -1 136.39 5.61
0 -2 -1 138.47 5.37
0 -2 -1 140.06 5.51
0 -2 1 142.99 5.38
0 2 1 140.57 5.36
0 -2 1 135.73 5.45
1 -2 1 31.33 1.28
-1 -2 -1 35.77 1.36
1 2 -1 36.29 1.29
-1 -2 -1 36.5 1.29
1 -2 1 29.78 1.29
-1 -2 -1 35.12 1.29
-1 2 1 31.54 1.28
-1 -2 -1 35.42 1.29
1 -2 1 31.44 1.29
1 -2 1 31.46 1.28
1 -2 -1 36.34 1.29
-1 -2 1 31.61 1.28
1 -2 -1 36.64 1.29
-1 2 -1 36.66 1.29
-1 -2 1 31.26 1.28
1 2 1 31.23 1.29
1 -2 -1 35.88 1.29
-1 -2 1 30.48 1.29
-1 -2 1 30.95 1.28
-2 -2 -1 90.85 3.33
-2 2 1 83.18 3.44
2 -2 1 87.92 3.35
-2 -2 -1 90.88 3.61
2 -2 1 84.52 3.34
-2 2 1 85.51 3.41
-2 -2 -1 90.17 3.33
-2 -2 -1 88.24 3.33
2 -2 1 83.94 3.34
-2 2 -1 87.66 3.34
-2 -2 1 85.03 3.35
2 -2 -1 91.85 3.38
2 2 1 85.05 3.33
-2 -2 1 85.88 3.32
2 -2 -1 89.45 3.34
2 -2 -1 87.63 3.35
-2 -2 1 84.4 3.34
-2 -2 1 83.54 3.33
-2 -2 1 84.23 3.32
-3 -2 -1 35.91 1.4
-3 2 1 37.23 1.41
-3 -2 -1 35.07 1.41
3 -2 1 37.43 1.41
-3 -2 -1 35.48 1.4
-3 2 1 37.11 1.41
3 -2 1 36.72 1.41
-3 -2 -1 35.37 1.41
-3 -2 1 38.06 1.4
3 -2 -1 35.11 1.41
-3 2 -1 35.07 1.41
-3 -2 1 37.97 1.41
3 -2 -1 35.89 1.41
-3 -2 1 38.44 1.42
-3 -2 1 38.04 1.41
3 -2 -1 34.28 1.41
3 2 1 39.59 1.41
-3 -2 1 37.47 1.4
-3 2 -1 33.88 1.41
4 -2 1 92.42 3.6
4 -2 1 91.74 3.61
-4 2 1 92.97 3.59
-4 2 1 95.48 3.6
-4 -2 -1 95.86 3.69
-4 -2 -1 95.55 3.59
-4 -2 -1 95.72 3.6
-4 -2 -1 96.71 3.6
-4 2 1 91.2 3.59
4 -2 1 90.7 3.59
-4 -2 1 93.39 3.58
-4 -2 1 90.45 3.59
-4 -2 1 93.19 3.6
4 2 1 91.35 3.59
4 -2 -1 97.66 3.61
4 -2 -1 96.36 3.6
-4 2 -1 95.01 3.82
-4 2 -1 95.53 3.82
-4 -2 1 89.47 3.58
-4 -2 1 89.44 3.59
-5 -2 -1 41.76 1.66
-5 -2 -1 43.33 1.66
-5 2 1 43.48 1.66
-5 -2 -1 42.02 1.66
5 -2 1 43.19 1.66
-5 2 1 43.13 1.66
5 2 -1 42.25 1.67
-5 2 1 44.29 1.66
-5 -2 -1 43.56 1.66
5 -2 1 44.31 1.67
-5 -2 1 42.96 1.66
5 -2 -1 42.83 1.67
-5 2 -1 43.36 1.66
-5 2 -1 42.7 1.65
-5 -2 1 42.93 1.65
-5 -2 1 43.42 1.65
5 2 1 44.91 1.73
-5 -2 1 42.63 1.66
5 -2 -1 42.49 1.66
-5 2 -1 42.85 1.66
-6 2 1 33.95 1.31
-6 -2 -1 34.36 1.31
6 -2 1 34.19 1.32
-6 2 1 33.76 1.31
6 2 -1 33.82 1.32
-6 -2 -1 34.32 1.32
6 -2 1 34.19 1.32
-6 2 1 34.29 1.32
-6 -2 -1 34.53 1.31
-6 -2 -1 33.72 1.32
-6 -2 1 33.77 1.31
-6 -2 1 33.69 1.31
-6 2 -1 33.28 1.31
-6 2 -1 34.7 1.31
-6 -2 1 34.15 1.31
-6 -2 1 34.62 1.32
6 2 1 34.64 1.31
6 -2 -1 33.6 1.32
6 -2 -1 32.77 1.32
-6 2 -1 33.95 1.32
7 2 -1 8.3 0.32
-7 -2 -1 8.47 0.32
-7 2 1 7.58 0.31
-7 2 1 7.76 0.33
-7 2 1 7.47 0.31
7 -2 1 7.37 0.32
-7 -2 -1 8.61 0.32
7 -2 1 7.34 0.33
-7 -2 -1 8.23 0.32
-7 -2 -1 8.47 0.32
-7 2 -1 8.61 0.32
-7 -2 1 7.4 0.31
-7 -2 1 7.32 0.31
-7 2 -1 8.37 0.33
7 -2 -1 8.57 0.33
-7 -2 1 7.53 0.31
-7 2 -1 8.43 0.31
7 2 1 7.58 0.32
-7 -2 1 7.09 0.32
7 -2 -1 8.36 0.33
8 2 -1 40 1.58
-8 -2 -1 41.03 1.58
-8 2 1 41.53 1.58
8 -2 1 42.39 1.58
-8 2 1 41.72 1.57
-8 -2 -1 41.66 1.57
-8 2 1 41.64 1.57
8 -2 1 41.21 1.59
-8 -2 -1 39.23 1.58
-8 -2 -1 41.44 1.57
-8 -2 1 40.11 1.58
-8 -2 1 39.56 1.57
-8 -2 1 41.58 1.57
-8 2 -1 40.43 1.57
8 -2 -1 40.61 1.58
8 2 1 41.81 1.57
8 -2 -1 39 1.59
-8 -2 1 41.29 1.57
-8 2 -1 39.74 1.58
-8 2 -1 39.58 1.57
-9 -2 -1 8.81 0.33
9 2 -1 8.67 0.33
-9 -2 -1 8.63 0.33
-9 2 1 7.43 0.32
-9 2 1 7.36 0.33
9 -2 1 7.41 0.33
-9 -2 -1 8.71 0.33
-9 2 1 7.32 0.32
-9 -2 -1 8.78 0.32
9 -2 1 7.57 0.34
9 -2 -1 8.55 0.33
-9 2 -1 8.6 0.32
9 -2 -1 8.65 0.34
-9 -2 1 7.37 0.32
-9 -2 1 7.43 0.33
-9 2 -1 8.93 0.34
-9 -2 1 7.61 0.32
9 2 1 7.41 0.32
-9 -2 1 7.34 0.32
-9 2 -1 8.54 0.32
-10 2 1 7.46 0.31
10 -2 1 7.6 0.33
-10 2 1 7.72 0.33
-10 2 1 7.63 0.31
10 -2 1 7.69 0.33
-10 -2 -1 7.91 0.32
-10 -2 -1 8.01 0.32
-10 -2 -1 7.82 0.32
10 2 -1 7.74 0.33
-10 -2 1 7.44 0.31
-10 2 -1 7.93 0.31
10 -2 -1 8.06 0.33
10 2 1 7.68 0.32
-10 2 -1 7.56 0.33
10 -2 -1 8.14 0.34
-10 -2 1 7.96 0.32
-10 2 -1 8.04 0.32
-10 -2 1 7.77 0.32
-11 -2 -1 14.05 0.57
11 -2 1 14.87 0.59
11 2 -1 14.46 0.58
-11 2 1 15.4 0.56
-11 2 1 14.55 0.57
-11 -2 -1 14.14 0.57
-11 -2 -1 13.98 0.57
-11 2 1 14.08 0.58
11 -2 1 14.48 0.58
-11 2 -1 13.77 0.56
11 -2 -1 13.94 0.58
-11 -2 1 14.6 0.58
11 2 1 14.67 0.57
-11 2 -1 13.99 0.56
-11 -2 1 14.59 0.57
-11 2 -1 14 0.58
11 -2 -1 13.38 0.58
12 2 -1 7.54 0.32
-12 -2 -1 7.55 0.31
-12 2 1 7.05 0.32
-12 -2 -1 7.74 0.32
-12 -2 -1 8.17 0.31
-12 2 1 6.89 0.3
12 -2 1 6.73 0.32
-12 -2 1 7.13 0.31
-12 2 -1 7.98 0.3
12 2 1 6.98 0.31
-12 2 -1 7.34 0.3
-12 2 -1 7.75 0.32
-12 -2 1 6.96 0.3
12 -2 -1 7.67 0.33
-13 -2 -1 7.31 0.31
-13 -2 -1 7.13 0.32
13 -2 1 7.61 0.33
-13 2 1 7.64 0.31
-13 2 1 7.54 0.32
13 2 -1 6.97 0.32
-13 -2 -1 7.13 0.31
-13 2 -1 7.28 0.32
13 2 1 7.58 0.31
-13 -2 1 7.38 0.31
-13 2 -1 6.96 0.3
-13 -2 1 7.91 0.32
13 -2 -1 7.34 0.33
-13 2 -1 7.41 0.3
-14 -2 -1 4.43 0.2
-14 2 1 4.24 0.21
-14 2 1 4.26 0.2
14 2 -1 4.32 0.21
-14 -2 -1 4.39 0.21
14 -2 1 4.51 0.22
-14 -2 1 4.74 0.21
-14 2 -1 4.31 0.19
14 -2 -1 4.4 0.22
-14 2 -1 4.62 0.21
-14 -2 1 4.4 0.2
14 2 1 4.27 0.21
-15 2 1 1.4 0.09
15 -2 1 1.03 0.11
-15 -2 -1 1.38 0.1
-15 2 1 1.34 0.1
15 2 -1 1.45 0.11
-15 -2 -1 1.41 0.09
-15 2 -1 1.44 0.08
-15 2 -1 1.5 0.11
15 -2 -1 1.27 0.12
-15 -2 1 1.33 0.1
-15 -2 1 1.24 0.09
-16 2 1 3.34 0.18
-16 -2 -1 3.19 0.17
16 2 -1 3.34 0.18
-16 2 1 3.41 0.16
16 -2 1 3.55 0.2
-16 -2 -1 3.23 0.18
-16 -2 1 3.27 0.17
-16 -2 1 3.51 0.18
16 -2 -1 3.4 0.2
-17 -2 -1 0.84 0.08
17 -2 1 0.94 0.1
17 2 -1 0.86 0.09
-17 2 1 1.01 0.1
-17 -2 -1 0.92 0.09
-17 -2 1 0.78 0.09
-17 -2 1 0.79 0.08
17 -2 -1 0.84 0.1
0 -3 1 21.89 0.87
0 -3 -1 22.59 0.87
0 -3 1 23.2 0.87
0 3 -1 22.59 0.88
0 -3 1 22.18 0.87
0 -3 -1 22.45 0.87
0 -3 -1 22.84 0.88
0 3 1 22.7 0.87
0 -3 -1 22.46 0.88
0 -3 1 22.28 0.88
-1 -3 -1 112.71 4.3
1 -3 1 111.23 4.3
1 -3 1 110.39 4.32
-1 -3 -1 112.14 4.4
-1 3 1 113.84 4.29
-1 -3 -1 109.63 4.31
-1 -3 -1 111.44 4.29
1 3 -1 109.74 4.3
1 -3 1 114.88 4.3
1 -3 -1 110.64 4.3
-1 3 -1 113.36 4.45
-1 -3 1 111.39 4.29
-1 -3 1 109.03 4.28
1 -3 -1 112.69 4.4
1 -3 -1 109.9 4.3
1 3 1 110.75 4.3
1 -3 -1 113.18 4.5
-1 -3 1 111.16 4.29
-1 3 -1 118.88 4.28
-1 -3 1 110.12 4.31
-2 -3 -1 10.92 0.41
2 -3 1 10.78 0.42
-2 -3 -1 10.76 0.42
-2 -3 -1 11.03 0.43
-2 -3 -1 10.8 0.41
-2 3 1 10.63 0.42
2 -3 1 10.01 0.43
2 -3 1 10.36 0.42
-2 3 -1 10.91 0.42
2 3 1 10.66 0.42
-2 -3 1 10.19 0.42
-2 -3 1 10.63 0.42
-2 -3 1 10.12 0.41
2 -3 -1 10.88 0.42
-2 -3 1 10.68 0.41
2 -3 -1 10.46 0.42
2 -3 -1 10.62 0.42
-2 -3 1 10.47 0.43
2 -3 -1 10.96 0.42
-3 -3 -1 219.06 8.76
-3 3 1 228.93 8.74
3 -3 1 226.84 8.91
-3 -3 -1 221.95 8.64
3 -3 1 221.93 8.65
-3 -3 -1 227.11 8.76
3 -3 1 227.92 8.63
-3 -3 -1 218.67 8.82
-3 -3 1 227.4 8.77
3 -3 -1 228.86 9.06
-3 -3 1 226.33 8.86
-3 3 -1 221.74 8.63
3 3 1 233.24 9.02
-3 -3 1 220.26 8.64
3 -3 -1 224.02 9.04
3 -3 -1 225.24 8.96
-4 -3 -1 37.16 1.44
-4 -3 -1 37.83 1.44
-4 -3 -1 36.1 1.44
4 -3 1 38.17 1.45
-4 3 1 37.99 1.45
-4 -3 -1 38.12 1.45
4 -3 1 35.99 1.46
-4 3 1 36.94 1.44
4 -3 -1 37.52 1.45
4 3 1 36.59 1.45
-4 -3 1 37.63 1.45
-4 -3 1 37.27 1.44
-4 3 -1 38.43 1.45
4 -3 -1 37.73 1.45
4 -3 -1 37.56 1.45
-4 -3 1 37.63 1.44
-5 -3 -1 142.32 5.45
-5 -3 -1 134.9 5.47
5 -3 1 143.81 5.47
-5 3 1 148.05 5.48
-5 -3 -1 142.01 5.45
5 -3 1 143.1 5.53
-5 3 1 144.82 5.45
-5 3 1 144.61 5.47
-5 3 -1 138.2 5.47
-5 3 -1 140.78 5.47
-5 -3 1 144.29 5.47
5 3 1 140.54 5.46
5 -3 -1 141.44 5.47
-5 -3 1 146.51 5.47
5 -3 -1 139.16 5.49
5 3 1 145.46 5.47
-5 -3 1 137.68 5.62
-6 3 1 2.26 0.11
6 -3 1 2.25 0.11
-6 3 1 2.34 0.11
-6 3 1 2.26 0.1
-6 -3 -1 2.34 0.1
-6 -3 -1 2.36 0.11
-6 -3 -1 2.53 0.11
6 3 -1 2.39 0.11
6 -3 1 2.27 0.12
-6 -3 -1 2.33 0.1
6 -3 -1 2.33 0.12
-6 -3 1 2.06 0.09
-6 -3 1 2.11 0.1
6 3 1 2.24 0.1
-6 3 -1 2.45 0.11
6 -3 -1 2.25 0.11
-6 -3 1 2.2 0.11
-6 3 -1 2.51 0.11
-6 -3 1 2.15 0.09
-7 3 1 38.81 1.47
-7 -3 -1 38.73 1.48
7 3 -1 38.62 1.48
-7 -3 -1 38.68 1.47
7 -3 1 39.06 1.48
-7 -3 -1 38.11 1.48
7 -3 1 37.98 1.49
-7 -3 -1 38.63 1.47
-7 3 1 38.47 1.47
-7 3 1 37.42 1.48
-7 -3 1 37.83 1.46
-7 -3 1 37.86 1.48
-7 3 -1 37.35 1.47
7 -3 -1 38.27 1.49
7 3 1 38.07 1.47
-7 -3 1 36.86 1.46
-7 -3 1 37.86 1.47
-7 3 -1 38.4 1.46
7 -3 -1 37.57 1.48
-7 3 -1 38.25 1.48
8 -3 1 8.42 0.36
-8 3 1 8.64 0.34
8 -3 1 9.01 0.36
-8 -3 -1 8.62 0.35
-8 3 1 8.79 0.34
-8 -3 -1 8.67 0.35
-8 3 1 8.59 0.36
8 3 -1 8.33 0.35
-8 -3 -1 8.42 0.34
-8 -3 -1 8.47 0.34
-8 3 -1 8.51 0.33
8 3 1 8.81 0.34
8 -3 -1 8.03 0.36
8 -3 -1 8.41 0.35
-8 -3 1 8.61 0.34
-8 -3 1 8.42 0.34
-8 -3 1 8.71 0.34
-8 -3 1 8.44 0.35
-8 3 -1 8.67 0.35
-9 -3 -1 24.56 0.94
-9 3 1 23.9 0.94
-9 -3 -1 24.62 0.95
-9 3 1 23.11 0.94
9 -3 1 23.83 0.96
-9 -3 -1 24.89 0.95
9 -3 1 23.78 0.95
-9 -3 -1 24.12 0.94
-9 3 1 23.86 0.95
9 3 -1 24.95 0.95
-9 -3 1 24.4 0.93
-9 -3 1 23.68 0.94
-9 3 -1 24.47 0.95
-9 3 -1 24.59 0.94
9 3 1 23.62 0.94
9 -3 -1 24.64 0.96
9 -3 -1 24 0.95
-9 -3 1 24.32 0.95
-9 -3 1 23.22 0.93
10 -3 1 3.68 0.19
-10 3 1 3.62 0.16
10 -3 1 3.84 0.18
-10 3 1 3.48 0.17
-10 -3 -1 3.74 0.16
10 3 -1 3.78 0.17
-10 3 1 3.65 0.16
-10 -3 -1 3.73 0.17
-10 -3 -1 3.94 0.18
10 3 1 3.71 0.16
10 -3 -1 3.67 0.18
-10 3 -1 3.86 0.16
-10 -3 1 3.67 0.16
10 -3 -1 3.84 0.19
-10 -3 1 3.64 0.16
-10 -3 1 3.66 0.17
-11 3 1 24.11 0.95
-11 3 1 25.02 0.95
11 -3 1 24.8 0.98
11 3 -1 24.21 0.96
-11 -3 -1 24.2 0.95
-11 -3 -1 23.34 0.96
11 -3 1 25.04 0.96
-11 3 1 24.3 0.98
-11 -3 -1 23.99 0.96
11 3 1 24.17 0.95
-11 -3 1 24.27 0.95
11 -3 -1 23.59 0.96
-11 3 -1 24.43 0.95
-11 -3 1 25.16 0.96
12 3 -1 2.74 0.15
-12 -3 -1 2.81 0.15
-12 -3 -1 2.99 0.14
-12 3 1 2.81 0.13
12 -3 1 2.87 0.15
-12 3 1 2.74 0.13
-12 -3 -1 2.94 0.14
12 -3 1 2.93 0.17
-12 -3 1 2.76 0.13
12 -3 -1 2.88 0.17
-12 -3 1 2.92 0.15
-12 3 -1 3.03 0.14
-13 -3 -1 12.82 0.53
-13 -3 -1 12.79 0.52
13 3 -1 12.88 0.53
-13 -3 -1 12.77 0.52
13 -3 1 13.15 0.55
13 -3 -1 12.61 0.55
-13 -3 1 12.78 0.51
-13 3 -1 12.84 0.52
-13 -3 1 13.67 0.53
14 -3 1 0.21 0.06
14 3 -1 0.13 0.04
-14 -3 -1 0.17 0.05
-14 -3 -1 0.24 0.04
-14 3 -1 0.15 0.03
-14 -3 1 0.21 0.04
14 -3 -1 0.14 0.06
-14 -3 1 0.21 0.05
-15 -3 -1 2.29 0.14
15 -3 1 2.19 0.15
15 3 -1 2.33 0.14
-15 -3 -1 2.2 0.12
-15 -3 1 2.01 0.13
-15 -3 1 2.01 0.11
15 -3 -1 2.2 0.15
-15 3 -1 2.39 0.12
16 -3 1 0.65 0.09
16 3 -1 0.76 0.08
-16 -3 -1 0.72 0.07
-16 -3 -1 0.68 0.08
16 -3 -1 0.76 0.1
-16 -3 1 0.86 0.07
-16 -3 1 0.64 0.08
17 -3 1 1.05 0.12
-17 -3 -1 1.1 0.08
17 3 -1 1.06 0.1
-17 -3 -1 1.09 0.1
-17 -3 1 1.06 0.08
17 -3 -1 1.03 0.12
-17 -3 1 0.93 0.1
0 4 -1 27.32 1.02
0 -4 -1 26.12 1.03
0 -4 -1 26.45 1.04
0 -4 1 25.68 1.02
0 4 -1 26.01 1.03
0 -4 -1 25.57 1.03
0 -4 1 26.95 1.04
0 -4 -1 26.68 1.04
0 4 1 27.02 1.03
0 -4 1 27.57 1.02
-1 -4 -1 11.07 0.4
-1 4 1 9.21 0.39
1 -4 1 9.01 0.39
1 -4 1 8.45 0.39
-1 -4 -1 10.28 0.4
-1 -4 -1 10.72 0.39
1 -4 1 8.35 0.4
1 4 -1 10.68 0.4
-1 -4 -1 10.85 0.39
-1 4 -1 11.11 0.38
1 4 1 8.92 0.39
1 -4 -1 10.8 0.4
-1 -4 1 8.61 0.39
-1 -4 1 8.7 0.38
1 -4 -1 10.89 0.4
1 -4 -1 11.1 0.4
1 -4 -1 10.65 0.39
-1 4 -1 11 0.4
-1 -4 1 9.06 0.39
-1 -4 1 8.94 0.4
-2 -4 -1 17.62 0.68
-2 -4 -1 17.35 0.69
2 -4 1 18.17 0.69
-2 -4 -1 17.19 0.68
-2 4 1 17.84 0.68
-2 -4 -1 17.1 0.7
2 -4 1 17.52 0.69
2 -4 1 17.57 0.7
-2 4 -1 17.3 0.69
2 4 1 17.95 0.69
-2 -4 1 18.37 0.7
-2 -4 1 17.18 0.69
2 -4 -1 17.45 0.7
2 -4 -1 17.58 0.69
2 -4 -1 16.92 0.7
-2 -4 1 18.13 0.69
2 -4 -1 17.96 0.69
-2 -4 1 18.05 0.68
-2 4 -1 17.57 0.68
-3 4 1 19.8 0.76
-3 -4 -1 18.8 0.77
-3 -4 -1 19.13 0.75
-3 -4 -1 18.75 0.76
3 -4 1 19.86 0.76
3 -4 1 19.5 0.78
3 -4 1 20.54 0.77
-3 -4 -1 19.38 0.75
-3 -4 1 19.91 0.76
3 4 1 20.01 0.76
3 -4 -1 19.71 0.77
3 -4 -1 19.54 0.77
-3 -4 1 19.72 0.77
-3 -4 1 20.06 0.77
3 -4 -1 19.4 0.77
3 -4 -1 19.12 0.77
-3 4 -1 18.72 0.77
-4 -4 -1 48.67 1.9
4 -4 1 50.3 1.9
4 -4 1 49.27 1.92
-4 -4 -1 48.29 1.89
-4 -4 -1 49.23 1.91
-4 4 1 49.6 1.89
-4 -4 -1 50.09 1.89
-4 4 1 49.61 1.91
-4 -4 1 49.19 1.91
4 -4 -1 48.6 1.91
4 4 1 49.26 1.9
-4 -4 1 49.42 1.9
4 -4 -1 49.38 1.9
-4 -4 1 50.03 1.91
-4 4 -1 49.08 1.91
-5 4 1 20.82 0.78
-5 -4 -1 19.59 0.78
-5 4 1 20.33 0.8
5 -4 1 21.19 0.8
-5 -4 -1 19.26 0.8
-5 -4 -1 20.22 0.78
-5 -4 -1 18.8 0.79
5 -4 1 20.43 0.81
-5 -4 1 21.26 0.79
5 -4 -1 19.19 0.8
5 4 1 21.01 0.8
5 -4 -1 19.99 0.8
-5 -4 1 20.85 0.8
-5 4 -1 19.9 0.79
-5 -4 1 20.62 0.79
6 -4 1 4.16 0.2
-6 -4 -1 4.06 0.16
6 -4 1 4.26 0.18
-6 -4 -1 4.16 0.19
-6 4 1 4.11 0.18
-6 4 1 4.15 0.17
-6 -4 -1 4.08 0.16
-6 -4 1 3.89 0.18
6 4 1 4.06 0.17
6 4 1 4.13 0.18
-6 -4 1 4.18 0.18
-6 -4 1 4.46 0.18
6 -4 -1 4.07 0.18
6 -4 -1 4.14 0.19
-6 4 -1 4.07 0.18
-7 4 1 4.51 0.21
-7 4 1 4.69 0.2
-7 -4 -1 5.64 0.2
7 4 -1 5.56 0.22
-7 -4 -1 5.52 0.22
7 -4 1 4.74 0.22
7 -4 1 4.78 0.23
-7 -4 -1 5.52 0.2
-7 -4 1 4.49 0.22
7 4 1 4.6 0.21
-7 -4 1 4.33 0.21
7 -4 -1 5.86 0.24
7 4 1 4.37 0.22
7 -4 -1 5.67 0.22
8 -4 1 5.56 0.24
8 -4 1 5.51 0.25
-8 -4 -1 5.43 0.22
-8 4 1 5.8 0.22
8 4 -1 5.34 0.24
-8 -4 -1 5.33 0.24
-8 4 1 5.57 0.23
-8 -4 -1 5.62 0.24
-8 -4 -1 5.32 0.22
8 -4 -1 5.21 0.25
8 4 1 5.6 0.24
-8 -4 1 5.46 0.23
-8 -4 1 5.69 0.24
8 -4 -1 5.28 0.24
-8 4 -1 5.34 0.23
8 4 1 5.51 0.23
-9 -4 -1 3.24 0.15
-9 -4 -1 3.33 0.13
9 4 -1 3.31 0.15
9 -4 1 2.73 0.16
-9 -4 -1 3.29 0.13
9 -4 1 2.55 0.15
-9 -4 -1 3.34 0.15
-9 4 1 2.71 0.14
9 -4 -1 3.22 0.17
9 -4 -1 3.15 0.15
-9 -4 1 2.65 0.14
-9 -4 1 2.61 0.15
-9 4 -1 3.51 0.15
-10 -4 -1 3.62 0.18
10 4 -1 3.86 0.18
10 -4 1 3.91 0.2
-10 4 1 3.82 0.17
10 -4 1 3.98 0.18
-10 -4 -1 3.65 0.16
-10 -4 -1 3.67 0.18
-10 -4 1 3.74 0.15
-10 -4 1 3.76 0.15
-10 4 -1 3.91 0.17
10 -4 -1 3.73 0.18
10 -4 -1 3.61 0.2
-10 -4 1 3.8 0.18
11 -4 1 8.08 0.35
11 4 -1 7.82 0.33
-11 -4 -1 7.42 0.33
11 -4 1 7.75 0.33
-11 -4 -1 7.64 0.33
-11 -4 -1 7.58 0.31
-11 4 1 7.99 0.32
-11 -4 1 7.66 0.3
-11 -4 1 7.76 0.33
11 -4 -1 7.58 0.35
11 -4 -1 7.64 0.33
-11 4 -1 7.31 0.32
-11 -4 1 7.7 0.3
-12 -4 -1 4.13 0.21
12 -4 1 4.66 0.21
-12 4 1 4.52 0.19
-12 -4 -1 4.25 0.18
12 -4 1 4.34 0.23
12 4 -1 4.24 0.2
-12 -4 -1 4.23 0.2
-12 4 -1 4.36 0.19
-12 -4 1 4.19 0.18
-12 -4 1 4.1 0.2
12 -4 -1 4.29 0.21
12 -4 -1 4.18 0.23
13 4 -1 3.98 0.2
-13 -4 -1 4.11 0.2
13 -4 1 4.52 0.23
-13 -4 -1 4.03 0.18
-13 -4 -1 3.91 0.2
-13 -4 1 4.26 0.2
13 -4 -1 3.9 0.22
-13 4 -1 4.12 0.19
-13 -4 1 4.16 0.17
14 4 -1 0.24 0.05
14 -4 1 0.2 0.06
-14 -4 -1 0.19 0.05
-14 -4 -1 0.26 0.04
-14 -4 1 0.19 0.05
14 -4 -1 0.15 0.06
-14 4 -1 0.2 0.04
-14 -4 1 0.2 0.03
15 -4 1 0.58 0.09
15 4 -1 0.63 0.07
-15 -4 -1 0.61 0.06
-15 -4 -1 0.65 0.08
-15 -4 1 0.5 0.07
-15 -4 1 0.52 0.05
15 -4 -1 0.7 0.1
-15 4 -1 0.65 0.06
-16 -4 -1 0.14 0.03
-16 -4 -1 0.07 0.05
16 -4 1 0.08 0.05
-16 -4 1 0.12 0.05
16 -4 -1 0.19 0.07
-16 -4 1 0.16 0.03
0 -5 -1 0.66 0.04
0 5 -1 0.69 0.04
0 5 -1 0.66 0.06
0 -5 -1 0.72 0.04
0 5 1 0.45 0.04
0 -5 -1 0.68 0.06
0 -5 1 0.41 0.05
0 -5 -1 0.75 0.06
1 5 -1 7.14 0.29
-1 -5 -1 7.18 0.28
1 -5 1 6.6 0.3
-1 -5 -1 7.51 0.3
1 -5 1 6.66 0.28
-1 -5 -1 7.11 0.28
-1 5 1 6.74 0.28
1 5 -1 7.11 0.28
-1 -5 -1 7.23 0.29
1 -5 1 6.83 0.28
-1 -5 1 6.76 0.3
-1 5 -1 7.02 0.29
1 -5 -1 7.16 0.3
-1 -5 1 6.51 0.27
1 -5 -1 7.15 0.3
1 -5 -1 7.29 0.28
1 5 1 6.72 0.28
-1 -5 1 6.69 0.27
2 5 -1 6.55 0.29
-2 -5 -1 6.73 0.29
-2 -5 -1 6.76 0.27
2 -5 1 7.22 0.3
-2 5 1 7.15 0.28
2 -5 1 7.17 0.28
-2 -5 -1 6.81 0.29
-2 -5 -1 6.76 0.27
-2 5 -1 6.98 0.29
2 -5 -1 6.67 0.29
2 5 1 6.15 0.28
-2 -5 1 7.24 0.26
-2 -5 1 7.08 0.3
2 -5 -1 6.41 0.29
2 -5 -1 6.71 0.28
-3 -5 -1 21.65 0.87
3 -5 1 22.43 0.87
-3 -5 -1 21.8 0.88
3 -5 1 22.11 0.89
-3 5 1 22.3 0.86
-3 -5 -1 22.27 0.86
-3 -5 -1 22.3 0.86
-3 5 -1 21.87 0.88
3 5 1 22.54 0.87
3 -5 -1 22.44 0.87
-3 -5 1 22.52 0.87
3 -5 -1 21.76 0.88
3 -5 -1 22.77 0.88
-3 -5 1 22.75 0.88
-3 -5 1 22.26 0.88
-4 -5 -1 1.7 0.07
-4 -5 -1 1.7 0.09
-4 -5 -1 1.82 0.07
4 -5 1 1.75 0.09
-4 5 1 1.66 0.1
-4 -5 -1 1.75 0.1
-4 5 1 1.61 0.08
4 -5 1 1.69 0.11
-4 -5 1 1.93 0.09
4 -5 -1 1.67 0.09
4 -5 -1 1.84 0.11
-4 -5 1 1.78 0.1
-4 5 -1 1.84 0.1
4 5 1 1.7 0.09
-4 -5 1 1.73 0.1
5 -5 1 14.4 0.56
-5 5 1 14.2 0.56
-5 -5 -1 13.68 0.56
5 -5 1 14.82 0.58
-5 -5 -1 13.69 0.57
-5 -5 1 13.89 0.56
5 5 1 14.33 0.56
5 -5 -1 13.78 0.56
-5 -5 1 13.98 0.57
-5 -5 1 14.13 0.56
5 -5 -1 13.51 0.57
-5 5 -1 13.73 0.56
6 -5 1 3.33 0.15
-6 5 1 3.25 0.15
-6 -5 -1 3.23 0.16
6 -5 1 3.07 0.17
6 -5 -1 3.18 0.15
6 5 1 3.1 0.15
-6 5 -1 3.17 0.15
-6 -5 1 3.15 0.15
6 -5 -1 3.17 0.17
-6 -5 1 3.16 0.15
-6 -5 1 3.26 0.16
7 -5 1 2.57 0.15
-7 -5 -1 2.84 0.14
7 -5 1 2.49 0.13
-7 5 1 2.56 0.13
7 -5 -1 2.91 0.15
-7 5 -1 2.76 0.13
-7 -5 1 2.67 0.13
-7 -5 1 2.58 0.13
7 5 1 2.47 0.13
7 -5 -1 2.7 0.14
-7 -5 1 2.53 0.13
8 5 -1 0.63 0.06
-8 5 1 0.65 0.06
8 -5 1 0.64 0.06
-8 -5 -1 0.75 0.07
8 -5 1 0.58 0.07
8 -5 -1 0.9 0.07
8 -5 -1 0.79 0.08
-8 -5 1 0.65 0.06
-8 -5 1 0.69 0.06
8 5 1 0.56 0.06
-8 5 -1 0.71 0.06
9 5 -1 2.64 0.13
9 -5 1 2.4 0.13
9 -5 1 2.4 0.15
-9 5 1 2.44 0.13
-9 -5 -1 2.84 0.14
9 -5 -1 2.57 0.14
-9 -5 1 2.29 0.13
9 -5 -1 2.59 0.15
-9 5 -1 2.57 0.13
-9 -5 1 2.3 0.13
9 5 1 2.4 0.13
10 -5 1 3.93 0.19
-10 5 1 3.73 0.17
-10 -5 -1 3.72 0.18
10 -5 1 3.88 0.21
10 5 -1 3.7 0.18
10 5 1 3.51 0.18
-10 5 -1 3.53 0.17
-10 -5 1 3.75 0.18
10 -5 -1 3.51 0.18
10 -5 -1 3.73 0.2
-11 5 1 4.24 0.19
11 5 -1 4.03 0.2
-11 -5 -1 4.18 0.2
11 -5 1 4.43 0.21
11 -5 1 4.14 0.23
11 -5 -1 4.24 0.23
11 -5 -1 3.87 0.2
-11 -5 1 4.49 0.21
-11 5 -1 4.02 0.19
11 5 1 4.31 0.21
-12 -5 -1 1.07 0.09
-12 5 1 1.17 0.08
-12 -5 -1 1.06 0.05
-12 -5 -1 1.06 0.05
12 5 -1 1.03 0.09
12 -5 1 1.23 0.1
12 -5 1 1.07 0.12
-12 -5 1 1.29 0.1
12 5 1 1.09 0.1
12 -5 -1 1.01 0.11
-12 5 -1 1.04 0.08
12 -5 -1 1.12 0.1
13 -5 1 1.78 0.12
-13 -5 -1 1.55 0.07
13 -5 1 1.76 0.14
-13 5 -1 1.69 0.1
13 5 1 1.8 0.12
-13 -5 1 1.93 0.12
13 -5 -1 1.44 0.13
14 -5 1 0.26 0.07
-14 -5 -1 0.34 0.03
14 5 1 0.34 0.06
-14 -5 1 0.36 0.06
14 -5 -1 0.33 0.08
-14 5 -1 0.37 0.05
0 6 -1 22.84 0.92
0 -6 -1 22.79 0.93
0 -6 -1 22.77 0.91
0 -6 -1 22.95 0.92
0 6 1 23.92 0.91
0 -6 1 23.69 0.93
0 -6 1 23.95 0.9
-1 -6 -1 0.32 0.03
1 6 -1 0.38 0.05
1 -6 1 0.31 0.03
1 -6 1 0.38 0.06
-1 -6 -1 0.5 0.06
-1 -6 -1 0.46 0.05
-1 -6 1 0.34 0.03
-1 -6 1 0.31 0.06
1 -6 -1 0.37 0.06
-1 6 -1 0.41 0.06
-1 -6 1 0.34 0.03
1 -6 -1 0.39 0.06
1 -6 -1 0.39 0.04
1 6 1 0.39 0.04
-2 -6 -1 15.28 0.62
-2 -6 -1 15.1 0.61
2 -6 1 15.47 0.6
-2 -6 -1 14.26 0.59
2 6 -1 14.67 0.61
-2 -6 -1 14.93 0.59
2 -6 1 15.4 0.62
2 -6 -1 15.23 0.61
-2 -6 1 15.47 0.62
2 -6 -1 15.33 0.62
-2 6 -1 15.11 0.61
2 6 1 14.96 0.6
2 -6 -1 15.2 0.6
3 -6 1 1.71 0.09
-3 -6 -1 1.55 0.07
-3 -6 -1 1.57 0.07
-3 -6 -1 1.57 0.11
-3 6 1 1.57 0.11
3 6 -1 1.57 0.1
-3 -6 -1 1.45 0.1
3 -6 1 1.69 0.12
-3 6 -1 1.67 0.1
-3 -6 1 1.62 0.11
3 -6 -1 1.55 0.11
3 -6 -1 1.67 0.09
4 -6 1 15.48 0.63
4 6 -1 14.77 0.6
-4 -6 -1 15.04 0.62
-4 6 1 15.51 0.62
4 -6 1 14.99 0.61
4 6 -1 15.05 0.62
4 -6 -1 15.38 0.63
4 6 1 15.75 0.61
4 -6 -1 15.45 0.61
-4 6 -1 14.68 0.61
-4 -6 1 15.48 0.62
5 -6 1 1.15 0.1
-5 -6 -1 1.28 0.1
5 -6 1 1.05 0.08
-5 6 1 1.12 0.09
-5 -6 1 1.19 0.08
5 -6 -1 1.02 0.1
5 -6 -1 1.04 0.08
-5 -6 1 1.06 0.09
5 6 1 1.2 0.08
-5 6 -1 0.97 0.08
-5 -6 1 1.23 0.09
-6 6 1 7.03 0.3
6 -6 1 6.95 0.3
6 -6 1 6.91 0.32
-6 -6 -1 6.95 0.31
6 -6 -1 7.07 0.3
-6 6 -1 6.75 0.3
-6 -6 1 7.09 0.3
-6 -6 1 6.98 0.3
6 6 1 6.64 0.3
-6 -6 1 7.13 0.3
6 -6 -1 7 0.32
-7 -6 -1 0.37 0.06
7 -6 1 0.29 0.05
-7 6 1 0.35 0.05
7 -6 1 0.38 0.07
7 6 1 0.32 0.05
-7 -6 1 0.36 0.05
7 -6 -1 0.39 0.07
7 -6 -1 0.39 0.05
-7 -6 1 0.29 0.05
-7 -6 1 0.32 0.05
-7 6 -1 0.36 0.05
8 -6 1 7.7 0.33
-8 6 1 7.77 0.33
-8 -6 -1 7.28 0.33
8 6 -1 7.55 0.33
8 -6 1 7.75 0.36
8 -6 -1 7.53 0.33
-8 -6 1 7.59 0.33
-8 6 -1 7.51 0.33
-8 -6 1 7.63 0.33
8 6 1 7.48 0.33
8 -6 -1 7.62 0.35
9 -6 1 0.16 0.06
-9 6 1 0.18 0.05
9 -6 1 0.13 0.04
-9 -6 -1 0.27 0.06
9 6 -1 0.18 0.05
-9 -6 1 0.16 0.05
9 -6 -1 0.16 0.05
9 -6 -1 0.22 0.06
-9 6 -1 0.15 0.04
9 6 1 0.07 0.04
-10 6 1 3.98 0.18
-10 -6 -1 3.52 0.19
10 6 -1 3.82 0.19
10 -6 1 3.67 0.19
10 -6 1 3.87 0.22
10 -6 -1 3.74 0.19
10 6 1 3.71 0.19
-10 6 -1 3.51 0.18
10 -6 -1 3.7 0.21
-10 -6 1 3.75 0.19
11 -6 1 0.54 0.09
-11 -6 -1 0.5 0.07
11 -6 1 0.46 0.07
-11 6 1 0.58 0.06
-11 -6 1 0.49 0.07
11 -6 -1 0.4 0.07
-11 6 -1 0.47 0.06
11 -6 -1 0.41 0.08
11 6 1 0.58 0.07
12 -6 1 1.72 0.12
12 -6 1 1.72 0.15
-12 6 1 1.77 0.11
12 -6 -1 1.73 0.13
-12 -6 1 1.6 0.12
12 6 1 1.74 0.12
-12 6 -1 1.81 0.11
12 -6 -1 1.55 0.14
0 -7 1 0.65 0.08
0 -7 -1 0.75 0.05
0 -7 1 0.73 0.05
0 7 -1 0.66 0.07
0 -7 -1 0.7 0.07
0 -7 -1 0.67 0.08
1 -7 1 1.74 0.09
1 7 -1 1.59 0.11
-1 -7 -1 1.74 0.08
1 -7 1 1.9 0.12
-1 -7 -1 1.84 0.12
-1 7 1 1.48 0.12
1 -7 -1 1.68 0.12
-1 -7 1 1.76 0.12
1 -7 -1 1.85 0.12
-1 7 -1 1.76 0.11
-1 -7 1 1.78 0.07
1 -7 -1 1.66 0.09
-2 -7 -1 1.02 0.09
-2 7 1 1.08 0.1
-2 -7 -1 1.01 0.05
2 -7 1 1.09 0.07
2 -7 1 1.24 0.1
2 7 -1 1.02 0.09
-2 7 -1 1.05 0.09
2 -7 -1 1.09 0.07
2 -7 -1 1.1 0.09
-2 -7 1 1.17 0.09
3 -7 1 0.43 0.05
3 -7 1 0.48 0.07
-3 7 1 0.41 0.06
3 7 -1 0.47 0.06
-3 -7 -1 0.41 0.06
-3 -7 1 0.47 0.06
-3 7 -1 0.45 0.06
3 -7 -1 0.42 0.05
3 -7 -1 0.48 0.07
-4 -7 -1 0.34 0.06
4 -7 1 0.29 0.06
4 7 -1 0.39 0.06
4 -7 1 0.32 0.04
-4 7 1 0.3 0.05
-4 -7 1 0.28 0.05
-4 7 -1 0.34 0.05
4 -7 -1 0.33 0.05
4 -7 -1 0.26 0.06
5 7 -1 0.32 0.05
-5 -7 -1 0.31 0.06
5 -7 1 0.34 0.05
-5 7 1 0.3 0.06
5 -7 1 0.28 0.06
5 -7 -1 0.35 0.07
-5 7 -1 0.42 0.06
5 -7 -1 0.35 0.05
5 7 1 0.38 0.05
-5 -7 1 0.42 0.06
-6 -7 -1 0.82 0.09
-6 7 1 0.7 0.08
6 -7 1 0.81 0.07
6 7 -1 0.71 0.07
6 -7 1 0.66 0.09
6 -7 -1 0.71 0.07
6 -7 -1 0.62 0.08
-6 -7 1 0.84 0.08
6 7 1 0.66 0.07
-6 7 -1 0.71 0.08
7 -7 1 1.03 0.11
-7 -7 -1 1.09 0.1
7 -7 1 1.05 0.09
-7 7 1 1.26 0.1
7 7 -1 1.03 0.09
7 -7 -1 0.92 0.1
7 -7 -1 1.09 0.09
-7 7 -1 1.04 0.1
-7 -7 1 1.03 0.09
7 7 1 1.13 0.09
-8 -7 -1 0.43 0.07
8 7 -1 0.47 0.06
8 -7 1 0.66 0.09
8 -7 1 0.47 0.06
-8 7 1 0.44 0.06
8 -7 -1 0.48 0.08
8 7 1 0.43 0.06
-8 -7 1 0.52 0.06
8 -7 -1 0.43 0.06
-8 7 -1 0.43 0.06
9 -7 1 0.29 0.07
9 -7 1 0.26 0.05
-9 7 1 0.3 0.05
-9 -7 -1 0.21 0.06
9 7 -1 0.29 0.05
9 -7 -1 0.24 0.05
9 -7 -1 0.25 0.07
-9 7 -1 0.32 0.06
9 7 1 0.23 0.05
0 -8 1 1.57 0.12
0 8 -1 1.52 0.11
0 8 1 1.38 0.12
0 -8 -1 1.33 0.08
-1 -8 -1 0.05 0.02
1 -8 1 0.05 0.05
1 -8 1 0.08 0.02
-1 -8 -1 0.07 0.05
1 8 -1 0 0.04
-1 8 1 0.06 0.05
-1 8 -1 0.07 0.05
-1 -8 1 0 0.05
1 -8 -1 0.07 0.03
1 8 1 0.1 0.06
2 -8 1 0.6 0.05
2 -8 1 0.58 0.08
-2 8 1 0.61 0.08
2 8 -1 0.55 0.07
-2 -8 -1 0.77 0.09
2 -8 -1 0.61 0.06
-2 8 -1 0.67 0.08
-2 -8 1 0.57 0.08
3 -8 1 0.06 0.03
-3 8 1 0.04 0.05
3 -8 1 0.01 0.05
3 8 -1 0.09 0.05
-3 -8 -1 0.1 0.05
3 -8 -1 0.15 0.04
-3 8 -1 0.04 0.05
-3 -8 1 0.03 0.04
3 -8 -1 0.08 0.05
-4 8 1 0.73 0.08
-4 -8 -1 0.62 0.08
4 8 -1 0.69 0.08
4 -8 1 0.73 0.1
4 -8 1 0.59 0.06
4 -8 -1 0.64 0.08
-4 8 -1 0.87 0.09
4 -8 -1 0.69 0.07
-4 -8 1 0.63 0.08
5 -8 1 0.06 0.03
5 -8 1 0.02 0.05
5 -8 -1 0.11 0.05
5 -8 -1 0.11 0.04
0 0 -2 746.23 29.67
0 0 -2 768.26 29.83
0 0 2 769.13 29.84
0 0 2 783.57 29.73
0 0 2 784.94 29.75
1 0 2 -0.01 0.01
1 0 -2 0.01 0.01
1 0 2 0.01 0.01
-1 0 2 0.01 0.01
1 0 2 0.05 0.01
-1 0 -2 -0.02 0.01
-1 0 -2 0 0.01
1 0 -2 0 0.01
-1 0 2 0 0.01
1 0 -2 0.01 0.01
2 0 -2 192.43 7.67
2 0 2 197.12 7.8
2 0 2 204.59 7.86
2 0 2 210.07 7.81
-2 0 2 198.26 7.87
2 0 -2 199.75 7.86
2 0 -2 187.95 7.83
-2 0 2 195.77 7.81
-2 0 -2 195.95 7.89
3 0 2 0.02 0.01
3 0 2 0.02 0.01
-3 0 2 0 0.01
3 0 -2 0.01 0.01
3 0 -2 0.01 0.01
-3 0 -2 0.01 0.01
-3 0 2 0 0.01
3 0 -2 0.01 0.01
3 0 2 0.01 0.01
-4 0 2 131.5 5.29
4 0 2 134.36 5.32
-4 0 -2 134.48 5.15
-4 0 -2 138.21 5.16
4 0 -2 134.66 5.39
-4 0 2 131.9 5.16
4 0 -2 132.57 5.5
4 0 -2 137.46 5.13
4 0 2 134.76 5.16
4 0 2 130.89 5.15
5 0 -2 0.02 0.01
5 0 -2 0.04 0.01
-5 0 2 0 0.01
-5 0 -2 0.01 0.01
5 0 2 0.02 0.01
-5 0 2 0 0.01
5 0 2 0.01 0.01
5 0 2 0.05 0.01
-5 0 -2 0.04 0.02
-6 0 -2 123.56 5.2
6 0 2 133.61 4.97
6 0 2 129.74 4.96
-6 0 -2 128.88 4.97
-6 0 2 127.74 4.97
6 0 2 132.93 4.96
6 0 -2 127.53 4.97
-6 0 2 131.18 4.96
6 0 -2 125.23 5.32
7 0 2 0.02 0.02
7 0 2 -0.01 0.02
-7 0 2 -0.01 0.02
-7 0 2 0.03 0.02
7 0 -2 0.02 0.02
-7 0 -2 0 0.02
-7 0 -2 -0.02 0.02
7 0 -2 0 0.02
7 0 2 -0.01 0.01
-8 0 2 154.82 5.88
-8 0 -2 147.26 5.87
8 0 -2 149.89 5.86
8 0 2 159.23 5.88
-8 0 -2 145.83 6.12
8 0 -2 144.95 5.88
-8 0 2 156.98 5.87
8 0 2 159.79 5.87
8 0 2 154.82 5.87
-9 0 -2 0.01 0.02
-9 0 2 0.01 0.02
9 0 2 0.01 0.02
-9 0 2 0.09 0.02
-9 0 -2 0 0.02
9 0 2 0.01 0.02
9 0 -2 0.12 0.03
-9 0 -2 -0.01 0.02
9 0 2 -0.01 0.02
-10 0 -2 18.21 0.71
-10 0 -2 17.96 0.72
-10 0 2 18.02 0.72
-10 0 2 17.53 0.71
-10 0 -2 18.18 0.71
10 0 2 18.17 0.72
10 0 -2 18.39 0.72
-11 0 -2 0 0.02
-11 0 -2 -0.01 0.02
11 0 -2 0.05 0.03
-11 0 2 0.04 0.02
11 0 2 0.03 0.03
-11 0 2 -0.01 0.02
-11 0 -2 -0.02 0.02
-12 0 2 24.75 0.99
12 0 2 24.45 0.99
-12 0 -2 25.81 1
12 0 -2 25.87 1.01
-12 0 -2 25.93 0.99
-12 0 2 24.27 0.99
-12 0 -2 25.6 0.99
13 0 2 0.02 0.03
-13 0 2 0 0.03
-13 0 2 -0.01 0.03
13 0 -2 0.03 0.04
-13 0 -2 0.01 0.02
-13 0 -2 -0.04 0.03
-13 0 -2 -0.01 0.03
-14 0 2 10.06 0.4
14 0 2 9.95 0.41
-14 0 -2 9.38 0.39
-14 0 -2 9.47 0.41
-14 0 -2 9.28 0.4
-14 0 2 9.73 0.41
14 0 -2 9.54 0.42
-15 0 2 -0.03 0.03
-15 0 -2 0 0.03
-15 0 -2 -0.02 0.03
-15 0 2 0.01 0.04
15 0 -2 -0.03 0.04
-15 0 -2 0 0.03
15 0 2 -0.01 0.03
16 0 -2 5.84 0.29
-16 0 -2 5.96 0.27
-16 0 -2 5.99 0.28
-16 0 2 6.38 0.28
-16 0 2 6.47 0.28
-16 0 -2 5.85 0.27
-17 0 2 0.04 0.04
-17 0 -2 -0.01 0.03
17 0 2 0.08 0.04
17 0 -2 -0.01 0.05
-17 0 -2 -0.01 0.04
-17 0 2 -0.05 0.03
0 -1 -2 222.09 9.01
0 -1 2 239.01 8.94
0 1 2 238.99 9.04
0 -1 2 224.2 8.86
0 1 -2 216.85 8.94
0 -1 2 246 9.01
0 -1 -2 218.23 8.98
0 -1 -2 228.77 8.9
0 1 -2 218.75 8.92
1 1 -2 85.33 3.28
-1 -1 -2 86.58 3.28
1 -1 2 83.28 3.35
-1 1 2 85.99 3.28
1 -1 2 86.69 3.28
-1 -1 -2 88.28 3.29
1 -1 2 85.55 3.5
-1 -1 -2 88.21 3.31
-1 1 2 86.13 3.42
1 -1 -2 86.84 3.28
-1 1 -2 85.89 3.28
-1 -1 2 83 3.28
1 -1 -2 85.68 3.35
-1 1 -2 83.57 3.28
-1 -1 2 84.01 3.29
-1 -1 2 81.97 3.28
1 -1 -2 84.83 3.42
1 1 2 87 3.29
-1 -1 2 85.24 3.29
1 1 2 83.33 3.28
-2 -1 -2 17.01 0.73
-2 1 2 20.77 0.73
-2 -1 -2 17.49 0.73
2 1 -2 16.3 0.72
2 -1 2 20.28 0.73
2 -1 2 21.03 0.73
-2 1 2 19.74 0.73
-2 -1 -2 16.94 0.72
2 -1 2 20.63 0.73
-2 -1 2 20.26 0.73
2 1 2 20.49 0.73
-2 -1 2 20.59 0.73
-2 1 -2 16.66 0.73
-2 -1 2 19.91 0.73
2 1 2 20.66 0.73
2 -1 -2 16.71 0.73
-2 -1 2 20.64 0.73
-2 1 -2 17.06 0.73
2 -1 -2 16.67 0.73
2 -1 -2 16.94 0.73
3 -1 2 50.56 1.87
3 1 -2 47.05 1.85
3 1 -2 45.39 1.86
-3 1 2 48.37 1.86
3 -1 2 49.69 1.85
-3 -1 -2 47.39 1.85
3 -1 2 49.19 1.89
-3 -1 -2 47.09 1.86
3 1 2 48.86 1.86
-3 1 -2 47.5 1.85
-3 -1 2 49.63 1.85
3 -1 -2 45.9 1.98
3 -1 -2 47.64 1.85
3 1 2 49.69 1.85
-3 1 -2 47.33 1.85
3 -1 -2 48.8 1.86
-3 -1 2 48.56 1.85
-3 -1 2 48.32 1.85
-4 -1 -2 94.88 3.46
4 1 -2 93.91 3.46
4 -1 2 86.22 3.46
-4 1 2 86.95 3.46
4 1 -2 91.1 3.45
-4 1 2 87.38 3.46
-4 -1 -2 91.21 3.46
4 -1 2 85.8 3.44
4 -1 2 90.26 3.46
4 -1 -2 95.77 3.45
-4 -1 2 87.06 3.46
-4 -1 2 87.19 3.46
-4 -1 2 86.75 3.46
4 1 2 82.97 3.45
4 1 2 86.83 3.46
4 -1 -2 93.49 3.47
-4 1 -2 94.16 3.46
-4 1 -2 92.89 3.46
4 -1 -2 91.73 3.46
-5 -1 -2 41.14 1.61
5 -1 2 42.82 1.61
5 -1 2 41.69 1.61
-5 1 2 41.31 1.61
-5 1 2 41.67 1.61
-5 -1 -2 41.21 1.61
5 -1 2 41.66 1.6
5 1 -2 41.11 1.61
-5 1 -2 40.68 1.61
5 1 2 43.1 1.6
5 1 2 42.23 1.61
5 1 2 42.1 1.61
5 -1 -2 42.97 1.6
-5 1 -2 40.83 1.61
5 -1 -2 42.54 1.61
-5 -1 2 41.39 1.61
-5 -1 2 41.8 1.61
5 -1 -2 40.7 1.61
-5 -1 2 41.79 1.61
-6 -1 -2 25.35 1.03
-6 1 2 27.98 1.02
-6 -1 -2 24.63 1.03
6 -1 2 28.88 1.03
6 -1 2 27.42 1.02
-6 1 2 26.3 1.03
6 -1 2 27.44 1.03
-6 1 2 28.01 1.03
6 1 -2 24.43 1.03
-6 -1 2 27.02 1.03
-6 1 -2 24.02 1.03
6 1 2 28.97 1.02
6 -1 -2 24.25 1.03
-6 1 -2 24.23 1.02
6 1 2 27.54 1.03
-6 -1 2 28.13 1.03
-6 -1 2 27.42 1.03
6 -1 -2 24.68 1.03
-7 -1 -2 17.14 0.67
7 -1 2 16.83 0.66
7 -1 2 17.19 0.67
-7 1 2 17.21 0.66
-7 1 2 16.89 0.67
-7 -1 -2 17.85 0.67
7 1 -2 16.84 0.67
7 -1 2 16.18 0.67
-7 1 2 16.95 0.67
-7 -1 2 16.69 0.67
7 1 2 17.79 0.66
-7 -1 2 17.11 0.67
7 1 2 16.48 0.67
-7 1 -2 17.68 0.67
-7 1 -2 17.29 0.67
7 -1 -2 17.22 0.67
-7 -1 2 16.81 0.67
7 -1 -2 17.1 0.68
-8 -1 -2 34.73 1.4
-8 1 2 38.07 1.39
-8 -1 -2 34.58 1.41
8 -1 2 37.43 1.41
8 -1 2 37.61 1.41
-8 1 2 37.68 1.41
-8 1 2 38.22 1.4
8 -1 2 37.08 1.4
8 1 -2 33.98 1.41
8 1 2 38.36 1.4
8 -1 -2 34.45 1.41
8 1 2 36.75 1.41
-8 1 -2 33.97 1.41
8 1 2 37.52 1.41
-8 -1 2 37.21 1.4
8 -1 -2 33.08 1.41
-8 -1 2 36.25 1.41
-8 -1 2 38.8 1.41
-8 1 -2 33.42 1.4
9 -1 2 13.74 0.56
-9 -1 -2 14.01 0.56
-9 1 2 14.44 0.54
9 -1 2 14.1 0.55
9 1 -2 14.38 0.56
9 -1 2 13.67 0.56
-9 1 2 13.97 0.55
-9 1 2 13.79 0.56
-9 -1 -2 14.51 0.56
9 -1 -2 14.06 0.57
9 1 2 13.28 0.56
-9 -1 2 13.73 0.56
-9 1 -2 14.17 0.55
9 -1 -2 14.16 0.56
-9 1 -2 14.25 0.56
9 1 2 14.13 0.55
-9 -1 2 13.81 0.56
-10 -1 -2 6.87 0.28
10 1 -2 6.78 0.29
10 -1 2 7.51 0.29
-10 1 2 6.97 0.28
10 -1 2 6.91 0.29
-10 1 2 6.92 0.29
10 -1 2 6.6 0.28
-10 -1 -2 6.82 0.29
-10 -1 -2 6.64 0.29
10 -1 -2 6.47 0.3
-10 -1 2 7.06 0.29
-10 1 -2 6.53 0.29
-10 1 -2 6.68 0.28
10 1 2 6.89 0.29
10 1 2 7.05 0.28
-10 -1 2 6.97 0.29
11 1 -2 5.68 0.26
-11 -1 -2 5.56 0.24
-11 1 2 5.81 0.24
-11 1 2 5.96 0.25
-11 -1 -2 5.86 0.25
11 -1 2 5.75 0.25
-11 -1 -2 5.63 0.25
-11 -1 2 5.65 0.25
-11 1 -2 5.7 0.24
11 -1 -2 5.82 0.26
-11 -1 2 5.74 0.25
-11 1 -2 5.61 0.24
-11 1 -2 5.51 0.25
11 1 2 6.06 0.25
-12 1 2 14.43 0.62
-12 -1 -2 16.19 0.62
-12 -1 -2 15.61 0.61
-12 1 2 14.67 0.61
12 -1 2 13.72 0.62
-12 -1 -2 15.94 0.62
12 1 -2 15.8 0.62
-12 1 -2 15.49 0.61
-12 1 -2 16.24 0.61
12 -1 -2 15.88 0.63
-12 1 -2 15.94 0.62
-12 -1 2 14.61 0.61
12 1 2 14.97 0.61
-12 -1 2 14.36 0.61
-13 -1 -2 2.45 0.13
-13 -1 -2 2.35 0.13
-13 -1 -2 2.45 0.13
-13 1 2 2.7 0.14
13 1 -2 2.25 0.14
-13 1 2 2.64 0.13
13 -1 2 2.67 0.14
-13 -1 2 2.69 0.13
13 1 2 2.66 0.13
-13 1 -2 2.48 0.14
-13 -1 2 2.75 0.13
13 -1 -2 2.18 0.14
-13 1 -2 2.54 0.12
-13 1 -2 2.3 0.12
-14 1 2 5.98 0.27
-14 -1 -2 5.57 0.26
-14 -1 -2 6 0.26
14 1 -2 5.75 0.27
-14 1 2 6.07 0.26
14 -1 2 5.94 0.27
-14 -1 -2 5.48 0.26
14 -1 -2 5.86 0.28
-14 -1 2 5.98 0.26
-14 -1 2 5.99 0.26
-14 1 -2 6.07 0.25
-14 1 -2 5.69 0.25
-14 1 -2 5.94 0.27
-15 -1 -2 0.91 0.09
15 1 -2 1.09 0.1
-15 -1 -2 1.04 0.08
15 -1 2 1.02 0.09
-15 1 2 1.02 0.09
-15 1 2 1.06 0.08
-15 -1 -2 1.17 0.09
-15 1 -2 1.08 0.08
-15 1 -2 1.01 0.08
-15 -1 2 1.07 0.09
15 -1 -2 1.09 0.11
-15 -1 2 0.98 0.09
-15 1 -2 1.07 0.09
-16 1 2 3.23 0.17
16 -1 2 3.07 0.17
-16 -1 -2 2.81 0.16
-16 1 2 3.21 0.16
-16 -1 -2 2.84 0.16
16 1 -2 2.77 0.17
-16 -1 2 3.07 0.16
16 -1 -2 2.91 0.18
16 1 2 3.45 0.16
-16 1 -2 3 0.15
-16 1 -2 2.66 0.16
-16 -1 2 3.28 0.16
17 1 -2 0.72 0.09
-17 1 2 0.58 0.08
17 -1 2 0.49 0.07
-17 -1 -2 0.62 0.07
-17 1 2 0.67 0.07
17 1 2 0.7 0.07
-17 -1 2 0.68 0.07
-17 -1 2 0.69 0.08
-17 1 -2 0.71 0.08
17 -1 -2 0.75 0.09
0 -2 -2 186.38 7.69
0 -2 2 194.08 7.6
0 -2 -2 192.61 7.8
0 2 -2 191.11 7.7
0 2 2 196.19 7.82
0 -2 2 202.63 7.53
0 -2 2 200.38 7.71
0 -2 2 199.95 7.7
0 2 2 204.81 7.52
0 -2 -2 188.91 7.8
1 2 -2 42.7 1.56
1 -2 2 40.08 1.56
1 -2 2 38.83 1.57
-1 2 2 38.53 1.55
1 -2 2 37.04 1.55
-1 -2 -2 41.86 1.56
-1 -2 -2 40.95 1.55
-1 -2 -2 43.28 1.56
1 -2 2 38.29 1.55
-1 -2 -2 41.77 1.55
-1 2 2 39.37 1.56
-1 -2 2 38.43 1.55
1 -2 -2 42.35 1.56
1 2 2 38.87 1.56
-1 -2 2 39.73 1.55
-1 2 -2 42.59 1.56
-1 -2 2 38.85 1.55
1 -2 -2 42.73 1.56
1 -2 -2 42.42 1.56
-1 -2 2 38.87 1.56
-2 2 2 28.31 1.07
2 -2 2 29.85 1.08
2 -2 2 29.36 1.06
-2 -2 -2 26.75 1.07
2 2 -2 27.18 1.06
-2 2 2 29.15 1.07
-2 -2 -2 26.69 1.07
2 -2 2 28.27 1.07
-2 -2 -2 25.99 1.06
-2 -2 -2 25.83 1.07
-2 -2 2 29.35 1.06
-2 2 -2 26.6 1.07
2 -2 -2 26.71 1.07
2 2 2 28.03 1.07
2 -2 -2 25.98 1.07
-2 -2 2 28.36 1.06
-2 -2 2 28.86 1.06
-2 2 -2 26.32 1.07
-2 -2 2 28.57 1.07
2 -2 -2 26.13 1.07
3 2 -2 25.71 0.99
3 -2 2 25.72 1
3 -2 2 25.47 0.98
-3 2 2 26.19 1
-3 -2 -2 26.67 0.99
-3 -2 -2 25.44 0.99
-3 2 2 26.5 0.99
-3 -2 -2 25.81 1
3 -2 2 25.24 0.99
3 -2 -2 25.03 0.99
-3 -2 2 26.06 0.99
3 -2 -2 24.8 1
-3 -2 2 25.72 0.99
3 2 2 25.47 0.99
3 -2 -2 25.42 1
-3 2 -2 25 0.99
-3 -2 2 25.99 1
-3 -2 2 25.9 0.99
-3 2 -2 25.13 0.99
4 -2 2 36.77 1.44
-4 -2 -2 38.26 1.44
-4 -2 -2 38.85 1.43
-4 2 2 35.3 1.43
4 -2 2 36.73 1.44
-4 -2 -2 37.7 1.43
4 -2 2 36.75 1.42
-4 2 2 36.69 1.44
4 2 -2 37.56 1.43
4 -2 -2 37.39 1.44
-4 2 -2 36.68 1.43
4 2 2 36.63 1.44
-4 -2 2 37.1 1.43
-4 2 -2 38.01 1.44
4 -2 -2 37.19 1.43
-4 -2 2 36.54 1.43
-4 -2 2 36.74 1.43
-4 -2 2 36.99 1.44
4 -2 -2 38.04 1.44
-5 -2 -2 11.02 0.45
-5 -2 -2 10.62 0.46
5 -2 2 12.25 0.46
5 -2 2 12.5 0.45
-5 2 2 12.19 0.46
5 -2 2 12.41 0.47
-5 2 2 12.41 0.45
-5 -2 -2 10.56 0.45
5 2 -2 11.08 0.45
5 2 -2 10.25 0.46
-5 2 -2 10.26 0.45
-5 2 -2 10.87 0.46
5 -2 -2 10.92 0.46
5 2 2 12.88 0.44
5 2 2 12.22 0.46
-5 -2 2 12.13 0.46
5 -2 -2 10.6 0.46
5 -2 -2 10.8 0.45
-5 -2 2 12.23 0.45
-5 -2 2 12.3 0.45
6 -2 2 20.53 0.8
-6 2 2 20.1 0.78
-6 2 2 20.42 0.79
-6 -2 -2 20.05 0.79
-6 -2 -2 19.35 0.79
6 2 -2 19.65 0.79
-6 2 2 20.71 0.78
-6 -2 -2 19.68 0.78
6 2 -2 19.88 0.78
6 -2 2 20.48 0.78
6 -2 2 20.55 0.79
6 -2 -2 19.17 0.79
-6 -2 2 20.73 0.79
-6 -2 2 20.12 0.78
-6 -2 2 20.44 0.78
-6 2 -2 20.05 0.79
6 2 2 19.76 0.79
6 2 2 21.33 0.78
6 -2 -2 20 0.8
7 2 -2 23.75 0.89
7 2 -2 24.18 0.91
-7 -2 -2 23.37 0.9
7 -2 2 21.69 0.89
-7 -2 -2 24.08 0.9
-7 2 2 22.54 0.89
7 -2 2 22.73 0.91
7 -2 2 23.6 0.91
-7 2 2 22.46 0.9
-7 -2 -2 24.6 0.9
-7 2 -2 23.32 0.91
7 2 2 22.98 0.89
7 2 2 21.27 0.9
-7 -2 2 22.59 0.9
7 -2 -2 24.63 0.91
-7 -2 2 21.94 0.9
-7 2 -2 23.56 0.9
-7 -2 2 21.59 0.9
7 -2 -2 24.36 0.91
8 -2 2 52.35 1.98
-8 2 2 53.18 1.98
-8 2 2 53.33 1.99
-8 -2 -2 48.87 1.99
8 -2 2 55.17 2
8 2 -2 49.95 1.98
8 2 -2 51.01 2
-8 2 2 52.67 2
-8 -2 -2 50.56 1.99
8 -2 2 53.21 2
8 -2 -2 50.51 2
-8 -2 2 51.65 1.99
8 -2 -2 50.6 2
-8 -2 2 54.4 1.99
8 2 2 52.8 1.98
8 2 2 50.71 1.99
-8 -2 2 51.7 1.99
-8 2 -2 48.43 1.99
-8 2 -2 49.11 1.99
-9 2 2 16.93 0.68
-9 -2 -2 17.55 0.68
9 2 -2 17.97 0.68
9 -2 2 16.88 0.69
-9 -2 -2 17.58 0.68
-9 2 2 16.8 0.67
-9 2 2 16.65 0.66
9 -2 2 17.11 0.67
9 -2 2 16.77 0.68
9 -2 -2 17.91 0.69
9 2 2 16.01 0.68
-9 2 -2 17.1 0.67
-9 -2 2 16.45 0.68
-9 2 -2 17.75 0.68
9 -2 -2 17.85 0.68
-9 -2 2 16.47 0.67
9 2 2 17.15 0.67
10 -2 2 2.29 0.12
-10 2 2 2.15 0.1
10 -2 2 2.27 0.1
10 2 -2 2.18 0.12
-10 -2 -2 2.23 0.11
-10 2 2 2.35 0.12
-10 2 2 2.2 0.11
-10 -2 -2 2.21 0.11
10 -2 2 2.27 0.12
10 -2 -2 2.35 0.13
10 2 2 2.19 0.12
10 2 2 2.2 0.11
10 -2 -2 2.17 0.12
-10 -2 2 2.25 0.11
-10 2 -2 2.34 0.11
-10 2 -2 2.39 0.12
11 -2 2 7.29 0.31
11 -2 2 7.32 0.29
-11 2 2 7.13 0.3
-11 2 2 7.22 0.31
11 2 -2 6.85 0.31
-11 -2 -2 6.97 0.3
-11 -2 -2 6.79 0.3
11 -2 2 7.24 0.31
-11 -2 2 7.43 0.3
11 -2 -2 7.15 0.32
-11 2 -2 6.78 0.3
-11 -2 2 7.39 0.3
11 2 2 7.33 0.31
-11 2 -2 6.95 0.29
-12 -2 -2 7.58 0.31
-12 2 2 6.94 0.3
-12 -2 -2 7.33 0.3
-12 2 2 6.68 0.31
12 2 -2 7.41 0.31
-12 -2 -2 7.48 0.3
12 -2 2 6.89 0.32
12 2 2 6.8 0.31
-12 2 -2 7.52 0.3
12 -2 -2 7.11 0.32
-12 2 -2 7.26 0.31
-12 -2 2 7.02 0.31
-12 -2 2 6.96 0.3
-13 -2 -2 2.81 0.15
-13 2 2 3.11 0.15
13 2 -2 3.02 0.16
-13 -2 -2 3.06 0.16
13 -2 2 3.43 0.17
-13 2 2 3.1 0.16
-13 -2 -2 2.7 0.15
-13 -2 2 3.18 0.15
13 2 2 3.21 0.16
-13 -2 2 3.19 0.16
-13 2 -2 2.94 0.14
13 -2 -2 2.88 0.17
-13 2 -2 3.01 0.16
14 -2 2 2.79 0.16
14 2 -2 2.64 0.15
-14 -2 -2 2.71 0.14
-14 -2 -2 2.56 0.14
-14 -2 -2 2.54 0.14
-14 2 2 2.8 0.14
-14 2 2 2.76 0.15
-14 -2 2 2.75 0.14
-14 -2 2 2.78 0.15
14 2 2 2.69 0.15
14 -2 -2 2.44 0.16
-14 2 -2 2.69 0.13
-15 -2 -2 2.34 0.13
15 -2 2 2.12 0.14
-15 -2 -2 2.31 0.12
15 2 -2 2.3 0.14
-15 2 2 2.1 0.12
-15 2 2 2.13 0.13
15 -2 -2 2.26 0.15
-15 -2 2 1.97 0.12
-15 -2 2 2.02 0.13
15 2 2 2.11 0.13
-15 2 -2 2.34 0.12
16 -2 2 2.31 0.15
-16 -2 -2 2.19 0.13
-16 2 2 2.19 0.12
-16 2 2 2.58 0.14
16 2 -2 2.06 0.15
-16 -2 2 2.33 0.13
16 -2 -2 1.88 0.15
16 2 2 2.46 0.14
-16 2 -2 2.04 0.12
-16 -2 2 2.34 0.14
17 -2 2 1.31 0.12
-17 -2 -2 1.45 0.1
17 2 -2 1.48 0.12
-17 2 2 1.44 0.1
-17 -2 2 1.33 0.11
17 2 2 1.39 0.11
-17 -2 2 1.28 0.1
17 -2 -2 1.46 0.14
0 -3 -2 48.42 1.9
0 -3 -2 48.26 1.9
0 3 -2 47.94 1.91
0 3 2 51.03 1.9
0 -3 -2 48.05 1.9
0 -3 2 49.9 1.91
0 -3 2 51.12 1.9
0 -3 2 50.57 1.9
0 -3 -2 49.07 1.91
0 -3 2 50.1 1.9
1 -3 2 132.97 5.26
1 -3 2 136.11 5.24
-1 -3 -2 135.91 5.23
-1 -3 -2 139.77 5.48
-1 3 2 136.19 5.39
1 3 -2 136.39 5.24
-1 -3 -2 136.34 5.25
-1 -3 -2 132.61 5.44
1 -3 2 136.1 5.28
1 -3 2 138.91 5.22
1 -3 -2 135.93 5.24
1 -3 -2 135.29 5.24
-1 -3 2 136.57 5.23
1 -3 -2 137.6 5.25
1 3 2 134.83 5.44
-1 3 -2 140.42 5.24
-1 -3 2 138.05 5.23
-1 -3 2 134.89 5.25
-1 -3 2 134.53 5.23
2 -3 2 8.89 0.34
-2 -3 -2 8.84 0.36
2 -3 2 9.06 0.36
-2 -3 -2 8.81 0.35
2 -3 2 8.8 0.37
2 -3 2 9.05 0.36
2 3 -2 8.95 0.35
-2 -3 -2 8.87 0.35
-2 -3 -2 8.92 0.35
-2 3 2 8.89 0.36
2 3 2 9.1 0.36
-2 -3 2 8.87 0.36
2 -3 -2 8.77 0.36
2 -3 -2 8.9 0.36
2 -3 -2 8.72 0.36
-2 -3 2 9.02 0.35
-2 -3 2 8.82 0.35
-2 3 -2 8.84 0.36
-2 -3 2 8.98 0.35
3 -3 2 99.88 3.76
-3 -3 -2 95.78 3.73
3 3 -2 97.17 3.73
-3 -3 -2 91.66 3.73
-3 3 2 99.72 3.74
3 -3 2 101.1 3.74
-3 -3 -2 94.21 3.72
-3 -3 -2 93.84 3.85
3 -3 2 101.24 3.74
-3 3 2 99.19 3.73
3 -3 -2 93.57 3.74
3 -3 -2 95.32 3.74
-3 -3 2 97.82 3.73
-3 -3 2 95.93 3.76
-3 -3 2 99.07 3.72
-3 3 -2 94.45 3.73
3 3 2 100.31 3.74
3 -3 -2 94.69 3.74
-3 -3 2 100.85 3.73
4 -3 2 5.91 0.26
-4 3 2 5.79 0.25
-4 -3 -2 5.95 0.24
-4 -3 -2 6.01 0.24
4 3 -2 6.03 0.24
4 -3 2 5.72 0.24
-4 -3 -2 6.06 0.25
-4 3 2 5.6 0.24
4 -3 -2 6.08 0.25
-4 -3 2 5.56 0.24
-4 3 -2 5.83 0.24
4 3 2 5.8 0.25
-4 -3 2 5.91 0.23
-4 3 -2 6.14 0.24
4 -3 -2 6.12 0.25
4 -3 -2 5.75 0.24
-4 -3 2 5.73 0.23
-4 -3 2 5.85 0.25
-5 -3 -2 70.4 2.71
5 -3 2 72.17 2.73
-5 3 2 71.46 2.72
-5 -3 -2 69.44 2.72
-5 -3 -2 69.53 2.71
5 -3 2 71.83 2.72
-5 3 2 70.9 2.71
5 3 -2 68.58 2.76
5 -3 -2 67.98 2.72
-5 3 -2 69.45 2.72
5 3 2 71.15 2.72
5 3 2 73.61 2.71
-5 -3 2 72.32 2.71
-5 3 -2 69.12 2.72
5 -3 -2 68.22 2.72
-5 -3 2 73.05 2.73
-5 -3 2 72.7 2.72
5 -3 -2 70.51 2.72
-5 -3 2 69.33 2.75
6 -3 2 8.99 0.38
-6 -3 -2 9.34 0.38
-6 3 2 9.7 0.38
6 -3 2 9.37 0.39
-6 -3 -2 9.16 0.37
-6 3 2 9.35 0.37
-6 -3 -2 9.13 0.37
-6 3 2 9.2 0.37
6 3 -2 9.33 0.38
6 3 -2 8.96 0.37
-6 -3 2 9.29 0.36
-6 3 -2 9.12 0.38
-6 3 -2 9.08 0.37
6 -3 -2 9.19 0.39
-6 -3 2 9.51 0.36
-6 -3 2 9.44 0.38
-6 -3 2 9.48 0.38
6 3 2 9.89 0.36
6 -3 -2 9.04 0.38
6 3 2 9.28 0.38
7 -3 2 44.4 1.75
7 -3 2 44.8 1.74
-7 3 2 45.7 1.73
7 3 -2 45.79 1.74
-7 3 2 45.07 1.74
-7 -3 -2 45.34 1.73
-7 -3 -2 45.04 1.74
7 3 -2 44.23 1.73
-7 -3 -2 46.33 1.73
-7 3 2 44.44 1.73
7 3 2 43.41 1.72
-7 -3 2 44.57 1.74
7 3 2 44.16 1.74
-7 3 -2 45.62 1.74
-7 -3 2 44.21 1.72
-7 3 -2 44.66 1.73
7 -3 -2 44.99 1.75
7 -3 -2 45.76 1.74
-7 -3 2 43.86 1.72
8 -3 2 8.72 0.36
-8 3 2 8.8 0.35
8 -3 2 8.78 0.37
-8 -3 -2 8.56 0.35
-8 3 2 8.84 0.36
-8 -3 -2 8.35 0.36
8 3 -2 8.48 0.36
-8 3 2 8.88 0.35
-8 -3 2 8.88 0.34
-8 3 -2 8.63 0.35
8 3 2 9.04 0.36
-8 -3 2 8.82 0.36
8 -3 -2 8.39 0.37
-8 -3 2 8.64 0.34
8 -3 -2 8.19 0.36
9 -3 2 27.07 1.08
9 -3 2 27.85 1.1
9 3 -2 28.42 1.08
-9 3 2 27.39 1.07
-9 3 2 27.69 1.09
-9 3 2 27.91 1.07
-9 -3 -2 28.2 1.07
-9 -3 -2 27.57 1.08
9 -3 -2 27.28 1.08
-9 -3 2 27.58 1.07
-9 3 -2 27.97 1.07
-9 -3 2 26.78 1.07
9 3 2 26.34 1.08
9 -3 -2 28.4 1.1
-9 -3 2 27.15 1.08
-10 -3 -2 0.08 0.03
10 -3 2 0.08 0.04
10 3 -2 0.09 0.03
-10 -3 -2 0.07 0.03
-10 3 2 0.04 0.04
10 -3 2 0.07 0.03
-10 3 2 0.12 0.02
-10 3 2 0.07 0.03
10 -3 -2 0.03 0.03
-10 3 -2 0.06 0.03
-10 -3 2 0.04 0.03
-10 -3 2 0.07 0.02
10 -3 -2 0.05 0.04
-11 -3 -2 14.97 0.6
11 3 -2 14.34 0.61
-11 3 2 15.3 0.6
-11 -3 -2 13.72 0.6
11 -3 2 15.62 0.61
11 -3 2 16.03 0.63
-11 -3 2 15.64 0.61
11 -3 -2 14.37 0.62
-11 3 -2 14.8 0.6
-11 -3 2 15.92 0.59
11 3 2 14.82 0.61
-12 -3 -2 1.71 0.1
-12 -3 -2 1.54 0.09
-12 3 2 1.51 0.09
12 -3 2 1.48 0.12
12 3 -2 1.61 0.11
-12 -3 2 1.44 0.1
-12 3 -2 1.68 0.09
12 3 2 1.32 0.1
12 -3 -2 1.53 0.12
-12 -3 2 1.41 0.08
-13 3 2 5.89 0.24
-13 -3 -2 5.66 0.25
13 3 -2 5.5 0.26
13 -3 2 5.78 0.28
-13 -3 -2 5.36 0.25
-13 -3 2 6.2 0.26
-13 -3 2 5.84 0.24
13 3 2 5.75 0.26
-13 3 -2 5.59 0.24
13 -3 -2 5.21 0.27
14 -3 2 0.8 0.09
-14 -3 -2 0.73 0.07
-14 -3 -2 0.76 0.07
14 3 -2 0.78 0.08
-14 3 2 0.8 0.07
14 3 2 0.79 0.08
14 -3 -2 0.85 0.1
-14 3 -2 0.74 0.07
-14 -3 2 0.76 0.06
-14 -3 2 0.82 0.08
-15 -3 -2 2.65 0.14
-15 -3 -2 2.94 0.15
15 3 -2 2.91 0.17
15 -3 2 2.83 0.18
-15 3 -2 2.81 0.14
15 3 2 2.86 0.16
-15 -3 2 2.6 0.16
15 -3 -2 2.87 0.18
-15 -3 2 2.72 0.14
-16 -3 -2 0.46 0.06
16 -3 2 0.58 0.09
16 3 -2 0.49 0.07
-16 -3 2 0.47 0.07
-16 -3 2 0.43 0.05
16 -3 -2 0.43 0.08
-16 3 -2 0.43 0.05
16 3 2 0.52 0.07
0 -4 2 24.45 0.94
0 -4 -2 24.66 0.94
0 -4 -2 24.08 0.95
0 -4 -2 24.39 0.94
0 4 -2 24.71 0.94
0 -4 2 23 0.95
0 -4 2 24.15 0.93
0 4 2 24.33 0.94
0 -4 2 23.05 0.94
0 -4 -2 24.96 0.94
1 -4 2 19.32 0.77
-1 -4 -2 20.68 0.77
-1 -4 -2 19.92 0.78
1 -4 2 19.07 0.76
-1 4 2 18.68 0.77
1 4 -2 20.51 0.78
-1 -4 -2 20.19 0.77
-1 -4 -2 21.08 0.77
1 -4 2 18.63 0.77
-1 -4 2 19.18 0.77
1 4 2 18.74 0.77
1 -4 -2 20.82 0.78
1 -4 -2 20.53 0.78
1 -4 -2 20.63 0.78
-1 -4 2 18.79 0.79
-1 -4 2 18.94 0.77
-1 4 -2 20.7 0.78
-2 -4 -2 20.96 0.82
-2 -4 -2 20.67 0.82
-2 -4 -2 20.6 0.83
2 -4 2 20.59 0.84
-2 -4 -2 21.36 0.82
2 4 -2 20.18 0.82
2 -4 2 21.38 0.82
-2 4 2 21.32 0.82
2 -4 2 21.3 0.82
-2 -4 2 21.45 0.82
2 4 2 21.49 0.82
-2 -4 2 21.15 0.81
-2 4 -2 21.02 0.82
2 -4 -2 20.79 0.83
2 -4 -2 21.22 0.83
2 -4 -2 21.23 0.82
-2 -4 2 21 0.81
-2 -4 2 20.87 0.83
-3 -4 -2 8.71 0.36
-3 -4 -2 8.9 0.36
-3 4 2 9.61 0.36
3 4 -2 8.77 0.37
3 -4 2 9.11 0.38
-3 -4 -2 8.33 0.37
3 -4 2 9.29 0.37
-3 -4 -2 8.84 0.36
3 -4 -2 8.65 0.37
3 -4 -2 8.53 0.37
-3 -4 2 9.76 0.35
-3 -4 2 9.55 0.38
-3 -4 2 9.35 0.35
-3 4 -2 9.02 0.37
3 -4 -2 8.94 0.37
-3 -4 2 9.7 0.36
-4 4 2 8.58 0.34
4 -4 2 8.73 0.36
4 4 -2 8.45 0.34
-4 -4 -2 8.84 0.34
-4 -4 -2 8.68 0.36
4 -4 2 8.35 0.35
-4 -4 -2 8.41 0.34
-4 -4 -2 8.66 0.34
4 -4 -2 8.71 0.35
-4 -4 2 8.44 0.34
4 -4 -2 8.66 0.35
-4 -4 2 8.69 0.33
-4 -4 2 8.18 0.33
4 4 2 8.2 0.35
-4 -4 2 8.4 0.35
-4 4 -2 8.44 0.35
4 -4 -2 8.58 0.36
5 -4 2 7.63 0.32
-5 4 2 7.56 0.29
5 -4 2 7.3 0.3
-5 -4 -2 6.83 0.31
-5 -4 -2 7.12 0.29
5 4 -2 6.72 0.29
-5 -4 -2 7.05 0.29
-5 4 -2 6.78 0.3
5 -4 -2 6.88 0.3
-5 -4 2 7.81 0.31
-5 -4 2 7.9 0.3
5 -4 -2 7.22 0.3
5 4 2 7.89 0.3
5 -4 -2 6.9 0.31
6 -4 2 9.69 0.39
-6 4 2 9.39 0.38
6 -4 2 9.46 0.4
-6 -4 -2 9.35 0.39
-6 -4 -2 9.11 0.37
-6 -4 -2 9.34 0.37
-6 4 2 9.51 0.38
6 4 -2 9.03 0.38
-6 -4 2 9.74 0.39
-6 -4 2 9.32 0.38
-6 4 -2 9.73 0.38
6 -4 -2 9.29 0.39
6 -4 -2 9.23 0.4
6 4 2 9.69 0.39
7 -4 2 8.56 0.38
-7 4 2 8.36 0.35
7 -4 2 8.28 0.37
-7 4 2 8.16 0.36
7 4 -2 9.03 0.37
-7 -4 -2 9.43 0.37
7 4 -2 9.15 0.36
-7 -4 -2 9.26 0.36
-7 4 -2 9.56 0.36
7 -4 -2 9.38 0.38
7 -4 -2 9.3 0.37
7 4 2 8.36 0.37
-7 -4 2 8.43 0.36
-7 -4 2 8.86 0.37
8 4 -2 7.16 0.3
-8 -4 -2 7.27 0.31
-8 -4 -2 7.26 0.29
8 4 -2 7.22 0.29
8 -4 2 7 0.32
-8 4 2 6.92 0.29
-8 4 2 6.82 0.29
8 -4 2 6.78 0.3
8 -4 -2 7.35 0.3
-8 4 -2 7.04 0.3
8 4 2 7.11 0.3
-8 -4 2 6.95 0.3
8 -4 -2 7.29 0.32
-9 -4 -2 10.45 0.41
-9 4 2 9.51 0.4
9 -4 2 9.46 0.41
9 4 -2 10.39 0.41
-9 -4 -2 10.02 0.39
9 -4 2 9.63 0.42
-9 4 2 9.61 0.39
9 -4 -2 9.64 0.41
-9 4 -2 10.46 0.4
-9 -4 2 9.13 0.38
-9 -4 2 9.23 0.38
9 4 2 9.55 0.41
9 -4 -2 10.25 0.42
-9 -4 2 9.79 0.41
-10 4 2 3.29 0.15
-10 4 2 3.15 0.14
-10 -4 -2 3.05 0.14
10 -4 2 3.19 0.18
10 4 -2 3.2 0.16
10 -4 2 3.39 0.16
-10 -4 -2 3.09 0.16
10 -4 -2 3.22 0.16
-10 -4 2 3.11 0.13
-10 -4 2 3.49 0.16
10 4 2 3.06 0.16
-10 -4 2 3.25 0.13
-10 4 -2 3.12 0.15
10 -4 -2 3.18 0.18
11 -4 2 3.89 0.17
-11 -4 -2 3.04 0.15
-11 -4 -2 3.08 0.16
11 4 -2 3.04 0.17
11 -4 2 3.48 0.19
-11 4 2 3.43 0.15
11 -4 -2 2.88 0.16
-11 -4 2 3.37 0.14
11 4 2 3.28 0.17
-11 -4 2 3.25 0.14
11 -4 -2 3.18 0.18
-11 -4 2 3.4 0.17
-11 4 -2 3.12 0.15
12 -4 2 0.8 0.08
12 -4 2 0.88 0.09
-12 -4 -2 0.72 0.07
12 4 -2 0.75 0.08
-12 -4 -2 0.75 0.06
-12 -4 2 0.77 0.05
12 -4 -2 0.63 0.08
12 4 2 0.8 0.08
-12 -4 2 0.81 0.08
-12 4 -2 0.7 0.06
-13 -4 -2 1.43 0.09
13 4 -2 1.52 0.11
13 -4 2 1.79 0.13
-13 -4 -2 1.45 0.11
-13 -4 2 1.59 0.11
-13 4 -2 1.51 0.09
13 -4 -2 1.35 0.13
13 4 2 1.71 0.11
-13 -4 2 1.57 0.08
14 -4 2 0.64 0.09
-14 -4 -2 0.57 0.07
-14 -4 -2 0.67 0.06
14 4 -2 0.69 0.08
14 -4 -2 0.57 0.09
-14 -4 2 0.54 0.05
14 4 2 0.61 0.07
-14 4 -2 0.59 0.06
-14 -4 2 0.61 0.07
15 4 -2 1.38 0.11
-15 -4 -2 1.4 0.09
15 -4 2 1.11 0.12
-15 -4 2 1.22 0.11
-15 4 -2 1.43 0.09
15 -4 -2 1.18 0.13
15 4 2 1.13 0.11
-15 -4 2 1.33 0.07
0 -5 2 4.69 0.2
0 5 2 4.66 0.21
0 -5 2 4.59 0.22
0 -5 -2 4.94 0.21
0 -5 -2 5 0.22
0 -5 -2 4.91 0.21
0 5 -2 5.04 0.21
0 -5 2 4.76 0.2
-1 -5 -2 12.8 0.49
1 5 -2 12.44 0.5
-1 -5 -2 12.21 0.49
1 -5 2 12.06 0.49
1 -5 2 11.73 0.51
-1 -5 -2 12.48 0.5
-1 5 2 12.35 0.49
-1 -5 2 12.3 0.48
-1 5 -2 12.45 0.5
1 -5 -2 12.36 0.49
1 -5 -2 12.74 0.5
1 -5 -2 12.16 0.5
-1 -5 2 12.41 0.51
1 5 2 11.85 0.49
-2 -5 -2 6.68 0.26
-2 -5 -2 6.75 0.28
-2 -5 -2 6.86 0.26
2 -5 2 6 0.26
-2 5 2 5.9 0.26
2 5 -2 6.77 0.27
2 -5 2 6.03 0.28
-2 -5 2 5.93 0.25
2 -5 -2 6.88 0.27
-2 5 -2 6.67 0.27
-2 -5 2 5.89 0.26
2 5 2 5.58 0.26
-2 -5 2 5.96 0.28
2 -5 -2 6.8 0.28
-2 -5 2 5.93 0.25
2 -5 -2 6.95 0.28
-3 -5 -2 9.81 0.41
-3 -5 -2 9.97 0.43
3 5 -2 9.81 0.42
-3 5 2 10.49 0.41
3 -5 2 10.43 0.44
3 -5 2 10.72 0.42
-3 5 -2 10.48 0.42
-3 -5 2 10.64 0.43
3 -5 -2 10.03 0.42
3 -5 -2 10.02 0.42
-3 -5 2 10.57 0.41
3 5 2 10.56 0.42
3 -5 -2 10.32 0.43
-4 -5 -2 3.54 0.17
-4 5 2 3.43 0.15
4 5 -2 3.39 0.16
-4 -5 -2 3.45 0.15
4 -5 2 3.62 0.18
4 -5 2 3.66 0.16
4 -5 -2 3.54 0.17
-4 5 -2 3.6 0.17
4 -5 -2 3.65 0.17
4 -5 -2 3.58 0.17
-4 -5 2 3.41 0.16
-4 -5 2 3.6 0.17
5 -5 2 6.83 0.3
-5 5 2 6.68 0.27
5 -5 2 6.78 0.28
5 5 -2 6.06 0.27
-5 -5 -2 6.51 0.29
-5 -5 -2 6.42 0.26
-5 -5 2 6.82 0.29
5 -5 -2 6.36 0.28
5 5 2 6.65 0.28
-5 5 -2 6.29 0.28
5 -5 -2 6.48 0.28
5 -5 -2 6.29 0.29
-5 -5 2 6.76 0.27
6 -5 2 5.35 0.23
6 -5 2 5.16 0.25
-6 5 2 4.97 0.23
-6 5 2 4.85 0.22
-6 -5 -2 5.65 0.24
-6 -5 -2 5.52 0.21
6 5 -2 5.22 0.22
6 -5 -2 5.48 0.23
-6 5 -2 5.61 0.23
6 5 2 4.78 0.23
6 -5 -2 5.52 0.24
-6 -5 2 4.8 0.23
-6 -5 2 4.92 0.23
-7 -5 -2 6.17 0.28
-7 5 2 6.33 0.27
7 -5 2 6.06 0.27
7 5 -2 6.22 0.26
-7 -5 -2 6.21 0.25
7 -5 2 6.11 0.29
-7 5 -2 6.31 0.27
7 -5 -2 6.21 0.29
7 5 2 6.13 0.27
7 -5 -2 6.31 0.27
-7 -5 2 6.46 0.28
-7 -5 2 6.31 0.27
8 -5 2 2.87 0.15
-8 -5 -2 3.11 0.16
8 -5 2 3.06 0.17
-8 5 2 2.82 0.15
8 5 -2 3.06 0.16
-8 -5 -2 2.96 0.13
8 -5 -2 3.11 0.16
8 -5 -2 3.13 0.17
-8 -5 2 3.1 0.15
-8 5 -2 3 0.15
8 5 2 3.05 0.15
-9 -5 -2 3.36 0.17
-9 5 2 3.09 0.16
9 5 -2 3.39 0.17
-9 -5 -2 3.29 0.14
9 -5 2 3.17 0.19
9 -5 2 3.28 0.17
9 5 2 3.14 0.17
9 -5 -2 3.46 0.19
-9 -5 2 3.19 0.16
-9 5 -2 3.26 0.16
9 -5 -2 3.27 0.17
10 -5 2 1.07 0.09
-10 -5 -2 1.09 0.09
-10 -5 -2 1.08 0.06
10 -5 2 1.03 0.11
-10 5 2 1.07 0.08
10 5 -2 1.19 0.09
10 -5 -2 1.08 0.11
-10 -5 2 1.19 0.09
-10 5 -2 1.05 0.08
10 -5 -2 1.02 0.09
10 5 2 1.05 0.09
-11 -5 -2 2.26 0.14
11 -5 2 2.38 0.16
-11 5 2 2.38 0.12
11 -5 2 2.5 0.14
11 5 -2 2.1 0.13
-11 -5 -2 1.99 0.1
-11 -5 2 2.4 0.13
11 -5 -2 2.07 0.13
-11 5 -2 2.28 0.12
11 5 2 2.41 0.14
11 -5 -2 2.23 0.15
12 5 -2 1.02 0.09
12 -5 2 1 0.11
12 -5 2 0.95 0.09
-12 -5 -2 0.83 0.08
-12 -5 -2 0.83 0.06
12 -5 -2 0.79 0.08
12 5 2 0.97 0.09
-12 -5 2 0.86 0.08
12 -5 -2 0.9 0.1
-12 5 -2 0.83 0.07
13 -5 2 0.76 0.08
-13 -5 -2 0.68 0.05
13 5 -2 0.69 0.08
-13 -5 -2 0.68 0.08
13 -5 2 0.76 0.1
-13 -5 2 0.8 0.08
13 5 2 0.81 0.08
13 -5 -2 0.75 0.1
-13 5 -2 0.68 0.07
14 5 -2 0.98 0.1
14 -5 2 0.84 0.11
-14 -5 -2 0.99 0.1
-14 -5 -2 0.95 0.06
-14 5 -2 0.82 0.08
-14 -5 2 0.9 0.09
14 5 2 0.79 0.09
14 -5 -2 0.93 0.11
0 -6 2 11.77 0.49
0 -6 -2 11.6 0.46
0 -6 2 11.56 0.46
0 -6 -2 11.56 0.48
0 -6 -2 11.64 0.48
0 6 2 11.36 0.47
0 6 -2 11.27 0.47
-1 6 2 0.54 0.05
1 -6 2 0.51 0.07
-1 -6 -2 0.56 0.07
1 6 -2 0.55 0.06
-1 -6 -2 0.57 0.05
1 -6 2 0.58 0.05
1 -6 -2 0.69 0.07
1 -6 -2 0.77 0.07
-1 -6 2 0.5 0.07
-1 6 -2 0.61 0.06
1 6 2 0.67 0.06
1 -6 -2 0.66 0.06
-1 -6 2 0.63 0.04
-2 -6 -2 12.07 0.48
2 6 -2 12.22 0.5
2 -6 2 12.06 0.49
-2 -6 -2 12.28 0.51
2 -6 2 12.44 0.52
2 6 2 12.46 0.49
2 -6 -2 12.02 0.5
-2 -6 2 12.47 0.51
-2 -6 2 11.92 0.47
2 -6 -2 12.38 0.51
-2 6 -2 11.96 0.5
2 -6 -2 11.91 0.49
-3 -6 -2 0.78 0.06
3 6 -2 0.89 0.08
-3 -6 -2 1 0.09
3 -6 2 1.02 0.07
3 -6 2 0.99 0.1
3 6 2 1.06 0.08
3 -6 -2 0.88 0.08
3 -6 -2 0.8 0.07
3 -6 -2 1.02 0.09
-3 -6 2 0.86 0.08
-3 6 -2 0.99 0.08
4 6 -2 9.75 0.41
-4 -6 -2 9.87 0.42
4 -6 2 9.64 0.4
-4 -6 -2 10.1 0.39
4 -6 2 9.91 0.43
4 6 2 10.11 0.41
4 -6 -2 10.07 0.42
4 -6 -2 9.57 0.42
-4 -6 2 9.81 0.42
4 -6 -2 9.7 0.41
-4 6 -2 9.72 0.41
-5 -6 -2 0.68 0.07
-5 -6 -2 0.59 0.04
5 -6 2 0.69 0.08
5 -6 2 0.79 0.06
5 6 -2 0.55 0.06
-5 6 2 0.62 0.07
-5 6 -2 0.5 0.06
5 -6 -2 0.61 0.06
-5 -6 2 0.63 0.07
5 6 2 0.67 0.06
5 -6 -2 0.65 0.08
6 6 -2 7.34 0.32
-6 6 2 7.68 0.33
6 -6 2 7.52 0.35
6 -6 2 7.53 0.32
-6 -6 -2 7.49 0.3
-6 -6 -2 7.55 0.34
6 -6 -2 7.41 0.33
-6 6 -2 7.36 0.32
6 -6 -2 7.85 0.34
-6 -6 2 7.76 0.32
6 6 2 7.66 0.33
-6 -6 2 7.81 0.33
-7 -6 -2 0.44 0.03
-7 6 2 0.38 0.06
-7 -6 -2 0.44 0.03
7 -6 2 0.45 0.08
7 -6 2 0.36 0.05
7 6 -2 0.49 0.05
-7 -6 -2 0.54 0.07
-7 -6 2 0.53 0.07
-7 -6 2 0.47 0.06
-7 6 -2 0.52 0.06
7 -6 -2 0.51 0.07
7 6 2 0.47 0.06
7 -6 -2 0.45 0.06
8 6 -2 3.7 0.18
8 -6 2 3.17 0.2
8 -6 2 3.36 0.18
-8 6 2 3.66 0.18
-8 -6 -2 3.85 0.19
8 6 2 3.39 0.18
-8 6 -2 3.54 0.18
-8 -6 2 3.84 0.19
8 -6 -2 3.48 0.18
-8 -6 2 3.56 0.18
8 -6 -2 3.73 0.2
-9 -6 -2 0.29 0.06
9 -6 2 0.19 0.06
9 -6 2 0.22 0.05
9 6 -2 0.28 0.06
-9 6 2 0.26 0.05
-9 -6 2 0.27 0.05
9 6 2 0.19 0.05
-9 6 -2 0.2 0.05
9 -6 -2 0.32 0.06
9 -6 -2 0.3 0.07
-10 6 2 2.8 0.15
10 -6 2 2.58 0.15
10 -6 2 2.6 0.18
-10 -6 -2 2.75 0.16
10 6 -2 2.73 0.16
10 6 2 2.66 0.16
10 -6 -2 2.49 0.15
-10 -6 2 2.74 0.15
10 -6 -2 2.68 0.17
-10 6 -2 2.8 0.15
-11 -6 -2 0.22 0.06
-11 6 2 0.22 0.05
11 6 -2 0.26 0.06
11 -6 2 0.34 0.06
11 -6 2 0.36 0.08
-11 -6 2 0.37 0.06
11 6 2 0.16 0.05
11 -6 -2 0.2 0.06
11 -6 -2 0.33 0.07
-11 6 -2 0.19 0.05
-12 -6 -2 1.12 0.11
12 -6 2 1.1 0.12
12 -6 2 1.3 0.11
12 6 -2 1.13 0.1
-12 -6 2 1.35 0.11
12 6 2 1.47 0.11
12 -6 -2 1.26 0.13
12 -6 -2 1.23 0.11
-12 6 -2 1.24 0.09
0 -7 -2 0.68 0.08
0 -7 2 0.75 0.09
0 7 -2 0.65 0.07
0 -7 -2 0.57 0.05
-1 -7 -2 0.65 0.05
1 -7 2 0.77 0.05
1 -7 2 0.74 0.09
-1 -7 -2 0.7 0.08
1 7 -2 0.62 0.07
1 -7 -2 0.67 0.06
1 -7 -2 0.6 0.08
-1 -7 2 0.74 0.04
-1 7 -2 0.65 0.07
-1 -7 2 0.81 0.09
2 -7 2 0.74 0.09
-2 -7 -2 0.87 0.06
2 7 -2 0.95 0.08
-2 -7 -2 0.84 0.09
2 -7 2 0.77 0.06
2 -7 -2 0.96 0.07
-2 7 -2 0.93 0.08
-2 -7 2 0.72 0.08
2 -7 -2 0.88 0.09
3 -7 2 0.71 0.06
-3 -7 -2 0.68 0.05
-3 -7 -2 0.65 0.08
3 7 -2 0.67 0.07
3 -7 2 0.65 0.08
-3 7 -2 0.65 0.07
-3 -7 2 0.61 0.07
3 -7 -2 0.75 0.07
3 -7 -2 0.65 0.07
3 7 2 0.69 0.07
3 -7 -2 0.65 0.08
4 7 -2 1.13 0.09
-4 -7 -2 1.2 0.1
4 -7 2 1 0.08
-4 -7 -2 1.15 0.06
-4 7 2 0.93 0.09
4 -7 2 0.98 0.11
-4 7 -2 1.25 0.09
-4 -7 2 1 0.09
4 -7 -2 1.06 0.08
4 7 2 0.99 0.08
4 -7 -2 1.12 0.1
-5 -7 -2 0.56 0.07
5 -7 2 0.4 0.07
-5 7 2 0.38 0.06
5 7 -2 0.37 0.06
5 -7 2 0.4 0.05
5 -7 -2 0.31 0.06
-5 7 -2 0.41 0.06
5 -7 -2 0.42 0.06
5 7 2 0.4 0.06
-5 -7 2 0.4 0.06
6 7 -2 0.65 0.07
-6 -7 -2 0.67 0.08
6 -7 2 0.6 0.09
-6 7 2 0.59 0.07
6 -7 2 0.57 0.06
6 7 2 0.56 0.07
-6 -7 2 0.65 0.08
6 -7 -2 0.64 0.07
6 -7 -2 0.72 0.09
-6 7 -2 0.76 0.08
-7 7 2 0.35 0.06
-7 -7 -2 0.38 0.07
7 -7 2 0.4 0.08
7 -7 2 0.35 0.05
7 -7 -2 0.35 0.06
7 -7 -2 0.42 0.07
7 7 2 0.32 0.06
-7 -7 2 0.37 0.06
-7 7 -2 0.35 0.06
-8 -7 -2 0.48 0.07
8 -7 2 0.6 0.09
8 -7 2 0.54 0.06
8 7 -2 0.55 0.07
-8 7 2 0.55 0.07
-8 -7 2 0.54 0.07
8 7 2 0.51 0.07
8 -7 -2 0.49 0.08
8 -7 -2 0.55 0.07
-8 7 -2 0.55 0.07
-9 7 2 0.08 0.04
9 7 -2 0.21 0.05
9 -7 2 0.08 0.04
9 -7 2 0.18 0.06
-9 -7 -2 0.13 0.05
9 -7 -2 0.11 0.06
-9 7 -2 0.17 0.05
9 7 2 0.19 0.05
9 -7 -2 0.09 0.05
0 8 -2 0.44 0.07
0 -8 -2 0.44 0.07
0 -8 -2 0.43 0.05
0 -8 2 0.55 0.08
0 -8 2 0.43 0.03
1 8 -2 0.11 0.04
-1 -8 -2 0.03 0.02
-1 -8 -2 0.15 0.05
1 -8 2 0.04 0.05
-1 -8 2 0.03 0.05
-1 8 -2 0.1 0.04
1 -8 -2 0.05 0.05
1 -8 -2 0.05 0.03
-2 -8 -2 0.78 0.09
-2 -8 -2 0.71 0.05
2 -8 2 0.82 0.1
-2 8 2 0.83 0.09
2 -8 2 0.83 0.06
2 8 -2 0.67 0.08
-2 -8 2 0.77 0.09
-2 8 -2 0.72 0.08
2 -8 -2 0.76 0.07
3 -8 2 0.13 0.06
-3 8 2 0.19 0.06
3 8 -2 0.15 0.05
-3 -8 -2 0.17 0.02
3 -8 2 0.12 0.03
3 -8 -2 0.12 0.04
-3 8 -2 0.19 0.05
-3 -8 2 0.13 0.05
0 0 -3 139.88 5.45
0 0 3 142.45 5.7
0 0 3 146.26 5.46
0 0 -3 136.16 5.44
0 0 3 143.73 5.44
1 0 -3 0 0.02
1 0 -3 0.01 0.01
1 0 -3 0.02 0.01
-1 0 -3 0.05 0.02
-1 0 -3 0.02 0.01
1 0 3 0.01 0.01
-1 0 3 0.04 0.02
1 0 3 0 0.02
1 0 3 0 0.01
-1 0 3 0 0.02
-2 0 -3 252.4 10.2
2 0 -3 256.25 9.91
-2 0 -3 254.44 10.15
2 0 -3 254.45 10.14
-2 0 3 249.86 10.06
2 0 3 248.14 10.24
-2 0 3 256.38 10.21
2 0 -3 254.41 10.1
2 0 3 264.03 9.8
2 0 3 262.31 10
3 0 3 0.04 0.02
-3 0 -3 0.02 0.02
-3 0 3 0.04 0.02
3 0 -3 0.03 0.01
-3 0 -3 0.05 0.02
3 0 3 0.08 0.02
-3 0 3 0.05 0.02
3 0 -3 0.05 0.02
3 0 3 0.01 0.02
3 0 -3 0.14 0.02
-4 0 3 457.64 17.62
4 0 3 461.86 17.58
4 0 3 462.99 17.85
-4 0 -3 447.74 17.74
4 0 -3 437.63 17.74
4 0 -3 456.79 17.36
4 0 3 440.98 17.67
-4 0 -3 451.6 17.73
-4 0 3 441.69 17.69
4 0 -3 443.75 17.83
5 0 -3 0.02 0.02
-5 0 3 0.05 0.02
-5 0 -3 0.01 0.02
5 0 -3 0.04 0.03
-5 0 3 0.08 0.02
5 0 -3 0.02 0.01
5 0 3 0.07 0.02
5 0 3 0.04 0.02
-5 0 -3 0.07 0.02
6 0 3 127.04 4.89
6 0 -3 122.97 4.72
-6 0 3 123.16 4.95
6 0 3 121.18 4.71
6 0 -3 119.56 4.73
-6 0 3 123.14 4.72
-6 0 -3 120.2 4.72
6 0 3 124.3 4.71
-7 0 -3 0.03 0.02
-7 0 3 0.02 0.02
-7 0 -3 -0.01 0.02
7 0 3 0.04 0.02
7 0 -3 0.02 0.02
7 0 -3 0.01 0.02
7 0 3 0.02 0.02
-7 0 3 0.02 0.02
7 0 3 0.02 0.02
8 0 3 23.18 0.87
-8 0 3 22.31 0.87
-8 0 -3 21.87 0.88
8 0 3 22.69 0.88
-8 0 -3 21.27 0.87
8 0 3 22.14 0.87
-8 0 3 22.55 0.87
8 0 -3 21.96 0.88
-9 0 -3 0.04 0.02
-9 0 -3 -0.01 0.02
9 0 3 0 0.02
-9 0 3 0.01 0.02
9 0 3 -0.01 0.02
-9 0 3 0 0.02
9 0 -3 0.1 0.03
10 0 -3 33.47 1.32
10 0 3 34.09 1.3
10 0 3 33.69 1.3
-10 0 3 33.63 1.31
-10 0 -3 33.64 1.3
-10 0 3 32.46 1.3
-10 0 -3 33.16 1.31
11 0 3 0.01 0.03
11 0 3 0.02 0.03
-11 0 3 0.04 0.03
-11 0 3 0.01 0.03
-11 0 -3 0.03 0.03
11 0 -3 0.03 0.04
-11 0 -3 0.06 0.03
-12 0 -3 40.64 1.55
12 0 -3 39.57 1.55
12 0 3 39.78 1.54
12 0 3 38.83 1.54
-12 0 3 38.88 1.54
-12 0 3 39.36 1.54
-12 0 -3 39.65 1.54
-13 0 3 -0.02 0.03
-13 0 -3 0.01 0.03
13 0 3 -0.01 0.03
-13 0 3 0.04 0.04
-13 0 -3 0.02 0.03
13 0 -3 0.04 0.04
14 0 3 7.91 0.34
14 0 -3 7.48 0.35
-14 0 3 8.11 0.34
-14 0 -3 7.71 0.33
-14 0 3 8.09 0.34
-14 0 -3 7.72 0.34
-15 0 -3 0.01 0.03
-15 0 3 0.01 0.04
-15 0 -3 0.01 0.03
-15 0 3 -0.06 0.04
15 0 -3 0.05 0.05
15 0 3 -0.01 0.03
-16 0 3 0.94 0.08
-16 0 -3 0.73 0.07
-16 0 -3 0.79 0.08
-16 0 3 0.99 0.09
16 0 3 0.82 0.08
16 0 -3 0.61 0.09
-17 0 -3 0.04 0.04
-17 0 3 0.03 0.04
17 0 3 0.03 0.04
-17 0 3 0.03 0.04
-17 0 -3 0.05 0.04
17 0 -3 0.1 0.06
0 -1 -3 28.51 1.14
0 -1 -3 28.6 1.15
0 1 -3 28.17 1.14
0 -1 3 30.74 1.15
0 1 -3 28.18 1.15
0 1 3 31.02 1.15
0 -1 3 30.53 1.15
0 1 3 31.19 1.15
0 -1 3 31.97 1.15
0 -1 -3 28.38 1.15
1 -1 3 43.22 1.68
-1 -1 -3 45.06 1.69
1 -1 3 42.83 1.69
-1 1 3 43.96 1.69
1 1 -3 43.67 1.69
-1 1 3 42.38 1.69
1 -1 3 43.83 1.69
1 1 -3 43.85 1.69
-1 -1 -3 43.86 1.69
-1 -1 -3 44.87 1.68
-1 1 -3 43.36 1.69
1 -1 -3 43.58 1.68
-1 -1 3 43.47 1.69
1 -1 -3 44.79 1.68
1 1 3 41.95 1.69
-1 1 -3 44.79 1.69
1 -1 -3 44.57 1.69
1 1 3 44.43 1.69
-1 -1 3 43.75 1.68
-1 -1 3 43.46 1.74
2 -1 3 96.94 3.8
2 -1 3 99.85 3.82
2 1 -3 101.45 3.83
2 -1 3 99.07 3.81
-2 1 3 95.49 3.81
2 -1 3 95.09 3.8
-2 -1 -3 103.15 3.79
-2 -1 -3 100.53 3.81
-2 1 3 95.5 3.96
-2 -1 -3 102.47 3.81
2 1 3 99.71 3.81
-2 1 -3 100.91 3.8
2 1 3 98.55 3.81
-2 -1 3 96.68 3.8
2 -1 -3 102.95 3.81
2 -1 -3 98.34 3.81
2 -1 -3 100.19 3.8
-2 -1 3 95.27 3.81
-2 -1 3 96.07 3.82
-2 1 -3 98.61 3.81
-3 1 3 20.63 0.84
-3 -1 -3 22.26 0.82
3 -1 3 21.9 0.84
-3 -1 -3 21.53 0.84
3 -1 3 20.33 0.84
3 -1 3 21.6 0.83
3 1 -3 20.75 0.84
3 1 -3 21.59 0.82
-3 1 3 21.85 0.83
-3 -1 -3 20.97 0.83
-3 1 -3 20.97 0.84
3 1 3 21.59 0.84
3 -1 -3 21.17 0.84
-3 -1 3 22.1 0.84
3 1 3 22.68 0.84
-3 1 -3 21.41 0.83
3 -1 -3 21.68 0.84
-3 -1 3 21.19 0.83
3 -1 -3 20.98 0.83
4 -1 3 195.74 7.87
-4 -1 -3 199.53 7.49
-4 1 3 197.11 7.49
-4 1 3 198.44 7.48
4 1 -3 192.89 7.49
-4 -1 -3 196.2 7.69
4 -1 3 196.29 7.47
4 1 -3 190.8 7.55
4 -1 3 196.7 7.5
-4 -1 3 195.51 7.48
-4 -1 3 196.54 7.48
4 1 3 186.95 7.51
-4 -1 3 195.93 7.48
4 -1 -3 197.47 7.47
4 1 3 186.92 7.48
-4 1 -3 196.03 7.49
4 -1 -3 193.72 7.86
4 -1 -3 198.57 7.49
-4 1 -3 192.82 7.48
4 1 3 191.99 7.49
5 1 -3 7.75 0.33
-5 1 3 8.17 0.32
-5 1 3 8.44 0.33
5 -1 3 8.05 0.33
-5 -1 -3 7.63 0.32
-5 -1 -3 7.87 0.33
5 1 -3 7.98 0.31
5 -1 3 8.51 0.32
5 -1 3 8.32 0.33
-5 1 -3 8.05 0.33
-5 1 -3 7.64 0.32
-5 -1 3 8.14 0.32
5 1 3 8.35 0.33
5 1 3 8.29 0.31
-5 -1 3 8.24 0.33
5 1 3 7.95 0.33
5 -1 -3 7.54 0.31
5 -1 -3 7.31 0.33
-5 -1 3 8.11 0.32
5 -1 -3 7.91 0.33
6 -1 3 58.56 2.31
6 -1 3 61.75 2.3
6 1 -3 59 2.31
-6 -1 -3 59.61 2.31
-6 -1 -3 61.18 2.31
-6 1 3 58.66 2.3
-6 1 3 60.84 2.31
6 -1 3 61.64 2.31
6 -1 -3 59.15 2.31
6 1 3 57.57 2.3
-6 -1 3 59.1 2.3
6 -1 -3 61.66 2.3
6 -1 -3 59.43 2.31
-6 1 -3 60.3 2.41
6 1 3 59.14 2.3
6 1 3 60.82 2.29
-6 1 -3 60.3 2.31
-6 -1 3 60.1 2.3
-6 -1 3 57.51 2.3
7 1 -3 16.16 0.65
-7 1 3 16.78 0.65
7 -1 3 16.67 0.64
-7 1 3 16.97 0.63
7 -1 3 16.98 0.65
7 -1 3 16.53 0.65
-7 1 3 16.22 0.65
-7 -1 -3 16.85 0.65
-7 -1 -3 15.73 0.65
7 1 3 16.1 0.65
7 -1 -3 16.25 0.65
-7 -1 3 16.53 0.65
7 1 3 16.72 0.64
7 -1 -3 16.11 0.66
-7 1 -3 15.89 0.64
-7 -1 3 16 0.65
-7 1 -3 16.62 0.65
7 1 3 16.05 0.65
8 -1 3 10.93 0.41
-8 1 3 10.5 0.42
-8 -1 -3 9.38 0.41
8 -1 3 10.99 0.41
-8 -1 -3 9.35 0.41
8 -1 3 11.09 0.41
8 1 -3 9.09 0.41
-8 1 3 10.81 0.41
8 1 3 10.66 0.41
-8 1 -3 9.14 0.41
-8 -1 3 10.75 0.41
8 -1 -3 8.92 0.41
8 1 3 10.93 0.4
8 -1 -3 9.16 0.42
-8 1 -3 9.42 0.41
-8 -1 3 10.67 0.41
-9 -1 -3 10.35 0.42
9 -1 3 10.58 0.43
9 1 -3 10.44 0.43
9 -1 3 10.17 0.42
-9 1 3 10.18 0.43
-9 1 3 10.48 0.42
9 -1 3 10.45 0.42
-9 -1 -3 10.61 0.42
-9 -1 3 10.31 0.42
-9 1 -3 10.46 0.43
9 1 3 10.05 0.42
-9 1 -3 10.16 0.42
9 -1 -3 10.64 0.43
-9 -1 3 10.44 0.42
9 1 3 10.4 0.42
10 -1 3 18.12 0.74
10 1 -3 19.19 0.76
-10 -1 -3 20.24 0.75
-10 1 3 18.44 0.74
-10 1 3 18.12 0.75
-10 -1 -3 19.85 0.75
10 -1 3 18.19 0.75
-10 1 -3 19.52 0.74
10 1 3 18.01 0.75
-10 -1 3 18.64 0.75
-10 1 -3 19.35 0.75
10 -1 -3 19.01 0.76
-10 -1 3 18.35 0.75
11 -1 3 2.89 0.13
-11 -1 -3 2.51 0.14
11 -1 3 2.95 0.14
-11 1 3 2.72 0.14
-11 -1 -3 2.57 0.14
11 1 -3 2.7 0.15
-11 1 3 2.76 0.13
-11 -1 3 2.71 0.14
-11 -1 3 2.9 0.14
-11 1 -3 2.61 0.14
11 -1 -3 2.66 0.15
-11 1 -3 2.65 0.13
11 1 3 2.84 0.14
12 -1 3 23.99 1.02
12 1 -3 25.9 1.03
-12 -1 -3 26.51 1.02
-12 -1 -3 25.7 1.02
-12 1 3 25.71 1.02
12 -1 3 26.15 1.01
-12 1 3 25.56 1.01
12 -1 -3 25.62 1.03
-12 -1 3 25.93 1.02
-12 1 -3 26.32 1.02
12 1 3 25.63 1.02
-12 -1 3 25.6 1.02
-12 1 -3 27.08 1.01
-13 -1 -3 0.64 0.07
-13 -1 -3 0.79 0.07
13 1 -3 0.61 0.08
-13 1 3 0.68 0.07
13 -1 3 0.72 0.06
-13 1 3 0.82 0.07
13 -1 3 0.74 0.07
-13 -1 3 0.71 0.07
-13 1 -3 0.67 0.06
13 1 3 0.74 0.07
-13 -1 3 0.55 0.06
13 -1 -3 0.69 0.08
-13 1 -3 0.66 0.07
-14 1 3 4.27 0.2
-14 1 3 4.28 0.21
-14 -1 -3 4.18 0.21
14 -1 3 4.28 0.21
14 1 -3 4.5 0.22
-14 -1 -3 4.22 0.2
14 1 3 4.27 0.2
14 -1 -3 4.02 0.22
-14 -1 3 4.33 0.2
-14 1 -3 4.34 0.2
-14 1 -3 4 0.21
-14 -1 3 4.33 0.2
-15 -1 -3 1.21 0.09
-15 1 3 1.01 0.08
-15 1 3 1.08 0.1
15 1 -3 1.04 0.1
-15 -1 -3 1.14 0.09
-15 1 -3 1.16 0.09
-15 -1 3 1.03 0.09
-15 1 -3 1.04 0.08
15 -1 -3 0.94 0.1
15 1 3 1.05 0.09
-15 -1 3 0.83 0.08
-16 -1 -3 0.43 0.06
-16 1 3 0.56 0.07
-16 1 3 0.47 0.06
-16 -1 -3 0.31 0.05
16 1 -3 0.4 0.07
16 1 3 0.56 0.07
-16 -1 3 0.49 0.07
-16 -1 3 0.53 0.07
-16 1 -3 0.33 0.05
16 -1 -3 0.42 0.08
-16 1 -3 0.31 0.06
17 1 -3 0.62 0.09
-17 -1 -3 0.6 0.07
-17 1 3 0.57 0.08
-17 -1 -3 0.61 0.07
-17 1 3 0.47 0.07
17 -1 -3 0.65 0.09
-17 -1 3 0.62 0.07
-17 1 -3 0.46 0.07
17 1 3 0.41 0.07
-17 -1 3 0.55 0.07
-17 1 -3 0.62 0.07
0 -2 3 19.22 0.74
0 -2 3 19.53 0.74
0 -2 -3 18.41 0.74
0 2 3 19.71 0.75
0 2 3 19.42 0.74
0 -2 -3 18.62 0.74
0 2 -3 18.01 0.74
0 -2 3 19.4 0.75
0 -2 -3 18.06 0.74
0 -2 3 19.68 0.74
-1 -2 -3 54.37 2.15
-1 2 3 54.06 2.12
1 -2 3 54.7 2.12
-1 -2 -3 55.37 2.12
1 2 -3 56.57 2.12
1 -2 3 56.69 2.12
-1 -2 -3 55.93 2.12
1 -2 3 54.22 2.11
-1 2 3 54.61 2.12
1 -2 -3 56.23 2.12
-1 -2 3 54.3 2.11
-1 -2 3 52.81 2.12
-1 -2 3 54.33 2.11
-1 2 -3 55.8 2.11
1 -2 -3 54.41 2.12
1 2 3 53.21 2.12
1 -2 -3 55.97 2.12
1 2 3 56.39 2.12
-1 -2 3 54.39 2.11
2 -2 3 89.69 3.38
-2 2 3 87.95 3.37
-2 -2 -3 88.59 3.38
2 -2 3 89.97 3.39
-2 -2 -3 85.42 3.36
-2 2 3 90.24 3.37
-2 -2 -3 87.67 3.38
2 -2 3 89.5 3.36
2 2 -3 85.41 3.37
2 -2 -3 86.14 3.45
-2 -2 3 89.29 3.37
-2 2 -3 88.93 3.37
-2 -2 3 88.47 3.37
-2 -2 3 88.59 3.37
-2 -2 3 88.5 3.37
-2 2 -3 86.69 3.37
2 -2 -3 86.84 3.37
2 2 3 84.36 3.37
2 2 3 85.91 3.37
2 -2 -3 84.24 3.43
3 -2 3 4.37 0.19
-3 2 3 4.65 0.2
3 -2 3 4.66 0.2
3 2 -3 4.58 0.18
-3 -2 -3 4.54 0.19
-3 2 3 4.45 0.19
3 -2 3 4.31 0.18
-3 -2 3 4.43 0.19
3 -2 -3 4.64 0.19
3 2 3 4.43 0.19
-3 -2 3 4.5 0.19
-3 -2 3 4.47 0.2
-3 2 -3 4.72 0.19
-3 -2 3 4.62 0.19
3 -2 -3 4.74 0.19
3 -2 -3 4.58 0.2
-4 2 3 137.41 5.16
-4 -2 -3 137.02 5.16
-4 -2 -3 137.21 5.16
4 -2 3 133.74 5.16
4 -2 3 131.25 5.21
4 -2 3 133.62 5.16
-4 2 3 133.91 5.14
4 2 -3 135.48 5.13
-4 -2 3 134.38 5.14
4 -2 -3 135.62 5.16
-4 2 -3 134.98 5.15
-4 -2 3 132.11 5.16
4 -2 -3 135.17 5.14
-4 -2 3 129.49 5.14
-4 -2 3 132.42 5.15
-4 2 -3 136.25 5.15
4 -2 -3 130.76 5.4
4 2 3 133.91 5.14
4 2 3 127.96 5.14
-5 -2 -3 5.98 0.24
5 -2 3 5.61 0.24
-5 2 3 5.6 0.24
5 -2 3 5.56 0.24
-5 -2 -3 5.71 0.24
5 2 -3 5.87 0.22
5 -2 3 5.63 0.23
5 2 -3 5.58 0.24
-5 2 3 5.56 0.24
-5 -2 3 5.48 0.23
-5 -2 3 5.44 0.23
5 -2 -3 5.71 0.24
-5 -2 3 5.53 0.23
5 -2 -3 5.76 0.24
-5 2 -3 5.83 0.24
5 -2 -3 5.69 0.23
-5 2 -3 5.91 0.24
-6 2 3 37.4 1.41
-6 -2 -3 36.35 1.41
6 2 -3 35.94 1.4
6 2 -3 35.45 1.42
-6 2 3 38.17 1.42
6 -2 3 38.12 1.4
6 -2 3 37.16 1.42
-6 -2 -3 35.69 1.42
6 -2 3 36.11 1.42
-6 -2 3 37.03 1.41
6 2 3 36.39 1.42
6 -2 -3 35.51 1.42
-6 -2 3 37.23 1.41
6 -2 -3 34.64 1.42
-6 2 -3 35.55 1.41
-6 2 -3 35.97 1.42
6 -2 -3 36.47 1.41
-6 -2 3 36.79 1.41
-7 -2 -3 23.29 0.9
7 2 -3 23.82 0.9
7 -2 3 22.53 0.9
7 -2 3 22.39 0.88
-7 2 3 22.31 0.89
-7 2 3 22.98 0.88
-7 -2 -3 23.23 0.9
7 -2 3 22.42 0.9
-7 2 3 22.27 0.9
-7 -2 3 22.2 0.89
7 -2 -3 24.15 0.9
-7 -2 3 22.35 0.89
7 -2 -3 22.73 0.9
7 2 3 21.7 0.9
-7 2 -3 23.72 0.9
-7 2 -3 23.12 0.89
-8 -2 -3 3.49 0.16
8 -2 3 3.51 0.17
8 -2 3 3.6 0.17
-8 2 3 3.97 0.15
8 -2 3 3.54 0.15
-8 -2 -3 3.4 0.16
-8 2 3 3.79 0.17
8 2 -3 3.44 0.17
-8 2 3 3.65 0.16
8 -2 -3 3.5 0.17
8 -2 -3 3.24 0.17
-8 2 -3 3.45 0.16
-8 -2 3 3.85 0.16
-8 -2 3 3.65 0.16
8 2 3 3.84 0.17
9 -2 3 16.33 0.63
9 2 -3 16.43 0.65
-9 -2 -3 16.03 0.64
-9 -2 -3 16.03 0.64
9 -2 3 15.34 0.65
-9 2 3 15.94 0.65
-9 2 3 16.44 0.63
9 -2 3 16.2 0.64
9 -2 -3 15.77 0.65
-9 -2 3 16.15 0.63
9 2 3 15.49 0.64
-9 -2 3 15.98 0.64
-9 2 -3 16.11 0.63
9 -2 -3 16.09 0.64
-10 -2 -3 10.83 0.44
-10 2 3 10.95 0.44
-10 2 3 10.77 0.45
10 2 -3 10.93 0.45
10 -2 3 11.08 0.45
-10 -2 -3 10.87 0.44
10 -2 3 10.71 0.45
10 2 3 10.73 0.45
10 -2 -3 10.87 0.46
-10 2 -3 10.74 0.44
-10 2 -3 10.79 0.45
-10 -2 3 10.65 0.44
-10 -2 3 10.62 0.44
-11 -2 -3 2.8 0.14
-11 2 3 2.92 0.14
11 -2 3 2.75 0.15
-11 -2 -3 2.85 0.15
11 2 -3 2.86 0.16
-11 2 3 2.82 0.15
-11 -2 3 3.09 0.14
-11 2 -3 2.83 0.15
-11 2 -3 2.87 0.14
-11 -2 3 2.85 0.14
11 -2 -3 2.81 0.16
11 2 3 2.97 0.15
-12 2 3 13.59 0.55
-12 2 3 13.84 0.57
-12 -2 -3 13.8 0.56
12 -2 3 13.26 0.57
12 2 -3 13.99 0.57
-12 -2 -3 13.77 0.56
-12 -2 3 13.47 0.55
-12 -2 3 13.18 0.56
12 -2 -3 14.3 0.58
-12 2 -3 14.12 0.55
12 2 3 13.7 0.56
-13 -2 -3 0.94 0.08
-13 -2 -3 0.93 0.08
13 -2 3 0.91 0.09
-13 2 3 1.06 0.09
-13 2 3 1.03 0.08
13 2 -3 0.9 0.09
-13 2 -3 0.96 0.07
-13 -2 3 1.02 0.08
13 -2 -3 0.97 0.1
-13 -2 3 0.99 0.08
13 2 3 1.06 0.09
14 -2 3 1.87 0.13
-14 2 3 2.06 0.13
14 2 -3 1.91 0.13
-14 2 3 2.07 0.11
-14 -2 -3 1.93 0.12
-14 -2 -3 1.85 0.12
14 2 3 1.98 0.12
-14 2 -3 1.9 0.11
14 -2 -3 1.8 0.14
-14 -2 3 1.99 0.12
-14 -2 3 1.9 0.11
15 2 -3 2.51 0.15
-15 -2 -3 2.35 0.13
15 -2 3 2.16 0.14
-15 -2 -3 2.4 0.13
-15 2 3 2.18 0.12
-15 2 3 2.26 0.14
-15 2 -3 2.3 0.12
15 2 3 2.01 0.14
15 -2 -3 2.17 0.15
-15 -2 3 2.03 0.12
-15 -2 3 2.12 0.13
-16 2 3 0.17 0.04
16 2 -3 0.1 0.05
-16 2 3 0.13 0.05
-16 -2 -3 0.17 0.05
-16 -2 -3 0.14 0.04
16 -2 3 0.22 0.06
-16 -2 3 0.21 0.05
-16 -2 3 0.21 0.05
16 -2 -3 0.04 0.06
16 2 3 0.13 0.05
-16 2 -3 0.09 0.04
0 -3 3 14.05 0.55
0 3 3 14.15 0.55
0 -3 -3 13.13 0.54
0 3 3 14 0.55
0 -3 3 14.23 0.54
0 -3 3 13.76 0.54
0 -3 -3 13.66 0.55
0 3 -3 13.9 0.54
0 -3 -3 13 0.55
0 -3 3 13.36 0.54
-1 -3 -3 91.12 3.57
-1 3 3 94.71 3.58
1 -3 3 94.17 3.59
-1 -3 -3 92.76 3.58
1 -3 3 93.71 3.6
1 3 -3 91.68 3.58
1 -3 3 94.47 3.57
-1 -3 -3 92.18 3.58
1 -3 3 95.27 3.58
-1 3 3 93.46 3.58
-1 -3 3 95.9 3.6
1 -3 -3 92.81 3.59
-1 3 -3 92.24 3.59
1 -3 -3 91.62 3.58
1 3 3 94.45 3.59
-1 -3 3 93.28 3.67
-1 -3 3 90.82 3.58
1 -3 -3 92.2 3.59
-1 -3 3 93.74 3.58
2 -3 3 8.26 0.35
-2 -3 -3 8.59 0.33
2 3 -3 8.69 0.34
2 -3 3 8.52 0.33
2 -3 3 8.31 0.36
-2 -3 -3 8.65 0.35
-2 3 3 8.64 0.35
-2 -3 -3 8.66 0.35
-2 3 3 8.39 0.35
2 -3 -3 8.83 0.35
-2 3 -3 8.85 0.34
-2 -3 3 8.26 0.34
2 -3 -3 8.56 0.35
2 -3 -3 8.98 0.35
-2 -3 3 8.27 0.35
-2 -3 3 8.38 0.34
-2 -3 3 8.35 0.34
2 3 3 8.4 0.35
3 -3 3 34.36 1.32
3 3 -3 33.19 1.31
-3 -3 -3 32.92 1.32
-3 -3 -3 33.57 1.32
3 -3 3 34.39 1.3
-3 3 3 34.28 1.32
-3 3 3 35.46 1.32
3 -3 3 34.35 1.33
-3 -3 3 33.39 1.32
-3 -3 3 34.85 1.31
3 -3 -3 32.63 1.32
-3 -3 3 34.05 1.31
3 3 3 34.61 1.32
-3 3 -3 33.3 1.31
3 -3 -3 32.43 1.32
3 -3 -3 33.86 1.32
-3 -3 3 35.19 1.31
4 -3 3 19.55 0.74
-4 3 3 19.21 0.74
-4 -3 -3 18.58 0.75
-4 3 3 19.95 0.75
-4 -3 -3 18.9 0.74
4 -3 3 18.55 0.75
4 3 -3 18.71 0.73
-4 -3 3 18.89 0.73
4 3 3 18.57 0.74
-4 -3 3 19.06 0.74
4 -3 -3 18.26 0.75
4 -3 -3 18.57 0.74
-4 3 -3 18.59 0.74
-4 -3 3 19.22 0.73
-4 -3 3 19.15 0.75
4 -3 -3 18.25 0.75
-5 3 3 21.86 0.84
5 -3 3 21.44 0.84
-5 -3 -3 20.91 0.83
-5 3 3 21.96 0.83
5 -3 3 21.18 0.83
5 3 -3 19.82 0.82
-5 -3 -3 20.17 0.83
5 -3 -3 21.58 0.83
-5 -3 3 21.52 0.82
-5 -3 3 21.8 0.84
5 3 3 21.68 0.83
-5 -3 3 21.61 0.83
5 -3 -3 19.48 0.83
-5 3 -3 20.42 0.83
-5 -3 3 22.09 0.82
5 -3 -3 20.31 0.83
-6 3 3 2.7 0.14
-6 3 3 2.79 0.13
6 3 -3 2.75 0.12
-6 -3 -3 3.01 0.13
6 3 -3 3.02 0.14
6 -3 3 2.63 0.14
-6 -3 -3 3.07 0.14
6 -3 3 2.73 0.14
-6 -3 3 2.78 0.12
-6 -3 3 2.81 0.13
6 -3 -3 2.8 0.13
6 -3 -3 2.89 0.14
-6 -3 3 2.73 0.12
6 -3 -3 2.84 0.14
6 3 3 3.03 0.14
-7 -3 -3 33.79 1.33
7 3 -3 33.3 1.33
7 -3 3 34.77 1.33
-7 -3 -3 34.7 1.32
-7 3 3 33.66 1.33
7 -3 3 33.87 1.33
-7 3 3 33.47 1.32
7 -3 -3 34.7 1.33
-7 -3 3 34.07 1.31
-7 -3 3 33.7 1.31
7 -3 -3 33.33 1.33
-7 -3 3 34.69 1.32
-7 3 -3 34.05 1.32
7 3 3 33.33 1.33
8 3 -3 2.86 0.14
-8 -3 -3 2.92 0.14
-8 3 3 2.68 0.13
8 -3 3 2.84 0.14
8 -3 3 2.82 0.15
-8 3 3 2.89 0.13
-8 -3 -3 2.78 0.13
8 -3 -3 2.65 0.15
-8 -3 3 3.03 0.14
-8 3 -3 2.68 0.13
8 -3 -3 2.73 0.14
8 3 3 2.77 0.14
-8 -3 3 2.71 0.13
-9 3 3 27.21 1.05
9 3 -3 27.2 1.07
9 -3 3 26.86 1.06
9 -3 3 26.79 1.07
-9 -3 -3 26.99 1.05
-9 -3 -3 27.18 1.06
-9 3 -3 26.92 1.05
9 3 3 26.84 1.06
9 -3 -3 27.57 1.07
9 -3 -3 26.37 1.06
-9 -3 3 27.17 1.06
-9 -3 3 26.09 1.05
10 -3 3 1.78 0.11
-10 3 3 1.89 0.1
10 3 -3 2.03 0.12
10 -3 3 1.68 0.12
-10 -3 -3 1.83 0.1
-10 -3 -3 1.81 0.11
10 3 3 1.76 0.11
10 -3 -3 1.71 0.12
10 -3 -3 1.73 0.12
-10 -3 3 1.75 0.09
-10 3 -3 1.95 0.1
-10 -3 3 1.75 0.11
-11 3 3 5.41 0.22
11 -3 3 4.94 0.24
-11 -3 -3 4.85 0.22
11 3 -3 4.94 0.24
-11 -3 -3 5.25 0.24
11 -3 3 4.66 0.23
-11 -3 3 5.39 0.23
-11 3 -3 5.02 0.22
11 3 3 5.16 0.23
-11 -3 3 5.23 0.22
11 -3 -3 4.93 0.25
12 3 -3 2.22 0.13
-12 -3 -3 2.26 0.13
-12 -3 -3 2.19 0.12
-12 3 3 2.32 0.12
12 -3 3 2.11 0.14
-12 -3 3 2.3 0.11
-12 3 -3 2.17 0.12
12 -3 -3 2.24 0.15
12 3 3 2.22 0.13
-12 -3 3 2.36 0.13
-13 -3 -3 1.59 0.1
13 3 -3 1.63 0.12
-13 3 3 1.67 0.1
-13 -3 -3 1.48 0.11
13 -3 3 1.67 0.12
-13 -3 3 1.71 0.09
13 3 3 1.56 0.11
13 -3 -3 1.56 0.13
-13 3 -3 1.66 0.1
-13 -3 3 1.83 0.11
-14 -3 -3 0.1 0.04
-14 3 3 0.14 0.04
14 3 -3 0.1 0.05
-14 -3 -3 0.1 0.04
14 -3 3 0.13 0.05
-14 -3 3 0.13 0.04
-14 3 -3 0.09 0.04
14 3 3 0.13 0.05
-14 -3 3 0.11 0.03
14 -3 -3 0.15 0.06
-15 -3 -3 2.83 0.15
-15 3 3 2.86 0.15
15 3 -3 3.09 0.18
-15 -3 -3 2.95 0.16
15 -3 3 2.58 0.17
15 3 3 2.81 0.17
-15 -3 3 2.73 0.16
-15 -3 3 2.91 0.14
-15 3 -3 2.86 0.15
15 -3 -3 2.87 0.19
0 -4 3 3.49 0.14
0 -4 -3 3.03 0.14
0 -4 -3 3.25 0.16
0 -4 3 3.54 0.15
0 4 3 3.63 0.15
0 4 -3 3.07 0.15
0 -4 -3 3.29 0.15
-1 4 3 22.38 0.91
1 4 -3 23.9 0.91
-1 -4 -3 23.61 0.91
-1 -4 -3 23.67 0.92
1 -4 3 23.27 0.91
1 -4 3 22.89 0.93
-1 -4 3 23.83 0.9
-1 -4 3 22.8 0.92
1 -4 -3 23.16 0.91
1 4 3 22.89 0.91
1 -4 -3 23.36 0.92
-1 4 -3 23.91 0.91
1 -4 -3 23.85 0.91
-1 -4 3 22.17 0.9
-1 -4 3 23.44 0.9
-2 -4 -3 1.24 0.08
-2 -4 -3 1.23 0.07
-2 4 3 1.05 0.07
2 4 -3 1.24 0.07
2 -4 3 1.05 0.07
2 -4 3 1.04 0.08
-2 -4 3 1.08 0.06
2 -4 -3 1.27 0.07
-2 -4 3 1.02 0.06
2 -4 -3 1.24 0.07
2 4 3 1.13 0.07
-2 4 -3 1.21 0.07
-2 -4 3 1.01 0.06
2 -4 -3 1.06 0.07
-3 -4 -3 2.25 0.11
3 4 -3 2.01 0.1
3 -4 3 2.38 0.11
-3 4 3 2.26 0.11
3 -4 3 2.23 0.12
-3 -4 -3 2.13 0.11
-3 -4 3 2.23 0.1
-3 -4 3 2.25 0.1
3 -4 -3 1.94 0.11
-3 -4 3 2.25 0.12
3 -4 -3 1.96 0.11
-3 4 -3 2.01 0.11
-3 -4 3 2.13 0.1
3 -4 -3 2.06 0.11
3 4 3 2.43 0.11
-4 -4 -3 3.65 0.17
4 -4 3 3.84 0.16
-4 -4 -3 3.4 0.16
-4 4 3 3.69 0.16
4 -4 3 3.62 0.18
4 4 -3 3.36 0.15
-4 -4 3 3.84 0.16
-4 -4 3 3.7 0.15
-4 -4 3 3.96 0.17
4 4 3 3.75 0.17
-4 4 -3 3.38 0.16
-4 -4 3 3.65 0.15
4 -4 -3 3.43 0.17
4 -4 -3 3.11 0.16
4 -4 -3 3.29 0.16
-5 -4 -3 1.49 0.08
-5 4 3 1.21 0.08
5 -4 3 1.24 0.09
-5 -4 -3 1.42 0.09
5 4 -3 1.49 0.07
5 -4 3 1.23 0.08
5 -4 -3 1.5 0.09
-5 -4 3 1.19 0.06
5 4 3 1.27 0.08
-5 -4 3 1.35 0.09
-5 -4 3 1.34 0.08
5 -4 -3 1.49 0.08
5 -4 -3 1.46 0.09
-5 -4 3 1.28 0.06
-5 4 -3 1.59 0.08
-6 -4 -3 2.34 0.12
-6 -4 -3 2.27 0.11
6 4 -3 2.24 0.1
6 -4 3 2 0.13
-6 4 3 2.16 0.11
6 -4 3 2.01 0.11
6 4 3 1.94 0.11
-6 -4 3 2.05 0.11
6 -4 -3 2.36 0.12
6 -4 -3 2.23 0.11
-6 -4 3 1.97 0.09
-6 -4 3 1.94 0.09
-6 -4 3 2.04 0.12
6 -4 -3 2.05 0.11
-6 4 -3 2.16 0.11
7 -4 3 13.27 0.53
-7 4 3 12.79 0.53
-7 -4 -3 13.59 0.54
-7 -4 -3 13.24 0.53
7 -4 3 12.55 0.55
7 4 -3 13.43 0.54
-7 4 3 13.31 0.52
-7 -4 3 13.24 0.53
-7 -4 3 13.13 0.51
7 4 3 12.87 0.54
7 -4 -3 13.08 0.54
-7 4 -3 13.28 0.53
-7 -4 3 12.8 0.51
7 -4 -3 13.48 0.55
-8 -4 -3 1.73 0.11
8 -4 3 1.72 0.12
8 -4 3 1.77 0.1
-8 -4 -3 1.67 0.09
-8 4 3 1.8 0.1
8 4 -3 1.69 0.11
-8 4 3 1.68 0.09
-8 -4 3 1.78 0.08
-8 4 -3 1.6 0.1
8 4 3 1.66 0.1
-8 -4 3 1.68 0.08
8 -4 -3 1.54 0.1
8 -4 -3 1.55 0.11
-8 -4 3 1.74 0.1
-9 -4 -3 8.19 0.34
9 -4 3 7.3 0.33
-9 -4 -3 7.7 0.32
-9 4 3 7.52 0.32
-9 4 3 7.79 0.32
9 -4 3 7.73 0.35
9 4 -3 7.88 0.34
9 -4 -3 7.92 0.35
-9 -4 3 7.55 0.31
-9 -4 3 7.73 0.33
-9 4 -3 7.93 0.32
9 -4 -3 7.79 0.34
9 4 3 7.5 0.33
-10 -4 -3 0.06 0.04
-10 -4 -3 0.07 0.03
-10 4 3 0.12 0.03
10 4 -3 0.14 0.04
10 -4 3 0.1 0.04
10 -4 3 0.1 0.05
10 4 3 0.15 0.04
-10 4 -3 0.12 0.03
10 -4 -3 0.1 0.04
-10 -4 3 0.13 0.04
10 -4 -3 0.08 0.04
-10 -4 3 0.14 0.02
-11 4 3 1.22 0.07
11 4 -3 0.93 0.09
11 -4 3 1 0.09
-11 -4 -3 0.98 0.07
11 -4 3 1.06 0.1
-11 -4 -3 1.08 0.09
11 4 3 1.08 0.09
-11 4 -3 1.08 0.08
11 -4 -3 0.95 0.1
-11 -4 3 1.1 0.09
-11 -4 3 1.12 0.06
12 -4 3 0.18 0.04
-12 4 3 0.14 0.04
-12 -4 -3 0.12 0.03
12 4 -3 0.1 0.05
-12 -4 -3 0.12 0.04
12 -4 3 0.16 0.05
-12 -4 3 0.12 0.04
-12 4 -3 0.11 0.04
-12 -4 3 0.19 0.03
12 4 3 0.14 0.05
12 -4 -3 0.17 0.05
13 -4 3 0.44 0.07
13 4 -3 0.36 0.06
-13 -4 -3 0.32 0.06
-13 -4 -3 0.36 0.05
-13 -4 3 0.32 0.04
-13 -4 3 0.39 0.06
-13 4 -3 0.41 0.05
13 -4 -3 0.3 0.07
13 4 3 0.38 0.06
14 -4 3 0.52 0.08
-14 -4 -3 0.63 0.06
14 4 -3 0.59 0.08
-14 -4 -3 0.67 0.08
-14 -4 3 0.53 0.05
14 -4 -3 0.56 0.09
14 4 3 0.56 0.08
-14 -4 3 0.6 0.07
-14 4 -3 0.52 0.06
0 -5 3 3.38 0.15
0 -5 3 3.22 0.18
0 -5 -3 3.77 0.17
0 5 3 3.07 0.16
0 -5 -3 3.89 0.16
0 5 -3 3.62 0.16
-1 5 3 11.39 0.46
-1 -5 -3 10.97 0.46
-1 -5 -3 11.18 0.47
1 5 -3 11.43 0.46
1 -5 3 11.77 0.48
1 -5 3 11.69 0.45
1 5 3 11.36 0.46
-1 -5 3 11.46 0.45
1 -5 -3 11.36 0.47
1 -5 -3 11.08 0.46
-1 5 -3 11.22 0.46
-1 -5 3 11.21 0.48
-2 -5 -3 0.18 0.03
-2 5 3 0.09 0.03
2 -5 3 0.24 0.03
2 -5 3 0.2 0.05
-2 -5 -3 0.28 0.05
2 5 -3 0.19 0.03
-2 -5 3 0.13 0.04
2 5 3 0.19 0.04
-2 -5 3 0.19 0.03
2 -5 -3 0.22 0.04
2 -5 -3 0.18 0.04
2 -5 -3 0.25 0.04
-2 5 -3 0.2 0.04
3 -5 3 2.38 0.14
-3 -5 -3 2.32 0.13
-3 5 3 2.53 0.12
3 -5 3 2.43 0.12
3 5 -3 2.25 0.12
-3 -5 -3 2.15 0.12
-3 -5 3 2.51 0.1
3 -5 -3 2.27 0.13
3 5 3 2.43 0.13
-3 -5 3 2.59 0.1
3 -5 -3 2.32 0.13
-3 5 -3 2.32 0.12
-3 -5 3 2.36 0.13
3 -5 -3 2.29 0.12
4 -5 3 1.36 0.09
-4 -5 -3 1.74 0.09
-4 5 3 1.49 0.08
4 5 -3 1.58 0.08
4 -5 3 1.24 0.1
-4 -5 -3 1.65 0.1
4 -5 -3 1.6 0.1
4 5 3 1.36 0.09
-4 5 -3 1.76 0.09
4 -5 -3 1.68 0.09
-4 -5 3 1.43 0.1
4 -5 -3 1.63 0.1
-4 -5 3 1.4 0.08
-4 -5 3 1.38 0.07
-4 -5 3 1.41 0.07
-5 5 3 2.09 0.1
5 -5 3 2.01 0.11
-5 -5 -3 1.86 0.1
5 -5 3 2.07 0.13
-5 -5 -3 1.85 0.12
5 5 -3 1.78 0.1
-5 -5 3 2.04 0.08
5 5 3 2.07 0.11
5 -5 -3 1.85 0.12
-5 5 -3 1.94 0.11
-5 -5 3 2.24 0.12
5 -5 -3 1.84 0.11
-5 -5 3 2.08 0.1
5 -5 -3 1.71 0.11
6 -5 3 0.85 0.09
-6 -5 -3 0.96 0.09
-6 5 3 1.07 0.07
6 -5 3 1.08 0.08
-6 -5 -3 1.13 0.07
6 5 -3 0.99 0.07
6 -5 -3 1.05 0.08
6 -5 -3 1.13 0.09
6 5 3 0.97 0.08
-6 -5 3 1.09 0.09
6 -5 -3 1.06 0.08
-6 -5 3 0.95 0.07
-6 5 -3 0.94 0.07
-7 -5 -3 5.38 0.25
-7 -5 -3 5.05 0.22
7 -5 3 5.64 0.26
7 -5 3 5.57 0.24
-7 5 3 5.12 0.23
-7 5 3 5.44 0.24
7 5 3 4.83 0.24
7 -5 -3 5.55 0.25
-7 5 -3 5.27 0.23
7 -5 -3 5.26 0.24
-7 -5 3 5.36 0.25
-7 -5 3 5.35 0.24
-8 5 3 1.26 0.09
8 5 -3 1.41 0.1
8 -5 3 1.19 0.09
8 -5 3 1.13 0.11
-8 -5 -3 1.25 0.08
-8 -5 -3 1.32 0.1
8 -5 -3 1.29 0.11
-8 5 -3 1.28 0.09
8 -5 -3 1.35 0.1
8 5 3 1.07 0.09
-8 -5 3 1.25 0.09
-9 -5 -3 3.61 0.17
9 5 -3 3.83 0.19
-9 -5 -3 4.01 0.2
9 -5 3 3.78 0.19
-9 5 3 3.94 0.18
9 -5 3 3.68 0.21
9 5 3 3.65 0.19
-9 5 -3 3.69 0.18
-9 -5 3 3.64 0.18
9 -5 -3 4.08 0.21
9 -5 -3 3.63 0.19
-10 -5 -3 0.33 0.06
10 -5 3 0.31 0.07
10 -5 3 0.26 0.05
-10 -5 -3 0.26 0.04
10 5 -3 0.24 0.05
10 5 3 0.28 0.05
10 -5 -3 0.3 0.05
-10 -5 3 0.37 0.05
10 -5 -3 0.31 0.06
-10 5 -3 0.26 0.05
11 -5 3 0.49 0.08
-11 -5 -3 0.4 0.06
11 5 -3 0.47 0.07
-11 -5 -3 0.41 0.05
11 -5 3 0.55 0.07
11 5 3 0.53 0.07
11 -5 -3 0.48 0.08
-11 5 -3 0.47 0.06
-11 -5 3 0.48 0.06
11 -5 -3 0.32 0.06
-12 -5 -3 0.4 0.05
-12 -5 -3 0.38 0.07
12 -5 3 0.38 0.06
12 5 -3 0.37 0.07
12 -5 3 0.43 0.08
12 5 3 0.43 0.07
12 -5 -3 0.3 0.07
-12 -5 3 0.4 0.06
-12 5 -3 0.32 0.05
13 -5 3 0.11 0.06
-13 -5 -3 0.1 0.05
13 5 -3 0.14 0.05
-13 -5 -3 0.08 0.03
13 -5 -3 0.07 0.06
-13 -5 3 0.17 0.05
13 5 3 0.17 0.06
-13 5 -3 0.14 0.04
0 6 3 4.3 0.19
0 -6 3 4.32 0.18
0 6 -3 3.97 0.19
0 -6 3 4.39 0.22
0 -6 -3 3.97 0.19
0 -6 -3 4.08 0.21
1 6 -3 0.83 0.07
-1 -6 -3 0.85 0.08
1 -6 3 0.87 0.06
1 -6 3 0.92 0.1
-1 6 3 0.85 0.07
-1 -6 -3 0.73 0.07
1 -6 -3 0.89 0.08
-1 -6 3 0.97 0.09
-1 6 -3 0.82 0.07
-1 -6 3 0.87 0.06
1 6 3 0.77 0.07
1 -6 -3 0.76 0.07
-2 -6 -3 4.4 0.2
-2 -6 -3 4.47 0.22
2 -6 3 4.39 0.23
2 -6 3 4.39 0.19
-2 6 3 4.56 0.2
2 6 -3 4.39 0.2
-2 -6 3 4.52 0.18
2 -6 -3 4.28 0.21
-2 6 -3 4.37 0.2
-2 -6 3 4.48 0.22
2 6 3 4.6 0.21
2 -6 -3 4.23 0.2
-3 -6 -3 0.24 0.04
3 -6 3 0.24 0.04
3 6 -3 0.21 0.04
-3 6 3 0.21 0.04
3 -6 3 0.16 0.05
-3 -6 -3 0.28 0.05
3 6 3 0.17 0.04
-3 -6 3 0.23 0.02
3 -6 -3 0.18 0.05
3 -6 -3 0.24 0.04
-3 -6 3 0.25 0.05
-3 6 -3 0.3 0.05
-3 -6 3 0.25 0.02
4 6 -3 4.14 0.19
-4 -6 -3 4.23 0.21
4 -6 3 4.29 0.19
-4 -6 -3 4.03 0.18
4 -6 3 4.57 0.23
4 -6 -3 4.04 0.2
4 -6 -3 4.1 0.21
-4 -6 3 4.49 0.21
4 6 3 4.44 0.2
-4 6 -3 4.09 0.2
4 -6 -3 4.29 0.21
5 -6 3 0.05 0.04
5 6 -3 0.02 0.03
5 -6 3 0.05 0.03
-5 -6 -3 0.05 0.04
-5 -6 -3 0.03 0.02
5 -6 -3 0.02 0.04
-5 6 -3 0.04 0.03
-5 -6 3 0.02 0.04
5 -6 -3 0.02 0.03
5 -6 -3 -0.01 0.04
5 6 3 0.05 0.04
-6 -6 -3 3.28 0.15
-6 6 3 3.31 0.17
6 -6 3 3.13 0.19
-6 -6 -3 3.36 0.18
6 -6 3 3.27 0.16
-6 -6 3 3.3 0.18
6 6 3 3.3 0.17
6 -6 -3 3.17 0.17
-6 6 -3 3.3 0.16
6 -6 -3 3.16 0.18
-7 6 3 0.6 0.07
-7 -6 -3 0.52 0.05
-7 -6 -3 0.59 0.08
7 -6 3 0.56 0.06
7 -6 3 0.48 0.08
7 -6 -3 0.48 0.06
7 -6 -3 0.59 0.08
-7 -6 3 0.52 0.07
-7 6 -3 0.53 0.06
7 6 3 0.49 0.07
-8 -6 -3 1.8 0.13
8 -6 3 1.77 0.12
-8 -6 -3 1.76 0.09
8 -6 3 1.83 0.14
8 6 -3 1.94 0.13
-8 6 3 1.63 0.11
8 -6 -3 1.69 0.12
-8 -6 3 1.84 0.12
8 -6 -3 1.84 0.13
8 6 3 1.87 0.12
-8 6 -3 1.84 0.11
9 -6 3 0.31 0.06
-9 6 3 0.24 0.05
-9 -6 -3 0.38 0.07
9 6 -3 0.34 0.06
9 -6 3 0.35 0.07
-9 -6 -3 0.29 0.03
-9 6 -3 0.22 0.05
-9 -6 3 0.27 0.05
9 6 3 0.27 0.06
9 -6 -3 0.26 0.06
9 -6 -3 0.25 0.05
-10 -6 -3 0.81 0.09
10 -6 3 0.98 0.11
10 -6 3 0.81 0.08
-10 -6 -3 0.64 0.05
10 6 -3 0.67 0.08
-10 -6 3 0.89 0.08
10 6 3 0.87 0.09
10 -6 -3 0.73 0.09
-10 6 -3 0.67 0.07
10 -6 -3 0.74 0.08
11 -6 3 0.09 0.04
11 -6 3 0.1 0.06
-11 -6 -3 0.05 0.02
11 6 -3 0.08 0.05
-11 -6 -3 0.1 0.05
-11 6 -3 0.03 0.04
11 6 3 0.04 0.05
-11 -6 3 0.05 0.04
11 -6 -3 0.04 0.04
11 -6 -3 0.17 0.06
0 -7 3 0.18 0.03
0 -7 -3 0.34 0.05
0 -7 -3 0.31 0.06
0 7 -3 0.32 0.05
0 -7 3 0.19 0.06
-1 -7 -3 0.17 0.04
1 -7 3 0.29 0.06
1 7 -3 0.22 0.05
1 -7 3 0.14 0.03
-1 -7 -3 0.2 0.05
-1 7 -3 0.19 0.04
1 -7 -3 0.2 0.05
1 7 3 0.25 0.05
1 -7 -3 0.2 0.04
-1 -7 3 0.19 0.02
-1 -7 3 0.22 0.06
2 -7 3 0.31 0.07
-2 -7 -3 0.32 0.06
-2 -7 -3 0.35 0.04
2 7 -3 0.29 0.05
2 -7 3 0.3 0.04
2 -7 -3 0.28 0.06
2 7 3 0.33 0.05
2 -7 -3 0.37 0.05
-2 7 -3 0.43 0.06
-2 -7 3 0.42 0.07
-3 -7 -3 0.39 0.07
3 -7 3 0.42 0.08
-3 -7 -3 0.41 0.04
3 -7 3 0.44 0.05
3 7 -3 0.39 0.05
-3 -7 3 0.41 0.07
3 -7 -3 0.43 0.07
-3 7 -3 0.36 0.06
3 -7 -3 0.48 0.06
3 7 3 0.3 0.05
-4 -7 -3 0.74 0.06
4 -7 3 0.59 0.06
-4 -7 -3 0.81 0.09
4 7 -3 0.68 0.07
4 -7 3 0.61 0.09
4 -7 -3 0.62 0.08
4 7 3 0.63 0.07
4 -7 -3 0.85 0.08
-4 7 -3 0.68 0.07
-4 -7 3 0.52 0.07
5 -7 3 0.38 0.07
-5 -7 -3 0.31 0.04
-5 -7 -3 0.34 0.07
5 -7 3 0.33 0.05
-5 7 3 0.32 0.06
5 -7 -3 0.34 0.05
-5 -7 3 0.32 0.06
-5 7 -3 0.32 0.06
5 7 3 0.35 0.06
-6 -7 -3 0.34 0.07
6 -7 3 0.37 0.08
-6 7 3 0.37 0.06
-6 -7 -3 0.49 0.04
6 -7 3 0.42 0.06
6 7 3 0.42 0.06
-6 7 -3 0.48 0.06
-6 -7 3 0.53 0.07
6 -7 -3 0.38 0.06
7 -7 3 0.02 0.05
-7 -7 -3 0.09 0.05
7 -7 3 0.06 0.04
-7 -7 -3 0.05 0.02
-7 7 3 0.02 0.04
-7 -7 3 0.08 0.05
7 -7 -3 0.09 0.04
7 7 3 0.04 0.04
-7 7 -3 0 0.04
7 -7 -3 0.05 0.05
0 0 -4 13.58 0.5
0 0 4 11.09 0.5
0 0 -4 13.65 0.5
0 0 4 10.79 0.5
0 0 -4 13.49 0.49
-1 0 4 0.02 0.02
-1 0 4 -0.03 0.02
1 0 4 -0.01 0.01
1 0 4 -0.05 0.02
1 0 -4 -0.02 0.02
1 0 -4 0.01 0.02
1 0 4 -0.02 0.02
1 0 -4 0.01 0.01
-1 0 -4 0.04 0.02
-1 0 -4 0.01 0.02
2 0 -4 54.17 1.99
-2 0 4 49.3 1.99
2 0 -4 52.65 1.99
2 0 4 49.77 2.02
-2 0 4 49.83 1.99
-2 0 -4 54.43 2
2 0 -4 51.99 1.99
2 0 4 50.95 1.99
-2 0 -4 52.62 1.99
2 0 4 50.33 1.99
-3 0 4 -0.01 0.02
3 0 -4 0 0.02
3 0 4 -0.01 0.02
3 0 -4 -0.01 0.02
-3 0 -4 -0.01 0.02
3 0 4 -0.02 0.02
3 0 4 0 0.02
-3 0 -4 0.01 0.02
3 0 -4 0.01 0.01
-3 0 4 0.02 0.02
4 0 4 76.64 2.93
-4 0 -4 75.73 2.94
4 0 -4 75.44 2.94
-4 0 4 76.06 2.93
-4 0 -4 77.13 2.93
-4 0 4 75.75 2.93
4 0 -4 75.81 2.92
4 0 -4 74.85 2.93
4 0 4 77.82 2.93
-5 0 -4 0.02 0.02
5 0 4 0 0.02
5 0 -4 0.05 0.02
5 0 -4 -0.02 0.01
-5 0 -4 -0.01 0.02
5 0 4 -0.01 0.02
-5 0 4 -0.01 0.02
5 0 -4 0.01 0.02
-5 0 4 0.05 0.02
5 0 4 0 0.02
6 0 4 24.01 0.92
-6 0 4 23.54 0.93
-6 0 4 22.97 0.93
-6 0 -4 23.92 0.94
6 0 4 23.59 0.93
-6 0 -4 23.71 0.93
6 0 -4 24.74 0.94
6 0 4 23.61 0.93
7 0 4 -0.01 0.02
7 0 -4 0.02 0.03
7 0 4 0 0.02
-7 0 4 0.02 0.02
-7 0 4 -0.01 0.02
-7 0 -4 0.01 0.02
7 0 4 0.01 0.02
-7 0 -4 0.02 0.02
-8 0 4 1.13 0.08
8 0 4 1.11 0.07
-8 0 4 1.09 0.07
8 0 4 1.1 0.07
-9 0 -4 -0.01 0.02
-9 0 -4 0 0.03
9 0 -4 0.01 0.03
-9 0 4 0.02 0.03
9 0 4 -0.03 0.03
-9 0 4 0 0.02
-10 0 -4 14.54 0.58
-10 0 4 14.28 0.58
10 0 -4 14.87 0.59
-10 0 -4 14.06 0.58
-10 0 4 13.95 0.58
10 0 4 14.16 0.57
11 0 -4 0.04 0.04
-11 0 -4 -0.02 0.03
-11 0 -4 -0.02 0.03
-11 0 4 0.02 0.03
11 0 4 -0.02 0.03
-11 0 4 -0.01 0.03
-12 0 -4 13.25 0.57
-12 0 4 14.16 0.57
-12 0 4 13.87 0.56
12 0 -4 13.36 0.57
-12 0 -4 13.93 0.56
12 0 4 13.72 0.56
-13 0 4 0 0.04
-13 0 -4 -0.01 0.03
-13 0 4 0.03 0.04
-13 0 -4 -0.05 0.03
13 0 4 -0.02 0.03
13 0 -4 0.03 0.04
-14 0 4 1.72 0.11
14 0 4 1.75 0.11
-14 0 4 1.71 0.12
-14 0 -4 1.68 0.12
-14 0 -4 1.76 0.11
14 0 -4 1.74 0.13
-15 0 4 0.02 0.04
15 0 4 -0.04 0.03
-15 0 -4 0.02 0.04
-15 0 -4 0 0.04
15 0 -4 0 0.05
-15 0 4 0.03 0.04
-16 0 -4 0.2 0.05
-16 0 4 0.1 0.05
16 0 -4 0.14 0.06
-16 0 4 0.06 0.04
-16 0 -4 0.16 0.05
0 1 4 41.88 1.67
0 1 4 41.78 1.67
0 -1 -4 45.81 1.66
0 -1 4 40.27 1.67
0 -1 -4 44.92 1.67
0 -1 4 40.68 1.67
0 -1 -4 45.62 1.66
0 -1 4 40.14 1.66
0 1 -4 44.48 1.66
0 1 -4 45.47 1.67
-1 1 4 18.14 0.7
1 -1 4 17.85 0.7
-1 -1 -4 17.84 0.69
1 -1 4 17.52 0.7
1 -1 4 17.81 0.69
-1 -1 -4 17.7 0.69
-1 -1 -4 17.99 0.7
1 1 -4 17.49 0.7
1 1 -4 17.42 0.69
-1 1 -4 17.71 0.7
-1 -1 4 17.08 0.69
1 -1 -4 17.71 0.69
-1 -1 4 18.15 0.7
-1 1 -4 17.25 0.69
1 -1 -4 17.81 0.69
1 1 4 18.12 0.7
-1 -1 4 17.7 0.7
1 -1 -4 17.29 0.7
1 1 4 17.86 0.7
2 -1 4 19.53 0.8
-2 -1 -4 20.98 0.8
-2 -1 -4 21.36 0.79
2 -1 4 18.71 0.79
-2 1 4 19.07 0.8
2 1 -4 21.67 0.8
2 1 -4 21.56 0.79
2 1 -4 21.45 0.8
-2 -1 -4 21.92 0.8
2 -1 4 20.01 0.8
-2 1 4 18.67 0.8
2 1 4 19.18 0.8
-2 -1 4 18.64 0.79
2 -1 -4 22.05 0.79
2 1 4 19.05 0.8
-2 -1 4 18.75 0.8
2 -1 -4 21.65 0.8
-2 1 -4 21.7 0.8
-2 1 -4 21.45 0.79
2 -1 -4 21.29 0.8
-2 -1 4 18.32 0.8
3 -1 4 5.11 0.21
3 -1 4 5.01 0.22
-3 -1 -4 5.22 0.2
-3 1 4 5.17 0.22
-3 -1 -4 4.99 0.22
-3 -1 -4 5.12 0.21
3 -1 4 5.18 0.21
3 1 -4 5.04 0.2
3 1 -4 4.82 0.22
-3 1 4 4.84 0.21
3 1 4 4.77 0.21
3 -1 -4 4.96 0.21
3 -1 -4 4.92 0.22
3 -1 -4 4.94 0.21
-3 1 -4 4.91 0.21
-3 1 -4 4.93 0.22
3 1 4 5.25 0.22
-3 -1 4 5.02 0.22
-3 -1 4 4.98 0.21
4 -1 4 64.07 2.44
-4 1 4 63.59 2.44
4 -1 4 60.96 2.43
4 -1 4 62.92 2.43
4 1 -4 65.14 2.42
-4 -1 -4 65.06 2.44
4 1 -4 63.32 2.44
-4 -1 -4 65.21 2.42
4 -1 4 63.16 2.44
-4 -1 -4 62.02 2.43
-4 1 4 63.59 2.43
4 -1 -4 63.51 2.44
4 1 4 61.8 2.43
-4 1 -4 64.04 2.44
4 -1 -4 64.7 2.45
-4 1 -4 63.65 2.49
-4 -1 4 60.43 2.43
-4 -1 4 62.24 2.43
4 1 4 59.79 2.44
4 -1 -4 63.82 2.44
5 1 -4 3.24 0.15
-5 -1 -4 3.36 0.15
5 -1 4 3.13 0.15
5 -1 4 3.35 0.16
-5 1 4 3.31 0.16
5 1 -4 3.39 0.13
-5 -1 -4 3.37 0.15
5 -1 4 3.27 0.15
-5 1 -4 3.22 0.15
5 1 4 3.16 0.15
-5 1 -4 3.31 0.15
5 1 4 3.4 0.15
-5 -1 4 3.65 0.15
5 -1 -4 3.34 0.16
-5 -1 4 3.25 0.15
5 -1 -4 3.42 0.14
5 -1 -4 3.29 0.16
6 -1 4 3.8 0.17
6 -1 4 3.6 0.17
6 -1 4 3.73 0.18
-6 1 4 3.64 0.17
6 1 -4 4.2 0.18
-6 1 4 3.78 0.18
-6 -1 -4 4.14 0.18
-6 -1 -4 4.29 0.18
6 -1 -4 4.12 0.18
-6 1 -4 4.29 0.17
6 -1 -4 4.2 0.18
-6 1 -4 4.34 0.18
-6 -1 4 3.69 0.17
-6 -1 4 3.8 0.18
6 -1 -4 4.28 0.16
6 1 4 3.48 0.17
-7 1 4 8.36 0.35
7 -1 4 8.18 0.33
7 -1 4 8.19 0.34
-7 -1 -4 8.32 0.34
7 1 -4 8.08 0.35
-7 -1 -4 8.1 0.34
7 -1 4 8.27 0.34
-7 1 4 8.42 0.34
-7 -1 4 8.15 0.34
-7 1 -4 8.22 0.34
-7 1 -4 8.49 0.35
7 1 4 8.24 0.34
-7 -1 4 8.32 0.34
7 -1 -4 7.96 0.35
8 -1 4 10.73 0.46
-8 -1 -4 12.7 0.48
-8 1 4 11.01 0.47
8 -1 4 10.8 0.47
8 -1 4 10.25 0.47
-8 -1 -4 12.67 0.47
8 1 -4 12.42 0.48
-8 1 4 11.08 0.47
-8 -1 4 10.71 0.47
-8 1 -4 12.67 0.48
8 1 4 10.83 0.47
-8 1 -4 12.64 0.47
8 -1 -4 12.57 0.48
-8 -1 4 10.98 0.47
9 -1 4 4.38 0.19
-9 1 4 4.42 0.2
-9 -1 -4 4.37 0.2
9 1 -4 4.35 0.21
-9 1 4 4.71 0.2
-9 -1 -4 4.12 0.2
9 -1 4 4.35 0.2
9 -1 -4 4.45 0.21
-9 1 -4 4.41 0.2
-9 -1 4 4.51 0.2
-9 -1 4 4.42 0.2
-9 1 -4 4.38 0.2
9 1 4 4.47 0.2
-10 1 4 7.16 0.3
-10 -1 -4 7.4 0.31
-10 -1 -4 7.37 0.31
10 1 -4 7.28 0.32
10 -1 4 6.7 0.3
10 -1 4 6.63 0.3
-10 1 4 6.83 0.31
10 -1 -4 7.63 0.32
-10 -1 4 7.04 0.31
10 1 4 7.16 0.31
-10 1 -4 7.21 0.31
-10 1 -4 7.65 0.3
-10 -1 4 6.9 0.3
-11 1 4 0.88 0.08
11 -1 4 0.93 0.07
-11 -1 -4 1.07 0.08
-11 -1 -4 0.88 0.08
11 1 -4 1.03 0.09
-11 1 4 0.93 0.07
11 -1 4 0.74 0.07
11 -1 -4 0.88 0.09
-11 1 -4 0.91 0.08
-11 -1 4 0.91 0.07
-11 1 -4 0.9 0.08
11 1 4 0.95 0.08
-11 -1 4 0.89 0.08
12 1 -4 10.23 0.45
-12 -1 -4 10.63 0.44
-12 -1 -4 10.8 0.44
-12 1 4 10.35 0.43
-12 1 4 10.45 0.44
-12 -1 4 10.29 0.43
-12 1 -4 10.58 0.43
12 -1 -4 10.04 0.45
12 1 4 10.5 0.44
-12 1 -4 10.58 0.44
-12 -1 4 10.35 0.44
-13 -1 -4 0.39 0.06
13 1 -4 0.48 0.07
-13 -1 -4 0.42 0.06
-13 1 4 0.36 0.05
-13 1 4 0.37 0.06
-13 -1 4 0.38 0.05
13 -1 -4 0.36 0.07
-13 1 -4 0.35 0.06
-13 1 -4 0.44 0.05
-13 -1 4 0.4 0.06
13 1 4 0.43 0.06
-14 1 4 0.43 0.07
-14 -1 -4 0.5 0.06
14 1 -4 0.45 0.07
-14 1 4 0.55 0.06
-14 -1 -4 0.55 0.07
-14 -1 4 0.47 0.06
-14 1 -4 0.52 0.06
-14 -1 4 0.51 0.06
14 -1 -4 0.48 0.08
14 1 4 0.58 0.07
-15 -1 -4 0.69 0.07
-15 1 4 0.56 0.07
-15 -1 -4 0.63 0.07
-15 1 4 0.7 0.08
15 1 -4 0.67 0.09
15 -1 -4 0.62 0.09
-15 -1 4 0.7 0.07
-15 -1 4 0.57 0.07
-15 1 -4 0.69 0.07
15 1 4 0.71 0.08
-16 -1 -4 0.43 0.07
-16 -1 -4 0.41 0.06
-16 1 4 0.34 0.06
16 1 -4 0.32 0.07
-16 1 4 0.31 0.06
16 -1 -4 0.31 0.07
-16 1 -4 0.41 0.06
16 1 4 0.3 0.06
-16 -1 4 0.3 0.06
-16 -1 4 0.36 0.06
0 -2 4 4.32 0.2
0 -2 -4 5.2 0.21
0 2 -4 5.09 0.2
0 -2 -4 5.15 0.21
0 -2 -4 5.23 0.2
0 2 4 4.42 0.21
0 -2 4 4.33 0.21
0 2 4 4.45 0.21
0 -2 4 4.57 0.2
-1 -2 -4 22.13 0.87
1 -2 4 21.83 0.87
-1 -2 -4 22.09 0.85
1 -2 4 22.32 0.87
1 2 -4 22.4 0.86
-1 2 4 22.23 0.87
-1 2 4 22.02 0.87
-1 -2 -4 21.9 0.87
1 -2 4 22.35 0.86
1 -2 -4 22.4 0.86
-1 2 -4 21.87 0.86
1 -2 -4 21.68 0.87
1 2 4 21.84 0.87
-1 -2 4 22.42 0.87
-1 -2 4 22.06 0.86
1 -2 -4 21.92 0.86
-1 -2 4 21.75 0.87
1 2 4 22.54 0.87
2 -2 4 16.77 0.68
-2 2 4 16.99 0.69
-2 2 4 17.03 0.69
2 2 -4 18.23 0.68
2 -2 4 16.27 0.69
2 -2 4 17.03 0.69
-2 -2 -4 17.88 0.69
-2 -2 -4 18.27 0.69
2 -2 -4 18.33 0.69
-2 -2 4 16.71 0.69
2 -2 -4 18.37 0.69
-2 2 -4 17.75 0.69
-2 -2 4 16.97 0.68
2 2 4 17.02 0.69
2 -2 -4 18.42 0.69
-2 2 -4 18.09 0.68
2 2 4 16.67 0.69
-2 -2 4 16.84 0.69
3 -2 4 6.74 0.29
3 -2 4 6.61 0.28
-3 2 4 6.69 0.29
3 -2 4 6.51 0.29
-3 -2 -4 7.16 0.29
-3 -2 -4 7.23 0.29
3 2 -4 7.41 0.27
3 -2 4 6.58 0.29
-3 2 4 6.44 0.29
3 -2 -4 7.22 0.29
3 2 4 6.26 0.29
3 -2 -4 7.49 0.29
-3 -2 4 6.46 0.28
-3 2 -4 7.23 0.28
-3 2 -4 7.3 0.29
-3 -2 4 6.61 0.29
-3 -2 4 6.58 0.28
3 -2 -4 7.36 0.28
4 2 -4 17.09 0.71
-4 -2 -4 17.57 0.71
-4 2 4 18.71 0.71
4 -2 4 18.64 0.72
4 2 -4 18.19 0.7
-4 -2 -4 17.71 0.71
4 -2 4 18.4 0.72
4 -2 4 18.15 0.7
-4 2 4 18.25 0.72
-4 2 -4 17.75 0.71
4 2 4 18.26 0.71
4 -2 -4 18.3 0.72
-4 -2 4 17.91 0.71
4 -2 -4 17.34 0.71
-4 2 -4 17.7 0.71
-4 -2 4 18.26 0.71
4 -2 -4 17.5 0.7
5 -2 4 5.81 0.25
-5 2 4 6.02 0.27
-5 -2 -4 6.64 0.27
5 -2 4 5.81 0.27
-5 -2 -4 6.55 0.27
5 2 -4 6.57 0.27
5 2 -4 6.66 0.25
-5 2 4 5.81 0.26
5 -2 4 5.84 0.27
5 2 4 6.07 0.27
-5 -2 4 6 0.26
5 -2 -4 6.58 0.27
-5 -2 4 5.89 0.26
-5 2 -4 6.59 0.26
5 -2 -4 6.64 0.26
-5 2 -4 6.5 0.27
5 -2 -4 6.78 0.27
6 -2 4 6.09 0.27
-6 2 4 5.98 0.26
6 2 -4 6.5 0.27
6 -2 4 5.84 0.25
-6 -2 -4 6.57 0.27
6 -2 4 5.74 0.27
-6 2 4 6.06 0.27
-6 -2 -4 6.47 0.27
-6 2 -4 6.63 0.26
6 -2 -4 6.31 0.27
6 2 4 5.51 0.26
6 -2 -4 6.49 0.27
-6 -2 4 5.89 0.26
6 -2 -4 6.53 0.25
-6 -2 4 5.82 0.26
-7 -2 -4 10.91 0.45
7 2 -4 11.01 0.45
7 -2 4 10.27 0.45
-7 2 4 11.07 0.45
7 -2 4 10.88 0.43
7 -2 4 10.73 0.45
-7 2 4 11.13 0.44
-7 -2 -4 11.08 0.45
7 -2 -4 10.53 0.45
-7 -2 4 10.99 0.44
7 -2 -4 11.05 0.45
-7 -2 4 10.56 0.44
7 2 4 11.42 0.45
-7 2 -4 10.91 0.44
-8 2 4 0.96 0.07
-8 2 4 0.86 0.08
8 2 -4 1.16 0.08
-8 -2 -4 1.19 0.08
8 -2 4 0.95 0.08
-8 -2 -4 1.24 0.08
8 -2 4 0.91 0.07
-8 -2 4 0.9 0.07
-8 -2 4 0.85 0.07
8 -2 -4 1.15 0.09
8 2 4 0.89 0.08
-8 2 -4 1.13 0.07
-9 2 4 9.67 0.4
-9 2 4 9.55 0.39
9 2 -4 9.42 0.4
-9 -2 -4 9.03 0.4
9 -2 4 9.28 0.4
-9 -2 -4 9.49 0.4
9 -2 4 9.78 0.4
-9 -2 4 9.56 0.39
-9 2 -4 9.2 0.39
9 -2 -4 9.57 0.41
-9 -2 4 9.65 0.39
10 2 -4 4.36 0.21
-10 2 4 4.29 0.2
10 -2 4 4.01 0.2
-10 2 4 4.06 0.19
-10 -2 -4 4.36 0.2
-10 -2 -4 4.31 0.2
10 2 4 3.97 0.2
-10 -2 4 4.15 0.19
10 -2 -4 4.56 0.21
-10 2 -4 4.38 0.19
-10 -2 4 4.01 0.19
-11 -2 -4 1.28 0.09
11 -2 4 1.04 0.09
-11 2 4 1.14 0.08
-11 -2 -4 1.17 0.09
11 2 -4 1.25 0.1
-11 2 4 1.06 0.09
-11 -2 4 1.19 0.08
11 -2 -4 1.19 0.1
-11 2 -4 1.22 0.08
-11 -2 4 1.18 0.09
11 2 4 1.24 0.09
-12 2 4 4.23 0.2
-12 2 4 4.3 0.21
12 2 -4 4.39 0.22
12 -2 4 4.4 0.21
-12 -2 -4 4.27 0.21
-12 -2 -4 4.17 0.2
12 -2 -4 4.24 0.22
-12 2 -4 4.13 0.2
-12 -2 4 4.17 0.2
12 2 4 4.45 0.21
-12 -2 4 4.36 0.2
-13 2 4 1.01 0.08
13 2 -4 1.11 0.1
-13 -2 -4 1.05 0.09
-13 -2 -4 1.02 0.09
-13 2 4 0.9 0.09
13 -2 4 0.92 0.09
13 2 4 0.98 0.09
-13 -2 4 0.84 0.08
-13 2 -4 1.14 0.08
13 -2 -4 1.07 0.11
-13 -2 4 1.03 0.09
-14 -2 -4 0.2 0.05
-14 2 4 0.16 0.04
-14 2 4 0.16 0.05
-14 -2 -4 0.16 0.05
14 2 -4 0.28 0.07
-14 -2 4 0.19 0.05
-14 -2 4 0.17 0.04
-14 2 -4 0.17 0.04
14 2 4 0.22 0.05
14 -2 -4 0.15 0.06
-15 2 4 1.57 0.11
-15 -2 -4 1.64 0.12
15 2 -4 1.56 0.13
-15 -2 -4 1.64 0.12
-15 2 -4 1.63 0.11
15 2 4 1.58 0.12
-15 -2 4 1.59 0.12
-15 -2 4 1.51 0.11
15 -2 -4 1.82 0.14
0 -3 4 10.49 0.42
0 3 -4 10.53 0.42
0 -3 -4 10.42 0.43
0 -3 4 10.68 0.43
0 -3 4 10.69 0.44
0 -3 -4 10.36 0.43
0 3 4 10.79 0.43
-1 -3 -4 39.1 1.54
1 3 -4 39.11 1.52
1 -3 4 40.12 1.52
-1 -3 -4 39.26 1.54
-1 3 4 39.83 1.53
1 -3 4 40.27 1.54
1 -3 4 39.13 1.53
-1 3 -4 38.82 1.53
1 -3 -4 39.34 1.53
-1 -3 4 39.46 1.52
1 -3 -4 38.69 1.53
-1 -3 4 40.39 1.53
1 3 4 39.6 1.53
-1 -3 4 39.77 1.54
1 -3 -4 39.68 1.54
-2 3 4 0.95 0.07
2 -3 4 1.05 0.07
-2 -3 -4 1.06 0.07
2 -3 4 1.1 0.06
2 -3 4 0.98 0.08
-2 -3 -4 1.29 0.08
2 3 -4 1.17 0.06
-2 -3 4 0.98 0.08
2 -3 -4 1.28 0.07
2 -3 -4 1.16 0.08
-2 -3 4 1.03 0.06
2 3 4 1.14 0.08
2 -3 -4 1.17 0.07
-2 3 -4 1.04 0.06
-2 -3 4 1.12 0.07
3 -3 4 10.27 0.41
-3 -3 -4 10.07 0.42
3 3 -4 9.98 0.4
-3 3 4 10.22 0.41
-3 -3 -4 9.63 0.41
3 -3 4 10.29 0.42
-3 3 -4 9.78 0.41
-3 -3 4 10.31 0.41
3 -3 -4 9.8 0.41
-3 -3 4 10.69 0.42
3 -3 -4 10.09 0.42
3 -3 -4 9.78 0.41
-3 -3 4 10.21 0.4
3 3 4 10.23 0.41
4 -3 4 5.84 0.26
4 3 -4 6.03 0.24
-4 -3 -4 6.05 0.26
-4 3 4 6.02 0.25
4 -3 4 6.34 0.27
-4 -3 -4 5.89 0.26
4 -3 -4 6.11 0.26
4 -3 -4 5.85 0.25
-4 3 -4 6.33 0.25
-4 -3 4 5.78 0.26
-4 -3 4 5.72 0.25
4 3 4 5.94 0.26
-4 -3 4 5.71 0.25
4 -3 -4 6.13 0.26
-5 3 4 7.62 0.32
5 -3 4 7.52 0.33
5 -3 4 7.61 0.32
-5 -3 -4 7.56 0.32
-5 -3 -4 7.85 0.32
5 -3 -4 7.39 0.32
-5 3 -4 7.92 0.32
5 -3 -4 7.56 0.32
-5 -3 4 7.51 0.31
5 3 4 7.5 0.32
5 -3 -4 7.58 0.31
-5 -3 4 7.78 0.31
-5 -3 4 7.62 0.33
6 -3 4 1.1 0.08
-6 -3 -4 1.3 0.09
6 3 -4 1.26 0.09
-6 3 4 1.21 0.08
6 -3 4 1.08 0.09
-6 -3 -4 1.2 0.08
6 -3 -4 1.46 0.09
6 3 4 1.2 0.08
6 -3 -4 1.18 0.08
-6 -3 4 1.14 0.07
-6 3 -4 1.21 0.08
-6 -3 4 1.08 0.07
6 -3 -4 1.26 0.07
7 -3 4 19.51 0.78
-7 -3 -4 19.11 0.78
-7 -3 -4 18.65 0.78
7 3 -4 19.35 0.78
-7 3 4 19.96 0.77
7 -3 4 19.52 0.79
7 -3 -4 20.38 0.79
-7 -3 4 20.12 0.77
7 3 4 20.28 0.78
7 -3 -4 19.41 0.77
-7 -3 4 20.03 0.78
7 -3 -4 19.15 0.78
-7 3 -4 19.17 0.77
-8 3 4 3.16 0.15
-8 -3 -4 2.96 0.16
8 3 -4 3 0.16
8 -3 4 3.05 0.16
8 -3 4 3.05 0.17
-8 -3 -4 3.13 0.15
8 -3 -4 3.14 0.17
-8 -3 4 3.17 0.14
8 -3 -4 3.21 0.16
-8 3 -4 3.09 0.15
8 3 4 3.03 0.16
-8 -3 4 3.11 0.15
9 3 -4 10.79 0.46
9 -3 4 11.51 0.47
-9 3 4 11.28 0.45
-9 -3 -4 10.54 0.46
9 -3 4 11 0.46
-9 -3 -4 10.82 0.46
9 -3 -4 10.42 0.47
-9 -3 4 11.21 0.45
-9 3 -4 11.1 0.45
-9 -3 4 11.69 0.46
-10 -3 -4 0.3 0.05
10 3 -4 0.28 0.05
10 -3 4 0.26 0.05
-10 3 4 0.19 0.04
10 -3 4 0.35 0.05
-10 -3 -4 0.26 0.05
-10 3 -4 0.22 0.04
10 -3 -4 0.25 0.06
-10 -3 4 0.25 0.04
-10 -3 4 0.17 0.04
10 3 4 0.35 0.05
-11 -3 -4 1.68 0.11
11 -3 4 1.62 0.12
-11 -3 -4 1.59 0.1
11 3 -4 1.53 0.11
-11 3 4 1.78 0.1
-11 3 -4 1.66 0.1
11 -3 -4 1.65 0.12
11 3 4 1.7 0.11
-11 -3 4 1.7 0.11
-11 -3 4 1.61 0.09
12 3 -4 0.55 0.07
12 -3 4 0.66 0.08
-12 -3 -4 0.58 0.07
-12 3 4 0.59 0.06
-12 -3 -4 0.53 0.06
12 3 4 0.51 0.07
12 -3 -4 0.53 0.08
-12 -3 4 0.56 0.06
-12 -3 4 0.53 0.06
-12 3 -4 0.68 0.06
13 -3 4 1.07 0.1
-13 -3 -4 1.1 0.1
-13 3 4 1.09 0.08
13 3 -4 1.13 0.11
-13 -3 -4 1.07 0.09
-13 -3 4 0.9 0.08
-13 3 -4 1.19 0.09
-13 -3 4 1.17 0.09
13 3 4 1.05 0.1
13 -3 -4 1.17 0.12
-14 3 4 0.16 0.04
-14 -3 -4 0.08 0.04
14 3 -4 0.17 0.06
14 -3 4 0.14 0.05
-14 -3 -4 0.16 0.05
14 -3 -4 0.09 0.06
-14 -3 4 0.12 0.05
-14 -3 4 0.15 0.04
-14 3 -4 0.17 0.05
14 3 4 0.17 0.05
0 -4 4 10.78 0.43
0 -4 -4 10.55 0.44
0 4 4 10.24 0.43
0 4 -4 10.6 0.43
0 -4 -4 10.54 0.44
0 -4 4 10.77 0.45
-1 -4 -4 10.05 0.42
-1 4 4 10.11 0.42
1 -4 4 9.78 0.41
1 -4 4 10.31 0.43
-1 -4 -4 10.19 0.42
1 4 -4 10.16 0.41
-1 -4 4 9.98 0.43
1 4 4 10.47 0.42
1 -4 -4 10.39 0.42
1 -4 -4 10.02 0.42
-1 4 -4 9.88 0.41
-1 -4 4 10.31 0.41
-1 -4 4 9.83 0.4
-2 -4 -4 3.74 0.19
-2 -4 -4 3.92 0.18
2 4 -4 3.73 0.17
2 -4 4 4.2 0.18
2 -4 4 4.43 0.2
-2 4 4 4.11 0.18
2 -4 4 4.37 0.18
2 -4 -4 3.74 0.18
-2 -4 4 4.3 0.17
2 -4 -4 3.69 0.18
-2 4 -4 3.87 0.18
-2 -4 4 4.32 0.18
2 -4 -4 3.64 0.18
2 4 4 4.24 0.19
-3 -4 -4 3.2 0.15
-3 -4 -4 3.06 0.14
3 -4 4 2.57 0.15
-3 4 4 2.7 0.14
3 4 -4 3.12 0.13
3 -4 4 2.57 0.14
-3 -4 4 2.61 0.15
-3 -4 4 2.49 0.13
-3 4 -4 3.12 0.14
3 -4 -4 2.96 0.14
3 -4 -4 3.19 0.15
3 4 4 2.53 0.14
3 -4 -4 2.89 0.14
-3 -4 4 2.65 0.13
-4 4 4 2.41 0.12
-4 -4 -4 2.27 0.13
4 4 -4 2.33 0.11
4 -4 4 2.64 0.14
4 -4 4 2.42 0.12
-4 -4 -4 2.42 0.12
-4 -4 4 2.64 0.14
-4 -4 4 2.47 0.12
4 -4 -4 2.45 0.13
4 -4 -4 2.34 0.13
4 -4 -4 2.25 0.12
-4 -4 4 2.4 0.11
4 4 4 2.47 0.13
-4 4 -4 2.46 0.12
5 -4 4 1.64 0.1
-5 4 4 1.71 0.1
5 -4 4 1.53 0.11
-5 -4 -4 2.02 0.1
-5 -4 -4 1.86 0.11
-5 4 -4 2 0.1
-5 -4 4 1.59 0.09
5 -4 -4 1.96 0.11
5 -4 -4 1.94 0.1
-5 -4 4 1.54 0.09
-5 -4 4 1.55 0.11
5 -4 -4 1.85 0.11
5 4 4 1.69 0.11
-6 -4 -4 2.31 0.14
-6 -4 -4 2.48 0.13
-6 4 4 3.02 0.14
6 -4 4 2.78 0.15
6 -4 4 2.83 0.14
6 -4 -4 2.43 0.13
-6 -4 4 2.96 0.15
-6 -4 4 2.67 0.12
-6 -4 4 2.84 0.13
6 -4 -4 2.6 0.14
-6 4 -4 2.65 0.13
6 4 4 2.68 0.14
6 -4 -4 2.69 0.14
7 -4 4 6.36 0.3
7 4 -4 6.39 0.29
-7 -4 -4 6.67 0.29
-7 -4 -4 6.48 0.28
7 -4 4 5.86 0.28
-7 4 4 6.53 0.27
7 -4 -4 6.76 0.29
7 -4 -4 6.38 0.27
7 -4 -4 6.38 0.29
-7 4 -4 6.7 0.28
7 4 4 6.26 0.28
-7 -4 4 6.31 0.26
-7 -4 4 6.45 0.28
-8 -4 -4 3.21 0.16
8 4 -4 3.26 0.17
8 -4 4 3.4 0.18
8 -4 4 3.18 0.17
-8 4 4 3.21 0.16
-8 -4 -4 3.04 0.17
8 -4 -4 3.24 0.17
-8 -4 4 3.39 0.15
8 -4 -4 3.42 0.18
8 4 4 3.23 0.17
-8 -4 4 3.35 0.16
-8 4 -4 3.22 0.16
9 -4 4 4.13 0.2
-9 -4 -4 4.21 0.21
-9 -4 -4 4.03 0.19
-9 4 4 4.32 0.19
9 -4 4 4.11 0.22
9 4 -4 4.21 0.21
9 -4 -4 4.13 0.21
-9 -4 4 4.43 0.2
-9 4 -4 3.92 0.19
-9 -4 4 4.23 0.18
9 4 4 4.27 0.2
9 -4 -4 3.94 0.2
-10 4 4 0.34 0.05
10 -4 4 0.4 0.06
-10 -4 -4 0.26 0.05
-10 -4 -4 0.31 0.06
10 4 -4 0.29 0.06
10 -4 4 0.32 0.06
-10 -4 4 0.29 0.05
10 4 4 0.12 0.04
-10 -4 4 0.37 0.04
-10 4 -4 0.31 0.05
10 -4 -4 0.29 0.06
-11 -4 -4 0.47 0.07
-11 -4 -4 0.47 0.06
11 -4 4 0.4 0.06
11 4 -4 0.49 0.07
11 -4 4 0.39 0.07
-11 4 4 0.4 0.05
-11 -4 4 0.43 0.06
11 -4 -4 0.57 0.08
-11 -4 4 0.42 0.04
11 4 4 0.43 0.06
-11 4 -4 0.54 0.06
12 4 -4 0.14 0.05
-12 -4 -4 0.14 0.04
-12 4 4 0.15 0.04
-12 -4 -4 0.12 0.05
12 -4 4 0.13 0.05
12 4 4 0.14 0.05
12 -4 -4 0.08 0.05
-12 -4 4 0.13 0.03
-12 -4 4 0.1 0.04
-12 4 -4 0.11 0.04
-13 -4 -4 0.39 0.05
-13 -4 -4 0.43 0.07
-13 4 4 0.33 0.05
13 -4 4 0.39 0.07
13 4 -4 0.61 0.08
-13 4 -4 0.41 0.06
13 -4 -4 0.54 0.09
13 4 4 0.31 0.07
-13 -4 4 0.26 0.06
-13 -4 4 0.38 0.04
0 -5 4 2.69 0.15
0 -5 -4 2.42 0.13
0 5 4 2.44 0.13
0 5 -4 2.5 0.13
0 -5 4 2.48 0.12
0 -5 -4 2.45 0.14
-1 -5 -4 5.43 0.24
-1 5 4 5.46 0.24
1 -5 4 5.46 0.24
-1 -5 -4 5.16 0.25
1 5 -4 5.61 0.24
1 -5 4 5.64 0.26
1 -5 -4 5.21 0.24
-1 -5 4 5.49 0.23
-1 -5 4 5.57 0.26
1 5 4 5.56 0.24
-1 5 -4 5.42 0.24
1 -5 -4 5.51 0.25
-2 5 4 2.78 0.14
-2 -5 -4 3.17 0.16
2 -5 4 2.89 0.16
2 5 -4 2.91 0.14
2 -5 4 3.06 0.14
-2 -5 -4 2.95 0.15
2 -5 -4 2.96 0.15
-2 5 -4 3.04 0.14
-2 -5 4 2.81 0.13
2 5 4 2.87 0.15
-2 -5 4 2.97 0.16
2 -5 -4 2.83 0.15
-3 5 4 0.58 0.06
3 5 -4 0.59 0.05
3 -5 4 0.7 0.08
-3 -5 -4 0.48 0.05
-3 -5 -4 0.5 0.07
3 -5 4 0.52 0.06
-3 -5 4 0.56 0.05
-3 -5 4 0.59 0.07
3 -5 -4 0.57 0.06
3 5 4 0.58 0.06
3 -5 -4 0.69 0.06
-3 5 -4 0.52 0.06
-4 -5 -4 1.12 0.09
4 5 -4 1 0.07
4 -5 4 1.17 0.1
-4 -5 -4 1.16 0.08
4 -5 4 1.28 0.08
-4 5 4 1.29 0.08
-4 5 -4 1.16 0.08
4 5 4 1.04 0.09
-4 -5 4 1.09 0.09
4 -5 -4 1 0.08
4 -5 -4 1.21 0.09
-4 -5 4 1.21 0.06
5 -5 4 0.72 0.08
-5 -5 -4 0.74 0.08
-5 -5 -4 0.83 0.07
5 -5 4 0.73 0.07
-5 5 4 0.73 0.06
5 -5 -4 0.72 0.07
-5 5 -4 0.69 0.06
5 5 4 0.7 0.07
-5 -5 4 0.65 0.07
5 -5 -4 0.74 0.07
5 -5 -4 0.73 0.07
-5 -5 4 0.65 0.05
-6 5 4 2.52 0.13
6 -5 4 2.48 0.14
-6 -5 -4 2.61 0.15
6 -5 4 2.87 0.16
-6 -5 -4 2.51 0.13
-6 -5 4 2.62 0.12
6 -5 -4 2.56 0.14
-6 -5 4 2.63 0.13
6 -5 -4 2.75 0.15
6 -5 -4 2.8 0.15
-6 -5 4 2.55 0.15
6 5 4 2.52 0.15
-6 5 -4 2.78 0.14
-7 -5 -4 2.79 0.14
-7 5 4 2.97 0.15
7 5 -4 2.91 0.16
7 -5 4 2.9 0.17
7 -5 4 3.09 0.16
-7 -5 -4 3.15 0.17
-7 5 -4 2.89 0.15
7 -5 -4 3.02 0.17
-7 -5 4 3.02 0.15
-7 -5 4 2.88 0.12
7 -5 -4 2.89 0.15
-7 -5 4 3.01 0.17
7 -5 -4 2.73 0.16
7 5 4 2.71 0.16
-8 -5 -4 1.4 0.11
-8 5 4 1.4 0.09
-8 -5 -4 1.37 0.09
8 5 -4 1.39 0.11
8 -5 4 1.37 0.1
8 -5 4 1.31 0.12
-8 -5 4 1.37 0.07
8 5 4 1.37 0.11
-8 5 -4 1.36 0.1
8 -5 -4 1.39 0.11
-8 -5 4 1.38 0.1
8 -5 -4 1.32 0.11
9 -5 4 1.82 0.14
-9 5 4 1.83 0.11
-9 -5 -4 1.91 0.13
9 5 -4 1.81 0.13
9 -5 4 1.88 0.12
-9 -5 -4 1.65 0.1
9 5 4 1.94 0.13
9 -5 -4 1.86 0.13
9 -5 -4 1.84 0.13
-9 5 -4 1.79 0.11
-9 -5 4 1.92 0.12
-9 -5 4 1.9 0.08
10 -5 4 0.63 0.07
-10 -5 -4 0.63 0.06
10 -5 4 0.55 0.08
10 5 -4 0.61 0.08
-10 -5 -4 0.76 0.08
10 5 4 0.54 0.07
10 -5 -4 0.57 0.08
-10 -5 4 0.64 0.07
-10 -5 4 0.58 0.03
10 -5 -4 0.71 0.09
-10 5 -4 0.56 0.06
11 -5 4 0.02 0.04
-11 -5 -4 0.01 0.03
11 -5 4 0.04 0.05
11 5 -4 -0.01 0.05
-11 -5 -4 0.07 0.05
11 5 4 0.03 0.04
-11 5 -4 0.04 0.04
11 -5 -4 -0.04 0.04
-11 -5 4 0.06 0.04
0 -6 4 3.23 0.15
0 6 -4 3.23 0.16
0 -6 -4 3.37 0.17
0 -6 -4 3.44 0.18
0 6 4 3.36 0.17
0 -6 4 3.4 0.19
1 6 -4 0.35 0.05
-1 -6 -4 0.3 0.05
-1 6 4 0.33 0.05
1 -6 4 0.28 0.04
-1 -6 -4 0.25 0.06
1 -6 4 0.32 0.07
1 -6 -4 0.36 0.05
1 6 4 0.42 0.06
1 -6 -4 0.32 0.06
-1 -6 4 0.31 0.06
-1 -6 4 0.32 0.04
-1 6 -4 0.38 0.05
2 6 -4 3.48 0.17
-2 6 4 3.46 0.17
2 -6 4 3.77 0.2
-2 -6 -4 3.4 0.17
-2 -6 -4 3.29 0.19
2 -6 4 3.32 0.17
2 -6 -4 3.55 0.18
2 6 4 3.49 0.18
-2 -6 4 3.57 0.19
2 -6 -4 3.53 0.18
-2 6 -4 3.44 0.17
-2 -6 4 3.74 0.16
3 6 -4 0.02 0.03
3 -6 4 0.05 0.05
-3 -6 -4 0.06 0.03
-3 -6 -4 0.03 0.04
-3 6 4 0.03 0.04
3 -6 4 0.04 0.03
3 6 4 0 0.04
-3 -6 4 0.08 0.05
-3 -6 4 0.04 0.02
3 -6 -4 0.01 0.04
-3 6 -4 0.04 0.04
3 -6 -4 0.12 0.04
-4 -6 -4 3.13 0.16
-4 -6 -4 3.27 0.18
4 -6 4 3.47 0.17
4 -6 4 3.18 0.19
-4 6 4 3.52 0.16
-4 -6 4 3.6 0.19
4 -6 -4 3.18 0.17
-4 -6 4 3.29 0.14
4 -6 -4 3.13 0.17
-4 6 -4 3.16 0.16
4 6 4 3.45 0.18
-5 6 4 0.06 0.04
5 -6 4 0.04 0.04
5 -6 4 0 0.05
-5 -6 -4 -0.02 0.04
-5 -6 -4 0.02 0.03
5 6 4 0.05 0.05
5 -6 -4 0.05 0.04
-5 6 -4 -0.01 0.03
5 -6 -4 0.1 0.04
-5 -6 4 0.06 0.05
6 -6 4 2.53 0.17
-6 -6 -4 2.35 0.13
-6 -6 -4 2.37 0.16
6 -6 4 2.79 0.14
-6 6 -4 2.52 0.14
6 -6 -4 2.47 0.15
6 -6 -4 2.48 0.14
6 6 4 2.66 0.15
-6 -6 4 2.63 0.16
7 -6 4 0.32 0.08
-7 -6 -4 0.19 0.04
7 -6 4 0.32 0.06
-7 6 4 0.23 0.05
-7 -6 -4 0.31 0.06
7 6 4 0.36 0.06
7 -6 -4 0.28 0.06
-7 6 -4 0.34 0.05
-7 -6 4 0.23 0.06
-8 -6 -4 1.34 0.12
8 6 -4 1.24 0.12
-8 6 4 1.12 0.1
8 -6 4 1.14 0.12
-8 -6 -4 1.11 0.08
8 -6 4 1.2 0.1
8 -6 -4 1.26 0.11
8 -6 -4 1.2 0.1
-8 6 -4 1.3 0.1
8 6 4 1.35 0.11
9 -6 4 0.08 0.06
9 6 -4 0.12 0.05
-9 -6 -4 0.1 0.05
-9 -6 -4 0.04 0.03
9 -6 4 0.14 0.05
9 6 4 0.04 0.05
9 -6 -4 0.07 0.04
-9 6 -4 0 0.04
9 -6 -4 0.13 0.06
0 -7 -4 0.32 0.05
0 7 4 0.46 0.06
0 -7 4 0.34 0.04
0 7 -4 0.39 0.05
0 -7 4 0.35 0.07
0 -7 -4 0.38 0.07
1 -7 4 0.06 0.03
-1 -7 -4 0.02 0.05
1 7 -4 0.01 0.03
1 -7 4 0 0.05
-1 -7 -4 0.04 0.03
1 7 4 0.09 0.04
1 -7 -4 0.02 0.04
-1 -7 4 0.07 0.05
1 -7 -4 0.03 0.03
-1 -7 4 0.04 0.02
-1 7 -4 0.02 0.04
-2 -7 -4 0.66 0.08
-2 -7 -4 0.57 0.06
2 7 -4 0.58 0.06
2 -7 4 0.46 0.08
2 -7 -4 0.64 0.07
2 -7 -4 0.65 0.08
-2 -7 4 0.52 0.04
2 7 4 0.51 0.07
-2 7 -4 0.67 0.07
-2 -7 4 0.55 0.08
3 -7 4 0.36 0.07
-3 -7 -4 0.27 0.05
3 -7 4 0.34 0.05
-3 -7 -4 0.35 0.07
3 7 -4 0.29 0.05
3 7 4 0.4 0.06
3 -7 -4 0.26 0.05
-3 7 -4 0.27 0.05
3 -7 -4 0.3 0.06
-3 -7 4 0.34 0.07
4 -7 4 0.46 0.08
4 -7 4 0.58 0.06
-4 -7 -4 0.61 0.06
-4 -7 -4 0.48 0.08
4 -7 -4 0.56 0.08
-4 -7 4 0.59 0.08
-4 7 -4 0.56 0.07
4 -7 -4 0.64 0.07
4 7 4 0.62 0.08
5 -7 4 0.22 0.05
5 -7 -4 0.23 0.05
-5 -7 4 0.19 0.06
5 7 4 0.2 0.06
0 0 -5 7.54 0.31
0 0 5 7.94 0.32
0 0 -5 7.66 0.32
0 0 5 7.43 0.32
0 0 -5 7.8 0.31
1 0 5 0.01 0.02
-1 0 -5 0 0.02
-1 0 5 -0.02 0.02
-1 0 -5 0 0.02
1 0 5 0.01 0.02
1 0 -5 0.01 0.02
1 0 -5 0.01 0.02
1 0 -5 0.05 0.02
-1 0 -5 -0.02 0.02
-1 0 5 0.02 0.02
2 0 5 14.43 0.56
2 0 5 14.07 0.54
2 0 -5 13.17 0.55
-2 0 -5 13.01 0.55
-2 0 -5 12.95 0.55
-2 0 5 14.31 0.55
2 0 5 14.1 0.55
2 0 -5 13.47 0.54
-2 0 5 14.97 0.56
2 0 -5 12.97 0.55
-3 0 -5 0.01 0.02
3 0 -5 0.07 0.02
-3 0 -5 0.01 0.02
3 0 5 0.02 0.03
-3 0 5 0 0.02
3 0 -5 0.01 0.02
3 0 5 -0.02 0.02
-3 0 5 -0.01 0.03
3 0 5 0.01 0.03
4 0 5 37.61 1.43
-4 0 5 38.05 1.43
4 0 -5 35.35 1.42
-4 0 5 37.22 1.44
-4 0 -5 36.07 1.43
-4 0 -5 36.16 1.44
4 0 5 37.27 1.42
4 0 -5 36.01 1.43
4 0 5 37.42 1.44
-5 0 5 0.02 0.03
-5 0 -5 0.03 0.03
5 0 5 -0.02 0.03
-5 0 5 0.01 0.03
-5 0 -5 -0.02 0.03
5 0 5 0.02 0.03
5 0 -5 -0.01 0.03
6 0 5 7.51 0.29
-6 0 5 7.18 0.28
-6 0 5 7.22 0.29
6 0 -5 6.22 0.29
-6 0 -5 6.01 0.28
-6 0 -5 5.79 0.29
-7 0 5 -0.02 0.03
-7 0 5 0.04 0.03
7 0 -5 -0.01 0.03
-7 0 -5 -0.02 0.02
7 0 5 -0.01 0.03
-7 0 -5 0 0.03
8 0 5 4.15 0.2
-8 0 -5 4.57 0.21
8 0 -5 4.73 0.22
-8 0 5 4.48 0.21
-8 0 5 4.34 0.2
-8 0 -5 4.7 0.21
-9 0 5 -0.02 0.03
-9 0 5 -0.02 0.03
9 0 5 -0.03 0.03
-9 0 -5 -0.01 0.03
9 0 -5 0 0.04
-9 0 -5 0.06 0.03
10 0 -5 5.78 0.27
-10 0 5 5.65 0.25
-10 0 5 5.61 0.26
-10 0 -5 5.33 0.25
10 0 5 5.86 0.25
-10 0 -5 5.79 0.26
11 0 -5 0 0.04
11 0 5 0.02 0.04
-11 0 5 -0.02 0.04
-11 0 -5 -0.03 0.03
-11 0 5 -0.02 0.03
-11 0 -5 -0.01 0.04
-12 0 5 6.36 0.29
12 0 5 6.93 0.29
-12 0 5 6.87 0.3
-12 0 -5 6.34 0.29
12 0 -5 6.24 0.31
-12 0 -5 6.04 0.29
13 0 5 0.07 0.04
-13 0 5 0.02 0.04
13 0 -5 -0.04 0.04
-13 0 -5 0.04 0.04
-13 0 -5 -0.01 0.04
-13 0 5 -0.02 0.04
-14 0 -5 0.3 0.06
14 0 -5 0.29 0.07
-14 0 5 0.36 0.06
-14 0 -5 0.24 0.05
-14 0 5 0.29 0.06
0 -1 5 1.07 0.08
0 -1 -5 1.78 0.09
0 -1 5 1.12 0.08
0 -1 -5 1.72 0.08
0 1 5 1.01 0.08
0 -1 5 1.02 0.07
0 -1 -5 1.74 0.08
0 1 -5 1.68 0.08
-1 1 5 5.46 0.24
-1 -1 -5 5.69 0.24
-1 -1 -5 5.57 0.23
1 1 -5 5.14 0.24
1 -1 5 5.85 0.24
1 -1 5 5.87 0.24
1 -1 5 5.76 0.24
-1 -1 -5 5.41 0.24
-1 1 5 5.88 0.25
1 1 -5 5.45 0.23
1 -1 -5 5.51 0.24
-1 -1 5 5.48 0.24
1 1 5 5.8 0.24
1 -1 -5 5.48 0.23
1 1 5 5.68 0.24
-1 -1 5 5.6 0.24
-1 1 -5 5.43 0.23
1 -1 -5 5.66 0.24
-1 -1 5 5.44 0.24
-2 -1 -5 7.9 0.35
2 1 -5 8 0.33
-2 -1 -5 8.37 0.34
2 -1 5 8.2 0.34
-2 1 5 8.5 0.34
2 -1 5 8.68 0.34
-2 1 5 8.42 0.35
2 1 -5 7.75 0.34
2 -1 5 8.68 0.35
-2 1 -5 8.1 0.34
2 -1 -5 8.11 0.34
-2 -1 5 8.28 0.34
2 -1 -5 8.04 0.35
-2 -1 5 8.43 0.35
2 1 5 8.64 0.35
2 1 5 8.65 0.35
2 -1 -5 8.19 0.34
3 1 -5 3.13 0.13
3 -1 5 2.98 0.14
3 -1 5 2.95 0.15
3 1 -5 3.11 0.15
-3 1 5 2.9 0.15
-3 1 5 2.96 0.14
-3 -1 -5 2.9 0.15
3 -1 5 3.06 0.14
-3 -1 -5 3.02 0.14
-3 -1 5 3.02 0.14
-3 1 -5 2.99 0.14
3 -1 -5 3.16 0.15
3 1 5 2.92 0.15
-3 -1 5 2.87 0.15
3 -1 -5 3.11 0.14
3 1 5 3.13 0.15
3 -1 -5 3.01 0.14
4 -1 5 16.97 0.62
4 1 -5 14.39 0.61
-4 -1 -5 14.75 0.63
4 -1 5 17.05 0.62
-4 -1 -5 14.99 0.62
4 -1 5 16.64 0.63
4 1 -5 14.96 0.63
-4 1 5 15.6 0.63
-4 1 5 16.61 0.62
-4 -1 5 16.39 0.62
-4 -1 5 16.39 0.63
-4 1 -5 14.65 0.63
4 1 5 17.02 0.63
4 -1 -5 14.49 0.62
4 -1 -5 14.96 0.63
4 -1 -5 14.58 0.61
-4 1 -5 14.58 0.62
-5 1 5 3.01 0.16
-5 -1 -5 3.38 0.16
-5 -1 -5 3.29 0.16
5 -1 5 3.24 0.15
5 1 -5 3.18 0.16
5 -1 5 3.26 0.15
5 -1 5 3.3 0.16
-5 -1 5 3.32 0.15
-5 1 -5 3.15 0.15
-5 -1 5 3.27 0.16
-5 1 -5 3.15 0.16
5 1 5 3.33 0.16
5 -1 -5 3.13 0.16
6 1 -5 3.25 0.16
6 -1 5 3.25 0.15
-6 1 5 3.49 0.16
6 -1 5 3.16 0.15
-6 1 5 3.42 0.16
-6 -1 -5 3.14 0.16
-6 -1 -5 3.19 0.16
-6 1 -5 3.19 0.15
-6 -1 5 3.21 0.15
-6 -1 5 3.41 0.16
6 -1 -5 3.01 0.16
-6 1 -5 3.31 0.17
6 1 5 3.29 0.16
-7 -1 -5 2.22 0.13
-7 1 5 2.52 0.13
-7 -1 -5 2.28 0.13
7 1 -5 2.31 0.13
7 -1 5 2.46 0.13
7 -1 5 2.58 0.12
7 -1 5 2.49 0.12
7 -1 5 2.37 0.13
-7 1 5 2.62 0.14
-7 -1 5 2.45 0.12
-7 1 -5 2.45 0.12
7 1 5 2.42 0.13
-7 -1 5 2.48 0.13
7 -1 -5 2.46 0.13
-8 1 5 1.31 0.09
-8 -1 -5 1.43 0.1
8 -1 5 1.11 0.08
-8 -1 -5 1.75 0.09
8 1 -5 1.51 0.1
-8 1 5 1.23 0.1
-8 -1 5 1.18 0.09
8 -1 -5 1.59 0.1
-8 1 -5 1.41 0.09
-8 -1 5 1.23 0.09
8 1 5 1.3 0.09
-9 -1 -5 1.64 0.1
-9 -1 -5 1.72 0.11
9 1 -5 1.66 0.11
-9 1 5 1.67 0.11
9 -1 5 1.75 0.1
-9 1 5 1.8 0.1
-9 1 -5 1.83 0.1
-9 -1 5 1.67 0.11
-9 -1 5 1.69 0.1
9 -1 -5 1.68 0.12
9 1 5 1.9 0.11
-10 -1 -5 4.54 0.21
-10 1 5 4.4 0.21
-10 1 5 4.47 0.21
10 -1 5 4.66 0.2
10 1 -5 4.11 0.22
-10 -1 -5 4.33 0.21
10 1 5 4.74 0.21
-10 -1 5 4.3 0.21
-10 -1 5 4.49 0.21
-10 1 -5 4.31 0.21
10 -1 -5 4.68 0.23
-11 -1 -5 0.49 0.06
11 1 -5 0.46 0.07
-11 -1 -5 0.41 0.06
-11 1 5 0.39 0.06
-11 1 5 0.58 0.07
-11 1 -5 0.48 0.06
-11 -1 5 0.46 0.06
-11 -1 5 0.44 0.06
11 1 5 0.52 0.06
11 -1 -5 0.44 0.07
-12 -1 -5 2.92 0.17
-12 1 5 3.38 0.18
12 1 -5 3.01 0.18
-12 1 5 3.44 0.17
-12 -1 -5 3.03 0.17
-12 -1 5 3.35 0.17
-12 1 -5 3.19 0.16
12 1 5 3.42 0.17
-12 -1 5 3.16 0.17
12 -1 -5 3.12 0.19
-13 -1 -5 0.47 0.07
-13 1 5 0.46 0.06
-13 -1 -5 0.45 0.07
-13 1 5 0.51 0.07
13 1 -5 0.48 0.08
-13 1 -5 0.41 0.06
13 -1 -5 0.32 0.07
-13 -1 5 0.45 0.06
-13 -1 5 0.37 0.06
13 1 5 0.33 0.06
14 1 -5 0.33 0.07
-14 -1 -5 0.4 0.06
-14 -1 -5 0.33 0.06
-14 1 5 0.37 0.06
-14 1 5 0.41 0.06
14 1 5 0.3 0.06
-14 -1 5 0.41 0.06
-14 -1 5 0.37 0.06
-14 1 -5 0.44 0.06
14 -1 -5 0.3 0.07
0 -2 5 1.06 0.06
0 2 -5 1.11 0.06
0 -2 5 0.93 0.07
0 -2 5 1.03 0.07
0 -2 -5 1.13 0.07
0 -2 -5 1 0.07
0 2 5 0.98 0.07
1 -2 5 8.94 0.36
1 2 -5 8.94 0.35
1 -2 5 8.48 0.36
-1 -2 -5 8.71 0.36
-1 2 5 8.87 0.36
1 -2 5 8.76 0.35
-1 -2 -5 8.62 0.36
1 -2 -5 8.65 0.36
1 2 5 8.7 0.36
1 -2 -5 8.43 0.36
1 -2 -5 8.56 0.35
-1 -2 5 8.65 0.35
-1 -2 5 8.54 0.36
-1 2 -5 8.61 0.35
-1 -2 5 9 0.36
2 -2 5 4.4 0.18
2 2 -5 3.79 0.18
-2 2 5 4.34 0.2
-2 -2 -5 3.91 0.19
-2 -2 -5 3.91 0.19
2 -2 5 4.41 0.19
2 -2 5 4.39 0.19
-2 2 5 4.59 0.19
2 -2 -5 3.89 0.18
2 -2 -5 3.98 0.19
-2 -2 5 4.31 0.19
-2 2 -5 3.77 0.18
-2 -2 5 4.53 0.18
2 -2 -5 3.89 0.18
-2 -2 5 4.76 0.19
2 2 5 4.55 0.19
3 -2 5 6.24 0.28
3 -2 5 6.16 0.28
3 2 -5 6.54 0.26
-3 -2 -5 6.6 0.28
3 2 -5 6.58 0.28
-3 2 5 6.22 0.27
-3 -2 -5 6.76 0.28
3 -2 5 6.22 0.27
-3 2 5 6.35 0.28
3 -2 -5 6.56 0.27
3 -2 -5 6.7 0.28
3 -2 -5 6.89 0.28
-3 -2 5 6.34 0.28
-3 -2 5 6.28 0.28
3 2 5 6.34 0.28
-3 2 -5 6.72 0.27
-3 -2 5 6.3 0.27
4 -2 5 13.37 0.52
4 -2 5 13.59 0.53
-4 -2 -5 12.84 0.53
-4 -2 -5 12.13 0.53
4 2 -5 12.7 0.53
-4 2 5 13.58 0.53
-4 2 5 13.11 0.54
4 -2 5 14.41 0.53
4 2 5 13.33 0.53
4 -2 -5 12.6 0.53
-4 2 -5 12.53 0.52
4 -2 -5 12.31 0.52
-4 -2 5 13.56 0.52
4 -2 -5 12.26 0.53
-4 -2 5 13.39 0.53
5 -2 5 6.12 0.27
-5 2 5 6.51 0.29
5 -2 5 6.64 0.29
-5 -2 -5 6.78 0.29
-5 -2 -5 7.14 0.29
5 2 -5 6.77 0.29
5 -2 5 6.48 0.29
-5 2 5 6.33 0.28
-5 -2 5 6.32 0.28
-5 -2 5 6.25 0.28
-5 2 -5 6.96 0.28
5 2 5 6.4 0.29
5 -2 -5 7.01 0.29
5 -2 -5 6.7 0.29
5 -2 -5 6.93 0.28
6 2 -5 1.78 0.12
-6 -2 -5 1.88 0.12
-6 2 5 2.18 0.11
6 -2 5 2.15 0.12
-6 2 5 2.31 0.13
6 -2 5 2.23 0.12
-6 -2 -5 1.95 0.12
-6 -2 5 2.32 0.11
6 2 5 2.23 0.12
-6 2 -5 1.89 0.11
-6 -2 5 2.22 0.12
6 -2 -5 1.87 0.12
-7 -2 -5 5.97 0.28
7 -2 5 6.59 0.28
-7 2 5 6.37 0.27
7 2 -5 6.05 0.28
-7 2 5 6.39 0.28
7 -2 5 6.11 0.28
-7 -2 -5 6.24 0.28
7 -2 -5 6.31 0.28
7 2 5 6.2 0.28
-7 2 -5 6.37 0.27
-7 -2 5 6.55 0.27
-7 -2 5 6.11 0.27
-8 -2 -5 0.99 0.08
-8 -2 -5 0.96 0.08
8 -2 5 0.71 0.07
-8 2 5 0.76 0.07
8 -2 5 0.81 0.07
8 2 -5 0.97 0.09
-8 2 5 0.67 0.07
8 -2 -5 0.87 0.08
-8 -2 5 0.86 0.07
-8 -2 5 0.87 0.07
-8 2 -5 0.93 0.07
8 2 5 0.82 0.08
-9 2 5 2.75 0.14
-9 -2 -5 2.64 0.15
9 2 -5 2.66 0.15
-9 -2 -5 2.51 0.14
-9 2 5 2.67 0.15
9 -2 5 2.76 0.15
-9 -2 5 2.77 0.14
9 -2 -5 2.75 0.16
-9 2 -5 2.67 0.14
9 2 5 2.75 0.15
-9 -2 5 2.67 0.14
10 -2 5 1.8 0.11
-10 2 5 1.68 0.12
-10 -2 -5 1.58 0.11
-10 2 5 1.84 0.11
10 2 -5 1.6 0.12
-10 -2 -5 1.52 0.11
-10 -2 5 1.78 0.11
10 -2 -5 1.63 0.12
-10 -2 5 1.63 0.1
-10 2 -5 1.57 0.1
10 2 5 1.68 0.11
-11 -2 -5 1.29 0.1
-11 2 5 1.04 0.09
-11 -2 -5 1.12 0.1
11 2 -5 1.28 0.11
11 2 5 1.16 0.1
-11 -2 5 1.27 0.1
-11 -2 5 1.24 0.09
-11 2 -5 1.32 0.09
11 -2 -5 1.2 0.11
-12 2 5 2.24 0.13
-12 -2 -5 1.9 0.13
12 2 -5 2.07 0.14
-12 -2 -5 2.16 0.13
12 -2 -5 2.12 0.15
12 2 5 2.24 0.13
-12 2 -5 1.94 0.12
-12 -2 5 2.22 0.13
-12 -2 5 2.01 0.13
-13 -2 -5 1.27 0.11
-13 2 5 1.32 0.1
13 2 -5 1.3 0.12
-13 -2 -5 1.33 0.11
-13 -2 5 1.29 0.1
-13 2 -5 1.3 0.1
13 -2 -5 1.4 0.13
-13 -2 5 1.32 0.1
13 2 5 1.24 0.11
-14 -2 -5 0.06 0.04
-14 -2 -5 0.05 0.04
14 2 -5 0.09 0.06
-14 2 5 0.06 0.04
-14 -2 5 0.05 0.04
14 -2 -5 0.04 0.05
-14 2 -5 -0.02 0.04
14 2 5 0.01 0.05
-14 -2 5 0.08 0.05
0 -3 -5 2.12 0.12
0 -3 -5 2.38 0.13
0 -3 5 2.33 0.11
0 3 -5 2.22 0.11
0 3 5 2.29 0.13
0 -3 5 2.21 0.12
0 -3 5 2.28 0.13
-1 3 5 13.8 0.54
-1 -3 -5 12.8 0.55
1 -3 5 13.61 0.55
1 -3 5 13.98 0.55
-1 -3 -5 12.66 0.54
1 -3 5 13.95 0.53
1 3 -5 13.09 0.53
-1 -3 5 13.92 0.54
1 -3 -5 12.73 0.54
1 -3 -5 13.46 0.55
-1 -3 5 13.33 0.53
-1 3 -5 12.88 0.53
1 3 5 13.81 0.55
-1 -3 5 13.94 0.55
-2 3 5 0.91 0.08
2 -3 5 0.93 0.08
-2 -3 -5 0.96 0.08
2 3 -5 0.94 0.06
2 -3 5 0.85 0.08
-2 -3 -5 1.02 0.08
-2 -3 5 0.87 0.07
2 3 5 1.03 0.08
2 -3 -5 0.85 0.08
-2 -3 5 0.98 0.08
-2 -3 5 0.93 0.06
-2 3 -5 1.05 0.07
2 -3 -5 0.92 0.07
3 -3 5 7.67 0.34
-3 -3 -5 8.06 0.34
-3 3 5 8.15 0.34
-3 -3 -5 8.11 0.34
3 -3 5 8.04 0.34
3 3 -5 7.91 0.32
3 3 5 7.73 0.34
-3 -3 5 8 0.34
3 -3 -5 7.86 0.33
3 -3 -5 7.91 0.34
-3 -3 5 8.02 0.33
-3 3 -5 7.82 0.33
-3 -3 5 7.97 0.33
3 -3 -5 7.87 0.33
-4 -3 -5 3.93 0.19
4 -3 5 4.11 0.2
4 -3 5 3.72 0.19
-4 -3 -5 4.18 0.19
-4 3 5 4.07 0.18
4 3 5 4.02 0.19
4 -3 -5 3.67 0.18
-4 -3 5 4.04 0.18
-4 -3 5 3.87 0.18
-4 3 -5 3.91 0.18
4 -3 -5 3.84 0.18
4 -3 -5 3.86 0.19
-4 -3 5 3.93 0.19
-5 -3 -5 6.74 0.3
5 -3 5 6.96 0.3
5 3 -5 6.7 0.3
-5 -3 -5 6.53 0.29
5 -3 5 6.82 0.29
-5 3 5 6.53 0.29
-5 3 -5 6.74 0.28
-5 -3 5 6.48 0.28
5 -3 -5 6.78 0.3
5 -3 -5 6.49 0.28
-5 -3 5 6.58 0.28
5 -3 -5 6.64 0.29
5 3 5 6.92 0.3
-6 -3 -5 0.22 0.04
6 -3 5 0.24 0.05
-6 -3 -5 0.2 0.05
6 -3 5 0.27 0.05
-6 3 5 0.23 0.04
6 3 -5 0.17 0.04
-6 -3 5 0.22 0.04
6 -3 -5 0.24 0.05
-6 -3 5 0.17 0.04
6 3 5 0.26 0.05
-6 3 -5 0.24 0.04
6 -3 -5 0.21 0.05
7 3 -5 6.82 0.32
-7 3 5 7.3 0.31
-7 -3 -5 6.82 0.31
7 -3 5 7.63 0.32
-7 -3 -5 6.7 0.31
7 -3 5 7.11 0.32
7 3 5 7.39 0.31
-7 -3 5 7.27 0.3
7 -3 -5 6.86 0.32
-7 3 -5 6.88 0.3
-7 -3 5 7.41 0.3
8 -3 5 0.31 0.06
-8 -3 -5 0.39 0.06
8 -3 5 0.34 0.06
-8 -3 -5 0.35 0.05
-8 3 5 0.33 0.05
8 3 -5 0.3 0.06
-8 -3 5 0.34 0.05
-8 -3 5 0.38 0.05
8 -3 -5 0.39 0.06
-8 3 -5 0.32 0.05
8 3 5 0.36 0.06
-9 -3 -5 3.72 0.19
9 3 -5 3.43 0.19
-9 3 5 3.96 0.18
-9 -3 -5 3.34 0.19
9 -3 5 3.8 0.19
9 -3 5 3.87 0.19
-9 3 -5 3.51 0.18
-9 -3 5 3.64 0.17
-9 -3 5 3.76 0.18
9 3 5 3.89 0.19
9 -3 -5 3.89 0.2
10 -3 5 0.21 0.05
-10 -3 -5 0.22 0.05
10 3 -5 0.25 0.06
-10 3 5 0.24 0.05
-10 -3 -5 0.32 0.05
10 3 5 0.24 0.06
-10 3 -5 0.25 0.05
10 -3 -5 0.26 0.06
-10 -3 5 0.33 0.05
-10 -3 5 0.26 0.05
-11 -3 -5 1.45 0.11
-11 3 5 1.44 0.1
11 3 -5 1.31 0.11
11 -3 5 1.36 0.11
-11 -3 -5 1.4 0.11
11 -3 -5 1.33 0.12
-11 3 -5 1.43 0.1
-11 -3 5 1.38 0.09
-11 -3 5 1.46 0.1
11 3 5 1.45 0.11
-12 -3 -5 0.33 0.06
-12 3 5 0.44 0.06
12 -3 5 0.39 0.06
12 3 -5 0.43 0.07
-12 -3 -5 0.45 0.06
12 3 5 0.39 0.07
-12 -3 5 0.42 0.06
-12 3 -5 0.43 0.06
12 -3 -5 0.48 0.08
-12 -3 5 0.45 0.06
13 3 -5 1.17 0.12
-13 3 5 1.07 0.09
-13 -3 -5 0.93 0.09
-13 -3 -5 0.96 0.1
-13 -3 5 1 0.08
13 -3 -5 1.06 0.12
13 3 5 0.94 0.1
-13 -3 5 0.98 0.09
-13 3 -5 1.03 0.09
0 -4 5 1.82 0.1
0 -4 -5 1.85 0.11
0 4 5 1.66 0.11
0 -4 -5 1.85 0.11
0 -4 5 1.74 0.12
0 4 -5 1.67 0.09
-1 -4 -5 4.4 0.21
1 -4 5 4.44 0.22
1 -4 5 4.53 0.2
1 4 -5 4.31 0.19
-1 -4 -5 4.58 0.21
-1 4 5 4.49 0.21
-1 4 -5 4.3 0.19
1 -4 -5 4.35 0.21
1 4 5 4.52 0.21
-1 -4 5 4.45 0.2
-1 -4 5 4.6 0.22
1 -4 -5 4.23 0.21
2 4 -5 2.58 0.12
-2 4 5 2.55 0.14
2 -4 5 2.5 0.13
-2 -4 -5 2.64 0.14
2 -4 5 2.52 0.15
-2 -4 -5 2.58 0.14
2 -4 -5 2.86 0.14
-2 -4 5 2.49 0.15
2 -4 -5 2.66 0.14
2 4 5 2.54 0.14
-2 4 -5 2.58 0.13
-2 -4 5 2.57 0.13
-3 -4 -5 2.86 0.15
-3 4 5 2.55 0.14
3 -4 5 2.63 0.15
3 -4 5 2.45 0.14
3 4 -5 2.59 0.12
-3 -4 -5 2.89 0.14
3 -4 -5 3.04 0.15
-3 -4 5 2.55 0.13
-3 -4 5 2.7 0.15
3 4 5 2.45 0.14
-3 -4 5 2.65 0.13
-3 4 -5 2.73 0.13
3 -4 -5 2.64 0.14
-4 -4 -5 0.92 0.08
4 -4 5 0.71 0.08
4 -4 5 0.86 0.08
-4 4 5 0.8 0.07
-4 -4 -5 0.85 0.08
-4 -4 5 0.75 0.06
4 4 5 0.78 0.08
-4 -4 5 0.82 0.08
4 -4 -5 0.93 0.07
-4 4 -5 0.98 0.07
-4 -4 5 0.75 0.07
4 -4 -5 0.89 0.08
5 -4 5 3.19 0.17
-5 4 5 3.45 0.17
-5 -4 -5 3.54 0.18
-5 -4 -5 3.56 0.17
5 -4 5 3.04 0.18
-5 -4 5 3.18 0.16
-5 -4 5 3.33 0.18
-5 4 -5 3.64 0.16
5 -4 -5 3.54 0.17
5 -4 -5 3.39 0.16
-5 -4 5 3.14 0.16
5 4 5 3.27 0.17
6 -4 5 1.7 0.12
-6 -4 -5 1.64 0.11
-6 4 5 1.47 0.1
-6 -4 -5 1.63 0.11
6 4 -5 1.63 0.12
6 -4 5 1.8 0.11
-6 -4 5 1.75 0.1
6 -4 -5 1.68 0.11
6 -4 -5 1.57 0.11
-6 -4 5 1.53 0.09
6 -4 -5 1.57 0.1
6 4 5 1.51 0.11
-6 4 -5 1.74 0.1
-7 4 5 2.76 0.15
-7 -4 -5 2.69 0.16
7 4 -5 2.82 0.16
7 -4 5 2.87 0.16
7 -4 5 2.86 0.16
-7 -4 -5 2.89 0.15
7 -4 -5 2.9 0.16
-7 -4 5 2.91 0.14
7 4 5 2.88 0.16
-7 -4 5 2.86 0.14
-7 4 -5 2.85 0.14
7 -4 -5 2.69 0.16
8 4 -5 0.66 0.08
8 -4 5 0.69 0.08
-8 -4 -5 0.52 0.07
-8 -4 -5 0.58 0.07
-8 4 5 0.61 0.06
8 -4 5 0.63 0.08
-8 -4 5 0.64 0.06
8 -4 -5 0.63 0.08
-8 4 -5 0.61 0.06
8 4 5 0.65 0.08
-8 -4 5 0.71 0.07
9 -4 5 1.7 0.13
-9 -4 -5 1.67 0.12
9 -4 5 1.63 0.11
-9 4 5 1.77 0.11
9 4 -5 1.59 0.12
-9 -4 -5 1.6 0.11
-9 4 -5 1.51 0.11
-9 -4 5 1.61 0.11
9 -4 -5 1.71 0.13
9 4 5 1.76 0.12
-9 -4 5 1.79 0.1
-10 4 5 0.27 0.05
-10 -4 -5 0.38 0.06
10 -4 5 0.35 0.07
10 4 -5 0.45 0.07
-10 -4 -5 0.26 0.06
10 -4 5 0.39 0.06
-10 -4 5 0.39 0.06
10 4 5 0.26 0.06
-10 -4 5 0.29 0.04
10 -4 -5 0.36 0.07
-10 4 -5 0.37 0.06
-11 -4 -5 0.64 0.07
11 -4 5 0.5 0.08
-11 4 5 0.58 0.07
-11 -4 -5 0.68 0.08
11 4 -5 0.66 0.09
11 -4 -5 0.6 0.09
-11 -4 5 0.53 0.07
-11 -4 5 0.58 0.06
-11 4 -5 0.66 0.07
11 4 5 0.48 0.07
0 5 5 3.04 0.16
0 -5 -5 3.13 0.16
0 -5 -5 3.03 0.16
0 -5 5 2.9 0.17
0 -5 5 2.89 0.15
0 5 -5 2.83 0.14
1 -5 5 2.2 0.12
1 5 -5 2.03 0.11
1 -5 5 2.53 0.15
-1 -5 -5 2.29 0.13
-1 -5 -5 2.26 0.14
-1 5 5 2.2 0.13
-1 -5 5 2.35 0.14
1 -5 -5 2.26 0.13
1 -5 -5 2.11 0.13
1 5 5 2.36 0.13
-1 5 -5 2.11 0.12
-1 -5 5 2.27 0.12
2 5 -5 1.81 0.1
-2 5 5 1.77 0.11
2 -5 5 1.75 0.11
2 -5 5 1.73 0.13
-2 -5 -5 1.79 0.11
-2 -5 -5 1.74 0.12
2 5 5 1.7 0.12
2 -5 -5 1.79 0.12
-2 5 -5 1.89 0.1
-2 -5 5 1.85 0.13
-2 -5 5 1.66 0.1
2 -5 -5 1.89 0.12
-3 -5 -5 1.06 0.1
-3 5 5 0.96 0.09
3 -5 5 1.04 0.09
-3 -5 -5 1.09 0.09
3 -5 5 1.06 0.11
3 5 5 1.05 0.09
3 -5 -5 1.04 0.09
-3 5 -5 1.13 0.08
-3 -5 5 1.07 0.1
-3 -5 5 1.04 0.07
3 -5 -5 1.04 0.09
-4 -5 -5 1.93 0.12
4 -5 5 1.63 0.13
4 -5 5 1.84 0.12
-4 -5 -5 1.81 0.12
-4 5 5 1.81 0.11
-4 5 -5 1.91 0.11
-4 -5 5 1.81 0.13
-4 -5 5 1.68 0.1
4 -5 -5 1.94 0.12
4 -5 -5 1.85 0.12
4 5 5 1.72 0.12
-5 -5 -5 0.97 0.08
5 -5 5 0.79 0.08
-5 5 5 0.9 0.08
-5 -5 -5 0.94 0.09
5 -5 5 0.86 0.1
-5 -5 5 0.99 0.07
-5 -5 5 1.01 0.1
5 5 5 1.04 0.1
-5 5 -5 0.94 0.08
5 -5 -5 1.04 0.09
5 -5 -5 1.02 0.1
6 -5 5 0.99 0.11
-6 -5 -5 1.12 0.1
6 -5 5 1.06 0.09
-6 -5 -5 1.08 0.09
6 5 -5 1.22 0.1
-6 5 5 1.11 0.09
-6 -5 5 0.99 0.07
6 -5 -5 1.25 0.09
-6 5 -5 1.16 0.09
-6 -5 5 0.98 0.1
6 5 5 1.07 0.1
6 -5 -5 1.09 0.1
7 5 -5 1.34 0.11
7 -5 5 1.48 0.11
-7 -5 -5 1.35 0.11
-7 5 5 1.51 0.1
7 -5 5 1.4 0.12
-7 -5 -5 1.33 0.1
-7 5 -5 1.26 0.1
7 -5 -5 1.15 0.11
-7 -5 5 1.37 0.08
7 5 5 1.38 0.11
8 -5 5 1.13 0.1
-8 -5 -5 1.13 0.11
-8 -5 -5 1.1 0.09
8 -5 5 1.05 0.11
-8 5 5 1.06 0.09
8 5 -5 1.07 0.11
-8 -5 5 1.05 0.07
8 -5 -5 1.19 0.1
8 5 5 0.94 0.1
-8 5 -5 1.06 0.09
-8 -5 5 0.94 0.09
-9 -5 -5 0.6 0.08
9 5 -5 0.52 0.08
9 -5 5 0.58 0.07
-9 -5 -5 0.42 0.06
-9 5 5 0.61 0.07
9 -5 5 0.59 0.09
-9 -5 5 0.59 0.05
-9 -5 5 0.51 0.06
9 -5 -5 0.5 0.08
9 5 5 0.58 0.08
-9 5 -5 0.49 0.06
0 -6 5 1.6 0.13
0 -6 -5 1.59 0.12
0 6 5 1.71 0.12
0 6 -5 1.55 0.1
0 -6 5 1.71 0.1
0 -6 -5 1.63 0.11
-1 6 5 0.18 0.05
1 6 -5 0.19 0.04
-1 -6 -5 0.23 0.06
1 -6 5 0.19 0.06
1 -6 5 0.21 0.04
-1 -6 -5 0.18 0.05
1 -6 -5 0.15 0.05
-1 -6 5 0.23 0.06
-1 6 -5 0.15 0.04
-1 -6 5 0.26 0.04
1 -6 -5 0.17 0.05
1 6 5 0.16 0.05
2 -6 5 1.57 0.13
-2 -6 -5 1.68 0.12
2 -6 5 1.41 0.1
-2 -6 -5 1.62 0.11
-2 6 5 1.5 0.11
-2 -6 5 1.48 0.12
2 -6 -5 1.71 0.12
2 -6 -5 1.55 0.11
2 6 5 1.52 0.12
-2 6 -5 1.51 0.1
-2 -6 5 1.42 0.09
-3 -6 -5 -0.01 0.03
3 -6 5 0.07 0.04
-3 6 5 0.04 0.04
3 -6 5 -0.01 0.05
-3 -6 -5 0.03 0.05
3 -6 -5 0.13 0.05
3 -6 -5 0.06 0.04
-3 -6 5 0.04 0.03
-3 -6 5 0.05 0.05
3 6 5 -0.08 0.04
-3 6 -5 0.02 0.04
-4 -6 -5 0.91 0.09
-4 6 5 1 0.09
4 -6 5 1.11 0.12
-4 -6 -5 1.14 0.11
4 6 5 1.12 0.1
-4 -6 5 1.06 0.07
4 -6 -5 0.96 0.09
4 -6 -5 0.95 0.09
-4 -6 5 1.33 0.11
-4 6 -5 0.94 0.09
5 -6 5 0.06 0.06
5 -6 5 0.06 0.04
-5 -6 -5 0.05 0.04
-5 -6 -5 0.06 0.05
-5 6 5 0.07 0.04
-5 -6 5 0.04 0.05
-5 -6 5 0.01 0.02
5 -6 -5 0.04 0.04
-5 6 -5 0.05 0.04
5 6 5 -0.04 0.05
5 -6 -5 0.02 0.04
-6 -6 -5 1.07 0.09
6 -6 5 1.13 0.1
6 -6 5 1.24 0.12
-6 -6 -5 1.14 0.11
-6 6 5 1.01 0.09
-6 -6 5 0.97 0.06
-6 6 -5 1.11 0.09
6 -6 -5 1.03 0.1
-6 -6 5 0.92 0.1
6 6 5 1.04 0.1
6 -6 -5 1.01 0.1
0 0 -6 24.67 0.96
0 0 6 23.66 0.97
0 0 6 24.9 0.96
0 0 -6 24.31 0.96
1 0 6 -0.02 0.03
-1 0 6 0.01 0.04
1 0 -6 -0.02 0.03
-1 0 -6 0 0.03
-1 0 -6 0.01 0.03
1 0 6 -0.04 0.04
1 0 -6 0 0.03
-1 0 6 -0.02 0.04
2 0 6 25.19 0.94
2 0 6 23.37 0.94
2 0 -6 23.28 0.94
-2 0 6 23.98 0.94
-2 0 6 23.97 0.95
2 0 -6 22.87 0.93
-2 0 -6 23.67 0.94
-3 0 6 -0.08 0.03
3 0 -6 0 0.03
3 0 6 0.01 0.03
-3 0 6 -0.01 0.03
3 0 6 -0.05 0.03
-3 0 -6 0.01 0.03
-4 0 -6 9.37 0.4
4 0 6 10.3 0.4
-4 0 6 9.64 0.41
-4 0 6 10.24 0.4
4 0 -6 9.15 0.41
5 0 6 -0.01 0.03
5 0 -6 -0.02 0.03
-5 0 6 -0.03 0.03
-5 0 -6 -0.04 0.03
-5 0 6 -0.03 0.03
-6 0 -6 10.43 0.44
6 0 6 10.41 0.43
6 0 -6 10.65 0.44
-6 0 6 10.7 0.44
-6 0 6 10.23 0.43
7 0 6 0.03 0.04
-7 0 6 0.06 0.04
-7 0 -6 0.04 0.04
-7 0 6 0.02 0.04
7 0 -6 0.03 0.04
-8 0 -6 9.47 0.39
8 0 -6 9.75 0.4
-8 0 6 9.09 0.4
-8 0 6 8.93 0.39
8 0 6 8.97 0.39
-9 0 -6 0 0.04
-9 0 6 0.02 0.04
9 0 6 0.04 0.04
9 0 -6 -0.01 0.05
-9 0 6 0.04 0.05
10 0 -6 5.26 0.26
10 0 6 5.24 0.24
-10 0 6 5.57 0.26
-10 0 -6 5.23 0.25
-10 0 6 5.06 0.24
-11 0 -6 -0.02 0.04
11 0 -6 -0.01 0.05
11 0 6 0.04 0.04
-11 0 6 0.02 0.04
-11 0 6 0.02 0.04
12 0 -6 0.99 0.11
-12 0 6 1.11 0.11
-12 0 6 1.14 0.1
-12 0 -6 1.26 0.1
0 1 -6 24.76 0.97
0 -1 6 24.33 0.98
0 1 -6 23.11 0.97
0 1 6 26.11 0.98
0 -1 -6 24.88 0.97
0 -1 -6 25.45 0.98
0 -1 6 24.61 0.97
-1 1 6 1.09 0.09
-1 -1 -6 1.05 0.08
1 1 -6 1.08 0.07
1 -1 6 1.29 0.08
1 -1 6 0.98 0.09
1 -1 6 1.2 0.08
-1 1 6 1.15 0.09
-1 -1 -6 1 0.09
1 1 -6 1.1 0.08
-1 1 -6 1.17 0.07
1 1 6 1.27 0.09
-1 -1 6 0.93 0.08
1 -1 -6 1.02 0.08
-1 -1 6 1.12 0.09
2 -1 6 10.73 0.46
2 -1 6 10.77 0.45
-2 -1 -6 11.44 0.45
-2 1 6 11.33 0.46
2 1 -6 11.35 0.46
-2 -1 -6 10.85 0.46
2 -1 6 11.62 0.45
-2 1 6 10.89 0.45
2 1 -6 11.33 0.44
2 1 6 10.95 0.45
-2 -1 6 11.02 0.46
-2 1 -6 10.68 0.45
2 -1 -6 10.68 0.45
-2 -1 6 11.14 0.45
2 -1 -6 11.04 0.45
-3 1 6 1.8 0.11
3 -1 6 1.72 0.11
-3 -1 -6 1.77 0.11
3 -1 6 1.83 0.1
-3 -1 -6 1.77 0.11
3 -1 6 1.71 0.1
-3 1 6 1.84 0.11
3 1 -6 1.89 0.11
-3 -1 6 1.75 0.11
-3 1 -6 1.63 0.1
3 1 6 1.88 0.11
-3 -1 6 1.88 0.1
3 -1 -6 1.63 0.09
3 -1 -6 1.6 0.1
4 -1 6 9.79 0.4
-4 1 6 10.11 0.41
-4 1 6 9.89 0.41
4 -1 6 9.31 0.4
-4 -1 -6 9.75 0.41
-4 -1 -6 9.32 0.41
4 -1 6 9.42 0.41
4 1 -6 9.67 0.41
4 1 6 9.82 0.41
-4 -1 6 9.96 0.4
-4 -1 6 10.17 0.41
-4 1 -6 9.67 0.4
4 -1 -6 9.43 0.41
5 -1 6 1.56 0.1
5 -1 6 1.55 0.09
5 1 -6 1.53 0.1
-5 1 6 1.49 0.1
-5 1 6 1.49 0.11
-5 -1 -6 1.64 0.1
-5 -1 -6 1.54 0.11
5 1 6 1.48 0.1
-5 -1 6 1.62 0.1
-5 1 -6 1.49 0.1
5 -1 -6 1.7 0.11
-5 -1 6 1.58 0.1
-6 1 6 5.21 0.25
-6 -1 -6 5.21 0.24
-6 1 6 5.63 0.24
6 1 -6 5.45 0.25
-6 -1 -6 5.16 0.25
6 -1 6 5.17 0.23
-6 1 -6 5.48 0.24
-6 -1 6 5.15 0.24
6 1 6 5.2 0.24
6 -1 -6 5.27 0.25
-6 -1 6 5.25 0.25
-7 -1 -6 0.84 0.08
7 1 -6 0.67 0.08
-7 -1 -6 0.76 0.07
-7 1 6 0.89 0.08
-7 1 6 0.91 0.09
7 -1 6 0.9 0.08
-7 -1 6 0.86 0.08
7 1 6 0.87 0.08
7 -1 -6 0.94 0.09
-7 1 -6 0.73 0.07
-7 -1 6 0.79 0.07
-8 -1 -6 8.96 0.39
8 1 -6 9.28 0.39
8 -1 6 8.63 0.37
-8 -1 -6 8.65 0.38
-8 1 6 9.01 0.39
-8 1 6 8.86 0.38
8 -1 -6 8.98 0.39
-8 -1 6 8.8 0.39
8 1 6 9.15 0.38
-8 1 -6 8.98 0.38
-8 -1 6 8.85 0.38
-9 -1 -6 0.34 0.06
-9 1 6 0.37 0.06
-9 1 6 0.36 0.06
-9 -1 -6 0.23 0.06
9 1 -6 0.29 0.06
-9 -1 6 0.35 0.06
9 1 6 0.31 0.06
-9 1 -6 0.27 0.05
9 -1 -6 0.27 0.06
-9 -1 6 0.29 0.06
-10 1 6 3.52 0.18
-10 -1 -6 3.44 0.18
-10 -1 -6 3.56 0.19
10 1 -6 3.37 0.19
-10 1 6 3.33 0.19
-10 -1 6 3.35 0.18
10 1 6 3.55 0.18
-10 -1 6 3.62 0.19
-10 1 -6 3.31 0.18
10 -1 -6 3.85 0.2
-11 1 6 0.21 0.05
-11 -1 -6 0.25 0.06
11 1 -6 0.28 0.07
-11 -1 -6 0.28 0.06
-11 1 6 0.33 0.06
11 -1 -6 0.35 0.07
-11 1 -6 0.42 0.06
-11 -1 6 0.26 0.06
-11 -1 6 0.31 0.06
11 1 6 0.27 0.06
-12 -1 -6 1.1 0.1
-12 1 6 1.25 0.11
-12 1 6 1.24 0.1
12 1 -6 1.03 0.11
-12 -1 -6 1.08 0.11
-12 -1 6 1.29 0.11
-12 -1 6 1.11 0.1
12 1 6 1.2 0.1
12 -1 -6 1.18 0.12
-12 1 -6 1.08 0.1
0 -2 6 7.97 0.35
0 -2 -6 8.37 0.35
0 -2 -6 8.22 0.34
0 -2 6 7.92 0.34
0 -2 6 7.87 0.35
0 2 -6 8.45 0.33
0 2 6 8.05 0.35
1 -2 6 2.39 0.13
-1 -2 -6 2.42 0.14
-1 -2 -6 2.43 0.13
-1 2 6 2.26 0.13
1 -2 6 2.43 0.14
1 2 -6 2.36 0.12
1 -2 6 2.41 0.12
-1 -2 6 2.3 0.13
1 2 6 2.42 0.13
-1 -2 6 2.43 0.13
-1 -2 6 2.45 0.12
-1 2 -6 2.39 0.12
1 -2 -6 2.37 0.14
1 -2 -6 2.28 0.13
2 2 -6 8.16 0.34
-2 -2 -6 8.64 0.37
2 2 -6 8.46 0.36
-2 -2 -6 8.48 0.36
-2 2 6 8.61 0.36
2 -2 6 8.52 0.37
2 -2 6 8.21 0.36
2 -2 6 8.49 0.35
-2 -2 6 8.95 0.37
2 -2 -6 8.52 0.37
-2 -2 6 8.66 0.35
-2 2 -6 8.51 0.35
2 2 6 8.38 0.36
2 -2 -6 8.68 0.36
3 -2 6 4.75 0.22
3 -2 6 4.63 0.23
-3 -2 -6 5.23 0.23
3 2 -6 5.05 0.23
-3 2 6 4.66 0.22
3 -2 6 5.05 0.21
-3 -2 -6 5.24 0.23
-3 -2 6 4.89 0.22
3 2 6 4.8 0.23
3 -2 -6 4.83 0.22
-3 2 -6 4.83 0.22
-3 -2 6 4.8 0.23
4 2 -6 2.99 0.16
4 -2 6 3.26 0.15
4 -2 6 3.36 0.17
-4 -2 -6 2.84 0.16
-4 -2 -6 3 0.16
-4 2 6 3.21 0.16
4 -2 6 3.1 0.16
-4 2 -6 2.83 0.15
4 -2 -6 3.11 0.16
4 2 6 3.23 0.16
-4 -2 6 3.37 0.15
-4 -2 6 3.23 0.16
-5 2 6 3.97 0.2
-5 -2 -6 4.23 0.21
-5 -2 -6 4.18 0.2
5 2 -6 4.31 0.21
5 -2 6 4.31 0.2
5 -2 6 4.32 0.21
-5 2 -6 4.37 0.2
-5 -2 6 4.21 0.2
5 -2 -6 4.28 0.2
-5 -2 6 4.05 0.19
5 2 6 4.45 0.21
-6 -2 -6 3.55 0.18
-6 2 6 3.62 0.18
6 -2 6 3.95 0.19
6 -2 6 3.67 0.18
6 2 -6 3.54 0.19
-6 -2 -6 3.53 0.19
-6 -2 6 3.72 0.18
6 2 6 3.72 0.19
6 -2 -6 3.59 0.18
-6 2 -6 3.72 0.18
-6 -2 6 3.8 0.18
-7 2 6 1.6 0.11
-7 -2 -6 1.4 0.11
-7 -2 -6 1.59 0.11
7 2 -6 1.56 0.11
-7 2 -6 1.55 0.1
-7 -2 6 1.73 0.1
7 2 6 1.67 0.12
7 -2 -6 1.59 0.12
-7 -2 6 1.64 0.11
8 2 -6 3.08 0.17
-8 -2 -6 3.28 0.17
-8 -2 -6 2.76 0.17
-8 2 6 3.15 0.16
-8 -2 6 3.18 0.16
-8 -2 6 3.01 0.16
8 2 6 3.02 0.17
8 -2 -6 3.12 0.17
-8 2 -6 3.27 0.16
-9 2 6 0.71 0.08
-9 -2 -6 0.77 0.08
-9 -2 -6 0.77 0.08
9 2 -6 0.7 0.08
9 -2 -6 0.74 0.09
-9 -2 6 0.75 0.08
9 2 6 0.7 0.08
-9 2 -6 0.75 0.08
-9 -2 6 0.8 0.08
-10 -2 -6 1.68 0.12
-10 -2 -6 1.7 0.12
-10 2 6 1.7 0.11
10 2 -6 1.64 0.13
10 2 6 1.86 0.13
-10 -2 6 1.67 0.12
-10 -2 6 1.86 0.12
10 -2 -6 1.57 0.13
-10 2 -6 1.76 0.12
-11 -2 -6 1.12 0.1
-11 -2 -6 1.01 0.1
-11 2 6 1.06 0.1
11 2 -6 1.27 0.12
11 2 6 1 0.1
-11 -2 6 1.14 0.1
11 -2 -6 1.23 0.12
-11 -2 6 1.19 0.1
-11 2 -6 1.05 0.1
-12 2 6 0.37 0.06
12 2 -6 0.24 0.07
-12 -2 -6 0.27 0.06
-12 -2 -6 0.25 0.06
12 2 6 0.33 0.07
-12 2 -6 0.39 0.06
-12 -2 6 0.35 0.06
-12 -2 6 0.33 0.06
12 -2 -6 0.2 0.07
0 3 6 2.06 0.13
0 -3 -6 2.33 0.13
0 -3 6 2.31 0.13
0 3 -6 2.26 0.11
0 -3 -6 2.21 0.13
0 -3 6 2.37 0.13
1 -3 6 2.96 0.16
1 3 -6 2.88 0.14
-1 -3 -6 2.75 0.16
-1 -3 -6 2.93 0.15
-1 3 6 2.92 0.16
1 -3 6 3.16 0.16
1 3 6 2.99 0.16
-1 -3 6 3.03 0.16
1 -3 -6 2.8 0.15
1 -3 -6 2.91 0.16
-1 -3 6 3.04 0.14
-1 -3 6 3.17 0.16
-1 3 -6 2.89 0.14
-2 -3 -6 0.64 0.07
-2 -3 -6 0.66 0.07
-2 3 6 0.79 0.07
2 -3 6 0.66 0.07
2 -3 6 0.68 0.07
2 -3 -6 0.6 0.07
2 -3 -6 0.67 0.06
-2 -3 6 0.71 0.07
2 3 6 0.71 0.07
-2 -3 6 0.71 0.08
-2 -3 6 0.62 0.06
-2 3 -6 0.64 0.06
-3 -3 -6 4.53 0.21
-3 3 6 4.77 0.21
3 -3 6 4.56 0.21
-3 -3 -6 4.38 0.21
3 -3 6 4.35 0.21
3 3 6 4.38 0.21
-3 -3 6 4.47 0.21
-3 -3 6 4.08 0.2
3 -3 -6 4.35 0.22
-3 3 -6 4.43 0.2
3 -3 -6 4.21 0.2
-3 -3 6 4.34 0.2
-4 -3 -6 1.09 0.09
4 3 -6 1.05 0.1
-4 -3 -6 1.18 0.1
4 -3 6 1.11 0.09
4 -3 6 1.3 0.1
-4 3 6 1.31 0.09
-4 -3 6 1.11 0.08
4 3 6 1.16 0.1
4 -3 -6 1.24 0.1
-4 3 -6 1.15 0.08
-4 -3 6 1.13 0.09
-5 3 6 4.16 0.2
-5 -3 -6 4.26 0.21
5 -3 6 4.11 0.2
5 3 -6 4.19 0.21
5 -3 6 3.97 0.2
-5 -3 -6 3.99 0.2
-5 3 -6 4.16 0.19
-5 -3 6 4.07 0.19
-5 -3 6 4.33 0.19
5 3 6 3.77 0.2
-6 -3 -6 0.16 0.05
6 -3 6 0.18 0.05
6 -3 6 0.24 0.05
-6 3 6 0.33 0.05
-6 -3 -6 0.24 0.05
6 3 -6 0.26 0.05
-6 3 -6 0.28 0.05
6 3 6 0.28 0.06
-6 -3 6 0.24 0.04
-6 -3 6 0.27 0.05
-7 3 6 1.94 0.12
7 3 -6 1.73 0.13
-7 -3 -6 1.47 0.12
-7 -3 -6 1.74 0.12
7 -3 6 1.75 0.12
7 -3 -6 1.8 0.12
-7 -3 6 1.98 0.11
-7 -3 6 1.86 0.11
7 3 6 1.89 0.13
-7 3 -6 1.81 0.11
8 3 -6 0.77 0.09
-8 -3 -6 0.71 0.08
-8 3 6 0.67 0.07
8 -3 6 0.67 0.08
8 -3 6 0.93 0.09
8 -3 6 0.61 0.07
-8 -3 -6 0.65 0.08
-8 -3 6 0.7 0.07
8 3 6 0.78 0.08
-8 -3 6 0.69 0.07
8 -3 -6 0.67 0.08
-8 3 -6 0.83 0.08
-9 -3 -6 0.98 0.1
9 3 -6 0.8 0.09
-9 -3 -6 0.73 0.08
-9 3 6 0.86 0.08
-9 -3 6 0.84 0.08
9 -3 -6 0.79 0.09
-9 -3 6 1 0.09
-9 3 -6 0.81 0.08
9 3 6 0.93 0.09
10 3 -6 0.17 0.06
-10 3 6 0.2 0.05
-10 -3 -6 0.16 0.05
-10 -3 -6 0.17 0.06
-10 -3 6 0.2 0.05
-10 -3 6 0.12 0.04
-10 3 -6 0.09 0.04
10 3 6 0.15 0.06
10 -3 -6 0.17 0.06
-11 3 6 0.92 0.09
-11 -3 -6 0.92 0.1
11 3 -6 0.98 0.1
-11 -3 -6 0.94 0.09
-11 -3 6 0.87 0.09
11 -3 -6 0.94 0.11
-11 3 -6 0.97 0.09
-11 -3 6 0.92 0.09
11 3 6 0.9 0.1
0 -4 6 0.13 0.04
0 -4 6 0.07 0.04
0 4 -6 0.04 0.03
0 -4 -6 0.13 0.04
0 4 6 0.12 0.04
0 -4 -6 0.03 0.04
-1 -4 -6 1.15 0.1
-1 -4 -6 1.05 0.09
-1 4 6 1.15 0.1
1 -4 6 1.02 0.1
1 -4 6 1.13 0.09
1 4 -6 1.01 0.07
-1 -4 6 1.16 0.09
1 4 6 1.1 0.09
-1 4 -6 1.07 0.08
1 -4 -6 1.12 0.1
-1 -4 6 1.04 0.1
1 -4 -6 1.1 0.09
2 -4 6 0 0.03
-2 -4 -6 0.03 0.04
2 -4 6 -0.02 0.04
-2 4 6 0 0.04
-2 -4 -6 0.02 0.04
2 -4 -6 0.06 0.04
-2 -4 6 -0.01 0.03
2 -4 -6 0.03 0.03
2 4 6 0.04 0.04
-2 4 -6 0.01 0.03
-2 -4 6 0.05 0.04
-3 -4 -6 2.91 0.15
3 -4 6 2.48 0.15
-3 -4 -6 2.53 0.15
-3 4 6 2.6 0.14
3 -4 6 2.61 0.14
3 4 6 2.47 0.15
3 -4 -6 2.62 0.15
-3 -4 6 2.49 0.15
-3 -4 6 2.45 0.14
-3 4 -6 2.45 0.13
3 -4 -6 2.55 0.14
4 -4 6 0.09 0.04
4 -4 6 0.06 0.04
-4 4 6 0.11 0.04
-4 -4 -6 0.13 0.05
-4 -4 -6 0.06 0.04
4 4 6 0.08 0.05
4 -4 -6 0.12 0.05
4 -4 -6 0.1 0.04
-4 4 -6 0.13 0.04
-4 -4 6 0.08 0.04
-4 -4 6 0.08 0.04
5 4 -6 2.46 0.15
-5 -4 -6 2.38 0.15
5 -4 6 2.22 0.14
-5 -4 -6 2.4 0.14
-5 4 6 2.33 0.13
5 -4 6 2.46 0.15
5 -4 -6 2.23 0.14
-5 -4 6 2.24 0.12
5 4 6 2.31 0.15
-5 -4 6 2.18 0.13
-5 4 -6 2.36 0.13
-6 4 6 0.03 0.04
-6 -4 -6 0.01 0.04
6 4 -6 -0.05 0.04
6 -4 6 0.04 0.04
-6 -4 -6 0.02 0.04
6 -4 6 0.03 0.04
-6 4 -6 -0.01 0.03
6 4 6 0.03 0.05
-6 -4 6 0 0.03
-6 -4 6 0 0.03
-7 4 6 0.8 0.08
7 -4 6 0.82 0.09
-7 -4 -6 0.78 0.09
7 -4 6 0.89 0.09
7 4 -6 0.82 0.09
-7 -4 -6 0.71 0.08
7 4 6 0.88 0.09
-7 4 -6 0.89 0.08
-7 -4 6 0.85 0.08
-7 -4 6 0.9 0.08
8 -4 6 0.01 0.04
-8 -4 -6 0.01 0.04
-8 -4 -6 0.07 0.04
-8 4 6 0.02 0.04
8 4 -6 0.04 0.05
8 -4 6 0 0.04
-8 -4 6 0.02 0.04
-8 -4 6 0.03 0.03
8 4 6 -0.01 0.05
-8 4 -6 0 0.04
9 -4 6 0.3 0.06
9 4 -6 0.42 0.07
-9 -4 -6 0.32 0.06
9 -4 6 0.41 0.07
-9 4 6 0.32 0.06
-9 -4 -6 0.41 0.07
-9 -4 6 0.35 0.05
-9 4 -6 0.26 0.05
9 4 6 0.3 0.07
-9 -4 6 0.25 0.05
0 5 -6 0.19 0.04
0 -5 6 0.2 0.05
0 -5 6 0.18 0.05
0 -5 -6 0.21 0.05
0 -5 -6 0.26 0.05
0 5 6 0.21 0.05
1 -5 6 0.39 0.07
1 -5 6 0.43 0.06
-1 -5 -6 0.33 0.06
-1 5 6 0.63 0.07
-1 -5 -6 0.41 0.06
1 -5 -6 0.31 0.06
-1 5 -6 0.37 0.05
-1 -5 6 0.44 0.07
-1 -5 6 0.49 0.06
1 5 6 0.57 0.07
1 -5 -6 0.39 0.06
2 -5 6 0.39 0.07
-2 -5 -6 0.35 0.06
-2 -5 -6 0.47 0.07
-2 5 6 0.41 0.06
2 -5 6 0.39 0.06
-2 -5 6 0.32 0.05
2 -5 -6 0.46 0.06
-2 -5 6 0.38 0.07
2 5 6 0.34 0.07
2 -5 -6 0.33 0.06
-2 5 -6 0.33 0.05
3 -5 6 0.7 0.09
-3 -5 -6 0.79 0.09
3 -5 6 0.77 0.08
-3 -5 -6 0.8 0.08
-3 5 6 0.76 0.08
-3 5 -6 0.79 0.07
3 -5 -6 0.87 0.08
-3 -5 6 0.7 0.07
3 5 6 0.89 0.09
-3 -5 6 0.87 0.09
3 -5 -6 0.77 0.08
-4 -5 -6 0.14 0.05
-4 -5 -6 0.15 0.05
-4 5 6 0.12 0.05
4 -5 6 0.1 0.05
4 -5 6 0.16 0.05
-4 5 -6 0.08 0.04
4 -5 -6 0.1 0.04
4 5 6 0.04 0.05
4 -5 -6 0.14 0.05
-4 -5 6 0.15 0.05
-4 -5 6 0.14 0.04
5 5 -6 0.6 0.08
-5 -5 -6 0.68 0.08
-5 -5 -6 0.48 0.07
5 -5 6 0.56 0.07
5 -5 6 0.7 0.09
-5 5 6 0.52 0.07
5 -5 -6 0.67 0.08
-5 -5 6 0.64 0.08
-5 5 -6 0.66 0.07
-5 -5 6 0.48 0.06
5 5 6 0.69 0.08
6 -5 6 0.13 0.06
6 5 -6 0.34 0.07
-6 -5 -6 0.24 0.05
-6 5 6 0.25 0.06
6 -5 6 0.35 0.06
-6 -5 -6 0.34 0.07
6 5 6 0.38 0.07
-6 -5 6 0.31 0.04
-6 5 -6 0.27 0.05
6 -5 -6 0.24 0.06
0 0 7 5.66 0.25
0 0 7 5.08 0.25
0 0 -7 5.37 0.24
1 0 7 0.06 0.04
-1 0 7 -0.02 0.03
-1 0 -7 -0.01 0.03
1 0 -7 0.02 0.03
-1 0 7 0.02 0.03
-2 0 7 1.74 0.11
-2 0 7 1.77 0.12
2 0 7 1.94 0.12
-2 0 -7 2.13 0.11
3 0 -7 0.01 0.03
-3 0 7 0.02 0.04
-3 0 -7 0.03 0.03
-3 0 7 0 0.03
3 0 7 -0.03 0.03
-4 0 -7 0.74 0.07
-4 0 7 0.68 0.08
-4 0 7 0.67 0.07
4 0 7 0.67 0.07
4 0 -7 0.92 0.08
-5 0 -7 0.06 0.04
-5 0 7 0.02 0.04
5 0 -7 -0.01 0.04
-5 0 7 -0.08 0.03
5 0 7 -0.07 0.03
-6 0 7 1.35 0.1
-6 0 7 1.37 0.12
6 0 -7 1.98 0.12
6 0 7 1.35 0.11
-6 0 -7 1.61 0.11
7 0 7 0.01 0.04
-7 0 7 -0.01 0.04
-7 0 7 0.01 0.04
-7 0 -7 -0.05 0.03
7 0 -7 -0.04 0.04
-8 0 7 2.35 0.14
-8 0 -7 2.24 0.14
8 0 -7 2.46 0.15
-8 0 7 2.1 0.15
8 0 7 2.38 0.14
-9 0 7 0 0.04
9 0 7 0.02 0.04
-9 0 -7 -0.01 0.04
-9 0 7 0.01 0.04
9 0 -7 0.05 0.05
-10 0 7 0.45 0.07
-10 0 7 0.42 0.06
10 0 -7 0.5 0.08
0 -1 7 3.77 0.21
0 -1 7 4.1 0.2
0 -1 -7 4.25 0.2
0 1 7 4.27 0.2
0 1 -7 4.41 0.19
0 1 -7 4.31 0.2
1 -1 7 0.2 0.05
1 -1 7 0.24 0.05
-1 1 7 0.23 0.05
-1 -1 -7 0.19 0.04
1 1 -7 0.25 0.05
-1 1 -7 0.29 0.04
-1 -1 7 0.28 0.06
1 -1 -7 0.24 0.04
1 1 7 0.29 0.05
-1 -1 7 0.21 0.04
-2 1 7 1.95 0.12
-2 -1 -7 2.38 0.12
2 1 -7 2.16 0.12
2 -1 7 2 0.13
2 -1 7 1.94 0.12
-2 1 -7 2.24 0.12
-2 -1 7 2.17 0.12
2 1 7 2.24 0.13
-2 -1 7 2.17 0.13
3 -1 7 0.64 0.06
3 1 -7 0.59 0.07
-3 -1 -7 0.66 0.07
-3 1 7 0.7 0.07
3 -1 7 0.66 0.08
-3 -1 7 0.63 0.06
-3 1 -7 0.62 0.06
3 1 7 0.61 0.07
-3 -1 7 0.56 0.07
4 -1 7 0.78 0.07
4 1 -7 1.01 0.09
-4 1 7 0.82 0.08
-4 -1 -7 1.09 0.09
-4 -1 7 0.92 0.09
4 1 7 0.84 0.08
-4 1 -7 1.1 0.08
-4 -1 7 0.91 0.08
-5 1 7 0.57 0.07
-5 -1 -7 0.49 0.06
5 1 -7 0.49 0.07
5 -1 7 0.52 0.06
-5 -1 7 0.54 0.07
5 -1 -7 0.51 0.07
5 1 7 0.44 0.07
-5 1 -7 0.47 0.06
-5 -1 7 0.52 0.06
-6 1 7 1.64 0.12
6 1 -7 1.93 0.12
6 -1 7 1.64 0.11
-6 -1 -7 1.82 0.12
-6 -1 7 1.65 0.11
6 1 7 1.74 0.12
-6 -1 7 1.47 0.12
6 -1 -7 1.92 0.12
-6 1 -7 1.87 0.11
-7 1 7 0.19 0.05
7 1 -7 0.17 0.05
-7 -1 -7 0.14 0.05
-7 -1 7 0.16 0.05
-7 1 -7 0.2 0.05
7 -1 -7 0.2 0.05
7 1 7 0.07 0.05
-7 -1 7 0.17 0.05
8 1 -7 1.89 0.13
-8 1 7 1.81 0.12
-8 -1 -7 1.91 0.13
8 1 7 1.72 0.13
8 -1 -7 1.87 0.13
-8 -1 7 1.78 0.13
-8 -1 7 1.63 0.12
-8 1 -7 1.92 0.12
9 1 -7 0.12 0.05
-9 1 7 0.1 0.04
-9 -1 -7 0.11 0.05
-9 1 -7 0.07 0.04
9 -1 -7 0.08 0.05
9 1 7 0.03 0.05
-9 -1 7 0.15 0.05
-9 -1 7 0.08 0.05
0 2 7 1.82 0.12
0 2 -7 1.82 0.1
0 -2 7 1.64 0.12
0 -2 -7 1.71 0.11
0 -2 7 1.69 0.1
0 2 -7 1.68 0.11
-1 2 7 0.73 0.08
1 2 -7 0.69 0.07
1 -2 7 0.71 0.06
1 -2 7 0.77 0.08
-1 -2 -7 0.73 0.07
1 -2 7 0.67 0.08
-1 -2 7 0.75 0.07
1 2 7 0.62 0.08
1 -2 -7 0.73 0.07
-1 -2 7 0.69 0.08
-1 2 -7 0.88 0.07
-2 -2 -7 0.73 0.07
2 -2 7 0.54 0.07
2 2 -7 0.76 0.08
2 -2 7 0.63 0.06
2 -2 7 0.57 0.06
-2 2 7 0.56 0.07
-2 2 -7 0.71 0.06
2 2 7 0.52 0.07
-2 -2 7 0.46 0.06
-2 -2 7 0.68 0.07
3 -2 7 1.43 0.11
3 -2 7 1.37 0.1
-3 2 7 1.38 0.11
-3 -2 -7 1.51 0.11
-3 -2 -7 1.54 0.11
3 2 -7 1.61 0.11
3 2 7 1.64 0.11
-3 -2 7 1.49 0.1
-3 2 -7 1.61 0.1
-3 -2 7 1.52 0.11
4 2 -7 0.25 0.05
-4 -2 -7 0.29 0.06
-4 2 7 0.14 0.05
4 -2 7 0.17 0.05
-4 -2 -7 0.24 0.05
-4 -2 7 0.27 0.05
4 2 7 0.25 0.06
-4 2 -7 0.25 0.05
-4 -2 7 0.12 0.05
5 2 -7 1.34 0.11
-5 2 7 1.32 0.1
5 -2 7 1.3 0.11
-5 -2 -7 1.27 0.11
-5 -2 -7 1.3 0.11
-5 -2 7 1.29 0.11
5 2 7 1.34 0.11
-5 -2 7 1.4 0.09
-5 2 -7 1.31 0.1
6 2 -7 0.53 0.07
-6 2 7 0.42 0.06
-6 -2 -7 0.56 0.07
-6 -2 -7 0.56 0.08
-6 -2 7 0.39 0.07
-6 -2 7 0.43 0.06
-6 2 -7 0.67 0.07
6 2 7 0.45 0.07
-7 -2 -7 0.37 0.07
-7 2 7 0.51 0.07
7 2 -7 0.44 0.07
-7 -2 -7 0.43 0.07
-7 2 -7 0.56 0.06
-7 -2 7 0.34 0.06
-7 -2 7 0.47 0.06
7 2 7 0.36 0.07
8 2 -7 0.63 0.08
-8 2 7 0.68 0.08
-8 -2 -7 0.7 0.08
-8 -2 -7 0.84 0.09
8 2 7 0.59 0.08
-8 -2 7 0.83 0.08
-8 -2 7 0.83 0.09
-8 2 -7 0.87 0.08
8 -2 -7 0.65 0.09
-9 -2 -7 0.23 0.06
-9 2 7 0.3 0.06
-9 -2 -7 0.26 0.06
9 2 -7 0.32 0.06
-9 2 -7 0.29 0.06
9 2 7 0.34 0.07
9 -2 -7 0.34 0.07
-9 -2 7 0.2 0.05
-9 -2 7 0.41 0.07
0 -3 -7 0.46 0.07
0 -3 7 0.46 0.07
0 -3 -7 0.52 0.07
0 -3 7 0.54 0.07
0 3 7 0.4 0.07
1 -3 7 0.59 0.07
1 -3 7 0.68 0.08
-1 -3 -7 0.56 0.07
-1 -3 -7 0.61 0.07
-1 3 7 0.52 0.07
1 3 7 0.72 0.08
-1 -3 7 0.71 0.08
-1 -3 7 0.65 0.07
1 -3 -7 0.66 0.07
-1 3 -7 0.53 0.06
-2 -3 -7 0.07 0.04
2 -3 7 0.08 0.04
2 3 -7 0.16 0.05
-2 3 7 0.2 0.05
-2 -3 -7 0.14 0.05
2 -3 7 0.06 0.04
-2 -3 7 0.07 0.05
-2 3 -7 0.13 0.04
2 -3 -7 0.16 0.04
2 3 7 0.19 0.05
-3 -3 -7 1.64 0.12
3 -3 7 1.5 0.12
3 -3 7 1.52 0.11
3 3 -7 1.38 0.12
-3 -3 -7 1.53 0.12
-3 3 7 1.54 0.12
-3 3 -7 1.61 0.1
-3 -3 7 1.55 0.1
3 3 7 1.54 0.12
-3 -3 7 1.67 0.12
4 -3 7 0.26 0.06
4 -3 7 0.4 0.06
-4 -3 -7 0.37 0.06
-4 3 7 0.35 0.06
-4 -3 -7 0.37 0.06
4 3 -7 0.28 0.06
4 3 7 0.34 0.07
-4 -3 7 0.36 0.06
-4 -3 7 0.35 0.05
-4 3 -7 0.35 0.05
5 -3 7 1.39 0.11
-5 -3 -7 1.5 0.11
-5 -3 -7 1.38 0.11
5 3 -7 1.35 0.12
-5 3 7 1.33 0.11
5 -3 7 1.26 0.11
-5 -3 7 1.42 0.11
5 3 7 1.14 0.11
-5 3 -7 1.32 0.1
-5 -3 7 1.52 0.1
-6 -3 -7 0.07 0.05
6 3 -7 0.13 0.05
-6 -3 -7 0.13 0.05
6 -3 7 0.11 0.05
-6 3 7 0.18 0.05
-6 3 -7 0.11 0.04
-6 -3 7 0.12 0.05
6 3 7 0.1 0.05
-6 -3 7 0.07 0.04
7 -3 7 0.35 0.07
-7 -3 -7 0.35 0.06
-7 -3 -7 0.4 0.07
7 3 -7 0.37 0.07
-7 3 7 0.44 0.07
-7 -3 7 0.33 0.06
-7 3 -7 0.28 0.05
7 3 7 0.42 0.08
-7 -3 7 0.36 0.05
0 -4 -7 0.15 0.05
0 -4 7 0.21 0.05
0 4 7 0.24 0.06
0 -4 -7 0.15 0.05
0 -4 7 0.21 0.05
-1 4 7 0.24 0.06
1 -4 7 0.27 0.06
-1 -4 -7 0.27 0.06
1 -4 7 0.26 0.06
-1 -4 -7 0.35 0.06
-1 -4 7 0.29 0.06
1 -4 -7 0.38 0.06
1 4 7 0.18 0.06
1 -4 -7 0.29 0.06
-1 -4 7 0.24 0.06
-1 4 -7 0.32 0.05
-2 -4 -7 0.39 0.06
2 -4 7 0.36 0.06
-2 4 7 0.41 0.07
-2 -4 -7 0.4 0.07
2 -4 7 0.37 0.06
2 -4 -7 0.36 0.07
2 -4 -7 0.3 0.06
-2 -4 7 0.37 0.07
-2 -4 7 0.51 0.07
-2 4 -7 0.37 0.05
2 4 7 0.4 0.07
3 -4 7 0.97 0.09
-3 -4 -7 0.88 0.09
-3 4 7 0.79 0.09
3 -4 7 0.93 0.1
3 4 -7 0.93 0.09
-3 -4 -7 0.88 0.09
-3 4 -7 0.95 0.08
-3 -4 7 0.69 0.08
3 4 7 0.83 0.09
-4 -4 -7 0.14 0.05
4 4 -7 0.19 0.05
-4 -4 -7 0.25 0.06
4 -4 7 0.21 0.06
-4 4 7 0.1 0.05
4 -4 7 0.23 0.06
4 4 7 0.18 0.06
-4 -4 7 0.18 0.05
-4 4 -7 0.24 0.05
5 -4 7 0.59 0.08
-5 4 7 0.77 0.08
0 0 8 0.85 0.08
1 0 8 0.01 0.04
-1 0 8 -0.05 0.04
-2 0 8 0.76 0.08
-2 0 -8 0.64 0.07
2 0 8 0.73 0.08
-3 0 -8 0.02 0.03
-3 0 8 -0.01 0.04
3 0 8 0.05 0.04
-4 0 -8 0.02 0.04
4 0 8 0.05 0.04
-4 0 8 0.02 0.04
-5 0 -8 -0.01 0.03
5 0 8 0.06 0.04
-5 0 8 -0.01 0.04
0 -1 8 1.22 0.09
0 -1 8 1.01 0.1
0 1 8 1.08 0.1
-1 -1 -8 0.13 0.04
-1 1 8 0.1 0.05
1 -1 8 0.19 0.05
-1 -1 8 0.16 0.05
1 1 8 0.17 0.05
-1 -1 8 0.17 0.05
-2 1 8 0.22 0.06
2 -1 8 0.23 0.05
-2 -1 -8 0.13 0.04
-2 1 -8 0.13 0.04
2 1 8 0.19 0.06
-2 -1 8 0.17 0.05
-2 -1 8 0.23 0.06
-3 1 8 0.2 0.05
-3 -1 -8 0.21 0.05
3 -1 8 0.26 0.05
-3 -1 8 0.18 0.05
-3 1 -8 0.2 0.05
-3 -1 8 0.23 0.06
3 1 8 0.23 0.06
-4 1 8 0.14 0.05
4 1 -8 0.12 0.05
-4 -1 -8 0.09 0.04
-4 -1 8 0.16 0.05
4 1 8 0.16 0.05
-4 1 -8 0.1 0.04
-4 -1 8 0.16 0.05
0 -2 8 0.2 0.06
0 2 8 0.27 0.06
1 -2 8 0.37 0.07
-1 2 8 0.44 0.07
-1 -2 -8 0.51 0.07
-1 -2 8 0.46 0.06
1 2 8 0.52 0.07
-1 -2 8 0.4 0.07
-2 -2 -8 0.3 0.06
2 2 -8 0.2 0.05
2 -2 8 0.29 0.06
-2 2 8 0.31 0.06
-2 -2 8 0.36 0.05
-2 2 -8 0.2 0.05
2 2 8 0.36 0.07
-2 -2 8 0.31 0.06
3 2 -8 0.56 0.07
-3 2 8 0.44 0.07
-3 -2 -8 0.57 0.07
3 -2 8 0.46 0.07
3 2 8 0.51 0.08
-3 2 -8 0.55 0.06
-3 -2 8 0.37 0.06
-3 -2 8 0.51 0.08
loop_
_twin_individual_id
_twin_individual_mass_fraction_refined
1 0.94(3)
2 0.06(3)
