#------------------------------------------------------------------------------
#$Date: 2017-06-04 13:30:47 +0300 (Sun, 04 Jun 2017) $
#$Revision: 197303 $
#$URL: file:///home/coder/svn-repositories/cod/cif/4/12/61/4126179.cif $
#------------------------------------------------------------------------------
#
# This file is available in the Crystallography Open Database (COD),
# http://www.crystallography.net/
#
# All data on this site have been placed in the public domain by the
# contributors.
#
data_4126179
loop_
_publ_author_name
'Nishiyama, Haruka'
'Ikeda, Hideaki'
'Saito, Teruhiko'
'Kriegel, Benjamin'
'Tsurugi, Hayato'
'Arnold, John'
'Mashima, Kazushi'
_publ_section_title
;
 Structural and Electronic Noninnocence of \a-Diimine Ligands on Niobium
 for Reductive C-Cl Bond Activation and Catalytic Radical Addition
 Reactions.
;
_journal_issue                   18
_journal_name_full               'Journal of the American Chemical Society'
_journal_page_first              6494
_journal_page_last               6505
_journal_paper_doi               10.1021/jacs.7b02710
_journal_volume                  139
_journal_year                    2017
_chemical_absolute_configuration 'CHOOSE rm ad rmad syn or unk'
_chemical_formula_moiety         'C28 H40 Cl4 N2 Nb'
_chemical_formula_sum            'C28 H40 Cl4 N2 Nb'
_chemical_formula_weight         639.36
_space_group_crystal_system      triclinic
_space_group_IT_number           1
_space_group_name_Hall           'P 1'
_space_group_name_H-M_alt        'P 1'
_symmetry_space_group_name_Hall  'P 1'
_symmetry_space_group_name_H-M   'P 1'
_atom_sites_solution_hydrogens   geom
_atom_sites_solution_primary     direct
_atom_sites_solution_secondary   difmap
_cell_angle_alpha                83.181(3)
_cell_angle_beta                 71.363(3)
_cell_angle_gamma                67.662(3)
_cell_formula_units_Z            1
_cell_length_a                   8.9239(8)
_cell_length_b                   8.9564(9)
_cell_length_c                   10.7523(10)
_cell_measurement_reflns_used    19584
_cell_measurement_temperature    113
_cell_measurement_theta_max      30.48
_cell_measurement_theta_min      3.01
_cell_volume                     753.21(13)
_computing_cell_refinement       'RAPID AUTO'
_computing_data_collection       'RAPID AUTO (Rigaku, ????)'
_computing_data_reduction        'RAPID AUTO'
_computing_molecular_graphics    'CrystalStructure 4.1'
_computing_publication_material  'CrystalStructure 4.1 (Rigaku, 2014)'
_computing_structure_refinement  'SHELXL2013 (Sheldrick, 2008)'
_computing_structure_solution    'SIR92 (Altomare, et al., 1994)'
_diffrn_ambient_temperature      113
_diffrn_detector_area_resol_mean 10.000
_diffrn_measured_fraction_theta_full 0.998
_diffrn_measured_fraction_theta_max 0.999
_diffrn_measurement_device_type  'Rigaku R-AXIS RAPID'
_diffrn_measurement_method       \w
_diffrn_radiation_type           'Mo K\a'
_diffrn_radiation_wavelength     0.71075
_diffrn_reflns_av_R_equivalents  0.1234
_diffrn_reflns_Laue_measured_fraction_full 0.998
_diffrn_reflns_Laue_measured_fraction_max 0.999
_diffrn_reflns_limit_h_max       11
_diffrn_reflns_limit_h_min       -11
_diffrn_reflns_limit_k_max       11
_diffrn_reflns_limit_k_min       -11
_diffrn_reflns_limit_l_max       13
_diffrn_reflns_limit_l_min       -13
_diffrn_reflns_number            14175
_diffrn_reflns_point_group_measured_fraction_full 0.918
_diffrn_reflns_point_group_measured_fraction_max 0.905
_diffrn_reflns_theta_full        25.242
_diffrn_reflns_theta_max         27.484
_diffrn_reflns_theta_min         3.008
_diffrn_standards_number         0
_exptl_absorpt_coefficient_mu    0.773
_exptl_absorpt_correction_T_max  0.936
_exptl_absorpt_correction_T_min  0.079
_exptl_absorpt_correction_type   multi-scan
_exptl_absorpt_process_details   'ABSCOR (Rigaku, 1995)'
_exptl_crystal_colour            green
_exptl_crystal_density_diffrn    1.409
_exptl_crystal_density_method    'not measured'
_exptl_crystal_description       block
_exptl_crystal_F_000             331.00
_exptl_crystal_size_max          0.227
_exptl_crystal_size_mid          0.086
_exptl_crystal_size_min          0.085
_refine_diff_density_max         1.43
_refine_diff_density_min         -1.43
_refine_ls_abs_structure_details
;
 Flack x determined using 1939 quotients [(I+)-(I-)]/[(I+)+(I-)]
 (Parsons and Flack (2004), Acta Cryst. A60, s61).
;
_refine_ls_abs_structure_Flack   1.05(8)
_refine_ls_extinction_method     none
_refine_ls_goodness_of_fit_ref   1.010
_refine_ls_hydrogen_treatment    constr
_refine_ls_number_parameters     326
_refine_ls_number_reflns         6252
_refine_ls_number_restraints     3
_refine_ls_R_factor_all          0.0757
_refine_ls_R_factor_gt           0.0608
_refine_ls_shift/su_max          0.000
_refine_ls_structure_factor_coef Fsqd
_refine_ls_weighting_details
'w = 1/[\s^2^(Fo^2^)+(0.1323P)^2^+0.0000P] where P=(Fo^2^+2Fc^2^)/3'
_refine_ls_weighting_scheme      calc
_refine_ls_wR_factor_gt          0.1589
_refine_ls_wR_factor_ref         0.1865
_reflns_number_gt                5446
_reflns_number_total             6252
_reflns_threshold_expression     F^2^>2.0\s(F^2^)
_cod_data_source_file            ja7b02710_si_002.cif
_cod_data_source_block           6a
_cod_original_cell_volume        753.21(12)
_cod_database_code               4126179
_shelxl_res_file
;
TITL hr-DADMeNbCl4-20140421-2
CELL  0.71075 8.92390 8.95640 10.75230 83.18080 71.36330 67.66190
ZERR  1 0.00080 0.00090 0.00100 0.00310 0.00320 0.00270
LATT -1
SFAC NB N CL C H
UNIT 1 2 4 28 40
L.S. 50
FMAP 2
PLAN -1
WPDB -2
HTAB
BOND $H
CONF
LIST 4
TEMP -160.0
ACTA
SIZE 0.227 0.086 0.085
WGHT    0.132300
FVAR       0.94099
NB1   1    0.848922    0.333244    0.219960    11.00000    0.01458    0.01190 =
         0.01098    0.00122   -0.00398   -0.00661
CL1   3    0.899275    0.220359    0.019737    11.00000    0.03323    0.02612 =
         0.01431   -0.00127   -0.00782   -0.01351
CL2   3    0.994200    0.068897    0.288650    11.00000    0.02664    0.01597 =
         0.02034    0.00314   -0.00838   -0.00828
CL3   3    0.596164    0.325594    0.374063    11.00000    0.02747    0.02287 =
         0.01481    0.00210   -0.00103   -0.01236
CL4   3    0.679031    0.581523    0.146376    11.00000    0.01891    0.02151 =
         0.02566    0.00667   -0.00708   -0.00426
N1    2    1.080524    0.394740    0.131800    11.00000    0.01443    0.01218 =
         0.00824    0.00209   -0.00187   -0.00575
N2    2    0.885135    0.455567    0.371610    11.00000    0.00830    0.01391 =
         0.01071   -0.00139    0.00271   -0.00564
C1    4    1.122379    0.471421    0.203623    11.00000    0.02040    0.01444 =
         0.02007   -0.00030   -0.00705   -0.01006
C2    4    1.012885    0.506936    0.338349    11.00000    0.02478    0.01705 =
         0.01619    0.00190   -0.00726   -0.00997
C3    4    1.276888    0.521065    0.158512    11.00000    0.02273    0.03350 =
         0.01545    0.00011   -0.00109   -0.02077
AFIX 137
H3A   5    1.340416    0.486299    0.067454    11.00000   -1.20000
H3B   5    1.349962    0.470134    0.214812    11.00000   -1.20000
H3C   5    1.239665    0.638694    0.164253    11.00000   -1.20000
AFIX   0
C4    4    1.048827    0.597723    0.426441    11.00000    0.02895    0.03758 =
         0.01600   -0.00886   -0.00405   -0.02039
AFIX 137
H4A   5    0.959392    0.618167    0.510902    11.00000   -1.20000
H4B   5    1.051931    0.700731    0.385573    11.00000   -1.20000
H4C   5    1.158712    0.533763    0.440576    11.00000   -1.20000
AFIX   0
C5    4    1.189317    0.358164   -0.004710    11.00000    0.01752    0.01716 =
         0.00819   -0.00106   -0.00257   -0.00936
C6    4    1.157971    0.475750   -0.103298    11.00000    0.01405    0.02016 =
         0.01216    0.00012   -0.00318   -0.00980
C7    4    1.268558    0.433501   -0.231826    11.00000    0.02302    0.02558 =
         0.01234    0.00026   -0.00500   -0.01340
AFIX  43
H7    5    1.251885    0.509185   -0.300562    11.00000   -1.20000
AFIX   0
C8    4    1.399117    0.286988   -0.260723    11.00000    0.02145    0.03255 =
         0.01658   -0.00381   -0.00168   -0.01783
AFIX  43
H8    5    1.470644    0.261751   -0.348333    11.00000   -1.20000
AFIX   0
C9    4    1.425907    0.176560   -0.161827    11.00000    0.01170    0.02497 =
         0.02352   -0.00909   -0.00039   -0.00619
AFIX  43
H9    5    1.515222    0.074536   -0.183347    11.00000   -1.20000
AFIX   0
C10   4    1.327032    0.208980   -0.031732    11.00000    0.01717    0.01634 =
         0.01958   -0.00191   -0.00565   -0.00722
C11   4    1.020569    0.642328   -0.076608    11.00000    0.02068    0.01954 =
         0.01574   -0.00073   -0.00586   -0.00538
AFIX  13
H11   5    0.954306    0.649355    0.018505    11.00000   -1.20000
AFIX   0
C12   4    1.097590    0.775565   -0.106697    11.00000    0.02916    0.01580 =
         0.03617   -0.00150   -0.01056   -0.00709
AFIX 137
H12A  5    1.151904    0.778776   -0.201376    11.00000   -1.20000
H12B  5    1.182274    0.752083   -0.060238    11.00000   -1.20000
H12C  5    1.007406    0.880283   -0.077547    11.00000   -1.20000
AFIX   0
C13   4    0.897075    0.670862   -0.158742    11.00000    0.02677    0.02788 =
         0.01949    0.00291   -0.00930   -0.00415
AFIX 137
H13A  5    0.846567    0.587619   -0.137708    11.00000   -1.20000
H13B  5    0.959686    0.665442   -0.252420    11.00000   -1.20000
H13C  5    0.807080    0.777521   -0.137903    11.00000   -1.20000
AFIX   0
C14   4    1.373610    0.085110    0.071861    11.00000    0.01554    0.01750 =
         0.02232    0.00180   -0.00514   -0.00415
AFIX  13
H14   5    1.286156    0.126616    0.157719    11.00000   -1.20000
AFIX   0
C15   4    1.546060    0.063158    0.086064    11.00000    0.02736    0.02160 =
         0.02892    0.00058   -0.01156   -0.00663
AFIX 137
H15A  5    1.541633    0.165271    0.114233    11.00000   -1.20000
H15B  5    1.633781    0.030441    0.001432    11.00000   -1.20000
H15C  5    1.573168   -0.020292    0.151618    11.00000   -1.20000
AFIX   0
C16   4    1.365195   -0.076440    0.043379    11.00000    0.02812    0.01524 =
         0.02919    0.00110   -0.00439   -0.01005
AFIX 137
H16A  5    1.466695   -0.134014   -0.027164    11.00000   -1.20000
H16B  5    1.263819   -0.054748    0.016456    11.00000   -1.20000
H16C  5    1.359742   -0.142849    0.122812    11.00000   -1.20000
AFIX   0
C17   4    0.776321    0.488442    0.508220    11.00000    0.02260    0.02183 =
         0.01181    0.00292   -0.00682   -0.01519
C18   4    0.640261    0.637539    0.539866    11.00000    0.02039    0.02357 =
         0.02509   -0.00254   -0.00895   -0.01348
C19   4    0.544963    0.670523    0.672388    11.00000    0.01991    0.02092 =
         0.02351   -0.01021   -0.00197   -0.00419
AFIX  43
H19   5    0.451997    0.769917    0.695816    11.00000   -1.20000
AFIX   0
C20   4    0.585591    0.558195    0.770638    11.00000    0.03194    0.03884 =
         0.01197   -0.00812    0.00088   -0.02265
AFIX  43
H20   5    0.523345    0.583763    0.860220    11.00000   -1.20000
AFIX   0
C21   4    0.714337    0.412520    0.737403    11.00000    0.01817    0.04395 =
         0.00964    0.00202   -0.00161   -0.02140
AFIX  43
H21   5    0.735539    0.335379    0.804457    11.00000   -1.20000
AFIX   0
C22   4    0.817437    0.372455    0.606274    11.00000    0.01134    0.02882 =
         0.00979   -0.00753    0.00293   -0.01159
C23   4    0.590350    0.766606    0.439462    11.00000    0.03045    0.01497 =
         0.02310   -0.00488   -0.00010   -0.00729
AFIX  13
H23   5    0.672530    0.725872    0.351543    11.00000   -1.20000
AFIX   0
C24   4    0.604057    0.925150    0.465698    11.00000    0.06178    0.01578 =
         0.03850    0.00072   -0.01187   -0.01485
AFIX 137
H24A  5    0.708292    0.901231    0.489156    11.00000   -1.20000
H24B  5    0.505631    0.983296    0.538110    11.00000   -1.20000
H24C  5    0.606991    0.992061    0.386565    11.00000   -1.20000
AFIX   0
C25   4    0.412401    0.792444    0.433129    11.00000    0.02501    0.01953 =
         0.03183   -0.00225   -0.00572   -0.00018
AFIX 137
H25A  5    0.327683    0.838987    0.516199    11.00000   -1.20000
H25B  5    0.407967    0.688608    0.418086    11.00000   -1.20000
H25C  5    0.388177    0.866198    0.361068    11.00000   -1.20000
AFIX   0
C26   4    0.966231    0.213148    0.577009    11.00000    0.02032    0.02734 =
         0.01033    0.00054   -0.00258   -0.00956
AFIX  13
H26   5    1.017499    0.202242    0.479596    11.00000   -1.20000
AFIX   0
C27   4    1.101968    0.212347    0.636063    11.00000    0.03936    0.03533 =
         0.02763   -0.00711   -0.01538   -0.00327
AFIX 137
H27A  5    1.054803    0.221686    0.731791    11.00000   -1.20000
H27B  5    1.137769    0.303657    0.601272    11.00000   -1.20000
H27C  5    1.200027    0.111185    0.612842    11.00000   -1.20000
AFIX   0
C28   4    0.906753    0.071233    0.627061    11.00000    0.04008    0.02406 =
         0.02516    0.00674   -0.01304   -0.01257
AFIX 137
H28A  5    0.820369    0.075591    0.587437    11.00000   -1.20000
H28B  5    0.858284    0.078116    0.722780    11.00000   -1.20000
H28C  5    1.003621   -0.030641    0.602933    11.00000   -1.20000
AFIX   0
HKLF 4
 
REM  hr-DADMeNbCl4-20140421-2
REM R1 =  0.0608 for    5446 Fo > 4sig(Fo)  and  0.0757 for all    6252 data
REM    326 parameters refined using      3 restraints
 
END  
     
WGHT      0.1085      0.0000 

REM No hydrogen bonds found for HTAB generation

REM Highest difference peak  1.430,  deepest hole -1.426,  1-sigma level  0.147
Q1    1   0.9363  0.2269  0.2059  11.00000  0.05    1.03
;
_shelxl_hkl_file
;
   0   0   2  453.25    7.06
   0   0   3   51.36    8.04
   0   0  -3   40.50    8.23
   0   0   4  294.22   11.45
   0   0   5 1213.58   19.62
   0   0   5 1049.05   18.52
   0   0   6  465.33   18.76
   0   0   6  398.18   17.77
   0   0   7  126.82   20.59
   0   0   8  298.92   22.24
   0   0   8  292.66   43.42
   0   0   9  150.07   25.66
   0   0   9  121.91   25.85
   0   0  10  224.78   29.47
   0   0  10  187.16   29.45
   0   0  11  247.69   62.67
   0   0  11  215.48   70.63
   0   0  12  189.73   35.01
   0   0  12  147.54   44.11
   0   0  13  692.66   53.72
   0   0  13  538.04   46.90
   0  -1  13  235.91   40.53
   0  -1  13  245.71   50.05
   0  -1  12  359.08   37.85
   0  -1  12  389.89   81.56
   0  -1  11  901.69   46.38
   0  -1  11  895.73   69.02
   0  -1  10  477.35   31.99
   0  -1  10  672.50   62.61
   0  -1   9  347.39   27.27
   0  -1   9  423.82   56.76
   0  -1   8 1627.65   55.26
   0  -1   8 1637.17   57.56
   0  -1   7  755.87   27.34
   0  -1   7  645.97   40.85
   0  -1   6  803.14   20.35
   0  -1   6  885.42   24.26
   0  -1   5  288.36   14.61
   0  -1   5  281.54   19.05
   0   1  -4  510.57   14.60
   0  -1   4  561.90   30.09
   0   1  -3 1102.91    6.53
   0   1  -3 1461.03   15.69
   0  -1   3 1199.10    7.29
   0  -1   3 1615.95   17.58
   0   1  -2 3639.91   11.10
   0   1  -2 4611.29   18.56
   0  -1   2 4718.68   11.43
   0  -1   2 4868.15   19.33
   0   1  -1 1800.57    7.26
   0   1  -1 2007.43    7.84
   0   1  -1 1734.58    8.98
   0  -1   1 1807.52    9.11
   0  -1   1 1845.33    7.41
   0  -1   1 1831.41   10.16
   0   1   1  982.32    9.82
   0   1   1  920.85    6.53
   0  -1  -1  899.80    6.11
   0  -1  -1  873.62    6.24
   0   1   2  933.10   10.08
   0   1   2  937.03    8.57
   0  -1  -2  970.58   10.91
   0  -1  -2  902.72    8.35
   0   1   3 3215.05   15.97
   0   1   3 3231.61   25.22
   0  -1  -3 3488.48   16.71
   0  -1  -3 3330.70   16.56
   0   1   4 2969.40   18.75
   0   1   4 2830.71   10.68
   0  -1  -4 2996.44   11.47
   0   1   5 5414.62   28.33
   0   1   5 5220.17   15.02
   0  -1  -5 5008.77   27.71
   0  -1  -5 4751.35   18.29
   0   1   6 1421.32   19.99
   0   1   6 1608.58   14.40
   0  -1  -6 1353.62   19.89
   0   1   7  518.64   19.42
   0   1   7  585.97   10.41
   0  -1  -7  507.53   35.62
   0   1   8  611.69   26.77
   0   1   9  209.91   50.05
   0   1   9  236.39   56.06
   0   1  10   21.60   29.58
   0   1  10   55.53   61.72
   0   1  11   39.85   33.07
   0   1  11   91.34   64.69
   0   1  12   83.42   37.96
   0   1  12   74.82   74.79
   0   1  13  266.01   47.05
   0  -2  13   54.87   46.95
   0  -2  13   77.73   77.62
   0  -2  12  167.55   72.81
   0  -2  12  222.71   81.52
   0  -2  11  183.71   34.54
   0  -2  11  292.49   34.56
   0  -2  10  132.58   30.19
   0  -2   9  396.37   27.46
   0  -2   9  487.69   59.10
   0  -2   8 1471.67   30.48
   0  -2   8 1569.61   62.33
   0  -2   7  652.64   42.19
   0  -2   7  734.98   49.05
   0   2  -6 2186.70   28.22
   0  -2   6 2214.09   28.54
   0   2  -5 1105.21   19.67
   0   2  -5 1099.61   11.03
   0  -2   5 1197.90   38.90
   0  -2   5 1015.15   10.63
   0   2  -4 1219.12   17.96
   0   2  -4 1046.75   11.40
   0  -2   4 1151.84   13.03
   0  -2   4 1399.49   20.54
   0  -2   4 1286.44    9.43
   0   2  -3  168.84   19.08
   0   2  -3  161.04    8.75
   0  -2   3  176.60   10.90
   0  -2   3  196.41   11.64
   0  -2   3  152.45    6.38
   0   2  -2  100.41    6.45
   0   2  -2   61.47    7.15
   0   2  -2   67.06    9.27
   0  -2   2   86.23    4.89
   0  -2   2   68.82    7.69
   0  -2   2   82.59   10.85
   0   2  -1  785.97    8.92
   0   2  -1  831.09    6.70
   0   2  -1  874.54   15.23
   0  -2   1  913.88   14.89
   0  -2   1  835.96   10.84
   0  -2   1  813.86   14.27
   0   2   0  123.58    7.41
   0   2   0  101.82    6.46
   0   2   0  114.05   12.62
   0  -2   0   80.08    5.82
   0  -2   0   96.47    6.41
   0  -2   0   21.24    9.65
   0   2   1 1133.39    9.58
   0   2   1 1319.47   11.30
   0  -2  -1 1160.95    9.38
   0  -2  -1 1247.14   17.08
   0   2   2 1174.67   11.00
   0   2   2 1125.51   11.13
   0  -2  -2 1172.23   10.78
   0  -2  -2 1122.30   10.77
   0   2   3  509.46    8.85
   0   2   3  483.61   17.56
   0  -2  -3  552.32   15.88
   0   2   4 1173.89   24.76
   0   2   4 1205.69   11.13
   0  -2  -4 1327.86   12.47
   0  -2  -4 1178.85   14.37
   0   2   5 2814.11   15.72
   0   2   5 2925.42   23.48
   0  -2  -5 2724.28   15.87
   0  -2  -5 2612.78   21.19
   0   2   6 1051.63   18.04
   0   2   6 1179.53   37.15
   0  -2  -6  991.06   10.94
   0  -2  -6 1101.98   19.99
   0   2   7 1420.75   25.51
   0   2   7 1393.58   13.23
   0   2   8 1176.22   22.35
   0   2   8 1077.34   28.65
   0  -2  -8 1012.72   20.82
   0  -2  -8  905.35   25.39
   0   2   9  661.55   31.90
   0   2   9  567.98   16.39
   0  -2  -9  461.38   14.07
   0   2  10  467.43   64.37
   0   2  11   73.82   35.06
   0   2  12  183.36   41.01
   0   2  12  158.19   38.17
   0  -3  12  124.79   39.50
   0  -3  12  160.28   89.51
   0  -3  12   86.05   81.19
   0  -3  11   58.27   32.09
   0  -3  11   57.57   39.79
   0  -3  11   72.72   34.13
   0  -3  10   15.45   35.54
   0  -3  10   12.51   28.92
   0  -3  10   33.44   56.02
   0  -3   9   60.55   24.88
   0  -3   9   51.38   32.96
   0  -3   9   43.80   23.55
   0  -3   8  241.53   24.67
   0  -3   8  272.09   30.75
   0  -3   8  235.00   20.57
   0   3  -7  557.68   23.86
   0   3  -7  411.88    8.54
   0  -3   7  653.15   28.55
   0  -3   7  470.12   10.05
   0  -3   7  553.69   33.15
   0   3  -6 1595.34   17.65
   0   3  -6 1474.86   24.76
   0  -3   6 1639.36   18.81
   0  -3   6 1914.38   31.59
   0   3  -5 1274.73   22.87
   0   3  -5 1148.33   16.66
   0  -3   5 1237.02   15.72
   0  -3   5 1497.74   25.79
   0  -3   5 1348.92   12.90
   0   3  -4  352.18    8.10
   0   3  -4  348.37   26.40
   0  -3   4  386.93   10.33
   0  -3   4  436.66   16.48
   0  -3   4  414.52    9.90
   0   3  -3  597.83   13.26
   0   3  -3  658.48   10.34
   0  -3   3  718.96    9.94
   0  -3   3  684.79   14.74
   0  -3   3  683.77   10.84
   0   3  -2 2500.84   16.08
   0   3  -2 2593.36   13.87
   0   3  -2 2420.77   18.36
   0  -3   2 2733.39   17.54
   0  -3   2 2478.11   12.89
   0  -3   2 2606.59   28.07
   0   3  -1 1390.34   13.82
   0   3  -1 1385.03   10.34
   0   3  -1 1390.40   23.67
   0  -3   1 1269.06   13.14
   0  -3   1 1790.16   20.39
   0   3   0  656.94   11.67
   0   3   0  617.47   11.43
   0   3   0    4.43   16.62
   0  -3   0  614.20   11.15
   0  -3   0  699.28   19.86
   0  -3   0  855.47   19.03
   0   3   1  322.95   10.53
   0   3   1   -3.54    8.19
   0   3   1  279.39    8.90
   0  -3  -1  294.74    8.91
   0  -3  -1  301.81    9.57
   0   3   2  418.34   10.50
   0   3   2  435.80   11.19
   0  -3  -2  435.20   10.48
   0  -3  -2  371.65   17.78
   0   3   3  159.49   10.41
   0   3   3  185.84   10.01
   0  -3  -3  160.59   18.73
   0   3   4  343.12   12.83
   0   3   4  351.57   11.34
   0  -3  -4  360.30   21.14
   0   3   5  130.20   20.84
   0   3   5  125.49   13.00
   0  -3  -5  111.94   10.84
   0  -3  -5   99.54   11.62
   0   3   6   77.67   15.70
   0   3   6   65.64   10.66
   0  -3  -6   82.67   28.52
   0  -3  -6   80.43   21.19
   0   3   7  581.33   42.84
   0   3   7  623.29   14.04
   0  -3  -7  520.60   22.59
   0  -3  -7  614.37   22.09
   0   3   8  591.92   15.07
   0   3   8  607.98   29.16
   0  -3  -8  526.27   14.80
   0  -3  -8  483.41   23.32
   0   3   9  584.92   33.65
   0   3   9  536.33   29.30
   0  -3  -9  502.36   30.96
   0  -3  -9  412.70   25.77
   0   3  10  496.63   34.11
   0  -3 -10  392.59   28.67
   0  -3 -10  354.64   23.29
   0   3  11  296.94   37.59
   0  -3 -11  248.28   35.74
   0   3  12  363.69   43.84
   0   3  12  286.75   43.92
   0  -4  12  307.04   38.04
   0  -4  12  319.88   73.15
   0  -4  12  399.28   95.05
   0  -4  11   32.14   32.77
   0  -4  11   40.63   44.71
   0  -4  11   62.25   31.44
   0  -4  10  103.06   28.38
   0  -4  10  160.12   30.14
   0  -4  10  139.11   78.34
   0  -4   9   72.72   24.69
   0  -4   9   59.54   69.64
   0   4  -8   66.04   13.04
   0   4  -8  135.89   31.80
   0  -4   8   85.98   18.95
   0  -4   8  121.81   30.82
   0   4  -7  370.65   23.34
   0   4  -7  289.27    8.72
   0  -4   7  497.11   60.28
   0  -4   7  344.09   19.30
   0  -4   7  366.79   32.50
   0   4  -6  267.25   22.16
   0   4  -6  229.30    9.89
   0  -4   6  264.05   14.59
   0  -4   6  250.84   46.72
   0  -4   6  281.73   24.01
   0   4  -5   73.52   19.07
   0   4  -5   49.98   18.98
   0  -4   5   47.31   12.45
   0  -4   5  110.71   41.02
   0  -4   5   78.38   24.98
   0   4  -4  153.28   10.54
   0   4  -4  131.04   14.60
   0  -4   4  156.79    9.75
   0  -4   4  180.23   18.05
   0  -4   4  153.11   23.05
   0   4  -3  305.40   21.79
   0  -4   3  294.26   27.45
   0  -4   3  337.20   23.39
   0  -4   3  329.16    8.94
   0   4  -2  872.93   11.06
   0   4  -2  847.56   16.79
   0   4  -2  816.04   24.13
   0  -4   2  816.01   10.34
   0  -4   2  652.17   12.66
   0  -4   2  855.73   24.70
   0   4  -1 1862.46   19.41
   0   4  -1 2064.46   23.06
   0   4  -1 2070.25   21.94
   0  -4   1 1824.51   18.97
   0  -4   1 1826.72   18.83
   0   4   0  921.60   15.51
   0   4   0  939.73   16.14
   0   4   0   20.65   23.71
   0  -4   0  915.12   15.67
   0  -4   0 1009.72   26.81
   0   4   1 2691.39   32.75
   0   4   1 2806.26   22.71
   0  -4  -1 2542.13   21.29
   0  -4  -1 2804.76   22.05
   0   4   2 2009.72   18.51
   0   4   2 2330.33   21.92
   0  -4  -2 2130.17   19.94
   0  -4  -2 2101.17   30.53
   0   4   3  465.74   26.34
   0   4   3  422.49   13.59
   0  -4  -3  417.23   24.00
   0  -4  -3  401.34   12.93
   0   4   4  196.76   27.08
   0   4   4  214.45   15.78
   0  -4  -4  148.57   24.98
   0  -4  -4  175.81   13.22
   0   4   5   76.50   28.22
   0  -4  -5   61.72   14.09
   0  -4  -5   65.81   13.24
   0   4   6  261.33   29.06
   0   4   6  224.33   17.95
   0  -4  -6  212.23   30.74
   0  -4  -6  247.28   15.23
   0   4   7  114.56   18.95
   0   4   7  141.27   15.71
   0  -4  -7  130.82   18.99
   0  -4  -7  144.09   30.57
   0   4   8  152.91   23.17
   0   4   8  159.74   16.79
   0  -4  -8  154.02   25.08
   0  -4  -8  153.39   29.96
   0   4   9  106.13   22.80
   0   4   9  113.43   55.22
   0  -4  -9  108.71   39.68
   0   4  10   55.82   42.51
   0   4  10   17.08   30.53
   0  -4 -10   41.49   23.72
   0  -4 -10    6.62   28.05
   0   4  11  111.06   38.02
   0  -4 -11  103.19   66.57
   0   4  12  219.11   44.04
   0  -5  11  257.31   34.18
   0  -5  11  229.67   31.03
   0  -5  11  338.37   97.48
   0  -5  10  273.25   44.10
   0  -5  10  269.48   56.02
   0   5  -9  356.73   24.32
   0   5  -9  392.87   37.14
   0  -5   9  497.51   45.15
   0  -5   9  276.89   18.20
   0  -5   9  378.71   23.99
   0   5  -8  552.30   56.09
   0   5  -8  502.84   22.20
   0  -5   8  702.62   28.56
   0  -5   8  716.11   24.78
   0  -5   8  896.60   76.29
   0   5  -7  749.87   53.84
   0   5  -7  866.62   31.22
   0  -5   7  916.68   33.09
   0  -5   7  902.93   34.29
   0  -5   7  933.29   22.24
   0   5  -6  390.22   27.34
   0   5  -6  333.71   21.14
   0  -5   6  436.49   27.22
   0  -5   6  466.83   33.89
   0  -5   6  442.90   17.48
   0   5  -5  139.72   26.89
   0   5  -5  137.88   17.18
   0  -5   5  163.70   20.43
   0  -5   5  171.24   30.61
   0  -5   5  156.29   12.19
   0   5  -4  234.28   21.67
   0   5  -4  184.53   13.93
   0  -5   4  215.50   14.30
   0  -5   4  217.60   19.21
   0  -5   4  212.49   15.00
   0   5  -3   64.93   13.63
   0   5  -3   89.03   10.88
   0   5  -3   78.28   16.09
   0  -5   3   79.27   13.11
   0  -5   3   89.17   14.16
   0  -5   3  103.00   19.87
   0   5  -2  263.74   14.06
   0   5  -2  358.29   21.09
   0  -5   2  227.72   13.09
   0  -5   2  308.07   30.29
   0  -5   2  288.29   27.52
   0   5  -1  467.38   15.15
   0   5  -1  487.17   21.05
   0   5  -1  498.32   17.83
   0  -5   1  464.69   14.82
   0  -5   1  450.25   14.73
   0   5   0    3.97   12.99
   0   5   0  123.13   26.55
   0   5   0  117.38   11.88
   0  -5   0  121.84   12.78
   0  -5   0  120.42   12.78
   0   5   1 1443.59   34.16
   0   5   1 1387.23   19.59
   0  -5  -1 1601.38   34.46
   0  -5  -1 1255.57   18.39
   0   5   2  962.65   18.12
   0   5   2 1019.52   19.20
   0   5   2    7.70   53.46
   0  -5  -2  909.19   17.11
   0  -5  -2 1023.35   33.44
   0   5   3  806.06   18.16
   0   5   3  885.31   19.41
   0   5   3    7.28   37.09
   0  -5  -3  757.76   31.09
   0  -5  -3  844.56   31.75
   0   5   4  718.69   20.84
   0   5   4   23.41   28.40
   0   5   4  633.03   19.29
   0  -5  -4  594.67   17.52
   0  -5  -4  621.73   18.37
   0   5   5  873.78   21.91
   0   5   5  786.15   20.30
   0  -5  -5  774.31   19.76
   0  -5  -5  805.64   20.83
   0   5   6  444.37   39.68
   0   5   6  442.54   21.26
   0  -5  -6  395.24   19.25
   0  -5  -6  364.39   20.46
   0   5   7  682.21   26.22
   0   5   7  701.83   23.44
   0  -5  -7  533.48   23.08
   0  -5  -7  664.07   43.18
   0   5   8  344.32   44.05
   0   5   8  292.94   26.66
   0  -5  -8  270.51   46.89
   0  -5  -8  282.70   20.61
   0   5   9  107.25   29.64
   0   5   9  128.61   27.50
   0  -5  -9   73.62   28.66
   0  -5  -9  136.56   43.81
   0   5  10   58.16   67.80
   0   5  10   80.35   28.73
   0  -5 -10  131.46   56.88
   0  -5 -10   52.71   30.75
   0   5  11   72.09   40.28
   0  -5 -11   62.22   35.05
   0  -5 -11  110.81   26.03
   0  -6  11   65.15   38.45
   0  -6  11  121.33   99.54
   0   6 -10  119.12   75.58
   0  -6  10  123.93   44.45
   0  -6  10   92.52   30.59
   0   6  -9  272.46   36.78
   0   6  -9  235.13   35.28
   0  -6   9  206.76   26.79
   0  -6   9  247.66   42.64
   0  -6   9  208.39   18.37
   0   6  -8  641.44   32.09
   0   6  -8  697.96   38.05
   0  -6   8  763.36   26.45
   0  -6   8  761.57   39.87
   0  -6   8  713.67   21.93
   0   6  -7 1250.95   23.74
   0   6  -7 1171.21   67.43
   0  -6   7 1432.51   25.63
   0  -6   7 1378.34   72.30
   0  -6   7 1427.17   43.67
   0   6  -6  686.24   22.23
   0   6  -6  611.02   55.11
   0  -6   6  735.52   23.24
   0  -6   6  761.53   62.57
   0  -6   6  870.59   48.52
   0   6  -5  549.10   19.69
   0   6  -5  545.93   47.75
   0  -6   5  581.62   26.84
   0  -6   5  619.34   40.43
   0  -6   5  482.90   32.80
   0   6  -4  620.31   35.69
   0   6  -4  641.28   25.83
   0   6  -4  726.94   35.06
   0  -6   4  549.73   20.91
   0  -6   4  677.07   38.20
   0  -6   4  471.50   15.35
   0   6  -3 1209.26   26.52
   0   6  -3 1100.82   21.76
   0   6  -3 1272.97   19.73
   0  -6   3 1160.80   24.63
   0  -6   3 1154.25   22.66
   0  -6   3  712.28   19.33
   0   6  -2  111.95   20.70
   0   6  -2   96.80   17.32
   0   6  -2  123.31   25.43
   0  -6   2   98.84   18.05
   0  -6   2   82.98   17.05
   0  -6   2    2.73    9.86
   0   6  -1   28.18   16.90
   0   6  -1   20.83   11.32
   0   6  -1   42.28   35.73
   0  -6   1   23.07   16.21
   0  -6   1   37.02   30.94
   0   6   0   73.26   33.94
   0   6   0   50.65   16.31
   0   6   0    6.55   12.12
   0  -6   0   73.37   15.08
   0   6   1   14.36   15.82
   0   6   1  553.77   37.68
   0   6   1  497.68   19.04
   0  -6  -1  493.56   18.82
   0  -6  -1  475.98   18.83
   0   6   2  785.64   40.58
   0   6   2  811.45   21.69
   0  -6  -2  835.62   40.69
   0  -6  -2  741.81   20.57
   0   6   3  126.38   20.20
   0   6   3  -41.15   95.54
   0   6   3  112.46   18.42
   0  -6  -3  147.62   20.46
   0  -6  -3   97.17   17.81
   0   6   4  135.54   19.45
   0   6   4   22.71   25.15
   0   6   4  170.20   42.85
   0  -6  -4  101.55   18.38
   0  -6  -4  148.48   37.46
   0   6   5  347.84   23.79
   0   6   5    7.18   25.88
   0   6   5  375.61   44.75
   0  -6  -5  301.45   20.75
   0  -6  -5  267.95   39.46
   0   6   6   15.17   42.61
   0   6   6 1577.87   30.70
   0   6   6 1703.33   31.03
   0  -6  -6 1308.32   27.82
   0  -6  -6 1408.28   47.76
   0   6   7  756.63   27.49
   0   6   7  943.23   29.14
   0  -6  -7  671.91   24.86
   0  -6  -7  844.95   48.49
   0   6   8  359.67   57.59
   0  -6  -8  337.57   26.22
   0  -6  -8  337.24   50.35
   0   6   9  128.39   30.12
   0   6   9   81.50   30.99
   0  -6  -9  146.73   32.45
   0  -6  -9   92.50   27.49
   0   6  10  212.71   71.48
   0   6  10  170.15   70.45
   0  -6 -10  152.91   29.09
   0  -6 -10  104.71   35.18
   0   7 -10   94.85   42.95
   0  -7  10  159.57   51.07
   0   7  -9   40.69   45.76
   0   7  -9   45.04   36.88
   0  -7   9  117.39   40.48
   0  -7   9   79.53   46.11
   0   7  -8   51.06   23.82
   0   7  -8   42.97   72.00
   0  -7   8   94.03   43.54
   0  -7   8   36.55   41.01
   0  -7   8   82.71   27.27
   0   7  -7  130.05   31.20
   0   7  -7  243.63   32.44
   0  -7   7  176.72   25.17
   0  -7   7  191.52   76.60
   0  -7   7  125.21   47.20
   0   7  -6  377.27   32.41
   0   7  -6  496.35   52.71
   0  -7   6  305.08   28.17
   0  -7   6  456.79   49.32
   0  -7   6  409.15   50.24
   0   7  -5  884.02   24.82
   0   7  -5 1016.70   35.48
   0  -7   5 1105.78   28.88
   0  -7   5  918.69   32.70
   0  -7   5  327.86   35.71
   0   7  -4  580.25   22.90
   0   7  -4  753.51   32.49
   0  -7   4  671.49   24.52
   0  -7   4  643.87   29.51
   0  -7   4   32.63   32.62
   0   7  -3 1243.49   61.04
   0   7  -3 1191.89   22.52
   0   7  -3 1114.61   45.96
   0  -7   3 1152.72   46.93
   0  -7   3 1130.43   28.85
   0   7  -2  440.93   32.75
   0   7  -2  374.69   22.43
   0  -7   2  352.75   22.09
   0  -7   2  355.74   22.08
   0   7  -1  507.36   16.61
   0   7  -1  622.39   45.55
   0   7  -1  552.07   27.57
   0  -7   1  439.43   20.66
   0  -7   1  470.64   22.07
   0   7   0 1685.93   29.76
   0   7   0 1550.43   29.20
   0  -7   0 1615.27   27.56
   0  -7   0 1564.97   47.93
   0   7   1  658.52   39.99
   0   7   1  762.69   26.58
   0   7   1    6.16   41.99
   0  -7  -1  765.75   44.80
   0  -7  -1  718.30   22.96
   0   7   2   -0.28   22.60
   0   7   2  149.52   47.15
   0  -7  -2  102.62   20.53
   0   7   3   67.23   22.90
   0   7   3   -3.54   31.55
   0   7   3   69.80   23.18
   0  -7  -3   63.13   22.10
   0  -7  -3   85.04   20.76
   0   7   4    0.47   39.54
   0   7   4   13.59   23.66
   0   7   4   16.91   24.52
   0  -7  -4   15.49   23.55
   0  -7  -4    7.01   43.66
   0   7   5  223.96  102.10
   0   7   5   87.38   49.68
   0   7   5   83.46   26.18
   0  -7  -5   77.97   24.64
   0  -7  -5   75.82   23.33
   0   7   6  447.00   53.25
   0   7   6  510.90   57.36
   0   7   6   36.63   34.75
   0  -7  -6  405.85   28.73
   0  -7  -6  375.23   26.24
   0   7   7  380.07   58.21
   0   7   7  435.42   61.92
   0   7   7   92.83   42.16
   0  -7  -7  343.98   28.27
   0  -7  -7  355.24   27.50
   0   7   8   82.53   44.75
   0   7   8  403.95   77.59
   0   7   8  223.46   33.10
   0  -7  -8  173.88   28.48
   0  -7  -8  195.48   27.28
   0   7   9  123.57   35.48
   0   7   9   33.81  101.77
   0   7   9   68.49   34.27
   0  -7  -9   40.37   31.16
   0  -7  -9  153.20   34.86
   0   7  10  193.35   77.89
   0   7  10  349.72   48.72
   0   7  10  -47.32  103.17
   0  -7 -10  320.33   88.04
   0  -7 -10  169.20   39.10
   0   8  -8   99.97   33.85
   0   8  -8  102.06   49.61
   0  -8   8  162.31   37.61
   0  -8   8   41.85   38.39
   0   8  -7  136.31   62.27
   0   8  -7   63.80   41.12
   0  -8   7   81.13   38.65
   0  -8   7   74.99   53.03
   0  -8   7  158.66   35.67
   0   8  -6  101.81   27.86
   0   8  -6  113.90   35.24
   0  -8   6   -6.25   22.74
   0  -8   6   93.30   27.88
   0  -8   6   80.40   73.46
   0   8  -5  249.72   71.81
   0   8  -5  199.47   25.51
   0  -8   5   81.93   44.44
   0  -8   5  228.82   28.74
   0   8  -4   91.19   26.75
   0   8  -4   88.92   38.79
   0  -8   4   51.17   26.00
   0  -8   4   66.28   30.33
   0  -8   4   42.89   29.67
   0   8  -3  121.68   19.88
   0   8  -3  120.64   29.61
   0   8  -3  115.94   24.26
   0  -8   3  118.38   25.27
   0  -8   3  149.78   56.06
   0   8  -2  121.21   24.15
   0   8  -2  116.82   34.71
   0   8  -2  121.84   28.88
   0  -8   2   86.50   24.49
   0  -8   2  118.03   24.59
   0   8  -1  527.64   28.43
   0   8  -1  521.38   19.91
   0   8  -1  508.26   50.95
   0  -8   1  479.82   24.37
   0  -8   1  542.42   49.47
   0   8   0  899.02   21.54
   0   8   0  975.39   30.79
   0   8   0  894.88   29.18
   0  -8   0  855.80   27.22
   0  -8   0  869.12   52.23
   0   8   1  746.45   28.33
   0   8   1  741.60   29.08
   0  -8  -1  762.48   26.96
   0  -8  -1  687.60   51.46
   0   8   2   -1.78   29.94
   0   8   2  528.25   27.00
   0   8   2  511.31   29.03
   0  -8  -2  565.45   28.92
   0  -8  -2  470.73   51.68
   0   8   3   62.07   35.00
   0   8   3  124.90   54.00
   0   8   3  130.74   26.85
   0  -8  -3  139.16   26.37
   0  -8  -3  120.72   26.16
   0   8   4  102.39   28.44
   0   8   4   74.09   81.44
   0   8   4  126.18   29.78
   0  -8  -4  113.81   29.19
   0  -8  -4  115.58   26.99
   0   8   5  540.96   61.44
   0   8   5   10.47  110.21
   0   8   5  621.54   68.11
   0  -8  -5  532.18   32.38
   0  -8  -5  498.80   30.45
   0   8   6  232.87   34.02
   0   8   6  249.14   33.07
   0   8   6  220.16  183.42
   0  -8  -6  263.94   33.58
   0  -8  -6  350.86   65.84
   0   8   7  252.80  134.68
   0   8   7  170.72   66.26
   0   8   7  263.12   42.68
   0  -8  -7  165.28   31.55
   0  -8  -7  237.49   35.46
   0   8   8  217.72  178.78
   0   8   8  162.86   44.42
   0  -8  -8  187.27   70.39
   0  -8  -8   48.37   30.94
   0   9  -7  176.92   51.66
   0   9  -7  204.81   38.74
   0  -9   7  133.60   38.53
   0   9  -6  285.96   70.49
   0   9  -6  201.23   41.83
   0  -9   6  165.44   67.82
   0  -9   6  175.17   43.90
   0   9  -5  525.40   72.39
   0   9  -5  459.50   86.24
   0  -9   5  546.61   72.89
   0  -9   5  429.69   79.02
   0   9  -4   84.56   25.11
   0   9  -4  167.99   41.27
   0   9  -4  139.47   34.05
   0  -9   4  144.13   36.71
   0  -9   4  110.46   68.16
   0   9  -3   65.56   32.40
   0   9  -3    9.03   43.87
   0   9  -3   -0.19   32.19
   0  -9   3   -8.45   29.84
   0  -9   3   -8.60   29.36
   0   9  -2   15.21   19.40
   0   9  -2   26.50   31.22
   0   9  -2   25.30   27.96
   0  -9   2   12.79   28.82
   0  -9   2   25.03   52.71
   0   9  -1   58.21   28.67
   0   9  -1   74.65   20.99
   0   9  -1   93.95   57.73
   0  -9   1   69.92   26.85
   0  -9   1  131.93   60.23
   0   9   0  255.79   19.75
   0   9   0  239.67   58.07
   0   9   0  246.38   30.56
   0  -9   0  302.56   30.34
   0  -9   0  302.29   29.29
   0   9   1  116.66   29.50
   0   9   1  124.09   29.30
   0   9   1   97.41   59.87
   0  -9  -1  129.22   28.40
   0  -9  -1  130.75   53.69
   0   9   2   91.30   25.07
   0   9   2   85.98   29.91
   0   9   2   86.61   56.90
   0  -9  -2  114.75   29.25
   0  -9  -2   84.46   58.47
   0   9   3   57.62   42.74
   0   9   3  140.75   61.81
   0   9   3  176.25   30.82
   0  -9  -3  178.60   29.68
   0  -9  -3  164.71   31.36
   0   9   4   71.50   44.16
   0   9   4  323.72   34.28
   0  -9  -4  337.21   34.51
   0  -9  -4  413.36   35.79
   0   9   5  487.22   40.34
   0   9   5  422.63   37.37
   0   9   5  198.46   86.19
   0  -9  -5  426.20   69.97
   0   9   6  195.69   86.23
   0   9   6  523.74   41.01
   0   9   6  501.45   40.56
   0  -9  -6  468.77   39.04
   0  -9  -6  486.05   78.76
   0   9   7  233.11   81.04
   0   9   7  129.29  156.30
   0   9   7  270.63   41.79
   0  -9  -7  245.95   38.65
   0  -9  -7  211.74   36.40
   0  10  -4  193.74   71.60
   0  10  -4  190.35   44.65
   0 -10   4  282.87   80.06
   0 -10   4  192.54   40.54
   0  10  -3   28.15   35.42
   0  10  -3  177.51   57.94
   0  10  -3   33.36   37.98
   0 -10   3   46.35   34.18
   0 -10   3  137.23   43.89
   0  10  -2  142.53   75.18
   0  10  -2  102.64   27.63
   0 -10   2  233.05   79.89
   0 -10   2   50.43   33.28
   0  10  -1   84.24   34.53
   0  10  -1   65.43   23.07
   0  10  -1   94.62   34.26
   0 -10   1   63.61   31.01
   0 -10   1   53.74   34.84
   0  10   0   53.60   65.13
   0  10   0  111.90   54.45
   0  10   0    9.10   33.52
   0 -10   0    8.74   29.75
   0 -10   0    4.55   34.81
   0  10   1   69.67   34.04
   0  10   1   45.35   23.88
   0  10   1   59.43   35.72
   0 -10  -1   64.39   32.39
   0 -10  -1   36.44   35.34
   0  10   2   66.73   42.18
   0  10   2   70.91   72.05
   0  10   2   11.29   34.67
   0 -10  -2   38.11   32.80
   0 -10  -2   36.94   35.75
   0  10   3   82.82   31.93
   0  10   3   65.60   37.20
   0  10   3  112.54   67.04
   0 -10  -3  102.04   67.51
   0 -10  -3   75.02   75.97
   0  10   4   92.49   56.51
   0  10   4  160.63   38.74
   0 -10  -4  102.11   39.18
   0 -10  -4  127.57   38.72
   1 -10  -2   38.35   70.16
   1 -10  -2   52.84   33.27
  -1  10   2   19.22   36.23
  -1  10   2  102.41   74.26
  -1  10   2   70.52   38.56
   1 -10  -1    7.87   68.58
   1 -10  -1   25.11   34.86
  -1  10   1   35.59   35.76
  -1  10   1   19.24   37.84
   1 -10   0  110.65   34.24
   1 -10   0  115.62   34.11
  -1  10   0  131.80   36.53
  -1  10   0  107.17   71.66
  -1  10   0  228.63   65.31
   1 -10   1  277.54   34.07
   1 -10   1  266.81   70.16
  -1  10  -1  276.06   28.77
  -1  10  -1  354.26   39.15
  -1  10  -1  339.97   38.30
   1 -10   2  249.80   36.83
   1 -10   2  252.48   36.39
  -1  10  -2  299.35   38.81
  -1  10  -2  284.41   60.80
   1 -10   3  209.82   37.37
   1 -10   3  178.30   76.41
  -1  10  -3  197.32   29.99
  -1  10  -3  226.76   40.20
  -1  10  -3  221.73   39.27
   1  -9  -5  531.06   42.14
   1  -9  -5  490.98   37.83
  -1   9   5  527.40   38.50
  -1   9   5  621.12   82.57
  -1   9   5  -17.43  134.40
   1  -9  -4  262.34   36.63
   1  -9  -4  267.83   64.85
  -1   9   4  236.48   67.59
  -1   9   4   41.44   95.60
   1  -9  -3  122.90   33.28
   1  -9  -3  125.99   31.18
  -1   9   3   77.81   41.37
  -1   9   3  156.84   32.63
  -1   9   3  136.53   32.85
   1  -9  -2   39.33   60.10
   1  -9  -2   17.70   28.88
  -1   9   2   36.71   26.48
  -1   9   2  147.74   77.08
  -1   9   2    4.53   31.52
   1  -9  -1   19.30   28.12
  -1   9   1    5.04   31.41
  -1   9   1   60.39   31.84
   1  -9   0   88.29   27.89
   1  -9   0  113.39   58.17
  -1   9   0  126.34   61.13
  -1   9   0  220.82   53.98
   1  -9   1  253.65   29.80
   1  -9   1  232.65   29.95
  -1   9  -1  268.57   26.36
  -1   9  -1  316.40   32.95
  -1   9  -1  279.64   32.06
   1  -9   2   59.26   29.31
   1  -9   2   42.96   59.45
  -1   9  -2  102.24   28.38
  -1   9  -2   60.66   33.50
  -1   9  -2   55.31   31.68
   1  -9   3   24.03   60.20
   1  -9   3   21.55   30.27
  -1   9  -3   32.62   31.57
  -1   9  -3   67.96   69.65
  -1   9  -3   64.85   28.93
   1  -9   4   72.06   32.25
   1  -9   4   39.59   34.97
  -1   9  -4   44.86   26.34
  -1   9  -4   56.04   31.61
  -1   9  -4  104.98   79.51
   1  -9   5  216.35   77.34
   1  -9   5   27.55   21.63
   1  -9   5  289.90   77.86
  -1   9  -5  210.42   43.44
  -1   9  -5  234.79   65.71
  -1   9  -5  229.15   32.99
   1  -9   6  700.03   78.93
   1  -9   6  703.97   90.47
  -1   9  -6  537.84   71.05
  -1   9  -6  782.55   55.06
   1  -8  -7   21.20   34.82
   1  -8  -7   34.63   34.80
  -1   8   7  155.86   80.82
  -1   8   7   45.70   37.60
  -1   8   7  164.33   79.77
   1  -8  -6  215.73   31.64
  -1   8   6  267.38   33.37
  -1   8   6  175.49   81.01
  -1   8   6  313.93   35.90
   1  -8  -5  644.30   35.92
   1  -8  -5  534.69   60.03
  -1   8   5  -25.17   62.45
  -1   8   5  659.76   36.81
  -1   8   5  556.60   33.76
   1  -8  -4  383.07   28.21
   1  -8  -4  480.14   33.23
  -1   8   4  152.24   45.61
  -1   8   4  520.40   34.94
  -1   8   4  524.52   61.13
   1  -8  -3  233.38   29.69
   1  -8  -3  247.46   27.33
  -1   8   3  261.19   29.66
  -1   8   3  275.55   58.67
  -1   8   3  -29.98   69.44
   1  -8  -2  247.36   28.69
   1  -8  -2  248.83   26.49
  -1   8   2    3.49   28.12
  -1   8   2  244.57   27.41
  -1   8   2  246.82   29.10
   1  -8  -1  454.44   27.09
   1  -8  -1  551.26   28.52
  -1   8   1  -22.64   32.55
  -1   8   1  461.42   28.19
  -1   8   1  486.71   55.33
   1  -8   0  604.90   26.22
   1  -8   0  678.34   28.33
  -1   8   0  702.29   24.04
  -1   8   0  704.86   57.97
  -1   8   0  667.13   55.36
   1  -8   1  166.49   25.57
   1  -8   1  137.20   25.86
  -1   8  -1  146.30   53.11
  -1   8  -1  166.97   52.66
  -1   8  -1  232.67   45.75
   1  -8   2  102.49   48.99
   1  -8   2   78.49   26.17
  -1   8  -2   80.67   21.17
  -1   8  -2  106.64   27.28
   1  -8   3   47.54   25.42
   1  -8   3   40.38   27.70
   1  -8   3   74.26   48.02
  -1   8  -3   39.68   27.28
  -1   8  -3   59.38   31.73
  -1   8  -3   39.27   43.66
   1  -8   4   16.73   26.54
   1  -8   4   29.77   20.54
   1  -8   4   32.19   30.13
  -1   8  -4   17.97   35.58
  -1   8  -4   38.35   25.93
  -1   8  -4   47.85   48.88
   1  -8   5   56.86   34.34
   1  -8   5   24.61   28.97
   1  -8   5  114.32   83.00
  -1   8  -5   50.90   35.64
  -1   8  -5   71.58   53.00
  -1   8  -5   88.41   60.95
   1  -8   6  134.62   33.56
   1  -8   6   -6.28   30.61
  -1   8  -6  110.26   36.12
  -1   8  -6  173.20   57.89
   1  -8   7   85.94   40.94
   1  -8   7   84.68   33.33
   1  -8   7   90.33   66.22
  -1   8  -7  117.97   83.45
  -1   8  -7  127.39   55.48
   1  -8   8  310.01   77.85
   1  -8   8  109.05   72.70
   1  -8   8  163.83   43.68
  -1   8  -8  192.04   42.01
  -1   8  -8  243.05   34.39
   1  -7  -9   82.26   50.71
   1  -7  -9    0.76   32.60
  -1   7   9   58.73   39.96
  -1   7   9    7.78   38.45
  -1   7   9   26.40  163.97
   1  -7  -8   61.10   30.10
   1  -7  -8  169.39   40.39
  -1   7   8   32.33  107.52
  -1   7   8   78.54   34.99
  -1   7   8  138.91   35.48
   1  -7  -7   21.01   54.74
  -1   7   7   85.45   33.27
  -1   7   7  -20.40  102.39
  -1   7   7   43.16   29.62
   1  -7  -6   94.15   26.30
   1  -7  -6  106.27   26.31
  -1   7   6    3.51   45.54
  -1   7   6  128.47   30.00
  -1   7   6  110.13   28.30
   1  -7  -5   52.30   24.46
   1  -7  -5  101.43   26.53
  -1   7   5  111.75   27.68
  -1   7   5  121.22   27.60
  -1   7   5  -16.25   98.67
   1  -7  -4   22.15   25.17
   1  -7  -4    7.06   23.73
  -1   7   4   37.38   26.04
  -1   7   4   29.05   50.90
  -1   7   4  163.61  113.92
   1  -7  -3  248.65   25.58
   1  -7  -3  225.67   23.74
  -1   7   3    6.65   31.11
  -1   7   3  227.17   26.70
  -1   7   3  201.01   24.71
   1  -7  -2  343.61   26.29
   1  -7  -2  298.90   46.01
  -1   7   2  288.74   47.29
  -1   7   2   31.08   56.44
   1  -7  -1  318.33   23.63
   1  -7  -1  369.34   45.10
  -1   7   1  301.70   23.90
  -1   7   1  346.17   44.87
  -1   7   1    3.20   41.86
   1  -7   0  927.65   25.11
   1  -7   0  917.65   26.06
  -1   7   0  888.79   25.92
  -1   7   0  986.43   48.02
   1  -7   1 1041.05   48.75
   1  -7   1  976.59   24.56
  -1   7  -1 1116.39   27.66
  -1   7  -1 1149.00   39.72
  -1   7  -1 1013.59   26.27
   1  -7   2  576.07   24.88
   1  -7   2  556.35   24.31
  -1   7  -2  535.11   24.26
  -1   7  -2  626.71   27.93
   1  -7   3  434.77   28.93
   1  -7   3  364.25   24.37
   1  -7   3  262.42   43.54
  -1   7  -3  494.82   31.62
  -1   7  -3  391.55   22.67
  -1   7  -3  396.16   22.11
   1  -7   4  331.32   24.45
   1  -7   4  358.54   55.90
   1  -7   4  132.48   46.53
  -1   7  -4  401.88   32.54
  -1   7  -4  294.13   24.29
  -1   7  -4  347.54   23.81
   1  -7   5  176.82   33.81
   1  -7   5  129.94   25.55
   1  -7   5   95.43   51.49
  -1   7  -5  122.95   31.29
  -1   7  -5  122.63   44.56
  -1   7  -5  178.50   52.30
   1  -7   6   55.07   27.25
   1  -7   6   51.40   30.13
   1  -7   6   33.40   27.93
  -1   7  -6   53.01   32.32
  -1   7  -6   89.54   47.33
   1  -7   7  117.40   31.41
   1  -7   7   63.39   34.12
   1  -7   7   38.22   28.33
  -1   7  -7   64.47   35.35
  -1   7  -7   35.31   21.74
   1  -7   8   93.22   34.07
   1  -7   8   82.73   37.05
   1  -7   8  141.70   32.52
  -1   7  -8   95.79   40.30
  -1   7  -8  119.60   47.35
   1  -7   9   96.74   43.69
   1  -7   9  127.55   25.11
   1  -7   9  161.96   58.45
  -1   7  -9  151.13   75.94
  -1   7  -9  192.45   54.07
   1  -6 -10  296.30   39.54
   1  -6 -10  220.92   39.59
  -1   6  10    0.35   42.81
  -1   6  10  236.58   38.51
  -1   6  10  321.14   70.65
   1  -6  -9   85.71   28.89
   1  -6  -9   79.26   64.15
  -1   6   9    2.73   38.93
  -1   6   9   76.04   32.16
  -1   6   9  179.78   35.86
   1  -6  -8  169.82   28.94
   1  -6  -8  148.88   28.74
  -1   6   8    3.49   35.89
  -1   6   8  194.41   29.56
  -1   6   8  296.27   63.23
   1  -6  -7  223.82   23.66
   1  -6  -7  328.10   56.43
  -1   6   7   10.34   33.61
  -1   6   7  267.60   29.01
  -1   6   7  322.96   27.51
   1  -6  -6  188.64   46.02
   1  -6  -6  212.86   47.63
  -1   6   6    5.93   32.26
  -1   6   6  222.72   26.20
  -1   6   6  219.91   26.08
   1  -6  -5  145.74   21.52
   1  -6  -5  146.96   44.43
  -1   6   5  -46.63   77.25
  -1   6   5  138.85   23.48
  -1   6   5  180.92   22.90
   1  -6  -4   23.77   19.80
   1  -6  -4   16.06   20.15
  -1   6   4  -19.55   36.65
  -1   6   4   26.06   20.38
  -1   6   4   20.06   20.60
   1  -6  -3   40.45   19.83
   1  -6  -3   20.99   38.59
  -1   6   3    6.20   42.73
  -1   6   3   34.35   20.16
  -1   6   3   54.35   20.58
   1  -6  -2   29.03   18.95
   1  -6  -2   33.66   40.69
  -1   6   2    1.53   24.39
  -1   6   2   52.59   19.94
  -1   6   2   45.45   20.01
   1  -6  -1   98.24   18.50
   1  -6  -1   91.39   18.60
  -1   6   1  -15.35   25.79
  -1   6   1  108.20   18.06
  -1   6   1  116.40   19.96
   1  -6   0  387.64   35.85
   1  -6   0  399.55   20.04
  -1   6   0  374.19   20.61
  -1   6   0  404.08   35.97
  -1   6   0   47.50   25.19
   1  -6   1  633.84   19.03
   1  -6   1  707.20   21.85
   1  -6   1   -0.35   31.80
  -1   6  -1  858.86   24.28
  -1   6  -1  721.96   21.95
  -1   6  -1  763.10   18.37
   1  -6   2  364.89   35.76
   1  -6   2  240.40   19.07
   1  -6   2  274.40   19.83
  -1   6  -2  208.46   18.78
  -1   6  -2  303.57   46.50
   1  -6   3  783.12   23.27
   1  -6   3  652.91   23.55
   1  -6   3  720.13   44.09
  -1   6  -3  825.49   27.31
  -1   6  -3  672.93   20.52
  -1   6  -3  785.75   20.62
   1  -6   4  907.95   27.64
   1  -6   4  942.97   44.22
   1  -6   4  670.19   38.57
  -1   6  -4 1091.04   45.23
  -1   6  -4 1015.74   54.02
  -1   6  -4  958.49   40.71
   1  -6   5  617.37   43.60
   1  -6   5  490.41   23.15
   1  -6   5  358.11   49.29
  -1   6  -5  600.88   32.47
  -1   6  -5  496.35   36.90
  -1   6  -5  607.89   24.71
   1  -6   6  443.14   33.76
   1  -6   6  477.94   25.10
   1  -6   6  320.83   52.27
  -1   6  -6  343.57   28.42
  -1   6  -6  299.78   36.07
   1  -6   7  426.08   26.95
   1  -6   7  334.85   32.50
  -1   6  -7  303.60   18.32
  -1   6  -7  371.52   28.33
   1  -6   8  549.93   46.47
   1  -6   8  510.99   38.55
   1  -6   8  571.50   56.97
  -1   6  -8  399.48   64.10
  -1   6  -8  501.36   22.81
   1  -6   9  143.64   37.55
   1  -6   9  128.07   36.71
   1  -6   9  231.89   58.69
  -1   6  -9  189.41   40.95
  -1   6  -9  106.01   33.05
   1  -6  10   29.95   79.86
   1  -6  10  123.78   72.75
  -1   6 -10   12.87   36.62
   1  -6  11    4.82   45.86
   1  -6  11   69.07   38.02
  -1   6 -11   22.74   39.26
   1  -5 -10  197.30   65.94
   1  -5 -10   76.42   33.43
  -1   5  10   71.62   36.82
  -1   5  10  153.66   60.05
  -1   5  10  126.70   61.36
   1  -5  -9  107.58   32.83
   1  -5  -9  121.89   26.71
  -1   5   9  -36.82   46.93
  -1   5   9  117.25   64.67
  -1   5   9  191.81   56.86
   1  -5  -8  268.88   25.91
   1  -5  -8  236.08   21.67
  -1   5   8   10.99   41.47
  -1   5   8  300.87   28.92
  -1   5   8  314.19   24.28
   1  -5  -7 1230.42   28.37
   1  -5  -7 1324.27   28.32
  -1   5   7 1307.34   55.47
  -1   5   7 1475.45   52.30
   1  -5  -6  276.89   21.52
   1  -5  -6  277.70   39.62
  -1   5   6  245.71   21.52
  -1   5   6  275.48   44.86
  -1   5   6    8.16   59.55
   1  -5  -5  466.06   20.50
  -1   5   5  472.10   21.38
  -1   5   5    9.52   24.17
  -1   5   5  462.10   21.59
   1  -5  -4  717.67   21.43
   1  -5  -4  714.48   20.01
  -1   5   4  719.86   22.37
  -1   5   4  744.06   21.61
  -1   5   4   18.79   81.09
   1  -5  -3  517.94   33.66
   1  -5  -3  586.81   19.56
  -1   5   3  554.75   18.18
  -1   5   3  646.40   38.43
  -1   5   3    0.29   27.34
   1  -5  -2  355.08   17.80
   1  -5  -2  404.80   17.86
  -1   5   2  330.98   19.11
  -1   5   2  368.44   17.08
  -1   5   2   -1.32   48.31
   1  -5  -1  195.53   15.59
   1  -5  -1  172.58   31.41
  -1   5   1   -0.02   17.00
  -1   5   1  185.22   14.64
  -1   5   1  189.39   17.72
   1  -5   0  315.14   16.27
   1  -5   0   18.16   17.47
   1  -5   0  279.16   30.63
  -1   5   0   -4.47   13.89
  -1   5   0  229.09   26.94
   1  -5   1    2.41   29.36
   1  -5   1   23.23   13.83
   1  -5   1   20.13   39.33
  -1   5  -1   29.99   15.41
  -1   5  -1   56.94   34.78
  -1   5  -1   25.36   12.95
   1  -5   2   64.68   15.48
   1  -5   2   85.40   15.91
   1  -5   2   63.76   14.94
  -1   5  -2   65.93   15.22
  -1   5  -2   55.88   14.15
  -1   5  -2   74.05   33.78
   1  -5   3  208.99   12.89
   1  -5   3  229.68   17.65
   1  -5   3  222.09   32.93
  -1   5  -3  244.55   15.45
  -1   5  -3  241.03   19.19
  -1   5  -3  241.91   30.75
   1  -5   4  127.73   16.08
   1  -5   4  161.41   12.26
   1  -5   4  177.01   33.11
  -1   5  -4  195.62   22.28
  -1   5  -4  159.18   14.77
  -1   5  -4  175.03   15.71
   1  -5   5   76.36   21.30
   1  -5   5   95.12   16.12
   1  -5   5   93.67   32.50
  -1   5  -5  127.00   39.80
  -1   5  -5   77.71   26.66
   1  -5   6  584.14   51.02
   1  -5   6  595.35   36.53
   1  -5   6  626.53   20.56
  -1   5  -6  492.59   24.81
  -1   5  -6  507.67   17.10
   1  -5   7  743.16   24.42
   1  -5   7  715.73   31.72
   1  -5   7  790.68   20.83
  -1   5  -7  674.14   29.91
  -1   5  -7  677.26   32.23
   1  -5   8 1049.40   33.57
   1  -5   8 1164.14   69.32
  -1   5  -8  918.68   56.32
  -1   5  -8 1112.35   21.31
   1  -5   9 1080.97   30.82
   1  -5   9  838.22   27.89
   1  -5   9 1079.05   40.15
  -1   5  -9  830.19   32.03
  -1   5  -9  831.91   15.78
   1  -5  10   90.06   28.86
   1  -5  10  104.08   77.68
  -1   5 -10   92.62   33.88
   1  -5  11   70.42   33.74
   1  -5  11   68.62   44.08
   1  -5  11  125.41   35.97
   1  -4 -11  176.72   36.18
  -1   4  11  181.42   36.91
   1  -4 -10   81.76   41.78
   1  -4 -10   26.50   30.98
  -1   4  10   40.77   24.03
  -1   4  10   32.99   32.63
   1  -4  -9   74.97   21.18
   1  -4  -9   50.62   27.36
  -1   4   9   90.99   23.73
  -1   4   9   60.84   27.70
   1  -4  -8   19.71   25.84
   1  -4  -8   55.92   22.88
  -1   4   8   63.70   22.47
  -1   4   8   18.77   49.39
   1  -4  -7  386.86   33.96
   1  -4  -7  381.22   21.88
  -1   4   7  432.71   20.62
  -1   4   7  461.43   24.36
   1  -4  -6  530.66   20.70
   1  -4  -6  495.12   17.12
  -1   4   6  579.87   22.50
  -1   4   6  537.08   35.14
   1  -4  -5 1180.07   21.59
   1  -4  -5 1187.99   19.92
  -1   4   5   50.95   26.94
  -1   4   5 1267.92   22.71
  -1   4   5 1305.54   22.22
   1  -4  -4 1898.85   22.59
   1  -4  -4 1961.28   23.55
  -1   4   4 2164.58   25.46
  -1   4   4 1982.36   38.18
   1  -4  -3 1426.66   31.30
   1  -4  -3 1682.72   21.68
  -1   4   3 1782.19   34.96
  -1   4   3 1653.22   21.03
   1  -4  -2 1250.14   28.52
   1  -4  -2 1290.94   19.44
  -1   4   2 1276.31   18.98
  -1   4   2 1139.68   16.63
   1  -4  -1  827.40   29.34
   1  -4  -1  847.20   16.04
  -1   4   1  826.62   15.45
  -1   4   1   26.19   35.43
  -1   4   1  861.73   16.84
   1  -4   0  828.17   16.24
   1  -4   0  843.73   15.54
  -1   4   0   39.68   15.72
  -1   4   0  759.95   16.16
  -1   4   0  856.30   27.73
   1  -4   1  550.53   14.15
   1  -4   1  572.28   27.99
   1  -4   1  665.05   28.30
  -1   4  -1  557.91   15.79
  -1   4  -1  520.20   14.48
  -1   4  -1  579.47   13.67
   1  -4   2  827.80   16.91
   1  -4   2  760.83   13.24
  -1   4  -2  803.31   17.22
  -1   4  -2  757.33   27.06
  -1   4  -2  840.99   26.55
   1  -4   3  169.70   13.72
   1  -4   3  156.13   24.69
   1  -4   3  145.39   22.11
  -1   4  -3  141.82   13.53
  -1   4  -3  126.71   11.85
  -1   4  -3  129.81   11.62
   1  -4   4   12.35   15.74
   1  -4   4   10.14   12.40
   1  -4   4   13.69   20.98
  -1   4  -4   22.58   14.22
  -1   4  -4   12.96   11.72
  -1   4  -4   16.23   12.81
   1  -4   5   47.22   13.77
   1  -4   5   48.24   17.99
  -1   4  -5   24.27   11.27
  -1   4  -5   46.81   15.62
   1  -4   6   23.01   12.20
   1  -4   6   10.98   15.42
   1  -4   6   20.26   20.84
  -1   4  -6   18.31   16.78
  -1   4  -6   18.59   10.62
   1  -4   7  277.31   30.60
   1  -4   7  211.66   17.96
   1  -4   7  185.18   21.99
  -1   4  -7  228.58   23.84
  -1   4  -7  227.15   25.42
   1  -4   8  537.57   35.65
   1  -4   8  466.20   21.82
   1  -4   8  375.82   18.30
  -1   4  -8  384.28   25.51
  -1   4  -8  404.94   20.85
   1  -4   9  310.54   17.01
   1  -4   9  340.11   45.57
   1  -4   9  389.76   64.82
  -1   4  -9  341.43   30.81
  -1   4  -9  315.05   17.17
   1  -4  10  345.47   30.95
   1  -4  10  363.06   36.73
   1  -4  10  339.68   26.58
   1  -4  11  343.46   40.40
   1  -4  11  357.32   30.09
   1  -4  11  301.21   62.38
   1  -4  12  290.40   35.15
   1  -4  12  311.69   46.76
   1  -4  12  405.53   42.54
  -1   3  12  654.70   46.04
  -1   3  12  566.91   50.06
   1  -3 -11  305.87   38.56
  -1   3  11  360.24   38.06
   1  -3 -10  160.75   28.66
   1  -3 -10  134.75   29.39
  -1   3  10  218.50   39.62
  -1   3  10  173.51   32.71
   1  -3  -9  221.65   31.45
   1  -3  -9  165.40   52.52
  -1   3   9  250.08   33.45
  -1   3   9  239.72   30.46
   1  -3  -8   82.19   17.50
   1  -3  -8   60.65   23.16
  -1   3   8   85.93   16.62
  -1   3   8   67.24   27.21
   1  -3  -7  286.53   43.04
   1  -3  -7  309.20   16.34
  -1   3   7  320.63   42.30
  -1   3   7  306.39   16.21
   1  -3  -6  247.19   25.07
   1  -3  -6  210.71   16.55
  -1   3   6  247.99   14.13
  -1   3   6  235.08   17.68
   1  -3  -5  224.88   11.87
   1  -3  -5  257.08   14.97
  -1   3   5  302.16   14.89
  -1   3   5  252.33   14.59
   1  -3  -4  790.52   15.80
   1  -3  -4  797.55   14.26
  -1   3   4  915.04   16.44
  -1   3   4  911.45   30.96
   1  -3  -3  877.08   15.21
   1  -3  -3  865.69   14.61
  -1   3   3   57.88   20.59
  -1   3   3  981.01   16.01
  -1   3   3  901.26   25.43
   1  -3  -2 1511.73   17.44
   1  -3  -2 1343.17   14.59
  -1   3   2 1581.14   20.33
  -1   3   2 1355.29   15.30
   1  -3  -1  292.29   12.03
   1  -3  -1  278.40   10.06
  -1   3   1  -16.13   16.86
  -1   3   1  302.77   10.13
  -1   3   1  355.43   23.07
   1  -3   0 3118.77   21.82
   1  -3   0  578.52   36.28
   1  -3   0 3066.52   19.65
  -1   3   0 2929.84   19.32
  -1   3   0 3069.44   21.60
   1  -3   1 4029.64   22.50
   1  -3   1 4239.24   24.38
   1  -3   1 4636.84   23.58
  -1   3  -1 4241.64   24.49
  -1   3  -1 4082.68   23.74
  -1   3  -1 4140.50   21.65
   1  -3   2 3129.39   18.54
   1  -3   2 3270.55   17.07
   1  -3   2 4371.49   37.45
  -1   3  -2 4015.33   34.92
  -1   3  -2 3898.83   31.13
   1  -3   3 4572.72   32.96
   1  -3   3 5226.14   41.86
   1  -3   3 5577.64   38.76
  -1   3  -3 5054.20   25.47
   1  -3   4   43.48    9.28
   1  -3   4   34.50   11.17
   1  -3   4   60.68   13.88
  -1   3  -4   57.73   12.63
  -1   3  -4   72.93   14.75
  -1   3  -4   65.28   16.98
   1  -3   5   13.48    8.42
   1  -3   5   10.32   23.92
   1  -3   5   23.87   16.20
  -1   3  -5    9.07   12.88
  -1   3  -5    8.97    8.18
   1  -3   6   39.43   13.60
   1  -3   6   47.76   14.98
   1  -3   6   60.69   18.88
  -1   3  -6   35.22   16.14
  -1   3  -6   43.74    8.27
   1  -3   7  138.84   12.60
   1  -3   7  206.06   24.93
   1  -3   7  174.11   31.16
  -1   3  -7  143.49   14.40
  -1   3  -7  145.83   19.76
   1  -3   8  285.48   31.54
   1  -3   8  244.95   19.64
   1  -3   8  186.95   11.52
  -1   3  -8  250.21   29.93
  -1   3  -8  171.49   11.70
   1  -3   9   81.97   25.23
   1  -3   9   77.27   31.17
   1  -3   9   70.99   21.31
   1  -3  10  125.30   36.83
   1  -3  10   88.05   25.97
   1  -3  10  102.26   53.10
   1  -3  11  131.41   29.61
   1  -3  11  175.07   39.63
   1  -3  11  147.05   30.97
   1  -3  12  399.49   35.47
   1  -3  12  456.80   46.03
   1  -3  12  414.23   37.89
  -1   2  12  285.17   41.66
  -1   2  12  226.64   40.60
  -1   2  11  309.76   36.64
  -1   2  10  254.10   62.81
  -1   2  10  312.47  104.11
   1  -2  -9  866.90   22.39
  -1   2   9 1072.32   32.62
  -1   2   9 1276.50   27.58
   1  -2  -8  581.00   22.08
   1  -2  -8  564.83   24.49
  -1   2   8  611.06   12.48
  -1   2   8  761.48   27.72
  -1   2   7  598.35   22.67
  -1   2   7  615.09   13.03
   1  -2  -6  389.64   22.74
   1  -2  -6  350.83   18.07
  -1   2   6  402.11   21.82
  -1   2   6  383.03   18.12
   1  -2  -5  462.47   14.24
   1  -2  -5  477.38   11.01
  -1   2   5  510.31   12.06
  -1   2   5  481.71   28.18
   1  -2  -4  806.66   13.89
   1  -2  -4  795.29   19.80
  -1   2   4  882.48   25.62
  -1   2   4  968.14   23.45
   1  -2  -3  280.39    9.88
   1  -2  -3  262.93    8.51
  -1   2   3  330.34   10.65
  -1   2   3  308.80   19.04
   1  -2  -2   98.91    7.60
   1  -2  -2   96.24    8.03
  -1   2   2   92.20    8.37
  -1   2   2   16.82   24.21
   1  -2  -1  464.75    8.32
   1  -2  -1  496.73    9.92
  -1   2   1    4.63   11.28
  -1   2   1  463.58    8.32
  -1   2   1  481.47    9.61
   1  -2   0  162.07    8.10
   1  -2   0  133.99    9.49
   1  -2   0  182.44    7.05
  -1   2   0  177.62    7.48
  -1   2   0    5.01   11.19
  -1   2   0  170.39   14.93
   1  -2   110457.80   29.77
   1  -2   110367.96   27.07
   1  -2   110177.79   27.62
  -1   2  -110274.79   29.01
  -1   2  -1 9979.64   26.17
  -1   2  -111101.25   38.88
   1  -2   2 7512.02   23.26
   1  -2   2 7636.87   24.28
   1  -2   2 7936.31   36.66
  -1   2  -2 7436.31   23.91
  -1   2  -2 7581.09   23.99
  -1   2  -2 6873.63   30.65
   1  -2   3 2485.38   29.69
   1  -2   3 2339.10   22.00
   1  -2   3 2448.41   26.44
  -1   2  -3 2146.10   16.75
  -1   2  -3 2586.66   18.67
  -1   2  -3 2336.16   21.71
   1  -2   4  121.11    9.99
   1  -2   4  134.00   12.44
   1  -2   4  153.59   13.49
  -1   2  -4   97.92   10.57
  -1   2  -4   96.51    6.93
   1  -2   5  938.73   19.80
   1  -2   5  730.80   13.62
   1  -2   5  743.02   13.13
  -1   2  -5  795.75   30.27
  -1   2  -5  787.85   14.11
   1  -2   6 1952.30   28.16
   1  -2   6 1550.23   19.34
   1  -2   6 1434.64   14.13
  -1   2  -6 1761.46   25.35
  -1   2  -6 1642.38   16.16
   1  -2   7 1387.55   28.96
   1  -2   7 1174.24   21.48
   1  -2   7 1220.40   11.70
  -1   2  -7 1973.38   72.43
   1  -2   8  813.23   24.66
   1  -2   8  787.15   52.17
   1  -2   8  837.90   44.04
   1  -2   9  339.99   25.57
   1  -2   9  343.78   26.29
   1  -2  10  101.22   30.30
   1  -2  10   56.61   53.00
   1  -2  10   50.01   62.94
   1  -2  11  305.57   79.16
   1  -2  12   50.49   35.92
   1  -2  12   59.22   41.39
   1  -2  12   42.29   43.31
   1  -2  13   28.98   35.74
   1  -2  13   31.49   45.39
  -1   1  12    8.19   41.13
  -1   1  12   39.08   78.96
  -1   1  11  104.04   69.60
  -1   1  10  395.41   31.09
  -1   1  10  353.88   68.09
  -1   1   9  578.97   27.74
  -1   1   9  445.22   57.71
   1  -1  -8  414.25   24.23
  -1   1   8  474.66   45.65
  -1   1   8  217.57   82.31
  -1   1   8  570.57   14.08
   1  -1  -7  421.75   19.11
   1  -1  -7  417.98    7.61
  -1   1   7  485.60   21.47
  -1   1   7  459.70   12.88
   1  -1  -6 2058.32   19.98
   1  -1  -6 1960.46   23.55
  -1   1   6 2129.21   20.54
  -1   1   6 2193.51   25.84
   1  -1  -5 1992.58   32.10
   1  -1  -5 2444.95   14.84
  -1   1   5 2641.25   15.42
  -1   1   5 2382.83   22.78
   1  -1  -4 1638.06   18.67
   1  -1  -4 1531.05   16.99
  -1   1   4 1800.00   19.89
  -1   1   4 1606.35   16.52
  -1   1   3  835.09   11.66
  -1   1   3  816.61    8.95
   1  -1  -2 1199.31   10.40
   1  -1  -2 1159.70    9.43
  -1   1   2 1149.25    9.13
  -1   1   2  996.64   16.12
   1  -1  -1 2725.87   12.98
   1  -1  -1 2773.89   16.49
  -1   1   1 2767.17   12.08
   1  -1   0 2161.75   14.35
   1  -1   0 1486.13    8.18
   1  -1   0 1441.73    9.67
  -1   1   0 1425.83    9.44
  -1   1   0 1537.31   12.00
   1  -1   1 1492.94    9.24
   1  -1   1 1472.73   12.77
   1  -1   1 1331.47   12.53
  -1   1  -1 1438.94    8.29
  -1   1  -1 1473.35    9.05
  -1   1  -1 1559.80    9.80
   1  -1   2  776.22    9.17
   1  -1   2  668.86   11.35
   1  -1   2  705.54    8.41
  -1   1  -2  669.95    6.65
  -1   1  -2  767.33    9.43
   1  -1   3   32.02    8.85
   1  -1   3   29.31    3.82
  -1   1  -3   44.86    9.27
  -1   1  -3   34.12    8.01
   1  -1   4  273.01    9.63
   1  -1   4  316.80   12.67
   1  -1   4  263.47    4.52
  -1   1  -4  338.19   12.11
  -1   1  -4  293.28    8.51
   1  -1   5 1300.55   20.99
   1  -1   5 1104.07   11.10
  -1   1  -5 1181.64   19.16
   1  -1   6 2188.25   24.61
   1  -1   6 2134.81   25.65
   1  -1   7 3023.84   32.29
   1  -1   7 2866.52   32.46
   1  -1   8 1444.41   29.30
   1  -1   8 1524.26   49.47
   1  -1   9 1202.36   58.24
   1  -1   9 1109.75   59.22
   1  -1  10  973.21   37.52
   1  -1  10 1054.52   66.66
   1  -1  11  207.23   37.60
   1  -1  11  231.17   63.76
   1  -1  12   97.95   37.88
   1  -1  12   96.98   67.83
   1  -1  13  105.19   81.94
  -1   0  12   80.24   38.47
  -1   0  12  123.13   44.95
  -1   0  11  179.63   63.72
  -1   0  11  224.25   73.63
  -1   0  10  316.49   28.87
  -1   0  10  306.76   31.08
  -1   0   9   42.61   25.35
  -1   0   9   58.18   26.64
  -1   0   8  201.10   23.47
  -1   0   8  253.33   43.73
  -1   0   7   31.94   18.00
  -1   0   7   55.40   22.24
  -1   0   6  622.25   32.81
  -1   0   6  648.57   37.43
  -1   0   5 1314.72   18.08
  -1   0   5 1696.45   46.80
  -1   0   5 1570.75   13.10
   1   0  -4  448.91    8.13
  -1   0   4  462.78   11.91
  -1   0   4  418.76    8.02
   1   0  -3 5574.93   34.71
  -1   0   3 6108.86   33.19
  -1   0   3 4876.86   15.74
   1   0  -2 1340.82    7.95
   1   0  -2 1255.68    9.98
  -1   0   2 1214.56    7.06
  -1   0   2 1269.05    9.94
   1   0  -1  601.83    5.61
   1   0  -1  598.45    5.72
  -1   0   1  787.17    9.42
  -1   0   1  482.90    4.75
  -1   0   1  498.95    7.67
   1   0   2  556.55   12.10
  -1   0  -2  575.75    5.45
   1   0   3 3298.45   18.08
   1   0   3 2849.69   24.75
  -1   0  -3 2861.12   14.58
   1   0   4  209.25   10.74
   1   0   4  189.71   20.58
  -1   0  -4  122.74    4.29
  -1   0  -4  172.38    5.64
   1   0   5  252.58   13.95
   1   0   5  253.45   13.57
   1   0   6  400.61   16.92
   1   0   7  719.95   23.20
   1   0   7  635.35   20.32
   1   0   8  402.13   25.22
   1   0   8  363.47   25.46
   1   0   9  583.98   27.14
   1   0   9  475.78   27.16
   1   0  10 1507.86   36.58
   1   0  10 1301.88   68.64
   1   0  11  536.61   39.67
   1   0  11  536.88   71.94
   1   0  12  175.72   35.92
   1   0  12  148.88   35.90
   1   0  13  230.22   39.05
   1   0  13  202.71   40.78
  -1  -1  12  380.18   38.62
  -1  -1  12  375.86   44.55
  -1  -1  11  709.58   75.91
  -1  -1  10  544.64   33.21
  -1  -1  10  690.71   60.38
  -1  -1   9   76.72   24.77
  -1  -1   9   88.74   32.15
  -1  -1   8   31.29   23.84
  -1  -1   8   34.48   27.34
  -1  -1   7   78.78   20.57
  -1  -1   7  105.80   46.74
  -1  -1   6  118.05   16.46
  -1  -1   6  128.63   18.31
  -1  -1   5  969.90   17.87
  -1  -1   5  969.59   20.08
  -1  -1   4  507.71   15.60
  -1  -1   4  463.26   24.46
  -1  -1   4  549.60    7.60
  -1  -1   3  291.95   10.71
  -1  -1   3  322.31   24.05
  -1  -1   3  244.08    6.17
   1   1  -2  631.00    9.83
  -1  -1   2  709.19   11.06
  -1  -1   2  568.84    7.32
   1   1  -1 1720.50   15.00
   1   1  -1 1395.38    6.83
  -1  -1   1 1835.02   14.97
  -1  -1   1 1438.91    7.02
   1   1   1 3503.13    9.44
   1   1   1 3630.80   11.40
  -1  -1  -1 3634.70    9.32
  -1  -1  -1 4265.32   17.07
   1   1   2 7722.99   18.60
   1   1   2 7914.44   17.06
  -1  -1  -2 7826.23   17.12
  -1  -1  -2 6942.08   24.17
   1   1   3 2617.39   10.87
   1   1   3 2404.76   13.15
  -1  -1  -3 2550.37   10.39
  -1  -1  -3 2853.18   15.52
   1   1   4 1400.56   13.65
   1   1   4 1345.61    8.20
  -1  -1  -4 1394.84   13.72
  -1  -1  -4 1304.10   11.39
   1   1   5  793.13    7.25
  -1  -1  -5  777.14   14.16
  -1  -1  -5  600.48    9.51
   1   1   6  681.94    9.74
   1   1   6  710.68   16.79
  -1  -1  -6  652.85    9.70
  -1  -1  -6  661.67   15.60
   1   1   7   24.61   15.58
   1   1   7   19.15    9.38
  -1  -1  -7   26.28   15.75
   1   1   8  342.80   21.60
   1   1   8  293.70   21.98
   1   1   9  497.41   25.49
   1   1   9  439.52   31.36
   1   1  10  114.79   27.24
   1   1  10   93.55   27.32
   1   1  11   98.71   33.98
   1   1  11  101.00   32.04
   1   1  12  110.50   39.13
   1   1  12  110.17   36.58
   1   1  13  184.25   43.78
   1   1  13  171.06   89.84
  -1  -2  12  244.17   39.27
  -1  -2  12  280.80   76.02
  -1  -2  11  692.66   38.31
  -1  -2  11  848.89   73.54
  -1  -2  10  271.45   33.38
  -1  -2  10  407.62   35.66
  -1  -2   9   63.60   30.23
  -1  -2   8  876.93   27.62
  -1  -2   8  899.46   30.93
  -1  -2   7 1501.56   27.56
  -1  -2   7 1554.04   31.10
  -1  -2   6 1240.29   26.43
  -1  -2   6 1181.17   40.02
   1   2  -5 1199.33   14.05
   1   2  -5 1232.17   21.86
  -1  -2   5 1137.88   10.94
  -1  -2   5 1302.36   24.46
   1   2  -4  207.90    7.26
   1   2  -4  219.85   14.17
  -1  -2   4  168.50    8.15
  -1  -2   4  226.57   15.23
   1   2  -3  341.71   13.09
   1   2  -3  219.03    4.33
  -1  -2   3  249.47    4.88
  -1  -2   3  306.40   25.11
   1   2  -2 1083.20   11.68
   1   2  -2 1151.54    8.59
  -1  -2   2 1436.14   14.36
  -1  -2   2 1207.66   13.39
   1   2  -1   14.20    5.24
   1   2  -1   11.80    5.10
  -1  -2   1    3.86    5.03
  -1  -2   1    2.52    5.22
   1   2   0  309.41   12.11
   1   2   0  302.30    6.52
  -1  -2   0  274.65   11.15
  -1  -2   0  270.67    6.37
   1   2   1 1408.62    9.04
   1   2   1 1523.24   10.38
  -1  -2  -1 1477.65   14.19
  -1  -2  -1 1557.54   16.19
   1   2   2 1665.26   11.35
   1   2   2 1582.31   10.72
  -1  -2  -2 1568.72   10.79
  -1  -2  -2 1556.65   16.26
   1   2   3 2656.37   13.84
   1   2   3 2654.15   15.77
  -1  -2  -3 2555.50   13.59
  -1  -2  -3 2641.14   15.48
   1   2   4 1502.17   18.18
   1   2   4 1358.98   14.30
  -1  -2  -4 1142.36    9.79
  -1  -2  -4 1276.28   13.68
   1   2   5 2370.90   15.21
   1   2   5 2142.12   31.71
  -1  -2  -5 2237.64   30.80
  -1  -2  -5 1910.18   19.12
   1   2   6 1192.18   19.48
   1   2   6 1146.59   11.46
  -1  -2  -6 1028.91   10.55
  -1  -2  -6 1109.14   31.32
   1   2   7  258.07   34.80
   1   2   7  299.79    8.54
  -1  -2  -7  264.98   15.13
  -1  -2  -7  235.85   16.17
   1   2   8  687.12   18.96
  -1  -2  -8  528.22   38.66
   1   2   9  504.66   55.80
   1   2   9  375.35   12.49
   1   2  10  136.67   28.52
   1   2  11    8.52   35.90
   1   2  11   25.23   31.70
   1   2  12   66.15   41.89
   1   2  12   55.12   36.02
   1   2  13  157.61   46.54
   1   2  13  136.78   42.64
  -1  -3  12   25.95   41.00
  -1  -3  12   34.03   44.73
  -1  -3  12  120.69   54.58
  -1  -3  11   90.23   40.75
  -1  -3  10  318.78   73.52
  -1  -3   9   12.02   27.35
  -1  -3   9   43.46   65.99
  -1  -3   8  871.18   28.09
  -1  -3   8 1009.30   71.14
  -1  -3   7  864.90   31.25
   1   3  -6 1764.58   14.86
   1   3  -6 2223.70   30.84
  -1  -3   6 2444.29   20.80
  -1  -3   6 2628.85   37.17
   1   3  -5 2197.23   17.03
   1   3  -5 2544.17   27.40
  -1  -3   5 2762.65   23.49
  -1  -3   5 3200.64   33.99
   1   3  -4 1234.39   18.84
   1   3  -4 1166.46   10.35
  -1  -3   4 1403.85   12.90
  -1  -3   4 1706.96   24.53
  -1  -3   4 1244.91   11.15
   1   3  -3 1398.30   20.92
   1   3  -3 1054.20   14.97
  -1  -3   3 1260.40   17.76
  -1  -3   3 1242.29   16.07
  -1  -3   3 1062.11   10.85
   1   3  -2  679.02   20.78
   1   3  -2  704.42   16.33
  -1  -3   2  709.76    7.98
  -1  -3   2  700.94   11.81
  -1  -3   2  625.36    9.04
   1   3  -1  149.84    8.43
   1   3  -1  155.18    7.06
   1   3  -1  160.63    5.29
  -1  -3   1  119.50    7.38
  -1  -3   1  127.65   13.12
  -1  -3   1  408.22   11.26
   1   3   0  755.96   16.00
   1   3   0  791.89   10.46
  -1  -3   0  897.20   19.08
  -1  -3   0  747.36    9.82
   1   3   1  151.39   14.58
   1   3   1  129.79    6.99
  -1  -3  -1  127.35   14.04
  -1  -3  -1  144.78    8.08
   1   3   2  182.35    8.30
   1   3   2  173.26    7.58
  -1  -3  -2  177.16    7.94
  -1  -3  -2  200.65   15.22
   1   3   3  469.74    9.53
   1   3   3  514.55   11.15
  -1  -3  -3  464.58    9.79
  -1  -3  -3  464.99   10.23
   1   3   4  183.85   10.13
   1   3   4  214.84   16.95
  -1  -3  -4  405.66   21.99
   1   3   5  844.37   20.85
   1   3   5  804.61   26.56
  -1  -3  -5  804.27   11.84
  -1  -3  -5  755.84   13.91
   1   3   6  190.59   27.84
   1   3   6  201.02   10.97
  -1  -3  -6  194.44   26.34
  -1  -3  -6  185.66   10.27
   1   3   7  482.49   13.35
   1   3   7  420.40   18.59
  -1  -3  -7  397.26   12.52
  -1  -3  -7  399.57   19.12
   1   3   8 1252.61   48.69
   1   3   8 1303.95   16.74
  -1  -3  -8 1026.10   24.75
  -1  -3  -8 1048.81   24.62
   1   3   9 1396.52   32.87
   1   3   9 1509.58   30.85
  -1  -3  -9 1073.97   51.76
  -1  -3  -9 1068.13   25.16
   1   3  10  516.00   33.10
   1   3  10  374.49   21.02
  -1  -3 -10  402.08   27.39
   1   3  11  109.31   68.12
  -1  -3 -11   69.74   31.77
   1   3  12   72.48   38.58
   1   3  12   71.34   81.64
   1   3  13  133.11   47.48
   1   3  13  161.94   52.10
  -1  -4  12  423.93   51.10
  -1  -4  12  495.91   85.25
  -1  -4  11  164.66   34.34
  -1  -4  11  188.46   45.71
  -1  -4  10   76.27   31.60
  -1  -4  10  135.72   45.22
  -1  -4  10   82.51   26.53
  -1  -4   9   47.70   37.85
  -1  -4   9   34.08   21.83
  -1  -4   9   44.17   55.56
   1   4  -8   83.31   27.88
  -1  -4   8  106.60   35.75
  -1  -4   8   89.18   18.10
  -1  -4   8   63.06   10.07
   1   4  -7  207.77   23.44
   1   4  -7  234.29   13.36
  -1  -4   7  396.73   64.67
  -1  -4   7  293.54   17.99
   1   4  -6  521.15   45.25
   1   4  -6  406.46   14.04
  -1  -4   6  545.85   26.40
  -1  -4   6  589.33   26.89
  -1  -4   6  614.26   13.09
   1   4  -5  793.20   20.21
   1   4  -5  910.69   20.98
  -1  -4   5 1027.54   25.78
  -1  -4   5  984.55   25.36
  -1  -4   5  992.92   24.28
   1   4  -4  696.16   17.94
   1   4  -4  912.11   14.28
  -1  -4   4  883.36   20.49
  -1  -4   4 1001.84   19.30
   1   4  -3 2052.30   21.74
   1   4  -3 2129.47   16.84
  -1  -4   3 2122.95   21.30
  -1  -4   3 2144.89   26.91
  -1  -4   3 2039.21   15.49
   1   4  -2 2185.10   17.05
   1   4  -2 2281.63   31.99
  -1  -4   2 2338.71   31.07
  -1  -4   2 2401.00   15.70
  -1  -4   2 2301.97   31.37
   1   4  -1 1076.78   13.87
   1   4  -1 1279.55   17.17
   1   4  -1 1213.44   13.57
  -1  -4   1 1107.19   14.59
  -1  -4   1 1092.37   14.67
  -1  -4   1 1027.20   15.61
   1   4   0 1000.18   22.42
   1   4   0 1155.75   25.43
  -1  -4   0 1019.72   14.53
  -1  -4   0 1115.31   15.32
   1   4   1  133.55   10.16
   1   4   1   -7.38    7.50
   1   4   1  167.49   10.88
  -1  -4  -1  142.20   11.19
  -1  -4  -1  118.98   10.81
   1   4   2 1664.41   27.14
   1   4   2 1476.87   16.23
  -1  -4  -2 1636.83   29.29
  -1  -4  -2 1704.47   17.33
   1   4   3 2295.00   31.13
   1   4   3 2281.19   19.03
  -1  -4  -3 2180.51   18.83
  -1  -4  -3 2191.25   18.54
   1   4   4  425.24   23.50
   1   4   4  392.38   13.38
  -1  -4  -4  409.60   12.74
  -1  -4  -4  402.20   13.02
   1   4   5   46.17   11.77
   1   4   5   42.15   13.37
  -1  -4  -5   44.90   11.53
  -1  -4  -5   42.16   12.53
   1   4   6   61.94   24.49
   1   4   6   63.36   15.69
  -1  -4  -6   46.30   24.97
  -1  -4  -6   37.05   13.39
   1   4   7  343.92   16.51
   1   4   7  282.40   18.98
  -1  -4  -7  278.52   14.08
  -1  -4  -7  261.55   18.62
   1   4   8  718.97   34.75
   1   4   8  602.74   24.17
  -1  -4  -8  576.98   18.15
  -1  -4  -8  622.01   25.23
   1   4   9  550.19   28.14
   1   4   9  662.59   34.93
  -1  -4  -9  497.10   16.77
   1   4  10  140.97   59.90
  -1  -4 -10  102.96   26.48
   1   4  11  102.54   71.49
   1   4  11  104.15   29.04
  -1  -4 -11   93.34   32.21
   1   4  12  285.76   41.95
  -1  -5  11  521.24   40.55
  -1  -5  11  685.72   58.15
  -1  -5  11  428.99   61.23
  -1  -5  10  244.43   48.24
  -1  -5  10  177.56   65.51
  -1  -5  10  258.85   59.05
   1   5  -9  313.14   33.50
  -1  -5   9  489.04   50.69
  -1  -5   9  312.58   22.88
   1   5  -8  148.58   57.85
   1   5  -8  143.29   19.11
  -1  -5   8  197.11   36.75
  -1  -5   8  260.62   74.70
  -1  -5   8  173.74   21.82
   1   5  -7  118.93   18.02
   1   5  -7  142.52   27.84
  -1  -5   7  135.09   33.11
  -1  -5   7  180.10   33.93
  -1  -5   7  151.63   14.23
   1   5  -6   50.44   24.35
   1   5  -6   46.07   11.06
  -1  -5   6   45.64   26.98
  -1  -5   6   39.12   27.90
  -1  -5   6   42.07   26.03
   1   5  -5   84.23   38.33
   1   5  -5  106.67   28.77
  -1  -5   5   57.45   26.89
  -1  -5   5   89.31   21.61
  -1  -5   5   67.83   10.40
   1   5  -4  447.22   19.71
   1   5  -4  467.50   13.94
  -1  -5   4  520.46    9.66
  -1  -5   4  548.36   21.42
  -1  -5   4  535.80   16.06
   1   5  -3  730.56   34.57
   1   5  -3  781.23   26.99
  -1  -5   3  639.26   16.35
  -1  -5   3  753.81   15.88
  -1  -5   3  713.64   32.82
   1   5  -2  171.17   23.74
   1   5  -2  184.05   13.40
   1   5  -2  182.81   30.46
  -1  -5   2  133.44   12.73
  -1  -5   2  458.32   16.11
   1   5  -1  264.95    7.57
   1   5  -1  253.44   29.41
   1   5  -1  207.91   12.92
  -1  -5   1  219.01   13.30
  -1  -5   1  200.09   12.55
   1   5   0  549.02   14.66
   1   5   0  566.52   15.72
  -1  -5   0  507.44   14.19
  -1  -5   0  568.97   15.19
   1   5   1 1838.39   20.42
   1   5   1 1914.49   21.25
  -1  -5  -1 1806.67   19.79
  -1  -5  -1 2101.47   22.43
   1   5   2 4899.67   29.93
   1   5   2 4847.67   29.90
  -1  -5  -2 4819.95   29.39
  -1  -5  -2 5601.77   47.99
   1   5   3 1720.11   20.71
   1   5   3 1916.78   36.24
  -1  -5  -3 1675.51   19.70
   1   5   4  435.46   17.02
   1   5   4  445.69   16.50
  -1  -5  -4  394.41   16.12
  -1  -5  -4  409.18   30.82
   1   5   5  161.63   16.14
   1   5   5  122.01   15.47
  -1  -5  -5  142.03   16.04
  -1  -5  -5  144.40   15.30
   1   5   6  292.76   36.53
   1   5   6  283.44   17.34
  -1  -5  -6  279.21   34.18
  -1  -5  -6  297.61   17.38
   1   5   7  616.93   21.28
   1   5   7  480.45   43.28
  -1  -5  -7  414.26   37.38
  -1  -5  -7  492.36   35.77
   1   5   8  484.45   26.93
   1   5   8  575.29   24.25
  -1  -5  -8  429.00   19.85
   1   5   9  202.23   22.71
   1   5   9  172.50   27.59
  -1  -5  -9  180.59   22.31
  -1  -5  -9  161.19   27.30
   1   5  10   47.82   31.58
   1   5  10   42.63   20.97
  -1  -5 -10   62.29   19.83
   1   5  11   63.78   37.38
   1   5  11   31.75   18.53
  -1  -5 -11   50.22   31.82
  -1  -5 -11  146.93   56.76
   1   5  12   27.01   43.25
  -1  -5 -12   11.00   37.83
   1   6 -10  264.84   38.77
  -1  -6  10  448.20   49.54
  -1  -6  10  372.77   61.43
   1   6  -9  490.47   43.89
  -1  -6   9  607.20   91.28
   1   6  -8  363.70   35.91
   1   6  -8  294.18   16.57
  -1  -6   8  512.91   47.93
  -1  -6   8  417.85   37.30
  -1  -6   8  477.31   47.42
   1   6  -7  386.33   60.24
   1   6  -7  295.86   14.89
  -1  -6   7  441.55   20.39
  -1  -6   7  463.67   68.33
  -1  -6   7  443.44   18.37
   1   6  -6  852.29   54.97
   1   6  -6 1040.48   37.63
  -1  -6   6 1158.38   69.56
  -1  -6   6 1063.74   22.90
  -1  -6   6 1035.63   17.29
   1   6  -5  317.93   18.43
   1   6  -5  289.12   43.64
  -1  -6   5  270.86   10.11
  -1  -6   5  385.88   55.76
  -1  -6   5  323.29   36.88
   1   6  -4  478.50   23.65
   1   6  -4  486.52   33.24
  -1  -6   4  453.99   22.47
  -1  -6   4  514.10   35.16
  -1  -6   4  273.39   18.59
   1   6  -3  235.87   21.77
   1   6  -3  210.94   17.16
   1   6  -3  308.44   23.24
  -1  -6   3  201.65   17.50
  -1  -6   3  237.69   33.80
  -1  -6   3  229.49   27.83
   1   6  -2    1.23   30.67
   1   6  -2   13.92   16.88
   1   6  -2   39.16   21.67
  -1  -6   2   34.93   18.32
  -1  -6   2    7.17   15.79
   1   6  -1   63.68    8.63
   1   6  -1   99.17   35.12
   1   6  -1   61.83   15.49
  -1  -6   1   86.63   18.01
  -1  -6   1   44.10   15.47
   1   6   0   78.75   31.87
   1   6   0   -2.17   19.92
   1   6   0   96.21   32.97
  -1  -6   0   54.12   14.40
  -1  -6   0   72.97   15.83
   1   6   1  530.53   17.95
   1   6   1  570.87   19.27
   1   6   1   18.34   29.61
  -1  -6  -1  527.65   18.59
  -1  -6  -1  656.05   36.95
   1   6   2 1068.99   22.05
   1   6   2  976.04   21.92
   1   6   2  -11.52   34.84
  -1  -6  -2 1128.53   38.72
  -1  -6  -2 1054.44   39.46
   1   6   3  947.66   22.22
   1   6   3  932.76   21.63
  -1  -6  -3  917.53   22.38
  -1  -6  -3  929.49   21.85
   1   6   4  216.76   21.00
   1   6   4  220.25   19.61
  -1  -6  -4  221.51   18.25
  -1  -6  -4  259.24   38.41
   1   6   5  270.15   41.77
   1   6   5  210.53   20.86
  -1  -6  -5  238.57   19.88
  -1  -6  -5  231.10   22.35
   1   6   6  659.90   46.34
   1   6   6  508.54   23.21
  -1  -6  -6  530.47   22.12
  -1  -6  -6  528.63   22.65
   1   6   7 3311.89   63.10
   1   6   7 2583.21   34.20
  -1  -6  -7 2743.98   33.58
  -1  -6  -7 2528.49   33.47
   1   6   8  750.42   61.11
   1   6   8  447.19   27.35
  -1  -6  -8  518.68   44.38
  -1  -6  -8  424.69   25.00
   1   6   9  181.66   60.25
   1   6   9  163.65   27.90
  -1  -6  -9  135.94   23.86
  -1  -6  -9  110.48   25.35
   1   6  10  150.48   62.62
   1   6  10   57.45   35.40
  -1  -6 -10  122.08   31.29
  -1  -6 -10   63.79   32.39
   1   6  11  206.22   56.03
   1   6  11  182.99   39.99
  -1  -6 -11  239.69   63.40
  -1  -6 -11  138.13   34.58
   1   7 -10  109.07   86.84
  -1  -7  10  147.16   51.10
   1   7  -9  167.33   37.25
  -1  -7   9  200.51   94.53
   1   7  -8  146.08   33.70
  -1  -7   8  195.59   45.24
  -1  -7   8  299.73   53.29
  -1  -7   8  200.80   46.92
   1   7  -7  173.47   21.85
   1   7  -7  166.31   64.71
  -1  -7   7  211.88   38.12
  -1  -7   7  285.50   54.99
  -1  -7   7  139.88   29.19
   1   7  -6  552.75   23.31
   1   7  -6  555.09   63.19
  -1  -7   6  606.59   25.06
  -1  -7   6  589.14   67.23
  -1  -7   6  550.93   31.11
   1   7  -5  620.38   28.61
   1   7  -5  840.95   49.97
  -1  -7   5  637.05   26.96
  -1  -7   5  777.45   46.74
  -1  -7   5  138.97   26.75
   1   7  -4 1283.35   60.96
   1   7  -4 1349.55   27.09
  -1  -7   4 1215.63   30.53
  -1  -7   4 1368.14   47.80
  -1  -7   4 1123.93   29.43
   1   7  -3 1236.11   47.00
   1   7  -3 1308.42   32.46
   1   7  -3 1203.48   57.37
  -1  -7   3 1089.38   27.20
  -1  -7   3 1157.89   25.16
   1   7  -2  353.93   13.39
   1   7  -2  347.79   25.94
   1   7  -2  349.17   22.24
  -1  -7   2  352.10   21.77
  -1  -7   2  315.53   41.44
   1   7  -1  597.16   22.55
   1   7  -1  594.96   24.36
   1   7  -1  594.92   24.72
  -1  -7   1  509.67   20.85
  -1  -7   1  553.93   22.97
   1   7   0  -10.95   16.72
   1   7   0   89.66   20.28
   1   7   0   80.17   20.03
  -1  -7   0   87.89   17.34
   1   7   1   16.77   32.84
   1   7   1  290.03   20.48
   1   7   1  303.88   21.74
  -1  -7  -1  306.98   20.02
   1   7   2   95.26   21.85
   1   7   2   -1.76   42.76
   1   7   2  170.98   23.81
  -1  -7  -2  128.57   20.75
  -1  -7  -2  125.87   21.66
   1   7   3   62.04   23.02
   1   7   3  -21.50   67.94
   1   7   3   67.56   22.16
  -1  -7  -3   60.10   21.81
  -1  -7  -3  102.65   22.99
   1   7   4  133.78   22.70
   1   7   4   -1.89   29.28
   1   7   4  137.39   46.51
  -1  -7  -4  115.84   21.77
  -1  -7  -4  109.98   44.15
   1   7   5  182.49   81.41
   1   7   5  211.86   25.69
   1   7   5  182.90   47.07
  -1  -7  -5  159.17   23.42
   1   7   6  257.68   25.00
   1   7   6   28.76   41.69
   1   7   6  314.98   55.13
  -1  -7  -6  321.93   26.63
  -1  -7  -6  270.75   48.61
   1   7   7 1317.13   64.96
   1   7   7 1120.94   32.77
  -1  -7  -7 1159.37   30.90
  -1  -7  -7 1063.44   29.10
   1   7   8  322.31   67.08
   1   7   8  261.03   30.30
  -1  -7  -8  249.52   26.88
  -1  -7  -8  197.23   24.62
   1   7   9  525.99   82.36
   1   7   9  347.23   64.02
  -1  -7  -9  290.42   28.57
  -1  -7  -9  339.33   30.94
   1   7  10  257.24   36.70
   1   7  10  363.63   38.81
  -1  -7 -10  301.73   31.15
  -1  -7 -10  226.99   67.76
   1   8  -8   24.99   36.11
   1   8  -8    0.03   85.41
  -1  -8   8   79.50   33.17
  -1  -8   8   49.67   46.44
   1   8  -7   38.45   50.80
   1   8  -7   19.43   35.47
  -1  -8   7   62.48   30.26
  -1  -8   7   16.89   35.30
   1   8  -6  103.95   34.79
   1   8  -6  133.50   32.24
  -1  -8   6  109.07   34.54
  -1  -8   6  214.72   65.03
   1   8  -5  669.46   70.37
   1   8  -5  606.45   43.31
  -1  -8   5  542.66   53.93
  -1  -8   5  573.03   40.08
   1   8  -4  729.35   54.97
   1   8  -4  708.26   36.97
  -1  -8   4  731.36   54.07
  -1  -8   4  694.02   31.58
   1   8  -3  667.51   20.13
   1   8  -3  591.25   33.00
   1   8  -3  523.54   26.50
  -1  -8   3  571.25   27.74
  -1  -8   3  605.11   58.67
   1   8  -2  315.81   25.87
   1   8  -2  275.20   28.53
   1   8  -2  321.57   29.68
  -1  -8   2  285.78   28.96
  -1  -8   2  258.91   24.42
   1   8  -1  866.96   29.27
   1   8  -1  858.66   18.17
   1   8  -1  861.44   29.67
  -1  -8   1  689.11   24.10
  -1  -8   1  838.12   27.39
   1   8   0  275.51   50.37
   1   8   0  237.42   31.94
   1   8   0  260.87   25.87
  -1  -8   0  274.55   23.68
  -1  -8   0  275.22   25.17
   1   8   1  364.86   26.91
   1   8   1   33.46   20.69
   1   8   1  281.97   23.88
  -1  -8  -1  281.11   22.41
  -1  -8  -1  338.71   26.39
   1   8   2  646.16   29.20
   1   8   2   62.13   46.85
   1   8   2  579.67   26.55
  -1  -8  -2  637.62   27.48
  -1  -8  -2  651.78   28.03
   1   8   3   88.59   62.93
   1   8   3  204.32   54.66
  -1  -8  -3  131.82   26.09
  -1  -8  -3  186.80   26.55
   1   8   4   -6.46   29.22
   1   8   4  206.15   29.03
   1   8   4  191.15   29.53
  -1  -8  -4  240.38   27.16
  -1  -8  -4  242.76   54.85
   1   8   5  188.00   31.44
   1   8   5  -16.78   95.04
   1   8   5  226.14   32.69
  -1  -8  -5  211.07   28.23
  -1  -8  -5  195.65   29.50
   1   8   6   56.49   31.49
   1   8   6   22.25   37.54
   1   8   6   74.77   28.91
  -1  -8  -6   35.93   28.01
  -1  -8  -6   43.49   29.04
   1   8   7  109.61   45.63
   1   8   7  206.00   79.67
   1   8   7   98.93   29.66
  -1  -8  -7   62.25   29.09
  -1  -8  -7  122.94   34.06
   1   8   8  103.14   35.14
   1   8   8   76.19   46.06
   1   8   8  166.27   84.71
  -1  -8  -8   50.88   58.99
  -1  -8  -8   61.66   62.83
   1   8   9  296.92   97.20
   1   8   9  -15.99   99.78
   1   8   9  131.27   72.86
  -1  -8  -9  132.76   32.81
  -1  -8  -9  184.44   37.75
   1   9  -7   76.14   78.06
   1   9  -7   65.13   90.90
  -1  -9   7   46.53   93.61
  -1  -9   7   96.71   40.12
   1   9  -6   61.82   41.76
   1   9  -6   60.01   34.52
  -1  -9   6  170.52   72.65
   1   9  -5   96.66   41.29
   1   9  -5  153.46   36.15
  -1  -9   5  102.74   75.06
  -1  -9   5  129.88   66.39
   1   9  -4  106.51   39.04
   1   9  -4  128.32   32.82
  -1  -9   4   76.84   67.29
  -1  -9   4   66.59   58.12
   1   9  -3   82.92   19.10
   1   9  -3   72.88   67.89
   1   9  -3  128.25   34.09
  -1  -9   3   68.40   29.10
  -1  -9   3   68.63   28.61
   1   9  -2  115.70   32.07
   1   9  -2   34.37   16.02
   1   9  -2   79.27   62.02
  -1  -9   2   29.03   51.23
  -1  -9   2   23.07   56.50
   1   9  -1   76.05   29.04
   1   9  -1   67.65   29.02
  -1  -9   1   69.09   29.29
  -1  -9   1   74.65   24.25
   1   9   0  317.87   31.30
   1   9   0  299.86   16.33
   1   9   0  343.45   28.14
  -1  -9   0  331.22   26.17
  -1  -9   0  392.34   31.13
   1   9   1  836.38   32.21
   1   9   1  843.21   33.85
  -1  -9  -1  858.71   34.68
  -1  -9  -1  759.26   57.03
   1   9   2  472.54   25.95
   1   9   2  585.90   33.77
   1   9   2  -14.11   51.40
  -1  -9  -2  617.61   34.30
  -1  -9  -2  566.47   56.81
   1   9   3  430.37   33.89
   1   9   3  109.44   64.80
   1   9   3  389.93   30.44
  -1  -9  -3  454.85   31.14
  -1  -9  -3  406.55   33.80
   1   9   4   58.49   40.74
  -1  -9  -4  113.03   30.90
  -1  -9  -4  115.66   64.18
   1   9   5  207.30   35.42
   1   9   5  178.39   98.94
   1   9   5  190.38   35.09
  -1  -9  -5  189.73   33.71
  -1  -9  -5  199.20   34.00
   1   9   6  100.46   37.78
   1   9   6    6.12   56.78
   1   9   6   99.86   34.76
  -1  -9  -6  116.33   34.34
  -1  -9  -6   76.64   34.52
   1   9   7   53.16   37.06
   1   9   7  125.02   46.87
   1   9   7  241.61  140.86
  -1  -9  -7   12.09   72.54
  -1  -9  -7   38.76   69.23
   1   9   8  172.09   58.48
   1   9   8   50.19   39.15
  -1  -9  -8   50.74   36.99
  -1  -9  -8   90.29   37.43
   1  10  -5  208.11   48.37
   1  10  -5  287.85   81.64
  -1 -10   5  195.14   43.05
   1  10  -4  193.88   84.19
   1  10  -4   60.06   87.71
  -1 -10   4  207.07   84.44
  -1 -10   4   98.39   39.55
   1  10  -3   23.06   40.56
   1  10  -3   88.13   39.72
  -1 -10   3  110.39   40.88
  -1 -10   3   16.25   65.63
   1  10  -2   50.55   20.02
   1  10  -2  120.76   35.87
   1  10  -2  150.90   39.66
  -1 -10   2   94.89   30.06
  -1 -10   2  162.55   75.33
   1  10  -1   52.59   22.03
   1  10  -1   86.11   38.75
  -1 -10   1   10.39   33.23
  -1 -10   1   27.48   29.68
   1  10   0   69.18   32.97
   1  10   0  122.69   23.32
   1  10   0   95.44   32.23
  -1 -10   0   68.21   27.54
  -1 -10   0   67.15   34.18
   1  10   1   90.27   20.41
   1  10   1   82.78   33.43
  -1 -10  -1  115.78   34.87
  -1 -10  -1  119.01   28.92
   1  10   2   97.57   62.32
   1  10   2  171.37   66.23
  -1 -10  -2  150.05   35.40
  -1 -10  -2  162.49   31.74
   1  10   3   74.80   36.00
   1  10   3  101.37   73.92
   1  10   3   56.96   29.83
  -1 -10  -3   66.91   30.58
  -1 -10  -3   51.45   36.55
   1  10   4   71.23   37.57
   1  10   4  204.99   35.99
   1  10   4  217.47   38.70
  -1 -10  -4  205.11   38.51
  -1 -10  -4  190.91   69.73
   1  10   5  120.48   94.83
   1  10   5  327.45   92.93
  -1 -10  -5  328.28   48.08
  -1 -10  -5  239.99   38.92
   1  10   6  203.03   83.03
   1  10   6  297.94   52.83
   1  10   6  243.35  124.27
  -1 -10  -6  114.84   82.40
  -1 -10  -6  135.19   40.88
   1  11  -1  197.04   41.16
   1  11  -1  200.55   41.05
  -1 -11   1  220.16   41.52
  -1 -11   1  174.04   34.78
   1  11   0  180.45   89.33
   1  11   0  162.91   54.36
   1  11   0   90.01   76.23
  -1 -11   0   72.93   33.28
  -1 -11   0  106.08   41.00
   1  11   1   20.08   40.29
   1  11   1  100.61   51.49
   1  11   1   33.45   36.24
  -1 -11  -1   34.67   33.94
  -1 -11  -1   -0.07   41.46
   1  11   2  111.35   46.53
   1  11   2   28.45   30.84
   1  11   2   29.21   42.14
  -1 -11  -2   65.54   35.45
  -1 -11  -2   27.34   41.70
   2  -9  -4   85.48   36.36
   2  -9  -4   81.25   39.94
  -2   9   4   12.55   44.58
  -2   9   4  131.94   40.25
  -2   9   4   67.48   72.61
   2  -9  -3    9.60   37.33
   2  -9  -3  113.55   42.47
  -2   9   3   61.47   39.25
  -2   9   3   59.08   39.01
  -2   9   3   34.89   35.87
   2  -9  -2   86.25   40.78
   2  -9  -2   -3.20   64.46
  -2   9   2   25.57   65.88
  -2   9   2  134.14   87.04
  -2   9   2   13.54   61.39
   2  -9  -1   23.15   33.11
   2  -9  -1   33.44   31.83
  -2   9   1   65.51   33.28
  -2   9   1   26.36   33.51
  -2   9   1   65.14   66.77
   2  -9   0   16.43   32.81
   2  -9   0   16.92   31.17
  -2   9   0    5.23   28.61
  -2   9   0   17.53   32.16
  -2   9   0    5.68   64.57
   2  -9   1  254.45   34.37
   2  -9   1  248.17   62.05
  -2   9  -1  256.22   31.02
  -2   9  -1  291.17   40.64
  -2   9  -1  246.22   34.18
   2  -9   2  229.15   35.15
   2  -9   2  221.76   33.35
  -2   9  -2  227.14   30.01
  -2   9  -2  226.91   36.78
  -2   9  -2  221.24   70.82
   2  -9   3  126.48   68.70
   2  -9   3  117.87   69.70
  -2   9  -3  141.14   74.35
  -2   9  -3  149.48   37.04
  -2   9  -3  100.74   29.49
   2  -9   4  434.45   38.64
   2  -9   4   68.95   38.06
   2  -9   4  402.49   38.12
  -2   9  -4  490.33   45.43
  -2   9  -4  446.13   40.46
   2  -9   5  290.19   42.14
   2  -9   5  321.65   81.46
   2  -9   5   67.09   55.82
  -2   9  -5  324.99   46.99
  -2   9  -5  320.43   39.47
  -2   9  -5  260.64   34.62
   2  -8  -6  151.44   74.37
   2  -8  -6  171.26   36.68
  -2   8   6  245.75   39.68
  -2   8   6  186.67   67.19
  -2   8   6   -0.95   61.99
   2  -8  -5  195.88   33.92
   2  -8  -5  217.62   37.82
  -2   8   5  215.37   33.92
  -2   8   5  305.28   41.09
  -2   8   5  169.56  126.39
   2  -8  -4  515.76   38.12
   2  -8  -4  410.85   34.59
  -2   8   4  403.45   32.25
  -2   8   4  580.98   74.38
  -2   8   4  -24.44  127.37
   2  -8  -3  157.08   34.17
   2  -8  -3  150.38   31.84
  -2   8   3  -23.02   35.66
  -2   8   3  171.90   32.69
  -2   8   3  180.74   29.75
   2  -8  -2   79.88   28.11
   2  -8  -2   74.45   56.36
  -2   8   2   -4.03   27.41
  -2   8   2  139.79   31.61
  -2   8   2  100.75   28.12
   2  -8  -1  140.29   28.51
  -2   8   1  115.09   28.40
  -2   8   1  -21.75   29.59
  -2   8   1  131.53   27.60
   2  -8   0   50.60   27.03
   2  -8   0   40.43   51.33
  -2   8   0   41.77   27.36
  -2   8   0   88.94   61.20
  -2   8   0   78.79   51.99
   2  -8   1   85.72   50.52
  -2   8  -1   72.50   25.93
  -2   8  -1  118.75   55.88
  -2   8  -1   97.42   28.44
   2  -8   2   26.63   27.85
   2  -8   2   28.63   56.19
  -2   8  -2   17.02   25.35
  -2   8  -2   32.21   30.06
  -2   8  -2   25.44   28.20
   2  -8   3   30.91   24.07
   2  -8   3   13.36   27.39
   2  -8   3    9.98   30.09
  -2   8  -3   16.08   32.49
  -2   8  -3   80.26   58.00
  -2   8  -3   45.14   51.74
   2  -8   4   73.18   63.43
   2  -8   4  138.02   69.98
   2  -8   4  158.83   94.53
  -2   8  -4   89.81   37.22
  -2   8  -4   21.07   29.52
  -2   8  -4   51.86   28.94
   2  -8   5   65.07   37.51
   2  -8   5   88.81   34.80
   2  -8   5  146.80   38.24
  -2   8  -5  127.00   38.77
  -2   8  -5  104.18   62.25
   2  -8   6  142.49   38.92
   2  -8   6  185.63   39.26
   2  -8   6  -31.25   44.77
  -2   8  -6  173.44   66.31
   2  -8   7   71.19   49.41
   2  -8   7  177.06   40.78
   2  -8   7  251.26   39.16
  -2   8  -7  199.14   44.38
  -2   8  -7  252.41   73.05
   2  -8   8  358.06   82.69
   2  -8   8  277.55   45.04
   2  -8   8  175.76  105.21
  -2   8  -8  321.75   78.87
  -2   8  -8  229.02   44.47
   2  -7  -8    2.44   34.08
   2  -7  -8   85.95   48.28
  -2   7   8   28.13   36.35
  -2   7   8   52.09   67.14
  -2   7   8  -44.71  125.76
   2  -7  -7   36.13   58.29
   2  -7  -7  117.10   45.22
  -2   7   7   12.86   61.64
  -2   7   7  128.87   74.36
   2  -7  -6   62.05   29.97
   2  -7  -6  111.31   37.43
  -2   7   6   65.58   63.60
  -2   7   6   65.97   58.15
  -2   7   6  166.09  129.47
   2  -7  -5  222.96   60.73
   2  -7  -5  228.70   30.36
  -2   7   5  179.45   27.85
  -2   7   5  250.22   61.49
  -2   7   5   -2.63   54.31
   2  -7  -4  250.71   30.14
   2  -7  -4  246.70   29.57
  -2   7   4   53.63   49.94
  -2   7   4  315.66   33.58
  -2   7   4  180.84   26.49
   2  -7  -3  264.81   29.11
   2  -7  -3  215.30   52.67
  -2   7   3  268.33   28.81
  -2   7   3  192.37   52.15
  -2   7   3  -23.13   74.40
   2  -7  -2  912.92   29.36
   2  -7  -2  933.46   30.28
  -2   7   2  916.64   30.27
  -2   7   2  967.74   30.64
   2  -7  -1  660.94   28.44
   2  -7  -1  572.28   26.86
  -2   7   1  611.02   29.03
  -2   7   1  493.72   45.91
  -2   7   1  -20.58   59.18
   2  -7   0  441.28   28.20
   2  -7   0  393.37   25.69
  -2   7   0  466.10   49.80
  -2   7   0  433.28   48.81
   2  -7   1  209.60   25.03
   2  -7   1  243.45   23.59
  -2   7  -1  284.02   23.09
  -2   7  -1  224.45   24.55
   2  -7   2   39.21   20.69
   2  -7   2  168.46   25.16
  -2   7  -2  168.68   26.41
  -2   7  -2  166.33   27.18
   2  -7   3   90.25   26.12
   2  -7   3   -4.67   50.76
  -2   7  -3   98.07   23.59
  -2   7  -3   75.96   29.28
  -2   7  -3  108.19   26.65
   2  -7   4  201.37   33.68
   2  -7   4  104.89   27.96
   2  -7   4   97.38   63.45
  -2   7  -4  134.06   26.61
  -2   7  -4  142.84   32.81
  -2   7  -4  118.82   51.97
   2  -7   5   59.81   36.00
   2  -7   5   61.27   60.37
   2  -7   5  100.48   29.04
  -2   7  -5   68.55   32.46
  -2   7  -5   48.72   25.29
   2  -7   6   52.57   32.26
   2  -7   6   58.13   34.07
   2  -7   6   37.78   32.60
  -2   7  -6   44.64   30.52
  -2   7  -6   30.32   26.13
   2  -7   7   65.83   48.93
   2  -7   7    6.95   33.01
   2  -7   7   94.02   37.67
  -2   7  -7   67.08   33.80
  -2   7  -7    7.46   74.35
   2  -7   8   26.70   31.05
   2  -7   8   78.70   46.63
   2  -7   8  112.51   64.14
  -2   7  -8   75.10   77.64
  -2   7  -8   99.90   60.31
   2  -7   9  178.50   45.35
   2  -7   9  152.91   40.41
   2  -7   9  187.60   32.18
  -2   7  -9  191.65   41.28
  -2   7  -9  287.34   70.02
   2  -6  -9  133.36   32.86
   2  -6  -9  151.48   38.80
  -2   6   9  381.99  136.49
  -2   6   9  138.16   30.90
  -2   6   9  171.78   73.21
   2  -6  -8   99.69   30.15
   2  -6  -8  158.14   61.88
  -2   6   8  -27.51  102.52
  -2   6   8  126.25   33.59
  -2   6   8  126.72   28.52
   2  -6  -7   21.12   26.97
   2  -6  -7   90.35   37.47
  -2   6   7   38.26   30.63
  -2   6   7   37.49   53.09
  -2   6   7   58.93  143.15
   2  -6  -6   54.96   25.19
  -2   6   6  -11.71   43.27
  -2   6   6   42.48   54.16
  -2   6   6   20.72   49.38
   2  -6  -5  263.76   54.88
  -2   6   5  213.16   49.63
  -2   6   5  158.18   48.95
  -2   6   5   -5.88   49.02
   2  -6  -4  127.15   23.20
   2  -6  -4  117.85   26.26
  -2   6   4  102.03   54.00
  -2   6   4  161.80   27.86
  -2   6   4   91.62   24.33
   2  -6  -3  200.05   23.09
  -2   6   3  181.95   24.45
  -2   6   3   52.29   40.10
  -2   6   3  303.98   51.03
   2  -6  -2  648.37   27.65
   2  -6  -2  565.66   24.23
  -2   6   2  639.80   24.59
  -2   6   2   -7.44   59.52
   2  -6  -1  316.88   22.24
  -2   6   1  311.17   21.69
  -2   6   1  296.26   22.70
  -2   6   1    8.79   46.19
   2  -6   0  411.16   20.49
   2  -6   0  412.30   22.67
  -2   6   0  431.27   23.30
  -2   6   0  428.12   38.22
  -2   6   0    6.30   50.28
   2  -6   1  409.91   21.02
   2  -6   1  325.68   22.27
   2  -6   1   -1.81   15.84
  -2   6  -1  416.62   23.73
  -2   6  -1  369.39   23.22
  -2   6  -1  391.08   20.14
   2  -6   2  516.24   23.83
   2  -6   2  442.26   45.36
   2  -6   2  554.20   41.40
  -2   6  -2  635.43   25.97
  -2   6  -2  566.83   24.09
  -2   6  -2  653.41   24.28
   2  -6   3 2002.54   31.08
   2  -6   3 2547.81   38.59
   2  -6   3 2093.35   56.54
  -2   6  -3 2024.85   29.70
  -2   6  -3 2065.17   53.87
   2  -6   4  683.55   29.92
   2  -6   4  733.36   28.16
   2  -6   4  531.30   26.35
  -2   6  -4  675.19   29.81
  -2   6  -4  591.26   26.06
  -2   6  -4  694.52   25.92
   2  -6   5  311.57   25.76
   2  -6   5  374.63   30.71
   2  -6   5  333.94   28.04
  -2   6  -5  322.79   28.76
  -2   6  -5  306.92   23.91
   2  -6   6   13.49   26.76
   2  -6   6  108.63   57.38
   2  -6   6   37.15   23.23
  -2   6  -6   20.26   25.01
  -2   6  -6   14.05   21.62
   2  -6   7   98.33   45.03
   2  -6   7  122.25   59.64
   2  -6   7   49.32   31.14
  -2   6  -7   32.76   30.18
  -2   6  -7    3.82   21.36
   2  -6   8  112.70   36.51
   2  -6   8   19.20   32.92
   2  -6   8   27.80   23.38
  -2   6  -8   50.73   34.16
  -2   6  -8   27.14   44.30
   2  -6   9  159.12   34.90
   2  -6   9  108.58   37.35
   2  -6   9  124.89   24.68
  -2   6  -9   97.65   33.41
  -2   6  -9  150.86   50.07
   2  -6  10   17.97   40.72
   2  -6  10   81.52   35.31
  -2   6 -10   15.34   34.63
   2  -5 -10  582.63   77.93
   2  -5 -10  697.46   67.26
  -2   5  10  827.34   44.22
   2  -5  -9  138.97   36.02
   2  -5  -9  189.57   66.75
  -2   5   9    6.92   38.25
  -2   5   9  141.76   34.26
  -2   5   9  162.34   31.65
   2  -5  -8  342.85   26.71
  -2   5   8  355.25   27.42
  -2   5   8  -10.17   35.55
  -2   5   8  450.65   35.38
   2  -5  -7  220.58   26.72
   2  -5  -7  197.48   25.18
  -2   5   7   -3.60   32.26
  -2   5   7  288.60   52.75
  -2   5   7  250.80   47.07
   2  -5  -6  478.02   23.45
  -2   5   6  552.47   25.77
  -2   5   6    5.75   75.60
  -2   5   6  509.03   46.43
   2  -5  -5  392.12   21.55
   2  -5  -5  411.62   23.97
  -2   5   5  399.33   23.50
  -2   5   5  397.73   44.83
  -2   5   5   38.87  107.32
   2  -5  -4  191.74   19.56
   2  -5  -4  207.03   23.06
  -2   5   4  189.15   20.12
  -2   5   4  164.00   42.27
  -2   5   4  -33.86   72.13
   2  -5  -3  241.51   41.50
   2  -5  -3  245.97   18.27
  -2   5   3  231.26   20.10
  -2   5   3  250.60   35.36
  -2   5   3    7.62   35.20
   2  -5  -2  472.28   18.60
   2  -5  -2  450.76   20.50
  -2   5   2  466.70   20.06
  -2   5   2  487.11   35.51
  -2   5   2    4.72   48.41
   2  -5  -1   88.83   34.50
   2  -5  -1   60.35   17.85
  -2   5   1   75.06   15.96
  -2   5   1   14.25   48.87
  -2   5   1   59.38   17.53
   2  -5   0   32.02   15.22
   2  -5   0   32.98   17.37
   2  -5   0   19.49   34.22
  -2   5   0    3.71   25.98
  -2   5   0   68.30   31.17
   2  -5   1  130.74   36.86
   2  -5   1   70.41   14.88
   2  -5   1   70.50   17.89
  -2   5  -1   81.10   17.80
  -2   5  -1   84.25   32.69
   2  -5   2  336.01   20.05
   2  -5   2  446.16   22.01
   2  -5   2  336.25   17.58
  -2   5  -2  345.68   20.11
  -2   5  -2  308.76   19.42
   2  -5   3 2875.41   48.89
   2  -5   3 3099.24   48.26
  -2   5  -3 2937.55   29.55
  -2   5  -3 2951.69   33.13
  -2   5  -3 2713.64   29.17
   2  -5   4  817.07   22.91
   2  -5   4  960.20   45.20
   2  -5   4  860.09   43.04
  -2   5  -4  992.72   23.66
  -2   5  -4  938.06   40.42
  -2   5  -4  930.81   49.28
   2  -5   5  557.34   42.80
   2  -5   5  382.46   28.40
  -2   5  -5  647.85   24.94
  -2   5  -5  581.34   24.54
   2  -5   6  504.12   43.19
   2  -5   6  428.10   26.37
   2  -5   6  476.02   43.48
  -2   5  -6  395.40   38.17
  -2   5  -6  436.09   27.83
   2  -5   7  398.75   23.52
   2  -5   7  431.01   30.00
   2  -5   7  402.72   20.24
  -2   5  -7  373.67   28.27
  -2   5  -7  352.12   36.18
   2  -5   8  260.21   28.89
   2  -5   8  176.32   16.18
   2  -5   8  247.73   51.35
  -2   5  -8  167.64   26.80
  -2   5  -8  202.96   33.18
   2  -5   9  418.38   30.77
   2  -5   9  516.40   58.34
   2  -5   9  545.41   35.21
  -2   5  -9  483.28   34.88
  -2   5  -9  432.95   17.25
   2  -5  10   81.46   71.37
   2  -5  10  108.30   30.31
  -2   5 -10   89.34   16.16
  -2   5 -10   74.13   32.52
   2  -5  11   23.38   34.15
   2  -5  11   46.13   40.11
   2  -5  11   78.59   72.83
   2  -4 -10   83.30   35.69
   2  -4 -10  163.96   28.04
  -2   4  10  106.96   35.65
  -2   4  10  178.59   50.39
  -2   4  10  111.90   93.19
   2  -4  -9   22.42   30.67
   2  -4  -9   46.16   24.93
  -2   4   9   19.06   32.40
  -2   4   9   74.79   45.13
  -2   4   9  105.52   85.67
   2  -4  -8  263.16   30.38
   2  -4  -8  284.59   25.65
  -2   4   8    7.84   29.05
  -2   4   8  265.45   57.33
  -2   4   8  247.26   43.39
   2  -4  -7  510.60   22.18
   2  -4  -7  492.84   25.92
  -2   4   7   13.06   26.58
  -2   4   7  568.14   27.68
  -2   4   7  551.13   42.21
   2  -4  -6  471.91   42.68
   2  -4  -6  498.47   40.30
  -2   4   6    4.59   49.73
  -2   4   6  535.51   24.62
  -2   4   6  536.49   21.78
   2  -4  -5 1160.50   40.99
   2  -4  -5 1212.97   40.82
  -2   4   5 1108.34   22.49
  -2   4   5 1164.22   24.39
   2  -4  -4 1189.69   22.43
   2  -4  -4 1175.81   40.17
  -2   4   4   -7.13   56.52
  -2   4   4 1230.72   21.22
  -2   4   4 1188.68   22.20
   2  -4  -3 1789.92   25.00
   2  -4  -3 1634.93   21.86
  -2   4   3 1664.04   23.51
  -2   4   3 1784.76   23.33
  -2   4   3   31.41   57.42
   2  -4  -2  877.27   16.75
   2  -4  -2  941.30   35.67
  -2   4   2    7.20   29.89
  -2   4   2  923.15   17.16
  -2   4   2  965.83   20.40
   2  -4  -1  261.84   15.77
   2  -4  -1  284.96   14.39
  -2   4   1  266.72   16.31
  -2   4   1  254.99   13.64
  -2   4   1    0.69   42.40
   2  -4   0    7.90   12.71
   2  -4   0    7.50   14.31
   2  -4   0   28.27   25.03
  -2   4   0   -0.34   14.41
  -2   4   0   17.86   12.91
  -2   4   0   19.56   28.75
   2  -4   1   10.61   11.70
   2  -4   1    9.15   14.24
   2  -4   1    7.96   31.32
  -2   4  -1   -1.72   13.95
  -2   4  -1   -7.00   28.53
   2  -4   2  624.21   29.07
   2  -4   2  655.87   33.39
   2  -4   2  676.31   29.41
  -2   4  -2  648.01   17.69
  -2   4  -2  653.11   18.20
  -2   4  -2  613.27   32.54
   2  -4   3 1549.14   21.58
   2  -4   3 1675.55   23.34
   2  -4   3 1443.11   20.63
  -2   4  -3 1540.49   22.17
  -2   4  -3 1618.16   22.47
  -2   4  -3 1616.51   21.54
   2  -4   4  244.95   16.55
   2  -4   4  277.25   16.76
   2  -4   4  300.45   16.60
  -2   4  -4  284.29   19.31
  -2   4  -4  272.07   16.17
  -2   4  -4  261.12   17.43
   2  -4   5   53.65   15.84
   2  -4   5   62.88   14.93
   2  -4   5   48.30   18.93
  -2   4  -5   23.38   14.98
  -2   4  -5   57.64   18.08
  -2   4  -5   53.14   28.95
   2  -4   6   12.72   18.32
   2  -4   6   16.70   39.04
   2  -4   6   10.63   13.66
  -2   4  -6   40.98   21.62
  -2   4  -6   21.50   13.85
   2  -4   7  529.94   26.29
   2  -4   7  486.25   27.82
  -2   4  -7  536.20   45.67
  -2   4  -7  521.55   31.47
   2  -4   8  866.47   58.73
   2  -4   8  706.10   15.11
   2  -4   8  785.48   48.16
  -2   4  -8  670.50   27.05
  -2   4  -8  628.10   26.71
   2  -4   9  737.15   24.43
   2  -4   9  876.18   34.85
   2  -4   9  892.10   52.61
  -2   4  -9  810.89   29.47
  -2   4  -9  730.27   31.03
   2  -4  10  495.10   37.30
   2  -4  10  509.03   28.69
  -2   4 -10  446.59   22.81
   2  -4  11  192.71   29.57
   2  -4  11  243.13   39.12
   2  -4  11  301.21   64.63
   2  -4  12  237.04   34.99
   2  -4  12  248.88   43.55
   2  -4  12  325.12   75.59
   2  -3 -11   32.71   39.79
  -2   3  11   65.58   36.03
  -2   3  11  177.92   62.77
   2  -3 -10   33.79   31.64
   2  -3 -10   76.18   17.02
  -2   3  10   58.16   31.92
   2  -3  -9  178.04   39.00
   2  -3  -9  122.39   29.08
  -2   3   9  174.11   37.13
  -2   3   9  160.44   29.03
   2  -3  -8  186.10   22.98
   2  -3  -8  123.67   24.84
  -2   3   8  118.98   17.24
  -2   3   8  135.33   26.19
   2  -3  -7  120.34   38.35
   2  -3  -7   51.19   23.43
  -2   3   7   67.99   17.20
  -2   3   7   66.75   42.92
  -2   3   7   34.09   31.27
   2  -3  -6   41.14   17.79
   2  -3  -6   76.92   15.48
  -2   3   6   -2.49   27.69
  -2   3   6   59.72   18.31
  -2   3   6   39.98   15.12
   2  -3  -5  834.32   33.65
   2  -3  -5  772.71   19.11
  -2   3   5  836.02   32.50
  -2   3   5  832.97   20.96
   2  -3  -4  508.11   16.44
  -2   3   4  561.47   17.42
  -2   3   4   -6.26   18.23
   2  -3  -3 1775.69   20.40
   2  -3  -3 1824.18   33.18
  -2   3   3   10.16   45.59
  -2   3   3 1770.05   19.53
  -2   3   3 1786.91   20.73
   2  -3  -2 2170.92   21.94
   2  -3  -2 2102.61   19.25
  -2   3   2 2008.47   20.00
  -2   3   2 2114.81   19.52
   2  -3  -1  196.09   13.55
   2  -3  -1   27.43   17.80
   2  -3  -1  211.56   20.50
  -2   3   1  226.34   10.75
  -2   3   1   15.99   33.64
   2  -3   0  223.47   30.03
   2  -3   0  110.15   12.73
   2  -3   0  116.09   19.98
  -2   3   0   92.02   12.80
  -2   3   0  103.96   10.74
  -2   3   0   11.05   27.88
   2  -3   1 3569.19   23.17
   2  -3   1 3637.69   25.89
   2  -3   1 1299.07   33.02
  -2   3  -1 3689.22   24.28
  -2   3  -1 3447.18   24.57
  -2   3  -1 3823.41   25.47
   2  -3   2 2181.52   19.69
   2  -3   2 2127.55   18.45
   2  -3   2 2406.68   34.80
  -2   3  -2 2480.73   21.96
  -2   3  -2 2211.81   21.07
  -2   3  -2 2400.27   32.71
   2  -3   3 1458.34   17.85
   2  -3   3 1423.79   17.56
   2  -3   3 1463.55   18.31
  -2   3  -3 1484.64   18.28
  -2   3  -3 1344.82   28.33
  -2   3  -3 1552.08   30.74
   2  -3   4  150.93   13.27
   2  -3   4  156.59   13.14
   2  -3   4  172.51   24.81
  -2   3  -4  144.35   12.62
  -2   3  -4  155.32   12.45
  -2   3  -4  141.01   13.29
   2  -3   5   74.36   15.71
   2  -3   5   70.58   10.65
  -2   3  -5  115.83   17.22
  -2   3  -5  114.05   16.75
  -2   3  -5   93.73   12.50
   2  -3   6  185.04   17.15
   2  -3   6  205.08   37.31
   2  -3   6  150.73    9.70
  -2   3  -6  194.65   18.75
  -2   3  -6  186.48   12.39
   2  -3   7  132.64    9.65
   2  -3   7  155.25   17.50
   2  -3   7  169.02   41.41
  -2   3  -7  142.60   21.57
  -2   3  -7  122.73   21.28
   2  -3   8  437.75   25.64
   2  -3   8  397.11   20.72
   2  -3   8  408.19   19.05
  -2   3  -8  401.44   24.06
  -2   3  -8  365.54   19.95
   2  -3   9  323.65   30.69
   2  -3   9  248.07   44.43
  -2   3  -9  257.42   19.16
   2  -3  10  353.88   26.42
   2  -3  10  434.65   39.79
   2  -3  10  378.92   28.35
   2  -3  11  357.90   30.20
   2  -3  11  404.04   38.73
   2  -3  11  385.88   33.05
   2  -3  12  449.36   46.21
   2  -3  12  415.05   38.42
   2  -3  12  439.92   63.61
  -2   2  11  235.65   35.66
  -2   2  11  184.65   39.85
  -2   2  10  409.59   35.25
  -2   2  10  490.71   63.03
   2  -2  -9  654.10   14.07
   2  -2  -9  780.47   58.57
  -2   2   9  734.54   58.46
  -2   2   9  781.03   29.54
   2  -2  -8  308.46   25.23
   2  -2  -8  298.03   26.09
  -2   2   8  374.69   50.09
  -2   2   8  325.05   27.16
   2  -2  -7  285.37   14.83
   2  -2  -7  253.12   20.36
  -2   2   7  342.52   15.72
  -2   2   7  317.30   23.41
   2  -2  -6   80.90   12.70
  -2   2   6  106.49   17.70
   2  -2  -5    6.16   12.44
   2  -2  -5    8.04   27.31
  -2   2   5    5.11   14.48
   2  -2  -4  204.06   23.07
   2  -2  -4  215.59   23.73
  -2   2   4   24.19   33.94
  -2   2   4  227.47   13.16
  -2   2   4  229.01   11.45
   2  -2  -3   34.02   10.91
   2  -2  -3   49.22    9.93
  -2   2   3   12.88   14.03
  -2   2   3   39.22    9.93
  -2   2   3   24.33   19.96
   2  -2  -2  431.71   12.61
   2  -2  -2  398.64   10.61
  -2   2   2   10.83   16.98
  -2   2   2  401.20   10.55
  -2   2   2  397.28   20.70
   2  -2  -1   44.77   11.52
   2  -2  -1  275.01   11.35
   2  -2  -1  247.05   14.53
  -2   2   1    6.33   15.16
  -2   2   1  256.67    8.28
  -2   2   1  262.70   19.41
   2  -2   0   55.78    6.43
   2  -2   0   77.47   24.71
  -2   2   0   -3.72   11.91
  -2   2   0   54.65    7.09
  -2   2   0   45.17    9.39
   2  -2   1 4264.07   23.42
   2  -2   1 5178.74   27.98
   2  -2   1 4471.31   20.74
  -2   2  -1 4543.18   21.11
  -2   2  -1 4139.47   22.40
  -2   2  -1 4474.42   34.10
   2  -2   2 3074.06   19.44
   2  -2   2 2575.65   22.04
   2  -2   2 3132.74   30.45
  -2   2  -2 3023.50   17.68
  -2   2  -2 3184.08   20.16
  -2   2  -2 3122.98   19.85
   2  -2   3 3194.32   19.92
   2  -2   3 3565.58   22.86
   2  -2   3 3006.74   27.76
  -2   2  -3 2966.78   18.67
  -2   2  -3 3495.42   21.14
  -2   2  -3 3353.77   22.02
   2  -2   4 1315.61   13.47
   2  -2   4 1601.01   19.47
   2  -2   4 1547.00   18.44
  -2   2  -4 1292.29   15.53
  -2   2  -4 1512.78   15.30
  -2   2  -4 1705.36   34.55
   2  -2   5  707.51   15.88
   2  -2   5  724.97   30.95
   2  -2   5  613.19   10.17
  -2   2  -5  750.57   17.51
  -2   2  -5  708.86   12.02
   2  -2   6  638.56   19.69
   2  -2   6  586.48   16.59
   2  -2   6  539.61   16.34
  -2   2  -6  647.00   11.46
  -2   2  -6  619.68   32.11
   2  -2   7  523.05   22.02
   2  -2   7  434.85    8.92
   2  -2   7  444.18   17.55
  -2   2  -7  467.30   42.24
  -2   2  -7  488.80   17.94
   2  -2   8  142.98   21.79
   2  -2   8  168.54   23.61
   2  -2   8  121.35   18.51
  -2   2  -8  136.46   14.90
   2  -2   9   49.44   21.89
   2  -2   9   83.15   43.77
   2  -2   9   66.65   52.90
   2  -2  10  113.51   25.27
   2  -2  10  128.69   61.75
   2  -2  11  314.05   29.43
   2  -2  11  334.97   72.80
   2  -2  11  326.68   64.09
   2  -2  12   95.43   34.27
   2  -2  12  121.02   39.72
   2  -2  13  100.46   38.42
   2  -2  13   90.97   45.10
   2  -2  13  218.78   54.18
  -2   1  12   18.69   39.22
  -2   1  12   34.62   83.86
  -2   1  11   96.89   36.26
  -2   1  11  127.74   69.96
  -2   1  10  627.53   34.34
  -2   1  10  461.14   33.50
  -2   1   9 1150.63   33.29
  -2   1   9 1019.99   64.65
  -2   1   9 2209.43  117.65
  -2   1   8  614.80   95.46
  -2   1   8  630.71   21.93
   2  -1  -7  365.30   19.89
   2  -1  -7  328.56    9.54
  -2   1   7  424.93   11.64
   2  -1  -6  275.05   17.07
   2  -1  -6  327.33   19.94
  -2   1   6  328.56   11.31
   2  -1  -5  549.30   20.63
   2  -1  -5  488.13   27.43
  -2   1   5  523.00   18.53
  -2   1   5  607.04   17.17
   2  -1  -4 1755.41   18.94
   2  -1  -4 1841.56   16.55
  -2   1   4 1514.11   13.36
  -2   1   4 1894.32   30.86
   2  -1  -3  653.51   10.75
   2  -1  -3  639.46   11.10
  -2   1   3  592.91    9.81
  -2   1   3  667.71   12.10
  -2   1   3   32.71   27.85
   2  -1  -2  248.35    7.22
  -2   1   2  267.54    8.09
  -2   1   2   -6.91   27.83
  -2   1   2  241.81   14.28
   2  -1  -1  346.62    9.63
   2  -1  -1  329.99   10.88
   2  -1  -1  315.82    6.69
  -2   1   1  334.22    8.95
  -2   1   1  261.81   15.48
   2  -1   0  310.50    8.78
   2  -1   0  343.58   12.39
   2  -1   0  279.05    9.13
  -2   1   0  310.21    8.73
  -2   1   0  289.18    9.23
  -2   1   0   40.59   18.09
   2  -1   1  257.61    5.80
   2  -1   1  205.83   14.28
   2  -1   1  248.95   15.93
  -2   1  -1  278.19    5.80
  -2   1  -1  244.40    8.56
  -2   1  -1  278.45    8.46
   2  -1   2  303.98    6.21
   2  -1   2  315.78    9.22
   2  -1   2  280.14   14.36
  -2   1  -2  320.85   10.98
  -2   1  -2  328.68   15.81
   2  -1   3  497.25    8.60
   2  -1   3  562.48   12.14
   2  -1   3  524.70    9.72
  -2   1  -3  563.18   10.05
  -2   1  -3  579.80    9.76
   2  -1   4 2222.01   18.84
   2  -1   4 1858.01   12.94
   2  -1   4 1935.31   17.85
  -2   1  -4 2070.23   28.88
  -2   1  -4 2141.76   22.26
   2  -1   5 1494.21   17.05
   2  -1   5 1644.95   18.63
   2  -1   5 1711.81   19.07
  -2   1  -5 2003.30   22.11
  -2   1  -5 1759.74   12.93
   2  -1   6 1432.21   21.86
   2  -1   6 1179.57   18.09
   2  -1   7 1308.24   22.92
   2  -1   7 1253.00   24.00
   2  -1   7 1074.95   21.70
  -2   1  -7 1227.19   17.15
   2  -1   8 1221.41   26.84
   2  -1   8 1210.48   49.89
   2  -1   8 1324.29   47.40
  -2   1  -8  887.36   10.19
  -2   1  -8  858.19   10.10
   2  -1   9  382.38   25.10
   2  -1   9  380.12   28.08
   2  -1   9  376.45   27.96
   2  -1  10  284.26   29.97
   2  -1  10  269.37   33.58
   2  -1  10  303.15   33.43
   2  -1  11  362.47   33.31
   2  -1  11  279.77   34.89
   2  -1  11  354.35   38.48
   2  -1  12   -8.59   31.44
   2  -1  12   21.77   71.04
   2  -1  12  121.73   92.88
   2  -1  13    5.99   36.21
   2  -1  13   14.03   38.14
   2  -1  13  -13.91   50.93
  -2   0  12   44.40   37.41
  -2   0  12   58.48   46.75
  -2   0  11   26.15   32.09
  -2   0  11   57.30   75.52
  -2   0  10  256.43   30.47
  -2   0  10  236.83   32.16
  -2   0   9  109.20   29.68
  -2   0   9   70.39   49.11
  -2   0   8  186.36   20.36
  -2   0   8  192.30   24.70
  -2   0   7  242.21   25.96
  -2   0   7  194.94   34.81
  -2   0   6  827.18   19.06
  -2   0   6  875.91   25.56
  -2   0   6  874.33   16.43
  -2   0   6  869.98   16.66
   2   0  -5 3236.91   27.23
  -2   0   5 3082.29   24.48
  -2   0   5 2775.33   20.11
   2   0  -4 2848.54   21.44
   2   0  -4 3177.20   22.42
  -2   0   4 2567.94   19.56
  -2   0   4 3182.99   21.80
   2   0  -3 2657.70   21.75
   2   0  -3 2531.75   17.98
  -2   0   3 2384.01   14.08
  -2   0   3 2574.54   17.46
   2   0  -2 1887.45   20.90
   2   0  -2 1767.26   12.61
  -2   0   2 1723.87   18.80
  -2   0   2 1675.02   11.46
   2   0  -1 1538.51   13.21
   2   0  -1 1471.64   12.22
  -2   0   1 1889.21   17.72
  -2   0   1 1375.38   11.26
   2   0   0  571.26    6.31
   2   0   0  755.90   15.92
   2   0   0  750.77    9.54
  -2   0   0  835.42   10.57
  -2   0   0  978.49   11.76
   2   0   1  511.45    6.93
   2   0   1  672.63    9.07
   2   0   1  641.07    5.73
  -2   0  -1  531.64    7.47
  -2   0  -1  664.25    9.48
  -2   0  -1  479.71    4.53
   2   0   2  756.33   14.70
   2   0   2  880.18    7.41
  -2   0  -2  804.54   10.66
  -2   0  -2  948.08    8.14
   2   0   3   61.15    6.19
   2   0   3   49.18    7.33
  -2   0  -3   52.60    6.07
  -2   0  -3   72.61   63.33
   2   0   4  710.79   12.92
   2   0   4  580.62   11.72
   2   0   4  466.12   10.82
  -2   0  -4  674.06   22.00
  -2   0  -4  571.46   13.84
   2   0   5  802.41   15.41
   2   0   5  948.91   27.07
  -2   0  -5  794.03   13.75
   2   0   6  500.59   16.64
   2   0   6  618.88   33.35
  -2   0  -6  403.95   10.53
   2   0   7  329.64   22.10
  -2   0  -7  201.04    7.33
  -2   0  -7  294.50   10.23
   2   0   8 1735.62   31.26
   2   0   8 1334.00   27.33
   2   0   9  223.04   27.56
   2   0   9  209.57   28.25
   2   0  10  917.37   32.07
   2   0  10  879.43   37.29
   2   0  11 1201.18   37.35
   2   0  11  892.47   35.51
   2   0  12  170.34   33.60
   2   0  12  148.79   34.21
   2   0  13   37.32   42.61
   2   0  13   32.36   71.75
  -2  -1  12   29.34   34.93
  -2  -1  12   42.52   45.62
  -2  -1  11   74.72   63.51
  -2  -1  11   81.05   74.40
  -2  -1  10  233.72   29.63
  -2  -1  10  197.17   31.86
  -2  -1   9  194.75   26.48
  -2  -1   9  184.18   34.32
  -2  -1   8   57.75   20.99
  -2  -1   7  161.62   22.82
  -2  -1   7  146.38   38.46
  -2  -1   6   26.10   17.05
  -2  -1   6   11.86   18.37
  -2  -1   6   30.53    9.58
  -2  -1   5  579.05   17.28
  -2  -1   5  561.70   34.13
  -2  -1   5  501.39   12.54
  -2  -1   5  438.91   11.11
  -2  -1   4 3109.62   22.77
  -2  -1   4 3274.05   26.27
  -2  -1   4 2851.40   18.82
  -2  -1   4 3335.77   21.75
  -2  -1   3 1964.32   16.05
  -2  -1   3 2291.97   19.93
  -2  -1   3 1957.90   12.13
  -2  -1   3 2378.69   21.90
  -2  -1   2 2912.10   16.18
  -2  -1   2 3230.92   19.10
  -2  -1   2 2977.07   20.92
  -2  -1   2 3245.60   25.60
   2   1  -1 4073.73   66.58
   2   1  -1 3943.29   17.95
  -2  -1   1 3910.85   14.83
  -2  -1   1 4667.89   24.62
  -2  -1   1 4156.42   17.13
   2   1   0 9023.71   30.06
   2   1   010434.44   26.27
   2   1   012132.43   22.86
  -2  -1   0 8725.30   16.94
  -2  -1   0 7393.44   19.80
   2   1   1  129.42    5.66
   2   1   1    1.21   11.05
   2   1   1  115.13    2.85
  -2  -1  -1  109.14    5.60
  -2  -1  -1  101.99    6.19
  -2  -1  -1   92.24    2.58
   2   1   2 1039.62    9.39
  -2  -1  -2 1227.38    8.96
  -2  -1  -2 1895.35   13.10
   2   1   3 1907.69   11.09
  -2  -1  -3 2053.01   11.99
  -2  -1  -3 1839.84   11.40
   2   1   4  918.92   11.36
   2   1   4 1897.38   19.81
  -2  -1  -4  999.97   19.78
  -2  -1  -4  751.57   12.00
   2   1   5  232.07   11.11
   2   1   5  195.06    7.12
  -2  -1  -5  230.52   21.38
  -2  -1  -5  179.00    9.38
   2   1   6  248.87   13.62
  -2  -1  -6  186.55    9.48
   2   1   7  148.22   16.09
   2   1   7  119.69   16.93
  -2  -1  -7   86.89    8.04
  -2  -1  -7   91.61    9.19
   2   1   8  120.89   23.09
   2   1   8  113.06   37.86
  -2  -1  -8   87.96    8.16
  -2  -1  -8   94.38    9.39
   2   1   9  208.77   23.16
   2   1   9  187.34   22.97
   2   1  10  585.05   55.26
   2   1  10  551.73   61.72
   2   1  11  615.87   34.23
   2   1  11  495.85   63.87
   2   1  12  173.79   37.68
   2   1  12  157.70   35.44
   2   1  13  165.61   42.16
   2   1  13  145.84   45.15
  -2  -2  12   44.28   39.41
  -2  -2  12   34.41   75.87
  -2  -2  11  892.93   38.87
  -2  -2  11  890.90   86.87
  -2  -2  10  983.72   33.93
  -2  -2  10 1026.74   39.82
  -2  -2   9  777.79   33.09
  -2  -2   9  703.62   39.35
  -2  -2   8  175.56   59.59
  -2  -2   7  341.58   22.12
  -2  -2   7  365.36   27.59
  -2  -2   6  285.66   23.82
  -2  -2   6  263.06   35.92
  -2  -2   6  226.10    9.76
  -2  -2   5  242.87   15.61
  -2  -2   5  277.08    6.97
  -2  -2   5  362.10   41.67
  -2  -2   5  337.57   14.50
   2   2  -4  515.59   15.98
   2   2  -4  580.01   49.30
  -2  -2   4  583.72   18.02
  -2  -2   4  662.13   16.32
   2   2  -3  445.26   86.86
   2   2  -3  259.38   12.21
  -2  -2   3  262.60    7.33
  -2  -2   3  319.16   13.93
   2   2  -2  440.78    6.82
   2   2  -2  637.72   12.81
  -2  -2   2  547.10    8.08
  -2  -2   2  643.81   11.86
   2   2  -1  836.04   15.45
   2   2  -1  779.83    8.49
  -2  -2   1  249.57    5.07
  -2  -2   1  889.03    8.84
   2   2   0 4506.73   14.94
   2   2   0 4481.02   17.27
   2   2   0 4687.88   12.58
  -2  -2   0 4636.21   17.71
  -2  -2   0 4225.61   19.07
  -2  -2   0 6296.15   17.35
   2   2   1  783.61    6.48
   2   2   1  930.62    8.07
   2   2   1  737.84    8.72
  -2  -2  -1  778.83    6.89
  -2  -2  -1  845.33   15.18
   2   2   2 4164.01   21.58
   2   2   2 3955.67   17.40
  -2  -2  -2 3763.66   22.85
  -2  -2  -2 3936.07   14.20
   2   2   3 2862.53   15.63
   2   2   3 2783.02   14.53
  -2  -2  -3 2684.10   14.91
  -2  -2  -3 2813.69   14.77
   2   2   4 6558.56   22.96
   2   2   4 6170.28   24.09
  -2  -2  -4 6345.47   22.51
  -2  -2  -4 6549.20   24.87
   2   2   5 1875.29   17.87
   2   2   5 1909.60   14.63
  -2  -2  -5 1459.42   16.94
  -2  -2  -5 1491.74   18.29
   2   2   6  868.36   19.70
   2   2   6  753.22   15.70
  -2  -2  -6  648.76    8.70
  -2  -2  -6  773.61   15.61
   2   2   7   24.69   15.89
   2   2   7    2.72   14.27
  -2  -2  -7    3.70    6.11
  -2  -2  -7   10.56   14.45
   2   2   8  174.57   19.04
  -2  -2  -8  121.94   17.78
  -2  -2  -8  116.80   13.84
   2   2   9  223.04   15.18
   2   2   9  297.19   23.95
  -2  -2  -9  258.21   15.97
  -2  -2  -9  253.18   23.54
   2   2  10  268.85   28.23
   2   2  10  264.90   29.09
   2   2  11  101.05   33.99
   2   2  12  144.78   38.90
   2   2  12   90.21   35.94
   2   2  13   69.79   46.45
   2   2  13   61.40   40.81
  -2  -3  11  426.80   41.16
  -2  -3  11  330.92   84.14
  -2  -3  10  694.43   38.31
  -2  -3  10  682.72   41.36
  -2  -3   9  489.92   30.65
  -2  -3   9  537.93   36.49
  -2  -3   8  869.50   36.63
  -2  -3   8  847.77   54.95
  -2  -3   7 1317.91   28.12
  -2  -3   7 1350.36   34.30
  -2  -3   7 1086.72   12.70
   2   3  -6 1903.96   80.81
  -2  -3   6 2052.09   57.14
  -2  -3   6 1692.64   18.80
   2   3  -5 1278.24   24.28
  -2  -3   5 1403.57   27.00
  -2  -3   5 1199.94   18.57
   2   3  -4  345.26   12.16
   2   3  -4  481.61   31.81
  -2  -3   4  471.67   16.52
  -2  -3   4  555.14   20.26
   2   3  -3  389.22    7.80
   2   3  -3  471.73   14.11
  -2  -3   3  521.97   10.63
  -2  -3   3  515.87   14.99
   2   3  -2 1114.79   24.14
   2   3  -2 1001.60   10.83
  -2  -3   2 1306.96   13.69
  -2  -3   2 1110.99   14.02
   2   3  -1   77.38    7.44
   2   3  -1   75.31    7.34
  -2  -3   1   88.05    7.54
  -2  -3   1   93.39   16.69
   2   3   0   22.31    7.51
   2   3   0   21.75   13.80
  -2  -3   0   36.59   13.20
  -2  -3   0   33.72   16.38
   2   3   1 3291.48   18.92
   2   3   1 3438.33   17.71
  -2  -3  -1 3248.22   18.88
  -2  -3  -1 3370.88   17.10
   2   3   2 1395.40   13.87
   2   3   2 1221.42   11.20
  -2  -3  -2 1356.65   13.40
  -2  -3  -2 1374.57   11.71
   2   3   3 3225.69   27.69
   2   3   3 3077.48   18.99
  -2  -3  -3 2852.19   17.90
  -2  -3  -3 2928.43   16.85
   2   3   4 3236.52   29.16
   2   3   4 3775.30   31.07
  -2  -3  -4 3256.63   19.03
   2   3   5 1451.92   24.46
   2   3   5 1345.77   26.87
  -2  -3  -5 1223.24   22.36
  -2  -3  -5 1184.93   15.49
   2   3   6  572.67   22.13
   2   3   6  475.27   14.90
  -2  -3  -6  435.33   10.64
  -2  -3  -6  461.93   14.21
   2   3   7  598.16   13.51
  -2  -3  -7  597.71   19.53
  -2  -3  -7  532.71   22.17
   2   3   8 1013.75   24.25
   2   3   8 1135.10   27.85
  -2  -3  -8  845.82   13.68
   2   3   9 1775.40   20.42
   2   3   9 1590.34   31.13
  -2  -3  -9 1485.67   18.12
  -2  -3  -9 1460.12   29.20
   2   3  10  745.58   32.06
   2   3  10  560.80   12.43
  -2  -3 -10  620.02   28.14
  -2  -3 -10  554.59   21.48
   2   3  11   33.50   17.12
   2   3  11   92.53   32.48
  -2  -3 -11  101.92   20.96
  -2  -3 -11   77.95   31.22
   2   3  12  101.09   38.64
   2   3  12   36.10   37.81
   2   3  13   47.15   43.38
   2   3  13   73.14   87.06
  -2  -4  11  176.92   91.03
  -2  -4  11  216.94   84.98
  -2  -4  10   52.69   32.29
  -2  -4  10  128.73   33.71
  -2  -4  10  110.16   82.44
  -2  -4   9  122.40   30.62
  -2  -4   9  157.55   74.14
  -2  -4   8  507.31   56.45
  -2  -4   8  513.68   70.87
   2   4  -7  179.40   25.84
   2   4  -7  489.76   29.06
  -2  -4   7  554.37   12.12
  -2  -4   7  588.98   33.62
   2   4  -6 1089.06   26.99
   2   4  -6  825.76   10.97
  -2  -4   6 1155.73   17.25
  -2  -4   6 1479.52   63.43
  -2  -4   6 1179.09   24.42
   2   4  -5  977.25   18.82
   2   4  -5 1135.58   24.51
  -2  -4   5 1205.62   14.55
  -2  -4   5 1464.56   53.17
  -2  -4   5 1286.23   14.24
   2   4  -4 1256.22   21.30
   2   4  -4 1048.10   11.85
  -2  -4   4 1272.51   14.33
  -2  -4   4 1440.38   18.73
   2   4  -3 1353.96   18.53
   2   4  -3 1412.52   14.55
  -2  -4   3 1620.54   16.96
  -2  -4   3 1604.98   34.01
  -2  -4   3 1643.89   12.16
   2   4  -2 5125.10   25.83
   2   4  -2 4714.60   27.81
  -2  -4   2 5204.97   26.01
  -2  -4   2 4915.94   27.36
   2   4  -1  617.20   13.29
   2   4  -1  541.05   13.15
  -2  -4   1  515.12   12.83
  -2  -4   1  391.25   10.27
   2   4   0   -0.46    8.08
   2   4   0   51.59    9.88
   2   4   0   54.79   21.54
  -2  -4   0   51.04    9.68
   2   4   1  230.81   21.02
   2   4   1  268.77   11.11
  -2  -4  -1  263.69   11.76
  -2  -4  -1  282.67   10.81
   2   4   2  184.70   21.07
   2   4   2  168.41    9.99
  -2  -4  -2  134.37   11.21
  -2  -4  -2  143.74    9.79
   2   4   3  646.33   24.28
   2   4   3  641.35   13.65
  -2  -4  -3  584.32   21.85
  -2  -4  -3  677.53   14.96
   2   4   4  467.45   13.21
   2   4   4  450.62   12.77
  -2  -4  -4  423.41   12.68
  -2  -4  -4  446.32   12.32
   2   4   5  181.30   12.45
   2   4   5  169.39   13.10
  -2  -4  -5  175.06   11.57
  -2  -4  -5  164.00   12.18
   2   4   6  326.03   13.50
  -2  -4  -6  284.15   14.15
  -2  -4  -6  344.77   26.94
   2   4   7  604.06   15.86
   2   4   7  576.65   35.13
  -2  -4  -7  555.03   15.12
   2   4   8 1032.93   24.99
  -2  -4  -8 1035.59   25.99
  -2  -4  -8  971.70   18.59
   2   4   9 1947.91   33.97
  -2  -4  -9 1842.71   31.64
  -2  -4  -9 1746.91   35.67
   2   4  10 1021.23   42.47
   2   4  10  919.34   33.42
  -2  -4 -10  908.76   21.63
  -2  -4 -10  797.38   29.31
   2   4  11   42.28   33.57
   2   4  11   37.74   11.29
  -2  -4 -11   74.04   18.98
  -2  -4 -11   53.06   57.47
   2   4  12  526.86   41.87
  -2  -4 -12  430.24   37.94
   2   4  13  109.76   46.30
   2   4  13   91.62   43.42
  -2  -5  11  117.09   37.99
  -2  -5  11  133.13   34.16
  -2  -5  11  191.62   92.69
  -2  -5  10  118.32   69.45
  -2  -5  10  151.64   84.30
  -2  -5  10  225.71   58.67
  -2  -5   9  191.58   33.92
  -2  -5   9  192.58   40.81
  -2  -5   9  202.79   25.12
   2   5  -8  207.90   32.95
   2   5  -8  218.40   33.36
  -2  -5   8  357.66   42.45
  -2  -5   8  272.33   24.31
  -2  -5   8  225.98   18.72
   2   5  -7   68.05    8.66
   2   5  -7  104.15   27.09
  -2  -5   7  119.45   14.95
  -2  -5   7  129.10   13.68
  -2  -5   7  135.53   70.43
   2   5  -6    6.90   22.73
   2   5  -6   11.56   16.88
  -2  -5   6   12.19   28.69
  -2  -5   6    9.13   27.42
  -2  -5   6    8.34   22.08
   2   5  -5   83.29   19.30
   2   5  -5   42.67    9.31
  -2  -5   5   73.15   23.26
  -2  -5   5   74.12   25.23
  -2  -5   5   72.70   16.43
   2   5  -4  440.88   19.85
   2   5  -4  408.94   12.98
  -2  -5   4  472.99   15.00
  -2  -5   4  506.43   42.40
   2   5  -3 1669.34   32.85
   2   5  -3 1418.43   21.98
  -2  -5   3 1508.22   37.31
  -2  -5   3 1473.80   19.20
   2   5  -2 3395.45   25.05
   2   5  -2 3075.94   25.99
  -2  -5   2 3336.20   24.43
  -2  -5   2 2601.21   20.68
   2   5  -1 1110.75   19.25
   2   5  -1 1102.41   17.45
   2   5  -1  929.40    9.19
  -2  -5   1 1018.72   16.39
  -2  -5   1 1032.74   27.74
   2   5   0 1043.89   28.69
   2   5   0 1216.44   33.75
  -2  -5   0 1035.25   29.27
  -2  -5   0 1025.04   16.46
   2   5   1  804.30   15.67
   2   5   1  772.64   15.25
  -2  -5  -1  845.65   15.81
  -2  -5  -1  794.10   28.86
   2   5   2 1609.46   32.10
   2   5   2 1405.28   18.17
  -2  -5  -2 1444.77   18.91
  -2  -5  -2 1586.54   19.21
   2   5   3  697.57   28.05
   2   5   3  642.64   15.68
  -2  -5  -3  706.89   29.63
  -2  -5  -3  811.41   18.26
   2   5   4  140.20   14.50
   2   5   4  143.41   14.34
  -2  -5  -4  152.83   14.53
  -2  -5  -4  156.28   13.32
   2   5   5  138.67   15.67
   2   5   5  120.66   14.23
  -2  -5  -5  159.67   16.33
  -2  -5  -5  121.47   14.19
   2   5   6  291.36   33.29
   2   5   6  306.39   16.53
  -2  -5  -6  274.85   16.59
  -2  -5  -6  271.08   16.53
   2   5   7  225.56   19.73
   2   5   7  236.09   18.15
  -2  -5  -7  210.10   33.74
  -2  -5  -7  250.60   34.40
   2   5   8  275.06   44.48
   2   5   8  300.83   38.50
  -2  -5  -8  241.26   19.39
   2   5   9  245.70   21.53
   2   5   9  228.25   26.67
  -2  -5  -9  152.82   18.17
  -2  -5  -9  165.75   26.24
   2   5  10  346.38   24.20
   2   5  10  313.13   58.04
  -2  -5 -10  277.29   19.38
   2   5  11  176.46   38.19
   2   5  11  176.62   32.91
  -2  -5 -11  193.64   39.64
  -2  -5 -11  152.84   30.13
   2   5  12  439.32   40.69
  -2  -5 -12  421.79   38.48
  -2  -6  10  496.99   41.85
  -2  -6  10  562.48   98.86
   2   6  -9  454.79   44.60
  -2  -6   9  470.31   45.46
  -2  -6   9  435.69   50.70
   2   6  -8  270.51   32.32
   2   6  -8  227.26   27.36
  -2  -6   8  407.10   44.19
  -2  -6   8  304.67   34.34
  -2  -6   8  365.61   43.29
   2   6  -7   33.41   12.51
   2   6  -7   43.76   56.00
  -2  -6   7   68.10   18.40
  -2  -6   7   35.82   35.60
  -2  -6   7   54.98   21.75
   2   6  -6   17.74   29.19
   2   6  -6   40.54   12.30
  -2  -6   6   49.16   17.64
  -2  -6   6   35.71   60.08
  -2  -6   6   72.35   21.79
   2   6  -5   18.99   14.01
   2   6  -5   -0.45   24.08
  -2  -6   5   -1.88   16.42
  -2  -6   5   11.09   25.69
  -2  -6   5   24.37   12.03
   2   6  -4  348.29   32.33
   2   6  -4  291.46   41.90
  -2  -6   4  309.54   17.19
  -2  -6   4  337.22   23.28
   2   6  -3  938.53   19.55
   2   6  -3  946.46   24.15
  -2  -6   3  935.43   19.69
  -2  -6   3  796.02   18.34
   2   6  -2  443.54   17.47
   2   6  -2  457.22   38.39
  -2  -6   2  391.34   17.28
   2   6  -1  140.87   29.88
   2   6  -1  124.70   10.93
   2   6  -1  125.60   18.68
  -2  -6   1  103.61   15.60
  -2  -6   1  122.53   16.36
   2   6   0  116.71   14.72
   2   6   0   -8.83   13.60
   2   6   0  127.70   17.52
  -2  -6   0  153.89   14.88
  -2  -6   0  145.66   16.68
   2   6   1  714.58   18.51
   2   6   1    8.04   22.75
   2   6   1  660.08   15.98
  -2  -6  -1  843.58   19.29
  -2  -6  -1  808.95   20.50
   2   6   2   -1.47   25.48
   2   6   2  587.90   17.96
  -2  -6  -2  607.23   33.30
  -2  -6  -2  615.30   20.41
   2   6   3 1242.02   22.44
   2   6   3 1294.81   39.02
  -2  -6  -3 1231.62   38.77
   2   6   4 1702.04   25.13
   2   6   4 1671.12   24.16
  -2  -6  -4 1634.38   24.98
  -2  -6  -4 1582.65   23.35
   2   6   5  556.51   37.43
   2   6   5  622.98   44.01
  -2  -6  -5  491.68   20.75
   2   6   6  229.04   20.07
   2   6   6  283.98   22.39
  -2  -6  -6  249.95   19.99
   2   6   7  132.77   25.21
   2   6   7   91.45   20.30
  -2  -6  -7   83.86   21.81
  -2  -6  -7   74.87   19.66
   2   6   8  427.61   25.56
   2   6   8  369.18   25.58
  -2  -6  -8  450.86   23.91
  -2  -6  -8  422.63   27.28
   2   6   9  100.15   50.05
   2   6   9   40.73   27.53
  -2  -6  -9   17.94   43.20
  -2  -6  -9   27.96   23.39
   2   6  10  187.23   24.77
  -2  -6 -10  161.89   30.27
  -2  -6 -10  143.28   22.66
   2   6  11  230.37   28.92
  -2  -6 -11  154.58   32.19
  -2  -6 -11  165.49   24.67
   2   6  12   78.10   41.94
  -2  -6 -12   75.81   35.42
   2   7  -9  329.52   48.11
  -2  -7   9  290.51   47.53
   2   7  -8  387.04   40.03
   2   7  -8  367.19   37.32
  -2  -7   8  406.34   24.78
  -2  -7   8  484.44   45.55
   2   7  -7  416.18   67.56
   2   7  -7  307.47   18.47
  -2  -7   7  398.81   24.10
  -2  -7   7  432.48   42.62
   2   7  -6  172.96   19.16
   2   7  -6  160.95   28.00
  -2  -7   6  232.69   22.32
  -2  -7   6  224.07   35.06
   2   7  -5  332.27   28.78
   2   7  -5  299.09   19.83
  -2  -7   5  394.53   34.22
  -2  -7   5  402.93   45.04
   2   7  -4  661.44   30.01
   2   7  -4  673.73   22.79
  -2  -7   4  567.79   23.62
  -2  -7   4  680.16   45.62
   2   7  -3  400.08   20.51
   2   7  -3  460.15   52.43
  -2  -7   3  392.34   22.81
   2   7  -2  148.07   24.65
   2   7  -2  157.46   20.51
   2   7  -2  137.94   15.13
  -2  -7   2  157.49   19.58
  -2  -7   2  148.41   38.01
   2   7  -1  181.78   19.71
   2   7  -1  193.44   15.72
   2   7  -1  245.70   27.26
  -2  -7   1  158.88   18.32
  -2  -7   1  197.04   20.17
   2   7   0   -1.59   11.92
   2   7   0  204.88   21.01
   2   7   0  192.01   19.48
  -2  -7   0  167.52   16.93
   2   7   1  169.26   38.12
   2   7   1  185.35   21.26
   2   7   1   30.73   15.20
  -2  -7  -1  159.17   18.68
   2   7   2  565.55   42.70
   2   7   2   -8.78   49.70
   2   7   2  548.33   21.58
  -2  -7  -2  538.94   21.02
  -2  -7  -2  542.25   23.27
   2   7   3  419.05   43.17
   2   7   3  454.89   23.14
  -2  -7  -3  402.33   23.27
  -2  -7  -3  393.51   22.49
   2   7   4  390.64   23.60
   2   7   4  393.81   24.36
  -2  -7  -4  395.81   21.85
  -2  -7  -4  553.28   48.72
   2   7   5  529.48   45.32
   2   7   5  575.43   26.68
  -2  -7  -5  553.64   26.12
  -2  -7  -5  492.82   23.24
   2   7   6  240.17   28.31
   2   7   6  217.33   23.53
  -2  -7  -6  230.39   26.21
  -2  -7  -6  184.40   23.18
   2   7   7  588.78   29.72
   2   7   7  479.10   27.61
  -2  -7  -7  506.27   28.09
  -2  -7  -7  451.85   25.12
   2   7   8  454.56   32.04
   2   7   8  382.22   28.29
  -2  -7  -8  371.86   26.77
  -2  -7  -8  328.16   24.18
   2   7   9  232.46   30.02
   2   7   9  151.33   28.88
  -2  -7  -9  243.48   31.81
  -2  -7  -9  138.56   27.19
   2   7  10  219.40   33.31
   2   7  10  144.19   32.12
  -2  -7 -10  179.49   30.32
  -2  -7 -10  118.96   29.66
   2   7  11  333.84   67.88
   2   7  11  283.01   74.96
  -2  -7 -11  280.86   57.20
  -2  -7 -11  261.41   39.02
   2   8  -8  106.93   80.16
   2   8  -8  122.84   23.70
  -2  -8   8  242.09   60.86
  -2  -8   8  168.68   51.59
   2   8  -7   94.87   19.39
   2   8  -7  114.54   42.04
  -2  -8   7  161.93   31.41
  -2  -8   7  112.71   42.25
   2   8  -6  128.12   24.16
   2   8  -6  126.90   36.64
  -2  -8   6  118.69   28.07
  -2  -8   6  114.80   31.10
   2   8  -5  418.79   28.00
   2   8  -5  366.68   36.33
  -2  -8   5  408.52   27.89
  -2  -8   5  462.48   36.51
   2   8  -4 1099.65   56.48
   2   8  -4  884.58   36.46
  -2  -8   4  967.48   30.83
  -2  -8   4  850.73   32.49
   2   8  -3 1130.70   57.86
   2   8  -3 1035.87   37.10
  -2  -8   3  987.19   55.53
  -2  -8   3 1008.32   31.40
   2   8  -2   57.31   26.22
   2   8  -2  134.60   31.98
  -2  -8   2   82.18   25.94
  -2  -8   2   66.04   22.25
   2   8  -1  520.33   26.78
   2   8  -1  512.31   22.22
   2   8  -1  492.96   28.49
  -2  -8   1  431.37   23.10
  -2  -8   1  553.61   26.85
   2   8   0  592.68   27.15
   2   8   0  471.43   11.99
   2   8   0  493.54   24.37
  -2  -8   0  434.48   21.42
  -2  -8   0  562.28   26.91
   2   8   1   57.89   36.29
   2   8   1   52.60   42.80
  -2  -8  -1   51.54   24.56
  -2  -8  -1   34.62   20.32
   2   8   2  131.63   40.46
   2   8   2   10.10   19.65
  -2  -8  -2  158.30   25.99
  -2  -8  -2  129.94   21.67
   2   8   3   43.46   24.08
   2   8   3  111.47   25.84
   2   8   3  104.04   26.59
  -2  -8  -3  102.86   24.73
  -2  -8  -3  140.64   54.31
   2   8   4   19.35   21.42
   2   8   4   57.62   26.55
   2   8   4   54.19   28.12
  -2  -8  -4   62.28   28.66
  -2  -8  -4   69.73   47.99
   2   8   5  314.68   31.16
   2   8   5    6.78   31.83
   2   8   5  305.20   57.63
  -2  -8  -5  243.00   52.75
  -2  -8  -5  281.06   59.57
   2   8   6   93.89   51.59
   2   8   6  105.58   27.56
   2   8   6  109.65   34.25
  -2  -8  -6   98.79   29.20
  -2  -8  -6   97.03   52.86
   2   8   7   88.37   27.64
   2   8   7  233.59   75.57
  -2  -8  -7  113.42   28.61
   2   8   8  238.07   74.67
   2   8   8  123.02   30.34
  -2  -8  -8   98.55   29.59
  -2  -8  -8   73.33   29.74
   2   8   9  394.49   85.72
   2   8   9  170.16   35.70
  -2  -8  -9  190.65   29.07
  -2  -8  -9  134.83   31.16
   2   8  10  427.60   40.98
   2   8  10  481.82   76.21
  -2  -8 -10  402.30   68.57
  -2  -8 -10  528.37   70.08
   2   9  -7   40.28   49.41
   2   9  -7   34.35   41.16
  -2  -9   7   77.35   37.06
  -2  -9   7   58.92   50.11
   2   9  -6  160.61   84.30
   2   9  -6   97.25   29.73
  -2  -9   6  153.17   36.99
  -2  -9   6   83.89   42.77
   2   9  -5   60.43   36.23
   2   9  -5  124.96   70.68
  -2  -9   5  117.97   37.01
   2   9  -4  399.47   70.45
   2   9  -4  322.49   45.64
  -2  -9   4  228.35   30.53
  -2  -9   4  198.38   33.33
   2   9  -3  534.55   70.86
   2   9  -3  438.34   38.31
  -2  -9   3  398.03   60.98
  -2  -9   3  413.03   34.97
   2   9  -2  208.19   37.42
   2   9  -2  201.98   33.15
  -2  -9   2  153.76   31.11
  -2  -9   2  179.72   50.87
   2   9  -1 1128.12   66.97
   2   9  -1  822.31   16.02
  -2  -9   1  996.06   35.80
  -2  -9   1  686.97   26.20
   2   9   0  492.50   56.47
   2   9   0  607.74   32.68
   2   9   0  456.25   14.77
  -2  -9   0  473.82   26.64
   2   9   1   20.93   35.82
   2   9   1  631.21   32.87
   2   9   1  628.31   57.38
  -2  -9  -1  506.15   25.67
   2   9   2  100.35   51.47
   2   9   2  414.17   29.09
   2   9   2  451.20   33.51
  -2  -9  -2  419.01   32.46
   2   9   3  343.91   38.70
   2   9   3   44.97   31.04
   2   9   3  222.74   28.68
  -2  -9  -3  198.00   28.35
  -2  -9  -3  221.29   32.93
   2   9   4  230.42   60.34
   2   9   4  209.50   34.72
   2   9   4  152.74   73.15
  -2  -9  -4  178.66   57.35
  -2  -9  -4  187.13   33.63
   2   9   5  202.95   33.26
   2   9   5  146.78   86.83
   2   9   5  341.72   81.73
  -2  -9  -5  225.60   33.22
  -2  -9  -5  211.60   62.52
   2   9   6  106.66   41.60
   2   9   6   78.44   48.43
   2   9   6   76.76   32.27
  -2  -9  -6  109.50   33.24
  -2  -9  -6  108.09   33.69
   2   9   7   93.14   46.93
   2   9   7  101.42   48.91
   2   9   7   14.53   33.90
  -2  -9  -7   -3.43   34.25
  -2  -9  -7   -8.95   33.76
   2   9   8   91.26   50.20
   2   9   8  191.78   94.47
   2   9   8   53.03   36.61
  -2  -9  -8   37.66   34.93
  -2  -9  -8   -5.96   31.83
   2  10  -5   59.89   42.31
   2  10  -5   87.30   39.18
  -2 -10   5   51.26   44.23
  -2 -10   5  188.93   85.36
   2  10  -4   49.61   42.50
   2  10  -4   86.62   39.47
  -2 -10   4  105.44   76.10
  -2 -10   4  158.56   79.24
   2  10  -3  127.25   40.56
  -2 -10   3  103.18   36.30
  -2 -10   3   68.10   65.39
   2  10  -2  116.41   69.90
   2  10  -2  203.55   45.65
  -2 -10   2   92.65   71.22
  -2 -10   2   87.96   28.27
   2  10  -1  451.42   36.90
   2  10  -1  498.21   40.04
   2  10  -1  402.01   32.99
  -2 -10   1  510.73   37.34
  -2 -10   1  376.84   58.65
   2  10   0  256.07   80.63
   2  10   0  189.51   37.36
   2  10   0  178.33   36.08
  -2 -10   0  127.58   27.64
  -2 -10   0  187.56   35.70
   2  10   1  284.33   36.87
   2  10   1  185.30   17.23
   2  10   1  268.07   63.72
  -2 -10  -1  233.98   36.89
  -2 -10  -1  177.28   54.91
   2  10   2   55.59   43.32
   2  10   2  301.22   33.99
   2  10   2  255.38   37.64
  -2 -10  -2  252.84   36.23
   2  10   3  250.44   80.01
   2  10   3   89.44   63.41
   2  10   3  172.75   28.86
  -2 -10  -3  225.68   32.54
  -2 -10  -3  243.66   37.37
   2  10   4  767.26   86.76
   2  10   4  597.41   36.82
   2  10   4  119.05   78.10
  -2 -10  -4  655.09   78.57
  -2 -10  -4  662.49   36.98
   2  10   5  590.19   48.04
   2  10   5   91.01   50.01
  -2 -10  -5  447.09   41.28
  -2 -10  -5  431.58   74.06
   2  10   6  115.87   49.81
   2  10   6  238.82   78.51
   2  10   6  205.03   50.17
  -2 -10  -6  202.89   39.66
  -2 -10  -6  213.66   40.59
   2  10   7   22.33   80.39
   2  10   7  124.39   53.85
  -2 -10  -7   39.22   36.82
  -2 -10  -7   14.80   41.52
   2  11  -2  312.07   46.34
   2  11  -2  186.56   39.68
  -2 -11   2  251.70   42.23
  -2 -11   2  181.01   34.13
   2  11  -1  290.47   92.45
   2  11  -1  184.23   77.74
  -2 -11   1  182.57   70.11
  -2 -11   1  215.34   44.01
   2  11   0   71.71   43.85
   2  11   0  128.88   37.43
  -2 -11   0  100.13   43.31
  -2 -11   0   76.20   30.68
   2  11   1   61.15   72.17
   2  11   1   97.24   53.64
  -2 -11  -1   38.21   63.59
  -2 -11  -1   55.32   43.41
   2  11   2   31.41   44.96
   2  11   2   31.87   26.44
   2  11   2   36.80   40.09
  -2 -11  -2   39.61   34.68
  -2 -11  -2   48.18   43.18
   2  11   3  222.33   79.35
   2  11   3  217.13   48.44
   2  11   3   51.76   55.39
  -2 -11  -3  186.74   70.72
  -2 -11  -3  146.90   44.78
   2  11   4    7.69   41.06
   2  11   4  461.38   37.85
   2  11   4  606.78   53.51
  -2 -11  -4  491.19   39.72
  -2 -11  -4  622.80   90.20
   3  -9  -1   91.45   33.81
   3  -9  -1  104.15   39.40
  -3   9   1  155.17   40.41
  -3   9   1   96.90   74.98
  -3   9   1  170.03   73.45
   3  -9   0  122.75   39.75
   3  -9   0  100.92   71.64
  -3   9   0  126.19   33.78
  -3   9   0   97.17   34.98
  -3   9   0   97.00   36.90
   3  -9   1  133.54   40.21
   3  -9   1  165.37   36.70
  -3   9  -1  124.62   36.13
  -3   9  -1  109.76   37.34
  -3   9  -1  150.38   73.66
   3  -9   2  269.05   36.13
   3  -9   2  310.77   41.43
  -3   9  -2  288.83   36.11
  -3   9  -2  346.53   43.91
  -3   9  -2  273.41   39.12
   3  -9   3  277.67   39.35
   3  -9   3  250.97   42.72
  -3   9  -3  260.76   35.13
  -3   9  -3  229.06   40.10
  -3   9  -3  248.34   40.34
   3  -8  -4  141.15   39.25
   3  -8  -4  145.78   77.31
  -3   8   4  174.10   72.84
  -3   8   4  136.89   36.89
  -3   8   4  168.52   37.68
   3  -8  -3  128.42   36.19
   3  -8  -3   99.76   37.16
  -3   8   3   86.50   41.03
  -3   8   3   96.70   35.02
  -3   8   3  102.40   32.24
   3  -8  -2   56.70   34.92
   3  -8  -2   49.65   66.56
  -3   8   2  122.60   56.88
  -3   8   2   35.81   26.99
  -3   8   2   68.26   32.30
   3  -8  -1   75.58   29.48
   3  -8  -1  128.57   71.70
  -3   8   1  127.22   37.78
  -3   8   1   65.34   30.00
  -3   8   1  100.97   33.22
   3  -8   0   48.10   30.05
   3  -8   0   25.38   65.60
  -3   8   0   52.13   28.38
  -3   8   0   71.04   31.71
  -3   8   0   66.38   33.00
   3  -8   1   22.99   28.77
   3  -8   1  112.69   73.05
  -3   8  -1   29.66   29.85
  -3   8  -1   52.81   31.05
  -3   8  -1   47.19   34.05
   3  -8   2  -25.20   34.99
   3  -8   2   -2.13   30.17
  -3   8  -2   -6.90   29.48
  -3   8  -2   -3.87   33.76
  -3   8  -2   62.50   65.33
   3  -8   3   65.80   33.55
   3  -8   3   64.49   36.30
   3  -8   3   72.60   31.71
  -3   8  -3   70.96   35.65
  -3   8  -3   62.01   34.99
  -3   8  -3   28.67   30.08
   3  -8   4  323.93   34.14
   3  -8   4   60.41   32.92
   3  -8   4  388.37   76.96
  -3   8  -4  363.76   41.75
  -3   8  -4  335.56   72.58
  -3   8  -4  301.46   65.45
   3  -8   5  511.04   39.32
   3  -8   5  595.10   42.38
   3  -8   5  -71.11  119.35
  -3   8  -5  510.81   43.84
  -3   8  -5  455.14   37.66
  -3   8  -5  392.16   36.25
   3  -8   6  566.19   82.20
   3  -8   6  131.91  108.72
   3  -8   6  568.30   41.47
  -3   8  -6  489.76   38.75
  -3   8  -6  464.60   42.84
   3  -8   7   47.66   52.36
   3  -8   7  116.14   41.38
   3  -8   7  122.01   42.17
  -3   8  -7  128.49   46.15
  -3   8  -7   59.40   76.95
   3  -7  -6  372.98   39.71
   3  -7  -6  354.65   32.25
  -3   7   6    6.57   56.86
  -3   7   6  402.41   39.14
  -3   7   6  378.04   67.13
   3  -7  -5  194.12   38.13
   3  -7  -5  175.93   31.73
  -3   7   5  -21.76   49.20
  -3   7   5  214.85   40.07
  -3   7   5  121.01   58.37
   3  -7  -4  395.29   37.50
   3  -7  -4  395.97   33.37
  -3   7   4  179.05   74.65
  -3   7   4  299.90   31.33
  -3   7   4  428.25   66.25
   3  -7  -3  427.54   32.78
   3  -7  -3  443.91   35.08
  -3   7   3   -0.68   48.38
  -3   7   3  476.07   35.16
  -3   7   3  375.02   31.03
   3  -7  -2  395.56   62.64
  -3   7   2  395.85   31.36
  -3   7   2  102.11   35.46
  -3   7   2  455.73   33.40
   3  -7  -1  606.64   31.61
   3  -7  -1  792.59   57.86
  -3   7   1  633.63   28.97
  -3   7   1  667.12   60.13
  -3   7   1   11.17   72.37
   3  -7   0  255.68   29.44
  -3   7   0  258.78   27.81
  -3   7   0  301.81   27.52
   3  -7   1    5.51   23.14
   3  -7   1   70.05   33.52
  -3   7  -1   14.85   25.60
  -3   7  -1   16.32   25.06
  -3   7  -1   41.12   27.48
   3  -7   2   93.12   26.34
   3  -7   2  -15.12   21.89
   3  -7   2  125.45   60.17
  -3   7  -2   96.51   28.64
  -3   7  -2   83.91   58.08
   3  -7   3   -7.27   59.93
   3  -7   3   77.79   52.37
   3  -7   3   58.53   32.34
  -3   7  -3   61.12   31.16
  -3   7  -3   66.51   27.28
   3  -7   4  102.30   29.89
   3  -7   4  109.96   33.85
   3  -7   4   17.56   32.65
  -3   7  -4   90.67   35.17
  -3   7  -4   91.86   32.30
  -3   7  -4   74.00   29.17
   3  -7   5  -37.92   36.83
   3  -7   5  292.92   33.41
   3  -7   5  280.05   35.38
  -3   7  -5  267.82   35.98
  -3   7  -5  296.53   66.16
  -3   7  -5  310.29   66.93
   3  -7   6  130.22   46.38
   3  -7   6   36.79   33.41
   3  -7   6  138.61   38.35
  -3   7  -6   42.55   31.94
   3  -7   7   11.06   34.75
   3  -7   7   76.69   46.50
   3  -7   7   12.70   68.91
  -3   7  -7   34.72   31.81
  -3   7  -7   54.68   78.66
   3  -7   8  297.74   76.21
   3  -7   8  257.87   32.53
   3  -7   8  402.94  120.40
  -3   7  -8  236.24   68.71
  -3   7  -8  252.40   38.79
   3  -7   9    0.27   49.95
   3  -7   9  325.76   77.60
   3  -7   9  188.43   40.64
  -3   7  -9  152.55   42.46
  -3   7  -9  203.64   34.73
   3  -6  -8   81.39   35.28
   3  -6  -8   25.06   72.67
  -3   6   8   42.78   64.48
  -3   6   8   47.38   37.63
  -3   6   8   95.33   36.21
   3  -6  -7   42.85   31.75
   3  -6  -7   63.63   32.14
  -3   6   7  103.64   65.87
  -3   6   7  168.55   66.89
  -3   6   7   -6.65  113.24
   3  -6  -6  115.70   35.59
   3  -6  -6   53.45   26.28
  -3   6   6    0.39   51.96
  -3   6   6  109.15   32.54
   3  -6  -5  129.92   32.07
   3  -6  -5  120.60   52.21
  -3   6   5   40.39   44.99
  -3   6   5  153.43   27.52
  -3   6   5   93.29   26.71
   3  -6  -4  158.43   26.30
   3  -6  -4  194.11   62.50
  -3   6   4  142.04   51.32
  -3   6   4  -30.98   85.69
  -3   6   4  179.62   53.73
   3  -6  -3  274.21   31.23
   3  -6  -3  256.60   49.52
  -3   6   3   20.41   50.58
  -3   6   3  297.97   29.30
  -3   6   3  218.12   25.30
   3  -6  -2  776.67   53.36
   3  -6  -2  749.30   59.64
  -3   6   2   28.07   32.02
  -3   6   2  754.93   26.63
  -3   6   2  644.90   27.76
   3  -6  -1 1056.72   29.55
   3  -6  -1  915.44   30.52
  -3   6   1  895.35   29.06
  -3   6   1  977.60   47.99
  -3   6   1   69.19   65.23
   3  -6   0  982.47   30.58
   3  -6   0  998.41   27.09
  -3   6   0  919.60   29.16
  -3   6   0  998.93   26.19
  -3   6   0  105.73   52.74
   3  -6   1  339.58   40.83
   3  -6   1  383.88   27.70
  -3   6  -1  465.98   30.40
  -3   6  -1  414.54   48.19
  -3   6  -1  385.64   26.40
   3  -6   2  106.82   20.45
   3  -6   2    6.51   51.20
   3  -6   2  115.34   54.48
  -3   6  -2  136.48   24.59
  -3   6  -2  129.12   25.64
  -3   6  -2  164.17   26.13
   3  -6   3  274.34   30.19
   3  -6   3  305.22   30.93
   3  -6   3  231.34   24.38
  -3   6  -3  242.07   27.15
  -3   6  -3  276.91   26.92
   3  -6   4  793.27   30.42
   3  -6   4  966.50   64.81
   3  -6   4   39.30   56.40
  -3   6  -4  905.13   33.53
  -3   6  -4  800.30   30.63
  -3   6  -4  887.34   30.15
   3  -6   5  381.22   31.39
   3  -6   5   91.20   29.73
   3  -6   5  309.31   56.48
  -3   6  -5  354.32   30.72
  -3   6  -5  321.01   28.74
  -3   6  -5  357.33   30.49
   3  -6   6  146.96   28.11
   3  -6   6   47.46   72.99
   3  -6   6  148.66   30.19
  -3   6  -6  118.11   27.71
  -3   6  -6  176.98   34.20
   3  -6   7   74.92   29.87
   3  -6   7   70.27   29.15
   3  -6   7  108.34   28.92
  -3   6  -7  118.73   33.53
  -3   6  -7  100.78   58.91
   3  -6   8   36.08   56.37
   3  -6   8  120.44   59.39
   3  -6   8  -14.83   45.64
  -3   6  -8    7.25   35.70
  -3   6  -8   51.98   30.18
   3  -6   9   40.60   33.31
   3  -6   9  147.76   45.51
   3  -6   9  116.82   52.82
  -3   6  -9   86.71   69.40
  -3   6  -9  228.84   69.71
   3  -6  10  159.93   39.10
   3  -6  10  301.13   43.95
   3  -6  10  267.56   53.13
  -3   6 -10  163.28   37.44
  -3   6 -10  257.20   61.80
   3  -5  -9  268.73   38.89
   3  -5  -9  416.21   45.68
  -3   5   9  -27.06   51.11
  -3   5   9  311.42   73.87
  -3   5   9  271.32   62.26
   3  -5  -8  247.08   72.11
   3  -5  -8  264.51   67.05
  -3   5   8  -23.88   46.78
  -3   5   8  232.73   32.37
  -3   5   8  194.43   26.62
   3  -5  -7  287.34   57.76
   3  -5  -7  239.84   29.52
  -3   5   7  227.93   25.89
  -3   5   7  303.16   60.98
  -3   5   7    4.70   43.95
   3  -5  -6  162.61   25.57
   3  -5  -6  180.45   50.54
  -3   5   6    7.13   47.58
  -3   5   6  171.05   27.15
  -3   5   6  160.66   24.83
   3  -5  -5   -4.77   49.52
   3  -5  -5   -0.09   23.49
  -3   5   5   10.76   24.72
  -3   5   5    0.78   88.18
  -3   5   5   -3.27   21.78
   3  -5  -4   74.44   26.07
  -3   5   4   64.25   21.99
  -3   5   4   73.22   42.13
  -3   5   4   -2.24   79.31
   3  -5  -3   28.68   19.36
   3  -5  -3   25.03   24.78
  -3   5   3   34.60   20.08
  -3   5   3   71.08   70.92
   3  -5  -2  189.43   19.88
   3  -5  -2  212.98   25.65
  -3   5   2   -6.09   35.12
  -3   5   2  231.34   20.40
  -3   5   2  173.56   21.97
   3  -5  -1  492.26   21.86
   3  -5  -1  464.46   47.90
  -3   5   1  -10.52   22.51
  -3   5   1  399.56   19.65
  -3   5   1  443.75   24.22
   3  -5   0  144.87   36.90
   3  -5   0  137.73   46.00
   3  -5   0   -8.80   41.77
  -3   5   0  132.70   22.29
  -3   5   0   -1.72   24.31
  -3   5   0  165.35   34.90
   3  -5   1   79.59   16.77
   3  -5   1   30.20   43.79
   3  -5   1  104.03   45.59
  -3   5  -1  103.66   19.09
  -3   5  -1   79.40   22.32
  -3   5  -1  108.93   20.11
   3  -5   2  269.39   25.33
   3  -5   2  334.17   25.59
   3  -5   2  236.65   17.26
  -3   5  -2  283.93   21.36
  -3   5  -2  288.84   23.89
  -3   5  -2  304.71   45.30
   3  -5   3 2040.72   33.89
   3  -5   3 1805.45   31.49
   3  -5   3 1754.08   27.81
  -3   5  -3 1973.12   32.90
  -3   5  -3 1979.28   31.89
   3  -5   4 4665.70   48.07
   3  -5   4 3928.19   41.09
   3  -5   4 3905.35   64.46
  -3   5  -4 3868.85   38.84
  -3   5  -4 3828.90   39.91
  -3   5  -4 3965.61   67.29
   3  -5   5  622.63   25.58
   3  -5   5  530.18   49.75
   3  -5   5  646.99   49.47
  -3   5  -5  611.77   26.74
  -3   5  -5  651.62   53.11
  -3   5  -5  602.09   52.53
   3  -5   6  281.48   21.75
   3  -5   6  371.02   24.98
   3  -5   6   85.09   35.80
  -3   5  -6  332.02   25.38
  -3   5  -6  371.78   25.47
  -3   5  -6  370.55   29.78
   3  -5   7  109.30   51.47
   3  -5   7  150.30   57.84
   3  -5   7   86.51   20.37
  -3   5  -7   83.97   23.78
  -3   5  -7  104.08   24.50
   3  -5   8   46.36   26.60
   3  -5   8   59.44   57.01
   3  -5   8  131.66   48.68
  -3   5  -8   50.55   49.47
   3  -5   9  158.82   40.85
   3  -5   9  154.77   59.59
   3  -5   9  104.76   60.87
  -3   5  -9  108.81   28.56
  -3   5  -9   85.77   23.43
   3  -5  10   77.19   32.30
   3  -5  10   66.53   16.68
   3  -5  10   70.39   62.55
  -3   5 -10   66.73   34.00
  -3   5 -10  125.14   51.26
   3  -5  11   25.00   33.95
   3  -5  11   10.81   73.53
   3  -4  -9  257.95   63.96
   3  -4  -9  152.62   34.32
  -3   4   9  156.14   35.72
  -3   4   9  172.72   51.77
  -3   4   9  226.44  108.11
   3  -4  -8  850.82   33.71
  -3   4   8    4.00   86.45
  -3   4   8  613.00   48.34
   3  -4  -7  799.81   32.92
   3  -4  -7  730.84   52.34
  -3   4   7  -30.01   77.51
  -3   4   7  850.41   31.88
  -3   4   7  745.84   26.11
   3  -4  -6  412.92   24.92
  -3   4   6  370.53   21.87
  -3   4   6    2.54   34.87
  -3   4   6  490.26   25.90
   3  -4  -5  225.00   20.75
   3  -4  -5  214.29   39.66
  -3   4   5  275.36   24.98
  -3   4   5  249.99   39.20
  -3   4   5   32.34   72.93
   3  -4  -4  299.20   38.27
   3  -4  -4  294.59   41.82
  -3   4   4  271.59   40.27
  -3   4   4  308.36   20.12
  -3   4   4   11.21   38.14
   3  -4  -3  317.83   18.15
   3  -4  -3  332.25   21.33
  -3   4   3  334.18   20.26
  -3   4   3  338.88   38.12
  -3   4   3    5.73   65.56
   3  -4  -2  214.32   20.53
   3  -4  -2  171.88   30.25
  -3   4   2   27.07   27.17
  -3   4   2  165.94   16.06
  -3   4   2  205.81   18.51
   3  -4  -1    6.47   27.20
   3  -4  -1    9.57   19.45
  -3   4   1    8.86   16.69
  -3   4   1   29.43   29.96
  -3   4   1    2.21   23.08
   3  -4   0   -6.62   15.99
   3  -4   0   13.62   19.22
   3  -4   0   28.86   28.61
  -3   4   0   -5.61   27.96
  -3   4   0   29.31   16.52
  -3   4   0   27.26   28.05
   3  -4   1   71.42   17.95
   3  -4   1   72.07   14.44
   3  -4   1   60.40   19.20
  -3   4  -1   69.13   17.23
  -3   4  -1   79.51   34.81
   3  -4   2   75.26   19.83
   3  -4   2   76.81   17.70
   3  -4   2   77.62   13.88
  -3   4  -2   72.32   16.15
  -3   4  -2   66.13   17.58
  -3   4  -2   81.01   38.09
   3  -4   3  790.48   20.19
   3  -4   3  842.68   23.36
   3  -4   3 1018.60   26.13
  -3   4  -3  815.76   20.38
  -3   4  -3  787.87   21.44
  -3   4  -3  913.57   23.80
   3  -4   4 1021.27   22.48
   3  -4   4  973.32   20.76
   3  -4   4 1133.52   43.89
  -3   4  -4 1041.39   22.59
  -3   4  -4 1058.16   23.17
  -3   4  -4 1151.57   24.20
   3  -4   5  644.60   24.43
   3  -4   5  526.41   21.13
   3  -4   5  648.90   38.54
  -3   4  -5  618.49   23.38
  -3   4  -5  618.17   22.51
  -3   4  -5  523.81   35.95
   3  -4   6  586.12   18.57
   3  -4   6  666.19   22.97
   3  -4   6  708.22   46.48
  -3   4  -6  632.04   23.34
  -3   4  -6  820.05   24.97
  -3   4  -6  873.24   31.42
   3  -4   7  930.15   26.26
   3  -4   7  906.70   36.22
   3  -4   7  834.87   26.00
  -3   4  -7  948.14   28.09
  -3   4  -7 1071.06   25.27
   3  -4   8  705.77   51.85
   3  -4   8  649.05   28.62
  -3   4  -8  718.77   42.42
  -3   4  -8  553.95   26.23
   3  -4   9  702.86   34.65
   3  -4   9  627.98   31.06
  -3   4  -9  688.09   55.59
  -3   4  -9  756.40   43.61
   3  -4  10  109.09   62.02
   3  -4  10  150.90   28.87
   3  -4  10  120.82   25.77
  -3   4 -10  206.19   40.51
  -3   4 -10  148.62   29.70
   3  -4  11  142.91   36.40
   3  -4  11  154.95   59.09
   3  -4  11  192.67   63.93
   3  -4  12  177.37   33.86
   3  -4  12  164.61   41.68
   3  -4  12  202.61   38.06
  -3   3  10   16.89   32.59
  -3   3  10   72.39   41.14
   3  -3  -9   32.12   32.04
   3  -3  -9   80.43   43.82
  -3   3   9  -15.69   32.28
  -3   3   9   49.60   29.58
  -3   3   9   70.55   22.69
   3  -3  -8  475.83   49.03
   3  -3  -8  366.84   28.23
  -3   3   8  467.13   46.72
  -3   3   8  428.06   29.36
   3  -3  -7  519.84   25.18
  -3   3   7  425.86   19.94
  -3   3   7   -3.65   26.90
   3  -3  -6   46.52   42.52
   3  -3  -6    9.78   21.98
  -3   3   6   19.99   20.94
  -3   3   6   12.68   87.72
  -3   3   6    9.38   17.19
   3  -3  -5 1016.43   23.27
   3  -3  -5  961.72   39.71
  -3   3   5  -25.24   59.28
  -3   3   5 1102.51   24.11
  -3   3   5  950.67   21.35
   3  -3  -4  475.89   17.10
   3  -3  -4  501.66   19.67
  -3   3   4   18.84   26.45
  -3   3   4  569.23   35.83
  -3   3   4  473.11   33.23
   3  -3  -3  650.73   18.69
  -3   3   3  598.84   15.78
  -3   3   3  599.23   32.71
  -3   3   3    3.56   60.25
   3  -3  -2 2332.47   22.36
   3  -3  -2 2314.78   40.19
  -3   3   2 2214.57   33.38
  -3   3   2 2101.97   37.63
   3  -3  -1  789.18   24.68
   3  -3  -1  852.72   19.63
   3  -3  -1   65.84   36.80
  -3   3   1  765.37   17.42
  -3   3   1  850.05   26.40
  -3   3   1    0.91   25.59
   3  -3   0  181.79   15.59
   3  -3   0  252.55   37.65
   3  -3   0  177.29   11.74
  -3   3   0  163.21   11.88
  -3   3   0  116.21   24.94
  -3   3   0  146.46   27.55
   3  -3   1  176.63   15.43
   3  -3   1   -1.60   17.30
   3  -3   1  189.46   14.12
  -3   3  -1  189.55   12.48
  -3   3  -1  159.45   14.39
  -3   3  -1  205.68   30.07
   3  -3   2   88.42   11.33
   3  -3   2  115.32   17.09
   3  -3   2   58.15   28.51
  -3   3  -2  111.33   12.42
  -3   3  -2   77.07   14.39
  -3   3  -2  115.74   16.07
   3  -3   3   88.78   14.80
   3  -3   3   63.82   13.27
   3  -3   3   59.79   29.84
  -3   3  -3   73.64   11.68
  -3   3  -3   81.32   14.35
  -3   3  -3   79.02   14.68
   3  -3   4   45.25   13.51
   3  -3   4   57.99   13.90
   3  -3   4   55.74   14.59
  -3   3  -4   48.82   12.40
  -3   3  -4   48.62   14.28
  -3   3  -4   44.17   16.26
   3  -3   5   72.94   16.59
   3  -3   5   50.96   12.09
   3  -3   5   90.65   30.79
  -3   3  -5   80.34   18.45
  -3   3  -5   81.04   15.61
  -3   3  -5   84.28   30.56
   3  -3   6  240.68   19.07
   3  -3   6  307.03   20.60
   3  -3   6  245.06   25.53
  -3   3  -6  258.14   36.23
  -3   3  -6  292.96   31.64
   3  -3   7  327.28   24.67
   3  -3   7  391.41   21.40
  -3   3  -7  367.81   37.23
  -3   3  -7  484.90   18.80
   3  -3   8  597.87   25.18
   3  -3   8  634.60   48.75
  -3   3  -8  575.59   47.75
  -3   3  -8  718.90   36.59
   3  -3   9  606.48   26.32
   3  -3   9  580.45   23.45
   3  -3   9  674.36   29.89
  -3   3  -9  647.55   28.23
  -3   3  -9  718.51   18.95
   3  -3  10  235.06   29.30
   3  -3  10  278.84   27.25
   3  -3  10  255.77   50.82
  -3   3 -10  263.38   13.91
  -3   3 -10  320.01   35.95
   3  -3  11  511.07   29.77
   3  -3  11  570.31   34.27
   3  -3  11  547.55   33.28
   3  -3  12  313.28   31.21
   3  -3  12  313.42   38.02
   3  -3  12  353.76   36.41
  -3   2  11    0.92   35.86
  -3   2  11   28.30   43.75
  -3   2  11  -10.00   36.08
  -3   2  10   52.19   32.39
  -3   2  10   61.21   38.43
  -3   2  10   55.97   36.60
   3  -2  -9  203.50   32.12
   3  -2  -9  177.11   31.17
  -3   2   9  197.84   29.28
  -3   2   9  146.46   34.06
  -3   2   9   -4.12   27.43
   3  -2  -8  132.91   35.34
   3  -2  -8  103.63   24.91
  -3   2   8   -1.16   24.97
  -3   2   8  107.04   26.10
   3  -2  -7  153.39   35.88
   3  -2  -7  120.07   22.00
  -3   2   7  187.99   24.52
  -3   2   7  200.13   35.75
  -3   2   7   10.51   22.88
   3  -2  -6   88.66   19.06
   3  -2  -6  149.02   19.39
  -3   2   6  105.52   39.54
  -3   2   6  121.23   29.68
  -3   2   6   23.03   41.27
   3  -2  -5  278.14   18.34
   3  -2  -5  323.97   33.48
  -3   2   5   -4.19   19.45
  -3   2   5  283.30   17.43
  -3   2   5  238.79   13.97
   3  -2  -4  291.90   29.63
  -3   2   4  243.12   13.23
  -3   2   4    5.39   48.37
  -3   2   4  278.48   14.33
   3  -2  -3  869.85   14.53
   3  -2  -3  929.09   16.78
  -3   2   3   10.35   25.47
  -3   2   3  969.64   16.27
  -3   2   3  812.41   15.71
   3  -2  -2 1799.72   17.98
   3  -2  -2 1675.40   20.49
  -3   2   2 1514.38   18.58
  -3   2   2 1625.67   25.48
  -3   2   2   41.52   47.21
   3  -2  -1 1182.92   20.07
   3  -2  -1 1398.41   24.62
   3  -2  -1 1554.05   19.40
  -3   2   1 1536.74   14.25
  -3   2   1 1522.62   18.46
   3  -2   0 1353.62   13.16
   3  -2   0 1296.41   17.84
   3  -2   0 1732.73   40.41
  -3   2   0 1180.08   16.56
  -3   2   0 1388.57   22.53
   3  -2   1 1438.41   18.02
   3  -2   1 1414.39   17.82
  -3   2  -1 1554.46   18.86
  -3   2  -1 1408.58   17.57
   3  -2   2  796.39   20.48
   3  -2   2  649.60   24.37
   3  -2   2  624.85   12.76
  -3   2  -2  741.86   11.69
  -3   2  -2  742.10   15.04
   3  -2   3  936.23   15.80
   3  -2   3  865.16   21.09
   3  -2   3  853.79   13.84
  -3   2  -3  952.92   15.84
  -3   2  -3  975.84   16.93
   3  -2   4  194.28   11.50
   3  -2   4  201.69   15.31
   3  -2   4  221.97   11.72
  -3   2  -4  196.05   12.43
  -3   2  -4  192.58   14.39
  -3   2  -4  209.18   22.53
   3  -2   5  130.03   10.32
   3  -2   5  165.97   15.74
   3  -2   5  173.49   13.93
  -3   2  -5  172.90   12.88
  -3   2  -5  186.23   17.13
  -3   2  -5  146.71   24.58
   3  -2   6  485.20   31.76
   3  -2   6  431.09   21.72
   3  -2   6  480.27   17.80
  -3   2  -6  492.61   16.73
  -3   2  -6  550.31   14.80
   3  -2   7  128.08   10.55
   3  -2   7  156.52   17.38
   3  -2   7  132.61   19.05
  -3   2  -7  137.63   18.34
  -3   2  -7  134.76   13.01
   3  -2   8   28.63   42.75
   3  -2   8   13.27   19.17
  -3   2  -8   14.52  106.83
  -3   2  -8   24.55   12.35
   3  -2   9   20.66   20.22
   3  -2   9   13.21   23.98
   3  -2   9   23.58   22.66
  -3   2  -9   49.23  148.51
  -3   2  -9   22.35   24.48
   3  -2  10    0.90   24.38
   3  -2  10   20.35   28.09
   3  -2  10   13.98   26.97
  -3   2 -10   23.24   15.12
  -3   2 -10    7.99   16.98
   3  -2  11  240.21   53.77
   3  -2  11  301.63   68.40
   3  -2  11  345.94   70.41
   3  -2  12  391.88   40.60
   3  -2  12  538.18   80.24
   3  -2  13  380.03   37.54
   3  -2  13  322.12   47.28
   3  -2  13  532.70   94.77
  -3   1  11   79.23   35.81
  -3   1  11   66.85   40.14
  -3   1  11  101.51   51.04
  -3   1  10  222.48   35.31
  -3   1  10   -9.53   39.05
  -3   1  10  235.74   63.01
  -3   1   9    8.85   34.25
  -3   1   9   23.81   25.61
  -3   1   8  521.55   26.81
  -3   1   8  469.63   29.90
  -3   1   8    2.45   30.84
  -3   1   8  500.26   29.75
   3  -1  -7  397.12   43.26
  -3   1   7  395.90   22.73
  -3   1   7  -10.44   27.23
   3  -1  -6  267.90   18.59
   3  -1  -6  302.98   27.96
  -3   1   6  324.01   19.76
  -3   1   6  274.98   23.51
  -3   1   6   19.96   41.65
   3  -1  -5   46.66   13.86
   3  -1  -5   53.69   12.98
  -3   1   5    3.54   16.57
  -3   1   5   50.21   15.87
  -3   1   5   41.11   10.09
   3  -1  -4   62.67   12.64
  -3   1   4    2.73   15.78
  -3   1   4   57.25   24.16
   3  -1  -3  381.48   21.33
   3  -1  -3  439.48   13.66
  -3   1   3  443.63   12.09
  -3   1   3  352.10   20.80
  -3   1   3    9.57   18.61
   3  -1  -2  591.40    9.98
   3  -1  -2  678.81   14.69
  -3   1   2   64.32   22.25
  -3   1   2  612.57   10.11
  -3   1   2  629.77   13.62
   3  -1  -1  591.69   13.48
   3  -1  -1  647.10   15.66
   3  -1  -1  592.20    9.16
  -3   1   1  576.10    8.48
  -3   1   1  603.10   13.41
  -3   1   1  -13.04   32.52
   3  -1   0  891.35   14.20
   3  -1   0  412.11   17.21
   3  -1   0  899.66    8.72
  -3   1   0  986.43   16.08
  -3   1   0 1197.75   22.05
  -3   1   0  890.59   13.38
   3  -1   1  896.27   13.91
   3  -1   1  853.59   13.81
   3  -1   1  906.89   13.50
  -3   1  -1 1008.16   16.21
  -3   1  -1  953.06    9.11
  -3   1  -1  935.79   23.80
   3  -1   2  994.71    9.47
   3  -1   2  854.44   12.64
  -3   1  -2  842.09   12.88
  -3   1  -2 1092.27   27.98
  -3   1  -2  947.56   24.38
   3  -1   3 1389.86   17.60
   3  -1   3 1327.47   19.16
  -3   1  -3 1447.17   29.45
  -3   1  -3 1203.18   26.76
  -3   1  -3 1100.99   16.91
   3  -1   4 1041.67   18.83
   3  -1   4 1100.63   22.99
   3  -1   4 1014.34   13.56
  -3   1  -4 1207.32   16.53
  -3   1  -4 1061.67   19.68
   3  -1   5 3890.93   25.85
   3  -1   5 3474.16   26.01
   3  -1   5 3398.95   29.40
  -3   1  -5 3976.08   26.21
  -3   1  -5 3897.09   35.30
   3  -1   6 1058.30   18.98
   3  -1   6 1245.65   33.83
   3  -1   6 1352.96   15.94
  -3   1  -6 1385.23   21.37
  -3   1  -6 1357.06   15.75
   3  -1   7  703.23   20.23
   3  -1   7  635.26   19.41
  -3   1  -7  820.27   26.09
  -3   1  -7  723.48   21.44
   3  -1   8   67.62   19.30
   3  -1   8   62.81   17.74
   3  -1   8   52.45   18.55
   3  -1   9   47.65   21.54
   3  -1   9   23.79   21.02
   3  -1   9   17.72   22.88
  -3   1  -9   40.90   14.51
  -3   1  -9   73.96   19.56
   3  -1  10   35.37   25.23
   3  -1  10   31.88   25.26
   3  -1  10   23.00   55.35
   3  -1  11   81.80   30.36
   3  -1  11   91.62   29.70
   3  -1  12  110.35   33.96
   3  -1  12  103.76   72.61
   3  -1  12  145.62   78.26
   3  -1  13   46.97   33.42
   3  -1  13   69.22   43.09
  -3   0  11   39.88   36.27
  -3   0  11   34.13   44.14
  -3   0  10  129.46   34.99
  -3   0   9  839.80   29.47
  -3   0   9  874.93   34.99
  -3   0   9  803.38   18.39
  -3   0   8  811.37   30.51
  -3   0   8  770.76   48.53
  -3   0   8  736.76   20.96
  -3   0   8  850.35   24.00
  -3   0   7  801.64   23.35
  -3   0   7  749.41   27.94
  -3   0   7 1592.94  149.46
  -3   0   7  690.68   21.53
  -3   0   6  546.80   19.14
  -3   0   6  482.52   12.09
  -3   0   6  524.69   44.04
  -3   0   6  438.44   18.89
   3   0  -5  798.31   19.35
  -3   0   5  788.58   17.51
  -3   0   5 1218.40  130.98
  -3   0   5  594.25   18.26
   3   0  -4  914.00   15.76
  -3   0   4 1023.21   16.45
  -3   0   4  797.36   12.00
  -3   0   4    5.79   26.71
   3   0  -3 1699.79   16.98
   3   0  -3 1616.62   16.14
  -3   0   3   10.66   35.00
  -3   0   3 1622.40   15.68
  -3   0   3 1644.91   16.42
   3   0  -2  490.85    9.19
   3   0  -2  526.47   21.25
  -3   0   2  538.39    9.43
  -3   0   2  534.26   22.07
  -3   0   2    7.72   33.80
   3   0  -1  478.53   12.70
   3   0  -1  452.32    7.22
   3   0  -1  420.79   11.28
  -3   0   1  460.69   11.58
  -3   0   1  436.62   10.97
  -3   0   1   14.11   25.34
   3   0   0  793.38   14.50
   3   0   0  645.84   12.46
   3   0   0  546.23    7.68
  -3   0   0   22.22    9.71
  -3   0   0  800.40   14.07
  -3   0   0  585.49    7.63
   3   0   1   74.99   10.40
   3   0   1   79.47    8.85
   3   0   1   73.74    4.31
  -3   0  -1   74.57    7.75
  -3   0  -1  127.78   10.87
  -3   0  -1   91.25    4.34
   3   0   2  274.89   10.45
   3   0   2  273.46    7.22
   3   0   2  263.79   17.11
  -3   0  -2  263.91    4.41
  -3   0  -2  308.19   11.81
  -3   0  -2  229.80    9.09
   3   0   3  345.44    7.00
   3   0   3  354.25   11.99
   3   0   3  346.84   18.27
  -3   0  -3  393.02    7.71
  -3   0  -3  403.06   11.87
  -3   0  -3  317.96   11.36
   3   0   4  177.34   21.58
   3   0   4  236.77    9.22
   3   0   4  202.01   15.70
  -3   0  -4  192.52   10.14
   3   0   5 5108.59   27.96
   3   0   5 3957.46   37.62
   3   0   5 5243.06   26.70
  -3   0  -5 5939.42   28.44
  -3   0  -5 5110.87   24.43
   3   0   6 1777.74   21.33
   3   0   6 2210.94   21.49
   3   0   6 1993.93   20.95
  -3   0  -6 1884.99   15.24
   3   0   7 1069.45   20.25
   3   0   7  943.88   19.60
   3   0   7  893.09   21.68
  -3   0  -7  971.79   19.36
  -3   0  -7  947.71   20.17
   3   0   8  442.74   20.46
   3   0   8  425.18   23.31
  -3   0  -8  425.01   10.02
  -3   0  -8  385.64   15.05
   3   0   9  347.44   26.97
   3   0   9  263.32   23.59
   3   0   9  297.76   28.84
  -3   0  -9  201.91   12.46
  -3   0  -9  228.89   13.51
   3   0  10  954.39   32.56
   3   0  10 1037.75   37.87
   3   0  10 1038.46   60.56
   3   0  11  506.95   36.46
   3   0  11  559.85   40.37
   3   0  11  572.07   62.12
   3   0  12  238.94   33.76
   3   0  12  225.14   38.57
   3   0  12  402.84   96.43
   3   0  13   91.29   35.30
   3   0  13   73.51   39.57
   3   0  13   83.03   50.98
  -3  -1  11   27.89   34.01
  -3  -1  11   60.21   79.19
  -3  -1  10   41.41   27.17
  -3  -1  10   36.44   33.23
  -3  -1   9  349.57   36.43
  -3  -1   9  221.32   48.28
  -3  -1   8  154.63   22.55
  -3  -1   8  159.30   31.58
  -3  -1   7  362.30   20.80
  -3  -1   7  387.80   25.53
  -3  -1   7  416.87   17.18
  -3  -1   7  316.59   14.77
  -3  -1   6  613.19   34.52
  -3  -1   6  660.95   17.32
  -3  -1   6  498.87   16.03
  -3  -1   5  895.89   17.09
  -3  -1   5  964.45   21.64
  -3  -1   5  926.37   12.56
  -3  -1   5  941.63   19.49
  -3  -1   4 1613.37   21.41
  -3  -1   4 1523.55   14.96
  -3  -1   4 1440.47   29.06
  -3  -1   4   41.68   28.93
  -3  -1   3 4178.95   23.37
  -3  -1   3 4278.58   25.97
  -3  -1   3 8359.89   44.95
  -3  -1   3 4680.65   25.93
  -3  -1   2 1025.55   11.32
  -3  -1   2 1057.05   13.19
  -3  -1   2 1026.52   31.28
  -3  -1   2 1167.62   25.50
  -3  -1   2   17.91   25.92
   3   1  -1 3163.43   19.33
  -3  -1   1 2961.17   13.65
  -3  -1   1 3011.03   19.96
  -3  -1   1 3080.07   20.58
  -3  -1   1 3149.56   15.45
   3   1   0 2593.39   27.00
  -3  -1   0 2305.61    7.80
  -3  -1   0 2708.34   19.43
  -3  -1   0 2373.09   12.07
  -3  -1   0 1936.95   17.22
  -3  -1   0 2381.59   17.37
   3   1   1 2579.19   14.03
  -3  -1  -1 2618.89   16.15
  -3  -1  -1 2953.66   22.91
   3   1   2 2628.11   11.18
   3   1   2 3347.11   30.77
  -3  -1  -2 2540.74   16.98
  -3  -1  -2  355.24  125.96
  -3  -1  -2 2611.16   17.58
   3   1   3   99.23   17.15
   3   1   3  121.52    8.15
   3   1   3  119.55    9.96
  -3  -1  -3  105.94    8.77
   3   1   4  189.51    8.60
   3   1   4  136.21    9.80
   3   1   4  155.56    7.11
  -3  -1  -4  153.86    8.80
  -3  -1  -4  165.39    9.71
   3   1   5 1781.45   15.75
   3   1   5 1580.52   20.29
   3   1   5 1838.66   28.51
  -3  -1  -5 1576.64   13.58
  -3  -1  -5 1830.27   23.51
   3   1   6 1102.06   19.00
   3   1   6 1060.75   16.15
  -3  -1  -6 1042.86   12.37
  -3  -1  -6  967.85   10.97
   3   1   7  154.38   28.38
   3   1   7  134.43   15.64
  -3  -1  -7  130.48   16.42
  -3  -1  -7  105.29    6.96
   3   1   8  126.60   17.69
   3   1   8   81.22   19.12
  -3  -1  -8  102.52   15.61
  -3  -1  -8   91.16   16.38
   3   1   9  337.31   25.28
   3   1   9  355.54   43.48
  -3  -1  -9  250.08   13.90
   3   1  10 3183.20   38.31
   3   1  10 2791.14   66.64
  -3  -1 -10 1973.97   15.55
  -3  -1 -10 2575.62   19.93
   3   1  11  503.01   32.84
   3   1  11  599.90   55.17
   3   1  12  483.28   31.58
   3   1  12  463.98   41.48
   3   1  13  165.05   40.99
   3   1  13  144.54   81.96
  -3  -2  11  142.81   34.62
  -3  -2  11  194.82   82.34
  -3  -2  10  209.59   31.18
  -3  -2  10  159.19   36.82
  -3  -2   9  242.14   26.39
  -3  -2   8   90.29   25.61
  -3  -2   8  133.05   31.07
  -3  -2   7  231.27   23.32
  -3  -2   7  251.18   27.57
  -3  -2   7  170.86   12.76
  -3  -2   6  669.29   26.66
  -3  -2   6  528.13    9.69
  -3  -2   6  624.28   17.77
  -3  -2   5  111.32   19.88
  -3  -2   5   90.44    7.85
  -3  -2   5   91.77    8.83
  -3  -2   5   83.83   27.92
  -3  -2   4  196.94   12.94
  -3  -2   4  244.79   17.55
  -3  -2   4  173.51    8.07
  -3  -2   4  202.64    9.83
  -3  -2   4    8.46   13.60
  -3  -2   3 1280.12   18.43
  -3  -2   3 1088.48   12.54
  -3  -2   3 1167.83   25.41
  -3  -2   3 1128.42   20.82
  -3  -2   3    4.95   30.44
   3   2  -2 1214.90   13.94
  -3  -2   2 1242.84   13.61
  -3  -2   2 1329.71   14.88
  -3  -2   2 1527.12   17.10
   3   2  -1 6871.38   20.89
   3   2  -1 6422.00   22.71
   3   2  -1 6277.89   41.70
  -3  -2   1 6245.89   25.17
  -3  -2   1 6569.38   22.33
  -3  -2   1 7030.05   26.13
   3   2   0 4463.45   22.04
   3   2   0  549.27  104.75
  -3  -2   0 3395.47   12.21
  -3  -2   0 3960.54   20.96
  -3  -2   0 3752.10   20.14
   3   2   1 1923.75   12.29
   3   2   1 1818.36   11.49
  -3  -2  -1 1859.26   15.45
  -3  -2  -1 1847.68   11.38
  -3  -2  -1 2208.92   21.07
   3   2   2 2971.49   16.87
   3   2   2 2824.86   14.35
   3   2   2 2718.12   17.42
  -3  -2  -2 2729.14   10.39
  -3  -2  -2 2607.14   17.05
   3   2   3 1535.23   14.67
   3   2   3 1471.20   21.18
   3   2   3 1620.99   14.68
  -3  -2  -3 1663.75   10.29
  -3  -2  -3 1523.74   13.31
   3   2   4 1939.96   20.30
   3   2   4 1997.02   16.30
  -3  -2  -4 1668.52   13.49
  -3  -2  -4 2231.11   15.46
  -3  -2  -5 1422.11   15.19
  -3  -2  -5 1304.18   19.96
   3   2   6  234.28   12.09
  -3  -2  -6  234.06   12.81
  -3  -2  -6  203.94   15.48
   3   2   7  533.53   34.28
   3   2   7  501.76   30.27
  -3  -2  -7  439.91   16.63
  -3  -2  -7  520.46   16.34
   3   2   8  104.05   17.81
   3   2   8   27.50    9.49
  -3  -2  -8  119.96   18.38
   3   2   9  220.71   42.60
   3   2   9  186.31   23.16
  -3  -2  -9  140.54   16.51
  -3  -2  -9  131.78    7.47
   3   2  10 1085.33   30.17
   3   2  10  995.96   31.84
  -3  -2 -10  809.43   18.09
  -3  -2 -10  857.94   20.49
   3   2  11  413.62   30.71
   3   2  11  357.34   30.82
  -3  -2 -11  240.93   10.90
   3   2  12  124.33   33.80
   3   2  13  312.14   40.79
   3   2  13  291.06   39.73
  -3  -3  11  372.11   37.06
  -3  -3  11  403.20   88.44
  -3  -3  10  222.30   35.91
  -3  -3  10  244.31   40.64
  -3  -3   9  598.18   33.76
  -3  -3   9  574.82   38.55
  -3  -3   8  775.15   29.79
  -3  -3   8  881.31   41.59
  -3  -3   7  567.15   24.36
  -3  -3   7  679.22   31.79
  -3  -3   7  580.09   18.64
  -3  -3   7  477.56   14.99
  -3  -3   6  370.98   27.99
  -3  -3   6  284.56   38.93
  -3  -3   6  384.51   21.94
  -3  -3   6  317.24   20.40
  -3  -3   5  240.84   18.31
  -3  -3   5  196.91   10.06
  -3  -3   5  264.86   43.22
  -3  -3   5  318.81   28.03
   3   3  -4  118.12   16.08
   3   3  -4   12.77   10.38
  -3  -3   4    5.47   11.34
  -3  -3   4  124.50   33.22
  -3  -3   4  225.33   25.36
   3   3  -3  286.26   14.35
  -3  -3   3  322.63   11.87
  -3  -3   3   20.06   16.91
  -3  -3   3  344.76   16.23
   3   3  -2  300.67    8.60
   3   3  -2  374.42   12.53
  -3  -3   2  399.69   11.28
  -3  -3   2  374.86   11.36
  -3  -3   2   12.69    8.06
   3   3  -1 1394.26   20.53
   3   3  -1 1484.06   15.11
  -3  -3   1 1210.12   17.80
  -3  -3   1 1446.50   14.95
   3   3   0 3079.08   16.28
   3   3   0 2122.54   16.37
  -3  -3   0 2333.99   17.37
  -3  -3   0 2256.38   13.39
   3   3   1  618.57    8.70
   3   3   1  490.39   19.63
   3   3   1  507.80    8.45
  -3  -3  -1  500.40    7.97
  -3  -3  -1  434.66   10.40
   3   3   2 1264.83   14.81
  -3  -3  -2 1171.64   10.08
  -3  -3  -2 1146.29   13.68
   3   3   3 1532.04   12.29
   3   3   3 1673.89   16.87
  -3  -3  -3 1616.03   15.91
  -3  -3  -3 1667.48   19.44
   3   3   4 3241.15   22.01
   3   3   4 2980.38   18.39
  -3  -3  -4 2804.29   19.14
  -3  -3  -4 2933.20   18.00
   3   3   5 1526.54   28.81
   3   3   5 1252.26   24.44
  -3  -3  -5 1282.43   23.81
  -3  -3  -5 1426.45   25.49
   3   3   6 1140.95   28.68
   3   3   6  972.76   16.14
  -3  -3  -6  766.98   11.68
  -3  -3  -6 1075.91   17.77
   3   3   7  279.82   16.06
   3   3   7  302.38   23.94
  -3  -3  -7  246.09    9.55
   3   3   8  625.01   20.77
   3   3   8  708.21   16.06
  -3  -3  -8  591.61   19.69
  -3  -3  -8  466.84   19.60
   3   3   9  488.27   24.11
  -3  -3  -9  474.54   43.08
  -3  -3  -9  305.86   19.08
   3   3  10   87.19   35.44
   3   3  10  114.30   26.85
  -3  -3 -10   69.94   19.85
  -3  -3 -10  100.49   26.15
   3   3  11  161.74   30.65
   3   3  11  123.06  139.02
  -3  -3 -11  160.28   23.86
  -3  -3 -11  151.72   21.98
   3   3  12  146.33   35.79
   3   3  12  138.53   37.83
   3   3  13  223.93   41.00
   3   3  13  176.22   38.67
  -3  -4  11   96.00   84.20
  -3  -4  11  107.89   92.69
  -3  -4  10  123.47   41.34
  -3  -4   9  101.86   29.96
  -3  -4   9  136.11   36.92
  -3  -4   8 1133.33   34.37
  -3  -4   8 1215.10   39.57
  -3  -4   8  827.76   15.94
  -3  -4   7  835.60   54.54
  -3  -4   7  867.06   69.33
  -3  -4   7  782.72   24.50
  -3  -4   7  680.41   20.47
   3   4  -6   38.23   11.37
   3   4  -6  298.11   25.95
  -3  -4   6  296.32   12.44
  -3  -4   6  312.71   28.13
   3   4  -5  677.97   23.44
  -3  -4   5  907.92   27.87
  -3  -4   5  802.96   15.31
   3   4  -4  202.52    9.37
   3   4  -4  263.19   18.64
  -3  -4   4  308.81   13.67
  -3  -4   4  298.63   19.57
  -3  -4   4    3.48   13.83
   3   4  -3  465.77   20.95
   3   4  -3  578.97   33.14
  -3  -4   3  534.88   30.17
  -3  -4   3  598.64   15.29
   3   4  -2 1627.97   32.01
   3   4  -2 1313.58   15.03
  -3  -4   2 1973.27   33.33
  -3  -4   2 1436.97   16.29
   3   4  -1 1223.27   24.72
   3   4  -1 1148.34   16.00
  -3  -4   1 1376.47   18.38
  -3  -4   1 1002.69   12.81
   3   4   0   97.18   18.31
   3   4   0   76.32   11.01
  -3  -4   0   94.84   12.32
  -3  -4   0  115.74    9.77
   3   4   1  129.15   19.51
   3   4   1   42.43   10.68
  -3  -4  -1   27.24   11.89
  -3  -4  -1   39.26    8.95
   3   4   2  313.71   20.65
  -3  -4  -2  229.80    9.17
  -3  -4  -2  252.12   12.58
  -3  -4  -3  151.21   11.33
  -3  -4  -3  134.82   16.56
   3   4   4  715.68   13.07
  -3  -4  -4  737.87   12.88
  -3  -4  -4  683.70   13.68
   3   4   5 1428.66   29.33
   3   4   5 1461.58   17.93
  -3  -4  -5 1243.29   15.81
  -3  -4  -5 1425.22   16.95
   3   4   6  611.39   15.76
  -3  -4  -6  508.53   14.94
  -3  -4  -6  484.24   23.70
   3   4   7  471.89   32.25
   3   4   7  465.92   15.28
  -3  -4  -7  392.29   12.93
  -3  -4  -7  454.41   16.93
   3   4   8  919.86   19.40
  -3  -4  -8  872.56   24.15
  -3  -4  -8  568.84   13.69
   3   4   9  786.80   37.46
   3   4   9  705.20   25.84
  -3  -4  -9  514.21   14.80
  -3  -4  -9  629.87   24.67
   3   4  10  485.75   29.46
   3   4  10  434.34   32.33
  -3  -4 -10  431.19   51.08
  -3  -4 -10  336.42   28.03
   3   4  11  219.28   32.32
  -3  -4 -11  191.34   28.41
  -3  -4 -11  193.62   32.02
   3   4  12  206.67   36.98
  -3  -4 -12  239.10   35.55
   3   4  13  254.97   43.08
   3   4  13  208.10   42.78
  -3  -5  10   45.90   36.58
  -3  -5  10   28.23   42.32
  -3  -5  10    5.87   28.17
  -3  -5   9   25.96   66.10
  -3  -5   9   27.60   76.53
  -3  -5   9  106.58   51.75
  -3  -5   8  245.03   32.92
  -3  -5   8  240.17   69.44
  -3  -5   8  194.48   26.93
  -3  -5   8  140.36   21.22
  -3  -5   8  249.52   40.84
   3   5  -7   91.69   61.34
   3   5  -7   45.00   12.66
  -3  -5   7   88.66   31.87
  -3  -5   7   79.55   27.60
  -3  -5   7   73.96   14.25
   3   5  -6  222.81   26.76
   3   5  -6  181.62   12.20
  -3  -5   6  227.30   15.20
   3   5  -5  186.09   21.71
   3   5  -5  192.43   23.67
  -3  -5   5  246.64   50.77
  -3  -5   5  203.98   14.24
   3   5  -4  220.67   10.96
   3   5  -4  349.05   22.85
  -3  -5   4  377.47   16.08
  -3  -5   4  347.91   20.35
   3   5  -3 1416.90   27.78
   3   5  -3 1394.22   21.80
  -3  -5   3 1480.78   37.50
  -3  -5   3 1645.60   21.24
   3   5  -2 1778.49   36.98
   3   5  -2 1724.40   19.23
  -3  -5   2 2003.68   22.40
  -3  -5   2 1537.71   18.58
   3   5  -1  921.62   17.57
   3   5  -1  941.09   16.65
  -3  -5   1  851.75   25.76
  -3  -5   1 1093.09   32.55
   3   5   0 1198.82   31.31
   3   5   0 1031.60   17.01
  -3  -5   0 1159.32   18.45
  -3  -5   0 1086.74   16.49
   3   5   1  304.56   13.66
   3   5   1  268.54   13.15
  -3  -5  -1  300.38   14.37
  -3  -5  -1  333.90   24.13
   3   5   2  233.54   24.72
   3   5   2  222.96   12.54
  -3  -5  -2  250.92   13.86
  -3  -5  -2  265.07   12.48
   3   5   3  576.91   26.97
   3   5   3  642.63   27.87
  -3  -5  -3  529.86   15.10
  -3  -5  -3  617.94   14.40
   3   5   4  216.55   13.58
   3   5   4  232.71   13.33
  -3  -5  -4  225.71   13.69
  -3  -5  -4  272.36   14.52
   3   5   5  127.11   26.13
   3   5   5  121.64   13.35
  -3  -5  -5  119.39   14.07
  -3  -5  -5  112.30   12.99
   3   5   6  133.28   15.34
   3   5   6  135.10   14.69
  -3  -5  -6  134.48   13.51
  -3  -5  -6  142.23   28.66
   3   5   7  518.24   32.69
  -3  -5  -7  500.17   21.31
  -3  -5  -7  403.27   29.52
   3   5   8  301.68   21.88
   3   5   8  272.81   18.27
  -3  -5  -8  261.90   16.47
  -3  -5  -8  285.49   38.25
   3   5   9  362.29   19.37
   3   5   9  330.07   26.48
  -3  -5  -9  248.53   16.18
  -3  -5  -9  324.96   25.53
   3   5  10  357.20   47.52
   3   5  10  276.62   27.29
  -3  -5 -10  226.53   33.29
  -3  -5 -10  262.55   26.62
   3   5  11  211.99   34.17
   3   5  11  265.79   30.83
  -3  -5 -11  202.50   17.15
  -3  -5 -11  201.19   28.97
   3   5  12  426.33   36.65
  -3  -5 -12  373.25   34.35
   3   5  13  334.18   42.72
  -3  -5 -13  301.99   42.26
  -3  -6  10   86.71   47.49
  -3  -6  10   55.25   79.10
  -3  -6   9  126.72   38.08
  -3  -6   9   82.91   84.35
   3   6  -8  152.36   46.92
   3   6  -8  262.02   73.31
  -3  -6   8  279.81   41.85
  -3  -6   8  204.90   38.33
   3   6  -7  196.56   31.55
   3   6  -7  175.68   16.55
  -3  -6   7  195.10   33.85
  -3  -6   7  253.42   42.23
  -3  -6   7  228.61   27.59
   3   6  -6   88.19   27.58
   3   6  -6   62.98   12.93
  -3  -6   6  102.00   32.47
  -3  -6   6  109.88   39.27
   3   6  -5    5.06   12.10
   3   6  -5   18.97   23.06
  -3  -6   5   19.86   18.04
  -3  -6   5   24.20   24.64
   3   6  -4   18.13   21.83
   3   6  -4   18.73   12.72
  -3  -6   4   25.55   22.31
  -3  -6   4    3.31   33.92
   3   6  -3  394.48   33.54
   3   6  -3  383.64   25.18
  -3  -6   3  393.31   34.49
  -3  -6   3  341.70   20.88
   3   6  -2  529.83   32.70
   3   6  -2  569.47   21.43
  -3  -6   2  608.15   19.47
  -3  -6   2  504.36   16.87
   3   6  -1  709.63   32.17
   3   6  -1  778.79   21.40
  -3  -6   1  797.07   37.66
  -3  -6   1  657.25   17.04
   3   6   0  867.11   36.90
   3   6   0  726.97   18.17
  -3  -6   0  796.10   20.72
  -3  -6   0  767.78   17.43
   3   6   1 1074.20   34.23
   3   6   1 1135.03   20.58
  -3  -6  -1 1147.00   22.17
  -3  -6  -1 1150.84   19.26
   3   6   2 1449.88   21.44
   3   6   2 1347.94   21.69
  -3  -6  -2 1416.01   20.71
  -3  -6  -2 1506.04   39.28
   3   6   3  845.51   35.46
   3   6   3  764.51   19.35
  -3  -6  -3  718.88   19.21
  -3  -6  -3  790.42   19.23
   3   6   4  556.24   34.41
   3   6   4  633.47   19.73
  -3  -6  -4  576.26   33.98
  -3  -6  -4  553.82   17.87
   3   6   5  312.45   17.65
   3   6   5  289.29   17.68
  -3  -6  -5  298.90   17.87
   3   6   6  384.24   18.74
   3   6   6  360.14   20.04
  -3  -6  -6  374.95   19.49
  -3  -6  -6  421.08   19.70
   3   6   7  210.51   18.81
   3   6   7  207.04   19.67
  -3  -6  -7  197.31   19.53
  -3  -6  -7  212.51   19.47
   3   6   8   62.49   22.22
   3   6   8   62.41   19.16
  -3  -6  -8   76.62   20.55
  -3  -6  -8   65.57   35.66
   3   6   9   45.18   23.18
   3   6   9   25.21   25.16
  -3  -6  -9   20.99   18.35
  -3  -6  -9   22.71   22.28
   3   6  10   99.86   52.27
  -3  -6 -10   34.17   56.54
  -3  -6 -10   75.39   42.51
   3   6  11  206.72   34.60
   3   6  11  205.99   29.69
  -3  -6 -11  169.68   31.65
  -3  -6 -11  156.57   41.29
   3   6  12  300.62   40.95
  -3  -6 -12  262.09   35.58
  -3  -6 -12  219.03   25.18
   3   7  -9  534.51   49.81
  -3  -7   9  544.50   93.57
   3   7  -8  775.98   46.07
  -3  -7   8  889.79   45.19
  -3  -7   8  861.52   51.58
   3   7  -7  555.90   36.19
   3   7  -7  670.98   37.31
  -3  -7   7  901.06   85.81
  -3  -7   7  886.43   28.64
   3   7  -6  209.00   17.77
   3   7  -6  299.96   35.39
  -3  -7   6  296.38   24.03
  -3  -7   6  312.45   37.02
   3   7  -5  104.22   17.11
   3   7  -5  111.93   30.15
  -3  -7   5  139.60   22.75
  -3  -7   5  122.78   29.18
   3   7  -4   64.83   23.03
   3   7  -4  161.22   40.43
  -3  -7   4   76.28   43.72
   3   7  -3  120.66   19.30
   3   7  -3  114.51   23.89
  -3  -7   3   96.92   21.91
  -3  -7   3   83.78   19.37
   3   7  -2  112.63   45.51
   3   7  -2   87.07   17.39
  -3  -7   2  109.98   21.46
  -3  -7   2   72.28   18.17
   3   7  -1  389.98   36.21
   3   7  -1  377.94   24.21
  -3  -7   1  329.81   21.95
  -3  -7   1  281.54   18.16
   3   7   0  151.73   11.11
   3   7   0  191.29   18.45
   3   7   0  213.68   40.98
  -3  -7   0  173.52   17.30
   3   7   1   19.43   12.07
   3   7   1  270.26   20.00
   3   7   1  238.23   18.72
  -3  -7  -1  276.62   18.91
   3   7   2  891.11   40.25
   3   7   2  890.88   21.90
  -3  -7  -2  914.62   24.43
  -3  -7  -2  911.98   21.82
   3   7   3  905.14   43.04
   3   7   3  996.28   23.85
  -3  -7  -3  903.77   25.15
  -3  -7  -3 1005.38   24.43
   3   7   4  685.07   23.81
   3   7   4  636.93   23.62
  -3  -7  -4  624.74   21.78
  -3  -7  -4  618.98   45.80
   3   7   5  595.39   24.48
   3   7   5  535.91   23.88
  -3  -7  -5  586.72   25.49
  -3  -7  -5  565.42   22.52
   3   7   6  847.63   48.59
   3   7   6  715.74   43.96
  -3  -7  -6  691.01   24.14
  -3  -7  -6  698.37   24.16
   3   7   7  743.87   26.88
   3   7   7  685.91   27.35
  -3  -7  -7  635.13   24.81
  -3  -7  -7  631.54   24.67
   3   7   8  167.01   29.66
   3   7   8  127.97   25.09
  -3  -7  -8  123.27   22.43
  -3  -7  -8  133.04   22.12
   3   7   9   70.44   28.72
   3   7   9   40.49   26.18
  -3  -7  -9   46.62   23.49
  -3  -7  -9   24.50   25.26
   3   7  10   32.13   29.40
   3   7  10   57.55   26.23
  -3  -7 -10   37.01   27.26
  -3  -7 -10   73.53   47.18
   3   7  11  116.57   35.59
  -3  -7 -11  127.04   35.99
  -3  -7 -11  150.14   26.79
   3   8  -8  598.19   85.40
  -3  -8   8  835.32   59.20
   3   8  -7  461.66   40.10
   3   8  -7  399.50   44.75
  -3  -8   7  629.34   90.27
  -3  -8   7  521.71   60.46
   3   8  -6  358.92   34.77
  -3  -8   6  413.57   39.41
  -3  -8   6  498.19   31.75
   3   8  -5  100.87   31.13
   3   8  -5  116.09   23.27
  -3  -8   5  120.15   26.64
  -3  -8   5  203.13   60.76
   3   8  -4  436.02   23.57
  -3  -8   4  483.48   60.25
  -3  -8   4  555.39   55.75
   3   8  -3  582.59   23.67
   3   8  -3  688.31   32.76
  -3  -8   3  705.35   29.35
  -3  -8   3  667.58   30.58
   3   8  -2  398.47   28.92
   3   8  -2  335.23   22.46
  -3  -8   2  373.73   27.08
  -3  -8   2  407.95   48.95
   3   8  -1  101.54   26.76
   3   8  -1   61.29   26.25
  -3  -8   1   56.57   24.38
  -3  -8   1   61.15   19.43
   3   8   0  669.04   26.86
   3   8   0  703.80   25.73
   3   8   0  650.82   16.35
  -3  -8   0  621.57   21.22
  -3  -8   0  846.62   54.25
   3   8   1  290.94   23.56
   3   8   1  341.65   49.82
  -3  -8  -1  345.81   45.13
  -3  -8  -1  416.15   51.14
   3   8   2   45.66   18.33
   3   8   2   66.41   22.67
   3   8   2   37.50   21.21
  -3  -8  -2   84.07   41.33
  -3  -8  -2  110.55   49.95
   3   8   3   58.95   24.13
   3   8   3  -11.12   15.49
   3   8   3  101.99   25.63
  -3  -8  -3   81.80   22.96
  -3  -8  -3   51.51   24.92
   3   8   4   47.89   29.95
   3   8   4   57.27   50.56
   3   8   4   54.42   25.47
  -3  -8  -4   54.73   22.76
  -3  -8  -4   74.92   25.20
   3   8   5  401.77   29.66
   3   8   5  408.96   27.43
  -3  -8  -5  365.45   27.99
  -3  -8  -5  444.55   27.86
   3   8   6  563.15   34.16
   3   8   6  481.87   31.62
  -3  -8  -6  479.27   28.20
   3   8   7 1174.16   34.74
   3   8   7 1035.37   31.37
  -3  -8  -7 1067.35   31.29
  -3  -8  -7 1097.92   32.64
   3   8   8   57.39   63.45
   3   8   8   15.95   26.83
  -3  -8  -8   -1.78   26.78
  -3  -8  -8    5.77   26.40
   3   8   9  124.06   62.05
   3   8   9   67.22   32.59
  -3  -8  -9  131.37   30.42
  -3  -8  -9   75.43   28.34
   3   8  10  298.57   37.20
   3   8  10  411.17   70.28
  -3  -8 -10  271.78   64.49
  -3  -8 -10  290.20   56.92
   3   9  -7  110.02   47.95
   3   9  -7  118.27   45.64
  -3  -9   7  102.25   87.80
  -3  -9   7  195.87   75.76
   3   9  -6  223.55   80.60
   3   9  -6  160.25   24.92
  -3  -9   6  208.89   33.79
  -3  -9   6  237.03   42.12
   3   9  -5  142.08   54.55
   3   9  -5  111.26   42.54
  -3  -9   5   46.07   33.91
  -3  -9   5   66.65   36.73
   3   9  -4  418.23   58.31
   3   9  -4  482.25   47.57
  -3  -9   4  504.89   36.03
  -3  -9   4  388.22   32.40
   3   9  -3  480.71   56.00
   3   9  -3  502.19   38.89
  -3  -9   3  403.80   57.56
  -3  -9   3  519.32   33.70
   3   9  -2  790.26   64.39
   3   9  -2  691.00   35.82
  -3  -9   2  734.02   35.22
  -3  -9   2  571.53   27.65
   3   9  -1  615.64   33.91
   3   9  -1  636.21   31.49
  -3  -9   1  473.45   47.67
   3   9   0 1387.60   63.85
   3   9   0 1072.16   22.55
   3   9   0 1144.93   32.92
  -3  -9   0  951.70   26.87
  -3  -9   0 1288.87   36.45
   3   9   1  458.32   30.65
   3   9   1   56.52   28.77
   3   9   1  471.27   29.72
  -3  -9  -1  426.88   25.42
  -3  -9  -1  535.74   32.50
   3   9   2   38.47   52.34
   3   9   2   49.65   36.52
   3   9   2  113.06   34.48
  -3  -9  -2   39.52   24.16
  -3  -9  -2   18.31   29.40
   3   9   3   52.82   52.39
   3   9   3   64.26   34.89
   3   9   3   40.72   29.02
  -3  -9  -3   -2.80   26.63
   3   9   4  111.92   36.97
   3   9   4  139.36   61.50
   3   9   4   59.31   30.09
  -3  -9  -4   41.41   26.95
  -3  -9  -4   50.25   30.60
   3   9   5  629.28   68.78
   3   9   5  599.23   64.71
  -3  -9  -5  516.88   33.58
  -3  -9  -5  528.26   32.74
   3   9   6  288.61   36.44
   3   9   6  104.29   61.05
   3   9   6  265.70   31.95
  -3  -9  -6  268.49   32.00
  -3  -9  -6  276.22   33.64
   3   9   7  191.28   83.92
   3   9   7   25.49   32.46
  -3  -9  -7   20.39   62.79
  -3  -9  -7   35.41   32.74
   3   9   8   22.05   33.19
   3   9   8   84.05   41.18
  -3  -9  -8   30.65   64.61
  -3  -9  -8   20.94   60.06
   3   9   9   70.11   35.29
   3   9   9  166.50   44.88
  -3  -9  -9   79.88   31.77
   3  10  -5   39.26   88.66
  -3 -10   5    9.24   42.89
  -3 -10   5  240.54   93.46
   3  10  -4   24.84   44.64
   3  10  -4   28.37   33.08
  -3 -10   4   31.73   34.73
  -3 -10   4   76.86   82.96
   3  10  -3  112.14   37.05
   3  10  -3  110.97   40.87
  -3 -10   3  150.24   46.06
  -3 -10   3   31.09   31.21
   3  10  -2  317.43   80.66
   3  10  -2  217.82   74.52
  -3 -10   2  222.11   78.63
  -3 -10   2  185.74   30.96
   3  10  -1  575.12   70.76
   3  10  -1  574.61   38.01
  -3 -10   1  608.44   41.64
  -3 -10   1  388.02   28.21
   3  10   0  507.62   36.68
   3  10   0  409.81   25.87
   3  10   0  543.22   37.01
  -3 -10   0  461.44   28.89
  -3 -10   0  574.57   40.81
   3  10   1  507.97   36.93
   3  10   1  338.47   25.91
   3  10   1  461.06   31.85
  -3 -10  -1  396.83   27.23
  -3 -10  -1  569.24   40.98
   3  10   2  256.16   65.02
   3  10   2   57.52   36.30
   3  10   2  219.91   35.62
  -3 -10  -2  198.82   28.82
  -3 -10  -2  278.50   38.51
   3  10   3  331.75   39.45
   3  10   3  337.31   38.00
   3  10   3   64.53   51.71
  -3 -10  -3  330.66   39.32
  -3 -10  -3  289.76   62.90
   3  10   4  345.84   78.62
   3  10   4  149.43   74.69
   3  10   4  296.20   34.56
  -3 -10  -4  268.63   32.45
  -3 -10  -4  310.90   38.98
   3  10   5   59.49   39.50
   3  10   5  487.39   38.67
   3  10   5  562.59   44.04
  -3 -10  -5  505.79   38.19
  -3 -10  -5  486.98   76.18
   3  10   6  213.30   44.09
   3  10   6  159.14  127.42
   3  10   6  266.65   41.83
  -3 -10  -6  234.93   37.60
  -3 -10  -6  204.39   37.07
   3  10   7   56.23   76.43
   3  10   7  102.49   55.10
   3  10   7  241.85  103.02
  -3 -10  -7   45.22   77.12
  -3 -10  -7   18.95   34.81
   3  11  -2   89.01   43.63
   3  11  -2  156.58   44.18
  -3 -11   2  112.26   43.27
   3  11  -1  361.30   89.98
   3  11  -1  162.65   39.41
  -3 -11   1  230.66   88.75
  -3 -11   1  191.03   36.65
   3  11   0  136.78   74.76
   3  11   0  224.57   47.40
  -3 -11   0  169.49   44.16
  -3 -11   0   92.38   30.81
   3  11   1  140.99   50.36
   3  11   1   74.46   36.79
  -3 -11  -1   73.80   44.19
  -3 -11  -1   68.89   30.66
   3  11   2   31.50   74.24
   3  11   2  114.76   47.89
   3  11   2   59.28   48.49
  -3 -11  -2   30.44   65.87
  -3 -11  -2   17.52   43.46
   3  11   3   87.40   44.63
   3  11   3   32.44   26.76
   3  11   3   61.53   39.39
  -3 -11  -3   61.83   35.04
  -3 -11  -3   56.95   43.07
   3  11   4  469.09   56.06
   3  11   4   46.34   31.31
   3  11   4  351.84   74.38
  -3 -11  -4  317.94   37.77
  -3 -11  -4  359.62   85.09
   3  11   5  817.45   53.55
   3  11   5   58.94   46.03
   3  11   5  818.48   49.31
  -3 -11  -5  724.15   44.15
  -3 -11  -5  610.46   45.02
   4  -8  -2   38.06   37.11
   4  -8  -2   33.86   37.72
  -4   8   2  119.89   53.18
  -4   8   2   82.28   66.21
  -4   8   2  152.76   83.40
   4  -8  -1  157.32   45.18
   4  -8  -1   64.36   34.15
  -4   8   1   59.44   38.98
  -4   8   1   78.98   35.01
  -4   8   1   50.20   71.87
   4  -8   0  152.02   64.75
  -4   8   0  155.08   36.08
  -4   8   0  175.00   66.72
  -4   8   0  143.53   41.99
   4  -8   1  279.29   34.89
  -4   8  -1  277.26   42.56
  -4   8  -1  303.36   38.50
  -4   8  -1  213.53   34.99
   4  -8   2  182.17   34.43
   4  -8   2  176.29   37.83
  -4   8  -2  166.82   36.00
  -4   8  -2  194.34   36.77
  -4   8  -2  235.34   42.32
   4  -8   3   58.42   37.62
   4  -8   3  130.94   45.52
   4  -8   3   48.83   68.12
  -4   8  -3   57.64   34.69
  -4   8  -3   43.44   41.50
  -4   8  -3  100.04   74.31
   4  -8   4   88.83   42.58
   4  -8   4  465.68   40.07
  -4   8  -4  402.27   38.41
  -4   8  -4  546.60   51.95
  -4   8  -4  454.22   87.29
   4  -8   5  391.84   45.31
   4  -8   5  -67.93   98.32
   4  -8   5  266.20   73.73
  -4   8  -5  463.79   47.00
  -4   8  -5  390.02   44.14
  -4   8  -5  298.77   41.84
   4  -7  -5  383.98   43.19
   4  -7  -5  374.35   37.05
  -4   7   5  277.35   34.53
  -4   7   5  426.43   45.37
  -4   7   5  -32.67  123.72
   4  -7  -4  172.87   70.48
   4  -7  -4  291.27   85.91
  -4   7   4  -36.20   54.71
  -4   7   4  212.16   37.66
  -4   7   4  214.99   34.81
   4  -7  -3   66.71   34.49
   4  -7  -3  141.69   43.56
  -4   7   3  101.17   54.02
  -4   7   3   70.54   63.27
  -4   7   3   62.72   64.28
   4  -7  -2   24.71   33.18
   4  -7  -2    5.72   33.99
  -4   7   2   94.18   58.38
  -4   7   2   14.07   29.36
  -4   7   2   37.93   31.09
   4  -7  -1  139.11   30.50
   4  -7  -1  136.95   69.48
  -4   7   1  119.99   32.42
  -4   7   1  131.13   55.61
  -4   7   1  196.22   77.55
   4  -7   0  250.86   75.25
   4  -7   0  140.68   29.06
  -4   7   0  138.17   29.48
  -4   7   0  148.00   65.95
  -4   7   0  148.45   30.61
   4  -7   1    5.69   27.49
   4  -7   1  126.93   72.58
  -4   7  -1   17.04   32.21
  -4   7  -1   16.26   27.39
  -4   7  -1   -0.23   32.95
   4  -7   2  117.29   38.14
   4  -7   2   54.76   28.79
   4  -7   2   38.09   26.68
  -4   7  -2   60.21   30.05
  -4   7  -2   64.30   33.19
   4  -7   3   33.63   29.98
   4  -7   3  105.34   40.91
   4  -7   3  -16.69  102.94
  -4   7  -3   37.08   32.53
  -4   7  -3    8.15   67.26
  -4   7  -3   98.95   69.55
   4  -7   4   10.14   38.02
   4  -7   4  208.33   36.40
   4  -7   4  189.08   60.76
  -4   7  -4  203.77   36.08
  -4   7  -4  225.88   37.24
  -4   7  -4  215.11   66.83
   4  -7   5  792.99   38.28
   4  -7   5  848.44   42.49
   4  -7   5  343.42   56.54
  -4   7  -5  855.80   42.40
  -4   7  -5  841.21   39.56
  -4   7  -5  867.35   41.37
   4  -7   6  656.54   71.66
   4  -7   6  617.10   77.78
  -4   7  -6  686.63   43.49
  -4   7  -6  587.84   39.75
  -4   7  -6  721.82   42.73
   4  -7   7  294.37   36.97
   4  -7   7   97.75  106.46
   4  -7   7  407.24   81.38
  -4   7  -7  358.96   48.57
  -4   7  -7  278.94   77.42
  -4   7  -7  341.90   84.90
   4  -7   8  277.76   84.97
   4  -7   8  141.88   35.59
   4  -7   8  314.62  130.04
  -4   7  -8  276.53   82.27
  -4   7  -8  143.56   40.96
   4  -6  -6  226.03   66.00
   4  -6  -6  259.74   33.42
  -4   6   6  309.63   34.66
  -4   6   6  223.47   62.11
  -4   6   6   19.23   47.72
   4  -6  -5  227.70   28.84
  -4   6   5  288.63   33.42
  -4   6   5  246.97   58.30
  -4   6   5    6.41  102.44
   4  -6  -4  290.95   35.62
   4  -6  -4  262.39   27.58
  -4   6   4  147.05   69.50
  -4   6   4  221.50   29.31
  -4   6   4  297.72   59.63
   4  -6  -3  138.51   26.88
   4  -6  -3  129.15   31.52
  -4   6   3   30.65   44.47
  -4   6   3  136.83   28.67
  -4   6   3   91.74   27.96
   4  -6  -2  858.74   31.03
   4  -6  -2  811.92   34.25
  -4   6   2  882.38   59.61
  -4   6   2  730.49   59.66
  -4   6   2    1.21   77.06
   4  -6  -1  514.64   28.84
   4  -6  -1  467.76   31.47
  -4   6   1    0.35   34.07
  -4   6   1  471.18   25.82
  -4   6   1  435.84   30.41
   4  -6   0  236.45   25.97
  -4   6   0  240.15   29.98
  -4   6   0  234.54   29.59
  -4   6   0  212.27   25.01
   4  -6   1  110.86   44.92
   4  -6   1   47.35   25.76
  -4   6  -1  121.98   29.41
  -4   6  -1  124.38   49.57
  -4   6  -1  119.99   29.65
   4  -6   2   22.99   29.34
   4  -6   2   10.15   22.53
   4  -6   2  -17.92   85.21
  -4   6  -2   15.89   30.45
  -4   6  -2   44.53   29.18
  -4   6  -2   30.24   51.90
   4  -6   3  172.48   25.12
   4  -6   3  217.16   30.69
   4  -6   3   94.79   32.49
  -4   6  -3  220.64   29.53
  -4   6  -3  200.40   31.20
  -4   6  -3  201.33   31.75
   4  -6   4   26.91   27.30
   4  -6   4   72.14   41.51
   4  -6   4   57.78   62.21
  -4   6  -4   32.08   30.13
  -4   6  -4   32.27   30.92
  -4   6  -4   25.28   30.87
   4  -6   5   82.27   32.74
   4  -6   5   26.66   36.83
   4  -6   5   94.96   58.39
  -4   6  -5  100.93   30.86
  -4   6  -5  193.03   69.40
   4  -6   6   24.55   29.81
   4  -6   6   93.12   89.31
   4  -6   6   71.51   29.99
  -4   6  -6   38.09   28.15
  -4   6  -6   59.96   32.22
   4  -6   7   21.08   31.59
   4  -6   7   74.73   44.81
  -4   6  -7   -8.57   40.76
  -4   6  -7   19.99   33.50
  -4   6  -7  102.20   38.06
   4  -6   8  300.99   38.14
   4  -6   8  129.53   37.87
   4  -6   8  163.90   30.30
  -4   6  -8  257.66   40.00
  -4   6  -8  221.22   34.18
   4  -6   9  142.19   28.37
   4  -6   9   40.39   56.19
   4  -6   9  291.53   68.80
  -4   6  -9  191.97   33.54
  -4   6  -9  223.59   72.76
   4  -5  -7  175.66   40.59
   4  -5  -7  150.84   36.86
  -4   5   7  141.51   62.15
  -4   5   7  165.83   33.54
  -4   5   7  138.47   65.48
   4  -5  -6  178.96   34.49
   4  -5  -6  144.97   30.54
  -4   5   6    9.01   44.84
  -4   5   6   70.95   25.58
  -4   5   6  177.59   59.08
   4  -5  -5   43.57   49.81
   4  -5  -5   44.01   25.28
  -4   5   5  -36.35   82.08
  -4   5   5   34.92   24.94
   4  -5  -4   62.19   27.53
   4  -5  -4   30.89   24.33
  -4   5   4   18.67   38.19
  -4   5   4   48.07   24.91
  -4   5   4   35.20   47.29
   4  -5  -3    0.96   23.24
  -4   5   3   -4.86   26.16
  -4   5   3    4.64   48.47
  -4   5   3   16.79   22.46
   4  -5  -2  163.55   26.26
  -4   5   2  193.31   22.17
  -4   5   2  157.44   26.33
  -4   5   2    4.78   70.92
   4  -5  -1  462.80   22.85
   4  -5  -1  490.68   28.02
  -4   5   1   25.30   42.08
  -4   5   1  515.40   23.32
  -4   5   1  413.65   27.73
   4  -5   0  808.89   30.10
   4  -5   0  907.06   48.36
   4  -5   0  -13.24   49.42
  -4   5   0  698.72   20.22
  -4   5   0  829.31   30.41
  -4   5   0  940.18   30.59
   4  -5   1  842.19   23.14
   4  -5   1  813.28   29.75
  -4   5  -1  799.32   30.59
  -4   5  -1  868.91   47.51
  -4   5  -1  872.79   54.24
   4  -5   2  429.81   27.31
   4  -5   2  425.42   28.40
   4  -5   2  466.54   39.82
  -4   5  -2  503.19   24.27
  -4   5  -2  464.63   27.89
  -4   5  -2  531.22   30.26
   4  -5   3   -4.13   29.13
   4  -5   3  336.41   53.18
   4  -5   3  336.17   21.82
  -4   5  -3  365.97   28.26
  -4   5  -3  378.41   28.85
   4  -5   4  385.16   25.26
   4  -5   4  349.73   28.83
   4  -5   4  228.14   28.18
  -4   5  -4  402.84   26.87
  -4   5  -4  398.72   29.51
  -4   5  -4  416.03   29.48
   4  -5   5  174.30   26.36
   4  -5   5  198.64   37.19
  -4   5  -5  156.59   48.57
  -4   5  -5  182.07   57.30
   4  -5   6   64.59   27.06
   4  -5   6   68.19   49.46
   4  -5   6   74.17   25.49
  -4   5  -6   76.75   29.19
  -4   5  -6   99.23   32.20
   4  -5   7   30.13   42.12
   4  -5   7   57.36   45.83
   4  -5   7   79.34   50.93
  -4   5  -7   61.11   24.36
  -4   5  -7   89.61   28.76
  -4   5  -7   87.36   35.99
   4  -5   8  190.33   40.19
   4  -5   8   63.22   26.18
   4  -5   8  134.15   27.21
  -4   5  -8  100.38   28.86
   4  -5   9   44.15   29.59
   4  -5   9  159.95   36.76
   4  -5   9  138.45   52.75
  -4   5  -9   63.07   30.14
  -4   5  -9  131.15   62.95
   4  -5  10   47.34   64.43
   4  -5  10  102.16   45.43
   4  -5  10  107.00   39.23
  -4   5 -10   45.74   33.24
  -4   5 -10   77.44   30.90
   4  -5  11  121.62   37.25
   4  -5  11  311.74   82.54
   4  -4  -8  319.42   67.15
   4  -4  -8  504.53   42.55
  -4   4   8  385.54   36.70
  -4   4   8  325.06   55.84
  -4   4   8  -11.52   53.95
   4  -4  -7  440.22   32.08
   4  -4  -7  460.69   34.73
  -4   4   7   25.15   49.85
  -4   4   7  319.77   24.30
  -4   4   7  410.22   58.26
   4  -4  -6  614.48   64.64
  -4   4   6  517.52   27.41
  -4   4   6  -23.67   42.15
   4  -4  -5   30.88   23.59
   4  -4  -5   21.07   24.81
  -4   4   5   11.99   22.74
  -4   4   5   51.00   48.52
  -4   4   5   -0.70   78.22
   4  -4  -4   46.17   19.38
   4  -4  -4   37.25   21.51
  -4   4   4    4.37   37.27
  -4   4   4   38.47   39.95
  -4   4   4   31.32   44.54
   4  -4  -3   52.85   22.73
   4  -4  -3   59.96   39.06
  -4   4   3   76.72   17.77
  -4   4   3   80.92   41.65
  -4   4   3    4.22   75.61
   4  -4  -2   93.14   17.43
   4  -4  -2   96.82   22.30
  -4   4   2   12.47   32.54
  -4   4   2   89.77   17.09
  -4   4   2   74.47   20.69
   4  -4  -1  339.87   32.67
  -4   4   1  275.18   22.97
  -4   4   1   -8.56   24.22
  -4   4   1  306.50   18.34
   4  -4   0  180.20   16.82
   4  -4   0    0.51   19.87
  -4   4   0   -7.89   25.94
  -4   4   0  160.58   16.34
  -4   4   0  170.87   22.09
   4  -4   1  202.37   16.18
   4  -4   1  228.68   22.87
  -4   4  -1  201.19   22.39
  -4   4  -1  223.21   17.78
  -4   4  -1  201.14   22.51
   4  -4   2   -4.64   23.59
   4  -4   2  411.20   17.13
   4  -4   2  428.67   23.85
  -4   4  -2  442.25   19.28
   4  -4   3  673.15   19.95
   4  -4   3  652.00   25.09
   4  -4   3  546.20   24.78
  -4   4  -3  660.46   20.96
  -4   4  -3  610.93   25.41
  -4   4  -3  708.66   27.07
   4  -4   4  355.03   21.42
   4  -4   4  315.15   25.87
   4  -4   4  456.14   22.54
  -4   4  -4  424.25   19.94
  -4   4  -4  438.24   25.65
  -4   4  -4  478.02   50.76
   4  -4   5  751.83   44.54
   4  -4   5  860.67   24.92
   4  -4   5  231.22   56.84
  -4   4  -5  720.73   22.55
  -4   4  -5  844.75   49.74
  -4   4  -5  842.69   29.78
   4  -4   6  784.26   30.73
   4  -4   6  687.23   43.88
   4  -4   6  572.22   20.44
  -4   4  -6  685.35   25.99
  -4   4  -6  710.12   31.37
   4  -4   7  604.94   21.56
   4  -4   7  634.29   52.89
   4  -4   7  615.18   25.65
  -4   4  -7  701.36   27.26
  -4   4  -7  797.52   28.01
   4  -4   8  360.70   53.26
   4  -4   8  364.09   26.42
   4  -4   8  382.17   38.38
  -4   4  -8  462.05   27.46
   4  -4   9  119.68   24.96
   4  -4   9  133.13   17.61
   4  -4   9  155.59   55.74
  -4   4  -9  177.12   55.76
  -4   4  -9  198.96   49.72
   4  -4  10   57.02   34.71
   4  -4  10    5.40   28.90
   4  -4  10   81.82   67.50
  -4   4 -10  120.42   56.72
  -4   4 -10    5.00   30.29
   4  -4  11   10.59   30.07
   4  -4  11  -18.32   32.28
   4  -4  11   97.98   38.63
   4  -3  -9   54.83   47.88
   4  -3  -9    5.86   33.49
  -4   3   9   15.58   33.52
  -4   3   9   57.40   47.57
  -4   3   9  144.73   53.22
   4  -3  -8  585.92   28.33
   4  -3  -8  497.12   33.70
  -4   3   8   14.91   39.61
  -4   3   8  593.59   35.48
  -4   3   8  488.50   49.72
   4  -3  -7  669.23   61.73
   4  -3  -7  583.60   29.10
  -4   3   7  648.01   33.51
  -4   3   7  509.03   43.36
  -4   3   7   16.19   36.64
   4  -3  -6  525.89   27.20
   4  -3  -6  508.27   27.95
  -4   3   6   27.32   40.64
  -4   3   6  410.85   22.58
   4  -3  -5  218.87   19.85
   4  -3  -5  266.36   24.54
  -4   3   5  188.58   19.83
  -4   3   5  255.30   41.16
  -4   3   5   13.16   75.74
   4  -3  -4  998.39   22.03
   4  -3  -4 1110.76   26.64
  -4   3   4 1089.78   21.98
  -4   3   4  960.69   41.53
  -4   3   4    7.95   66.76
   4  -3  -3  397.21   17.98
   4  -3  -3  394.36   38.90
  -4   3   3  331.00   37.53
  -4   3   3  -12.09   60.23
  -4   3   3  400.47   32.35
   4  -3  -2  451.12   31.42
   4  -3  -2  377.93   18.73
  -4   3   2   -6.91   34.33
  -4   3   2  377.76   19.14
   4  -3  -1   13.82   44.05
   4  -3  -1  676.85   19.58
  -4   3   1  644.15   20.66
  -4   3   1  721.46   28.36
  -4   3   1  -10.96   21.04
   4  -3   0   97.41   45.96
   4  -3   0  114.41   22.49
  -4   3   0   -3.37   22.20
  -4   3   0  150.77   25.72
  -4   3   0  128.04   35.35
   4  -3   1  193.69   12.84
   4  -3   1  217.51   23.70
  -4   3  -1  227.14   18.93
  -4   3  -1  194.88   13.60
  -4   3  -1  197.97   18.71
   4  -3   2  281.69   13.16
   4  -3   2  238.50   16.70
   4  -3   2  285.68   37.25
  -4   3  -2  322.76   14.57
  -4   3  -2  333.62   19.75
  -4   3  -2  325.60   21.92
   4  -3   3  102.40   18.37
   4  -3   3  129.75   26.41
   4  -3   3   81.37   15.54
  -4   3  -3  108.12   18.65
  -4   3  -3  142.33   20.41
   4  -3   4  140.10   16.28
   4  -3   4   97.86   16.73
   4  -3   4   30.82   25.97
  -4   3  -4   98.33   13.31
  -4   3  -4  105.35   18.92
  -4   3  -4  102.26   19.22
   4  -3   5  466.19   18.88
   4  -3   5  539.51   22.36
   4  -3   5  583.08   33.67
  -4   3  -5  524.83   20.89
  -4   3  -5  555.12   44.20
   4  -3   6  853.31   19.03
   4  -3   6  998.64   22.80
   4  -3   6 1063.48   47.34
  -4   3  -6 1005.76   29.47
  -4   3  -6  807.20   18.82
  -4   3  -6 1038.41   42.15
   4  -3   7  950.53   41.82
   4  -3   7 1002.74   27.67
   4  -3   7  880.77   34.53
  -4   3  -7 1070.36   43.01
  -4   3  -7  860.91   21.98
   4  -3   8  612.30   28.18
   4  -3   8  551.20   30.67
   4  -3   8  592.35   23.83
  -4   3  -8  509.67   22.49
  -4   3  -8  661.73   22.26
   4  -3   9  578.20   51.21
   4  -3   9  557.60   28.25
   4  -3   9  453.20   29.04
  -4   3  -9  696.85   44.83
  -4   3  -9  569.48   27.68
   4  -3  10   59.88   25.37
   4  -3  10   43.04   27.36
   4  -3  10   42.91   28.65
  -4   3 -10   37.70   30.60
  -4   3 -10  176.38   49.34
   4  -3  11  107.45   32.14
   4  -3  11   72.84   53.42
   4  -3  11   87.44   62.63
  -4   3 -11  123.60   43.15
   4  -3  12  130.65   29.76
   4  -3  12  133.71   36.36
   4  -3  12  143.68   72.33
  -4   2  10   30.67   32.88
  -4   2  10   26.49   39.76
  -4   2  10  225.84  107.48
  -4   2   9   28.75   29.20
  -4   2   9   -4.29   34.09
  -4   2   9  -28.77  158.06
  -4   2   9   43.67   81.54
  -4   2   9   69.09   44.01
   4  -2  -8   67.66   16.90
  -4   2   8  127.63   22.07
  -4   2   8  -29.61   73.16
  -4   2   8  110.96   26.98
   4  -2  -7  262.07   25.62
   4  -2  -7  357.79   47.91
  -4   2   7  254.72   19.30
  -4   2   7  275.46   50.44
  -4   2   7   38.16  100.77
   4  -2  -6  266.24   22.56
   4  -2  -6  219.70   40.89
  -4   2   6   -0.78   30.74
  -4   2   6  246.70   21.09
  -4   2   6  205.76   16.99
   4  -2  -5  233.94   21.32
   4  -2  -5  189.67   19.76
  -4   2   5   19.35   33.83
  -4   2   5  182.31   19.64
  -4   2   5  195.12   34.00
   4  -2  -4 1326.50   24.69
   4  -2  -4 1154.31   35.91
  -4   2   4    3.62   31.50
  -4   2   4 1431.61   22.89
  -4   2   4 1135.34   20.47
   4  -2  -3 1322.98   30.70
   4  -2  -3 1513.05   25.13
  -4   2   3 1329.71   31.95
  -4   2   3 1222.01   21.39
   4  -2  -2 1568.34   23.96
   4  -2  -2 1481.50   18.05
  -4   2   2 1401.28   21.89
  -4   2   2 1469.85   17.24
  -4   2   2    1.90   53.93
   4  -2  -1  317.56   19.86
   4  -2  -1 1682.40   17.49
   4  -2  -1 1565.84   37.88
  -4   2   1 1476.83   21.11
  -4   2   1 1463.40   15.24
  -4   2   1    3.18   39.62
   4  -2   0  785.58   18.63
   4  -2   0  964.40   22.79
   4  -2   0  827.43   12.75
  -4   2   0  908.60   14.04
  -4   2   0   10.34   19.23
  -4   2   0  826.97   33.44
   4  -2   1 1331.93   20.23
   4  -2   1 1634.97   23.93
   4  -2   1 1492.35   22.64
  -4   2  -1 1656.05   16.47
  -4   2  -1 1511.43   22.10
  -4   2  -1 1499.65   22.04
   4  -2   2  140.52   14.12
   4  -2   2  148.42   19.18
   4  -2   2  165.81   33.48
  -4   2  -2  146.00    9.62
  -4   2  -2  158.20   15.42
  -4   2  -2  145.35   16.48
   4  -2   3   84.42   13.82
   4  -2   3   38.35   20.37
   4  -2   3  146.60   22.85
  -4   2  -3  116.44   11.53
  -4   2  -3   91.91   15.30
  -4   2  -3   79.30   15.17
   4  -2   4  107.08   12.97
   4  -2   4  116.37   15.80
   4  -2   4  119.46   21.61
  -4   2  -4  119.96   10.53
  -4   2  -4  117.93   15.35
  -4   2  -4  103.04   16.92
   4  -2   5    8.84   12.77
   4  -2   5    9.77   35.76
   4  -2   5   16.97   25.01
  -4   2  -5   14.99   10.77
  -4   2  -5   36.89   35.77
  -4   2  -5   19.12   29.12
   4  -2   6  229.91   15.62
   4  -2   6  232.45   20.06
   4  -2   6  203.59   25.84
  -4   2  -6  250.57   22.44
  -4   2  -6  202.60   27.80
  -4   2  -6  203.89   30.19
   4  -2   7  368.32   13.62
   4  -2   7  454.61   41.67
   4  -2   7  421.36   35.39
  -4   2  -7  441.93   32.57
  -4   2  -7  433.18   35.82
   4  -2   8  196.37   21.19
   4  -2   8  247.28   38.97
   4  -2   8  206.50   14.13
  -4   2  -8  200.58   21.35
  -4   2  -8  217.29   16.32
   4  -2   9  332.85   22.83
   4  -2   9  318.85   48.40
   4  -2   9  347.28   42.89
  -4   2  -9  418.07   36.29
  -4   2  -9  329.09   29.50
   4  -2  10  101.26   26.93
   4  -2  10  100.90   23.98
   4  -2  10   87.52   27.28
  -4   2 -10  141.06   19.61
   4  -2  11  286.15   26.68
   4  -2  11  285.72   32.03
   4  -2  11  293.93   61.90
  -4   2 -11  229.21   24.63
  -4   2 -11  339.64   35.77
   4  -2  12  647.50   32.37
   4  -2  12  724.10   40.54
   4  -2  12  659.11   38.19
   4  -2  13  515.22   37.65
   4  -2  13  598.21   45.98
   4  -2  13  567.38   43.70
  -4   1  10   82.84   31.34
  -4   1  10   67.57   37.35
  -4   1  10   93.53   75.57
  -4   1   9  101.41   27.72
  -4   1   9   71.62   35.12
  -4   1   9  104.37   66.93
  -4   1   8  355.01   26.60
  -4   1   8  414.19   62.93
  -4   1   8  358.34   35.39
  -4   1   8  310.84   34.94
  -4   1   8  200.36  107.07
   4  -1  -7  216.55   25.58
  -4   1   7  206.68   15.15
  -4   1   7    8.59   61.98
  -4   1   7  243.53   23.36
  -4   1   7   96.67  202.63
   4  -1  -6   56.75   19.14
   4  -1  -6   47.18   13.65
  -4   1   6   13.71   56.73
  -4   1   6   70.46   20.09
  -4   1   6   46.88   13.36
   4  -1  -5  243.01   33.12
   4  -1  -5  251.25   32.56
  -4   1   5  285.86   34.51
  -4   1   5  231.72   14.16
  -4   1   5   18.16   25.84
   4  -1  -4  277.88   14.49
   4  -1  -4  326.32   33.10
  -4   1   4    5.23   29.88
  -4   1   4  348.17   29.93
  -4   1   4  266.90   26.43
   4  -1  -3  771.91   27.24
   4  -1  -3  787.94   19.72
  -4   1   3  683.09   13.93
  -4   1   3    4.46   51.49
  -4   1   3  648.71   16.41
   4  -1  -2  469.00   11.11
   4  -1  -2  542.67   17.29
  -4   1   2   -9.41   20.57
  -4   1   2  513.93   11.45
  -4   1   2  495.29   16.90
   4  -1  -1  654.99   16.73
   4  -1  -1  713.25   18.91
   4  -1  -1  612.70   10.22
  -4   1   1  667.54   17.64
  -4   1   1    0.03   18.41
  -4   1   1  624.17   17.61
   4  -1   0  798.45   16.80
   4  -1   0 1117.04   25.68
   4  -1   0  820.97   10.00
  -4   1   0  820.04    9.93
  -4   1   0  914.44   20.02
   4  -1   1 4935.31   30.46
   4  -1   1 4865.12   18.62
   4  -1   1 4666.47   29.15
  -4   1  -1 4885.68   30.09
  -4   1  -1 5648.29   52.55
   4  -1   2 2093.95   21.16
   4  -1   2 1918.80   36.08
   4  -1   2 2371.84   14.20
  -4   1  -2 2541.98   26.42
  -4   1  -2 2139.82   22.33
   4  -1   3  637.80   15.03
   4  -1   3  599.58   15.58
   4  -1   3  667.41    9.93
  -4   1  -3  734.70   18.73
  -4   1  -3  582.35   15.91
  -4   1  -3  555.85   14.40
   4  -1   4  211.94   12.65
   4  -1   4  238.26   16.42
   4  -1   4  248.29    9.68
  -4   1  -4  237.57   16.08
  -4   1  -4  225.36   15.12
   4  -1   5  344.21   17.11
   4  -1   5  310.12   12.71
  -4   1  -5  323.68   18.39
  -4   1  -5  373.98   16.46
  -4   1  -5  324.03   23.61
   4  -1   6  824.28   19.98
   4  -1   6  901.71   31.24
   4  -1   6  861.20   25.74
  -4   1  -6  937.74   31.76
   4  -1   7  759.55   20.82
   4  -1   7  997.05   21.21
   4  -1   7  859.89   19.36
  -4   1  -7  962.71   17.68
   4  -1   8  128.69   20.17
   4  -1   8  167.11   36.38
   4  -1   8  146.96   18.66
  -4   1  -8  203.87   27.55
  -4   1  -8  136.67   12.78
   4  -1   9   21.09   23.12
   4  -1   9   26.38   20.20
   4  -1   9   17.93   21.56
  -4   1  -9   28.77   13.64
  -4   1  -9   14.01   22.39
   4  -1  10   26.10   28.19
   4  -1  10    4.85   51.18
   4  -1  10   -1.95   23.98
  -4   1 -10    4.03   10.71
  -4   1 -10   25.73   13.48
   4  -1  11  322.91   30.03
   4  -1  11  231.59   65.60
   4  -1  11  240.54   61.64
  -4   1 -11  271.25   26.76
  -4   1 -11  212.27   21.27
   4  -1  12  438.99   34.74
   4  -1  12  393.44   73.72
   4  -1  13  272.05   33.07
   4  -1  13  260.55   43.12
  -4   0  10  216.21   31.06
  -4   0  10  197.47   37.94
  -4   0  10   25.27   29.19
  -4   0   9  328.71   28.90
  -4   0   9   43.56   28.60
  -4   0   9  403.83   66.29
  -4   0   8  616.56   27.91
  -4   0   8  567.28   30.98
  -4   0   8  547.74   15.45
  -4   0   8  519.28   15.48
  -4   0   8   -4.34   23.66
  -4   0   7  758.92   25.02
  -4   0   7  734.27   28.12
  -4   0   7  597.20   14.42
  -4   0   7   -3.06   22.26
  -4   0   6  367.12   20.23
  -4   0   6  411.83   26.31
  -4   0   6  378.53   31.93
  -4   0   6  328.23   26.63
  -4   0   6   -6.16   72.55
  -4   0   5  883.69   20.40
  -4   0   5  816.47   21.97
  -4   0   5  721.90   15.69
  -4   0   5   46.64   72.73
   4   0  -4  349.81   14.74
   4   0  -4  341.16   28.49
  -4   0   4  362.44   15.33
  -4   0   4  357.61   28.65
  -4   0   4    5.31   46.82
   4   0  -3   -0.73   11.12
   4   0  -3    9.51   20.95
  -4   0   3   -5.04   22.41
  -4   0   3   10.63   20.11
  -4   0   3   46.56   34.29
   4   0  -2   44.24    7.96
   4   0  -2   53.15   23.27
  -4   0   2   -0.66   17.09
  -4   0   2   41.51    7.51
  -4   0   2   33.30   13.88
   4   0  -1  121.29    6.87
   4   0  -1  114.97   12.36
   4   0  -1   98.43   47.02
  -4   0   1  136.67   15.12
  -4   0   1   91.38   10.74
  -4   0   1   13.66   26.10
   4   0   0 2009.86   20.16
   4   0   0  663.51   20.39
   4   0   0 1919.60    9.94
  -4   0   0 1884.38    9.69
  -4   0   0 2234.59   23.02
   4   0   1 1562.00   10.94
   4   0   1 1821.39   19.37
   4   0   1 1779.46   29.29
  -4   0  -1 2185.73   23.61
  -4   0  -1 1837.07   11.53
  -4   0  -1 1671.17   17.65
   4   0   2  369.02    7.54
   4   0   2  306.16   11.54
  -4   0  -2  340.70   23.49
  -4   0  -2  388.80   15.68
   4   0   3  269.00   14.40
   4   0   3  291.79   10.78
   4   0   3  270.06   22.80
  -4   0  -3  245.84    5.91
  -4   0  -3  293.39   14.72
  -4   0  -3  244.61   15.15
   4   0   4  694.03   17.67
   4   0   4  606.33   16.24
  -4   0  -4  572.84   16.60
  -4   0  -4  176.91   97.91
  -4   0  -4  673.12   16.29
   4   0   5 1800.87   21.22
   4   0   5 1951.80   26.27
   4   0   5 2092.81   17.03
  -4   0  -5 2380.35   23.51
  -4   0  -5 2226.72   21.68
   4   0   6 2244.56   19.98
   4   0   6 2169.84   38.35
   4   0   6 2788.22   22.75
  -4   0  -6  325.30   29.40
  -4   0  -6 2521.60   20.92
   4   0   7 1806.34   35.33
   4   0   7 1654.60   21.97
   4   0   7 1539.96   23.51
  -4   0  -7 1724.69   19.47
   4   0   8  222.92   40.55
   4   0   8  221.84   18.53
  -4   0  -8  214.65   23.55
  -4   0  -8  217.50   12.50
   4   0   9  138.45   24.03
   4   0   9  149.47   21.40
   4   0   9  143.53   22.07
  -4   0  -9  140.94   12.98
  -4   0  -9  176.00   27.05
   4   0  10  112.77   24.40
   4   0  10  102.97   26.26
  -4   0 -10  144.57   21.79
   4   0  11  277.00   25.55
   4   0  11  354.36   32.19
   4   0  11  318.66   69.59
  -4   0 -11  301.81   22.07
  -4   0 -11  278.67   20.52
   4   0  12  232.81   32.47
   4   0  12  203.64   36.80
   4   0  12  246.92   80.73
   4   0  13  111.39   33.01
   4   0  13   48.88   36.13
  -4  -1  10   39.57   28.83
  -4  -1  10   36.81   35.50
  -4  -1  10   38.17   29.41
  -4  -1   9   89.04   25.73
  -4  -1   9   38.38   27.22
  -4  -1   9   84.74   67.96
  -4  -1   8  335.98   34.76
  -4  -1   8  247.55   11.01
  -4  -1   8   43.89   24.83
  -4  -1   8  310.36   44.95
  -4  -1   8  246.46   22.88
  -4  -1   7  762.43   21.69
  -4  -1   7  760.28   15.22
  -4  -1   7  641.79   13.20
  -4  -1   7  827.25   57.79
  -4  -1   7   72.39   45.71
  -4  -1   6  663.57   25.17
  -4  -1   6  595.24   13.46
  -4  -1   6  595.30   13.83
  -4  -1   6   37.71   20.99
  -4  -1   6  591.72   33.77
  -4  -1   5 1205.72   18.97
  -4  -1   5  -28.21   43.04
  -4  -1   5 1517.72   43.67
  -4  -1   5 1435.97   32.00
  -4  -1   4  673.06   14.44
  -4  -1   4  749.97   18.64
  -4  -1   4  754.64   17.16
  -4  -1   4   -7.89   19.18
  -4  -1   3  418.30   11.75
  -4  -1   3  442.56   14.27
  -4  -1   3  485.61   16.24
  -4  -1   3   88.14   26.05
  -4  -1   3  502.95   42.17
  -4  -1   2 1017.61   11.19
  -4  -1   2 1173.80   14.41
  -4  -1   2   47.76   12.70
  -4  -1   2 1317.70   33.72
  -4  -1   2   44.76   32.65
   4   1  -1  564.25   43.15
  -4  -1   1  537.74   16.22
  -4  -1   1  515.35   26.61
  -4  -1   1    8.72   22.55
  -4  -1   1  393.83   11.74
   4   1   0 1219.56   18.27
  -4  -1   0 1385.37   19.35
  -4  -1   0  962.12   12.08
  -4  -1   0 1083.81    8.75
  -4  -1   0 1293.44   11.07
  -4  -1   0 1274.46   30.31
   4   1   1  472.99   14.54
  -4  -1  -1   21.65   12.64
  -4  -1  -1  386.45    9.91
   4   1   2   35.97    9.94
  -4  -1  -2   53.97   11.81
  -4  -1  -2   24.72    9.54
  -4  -1  -2   61.12   12.93
   4   1   3  901.16   10.25
   4   1   3 1019.87   18.16
   4   1   3  939.03    9.12
  -4  -1  -3 2148.09   36.23
   4   1   4  138.42   12.63
   4   1   4   86.08   12.14
   4   1   4  122.25   10.88
  -4  -1  -4  128.57   12.71
   4   1   5  790.79   15.87
   4   1   5  943.99   11.77
   4   1   5  906.40   12.96
  -4  -1  -5 1033.61   16.53
  -4  -1  -5 1098.68   28.36
   4   1   6  691.92   14.63
   4   1   6  588.02   16.33
   4   1   6  748.48   13.85
  -4  -1  -6  662.48   13.33
  -4  -1  -6  779.68   15.76
   4   1   7 1289.48   24.02
   4   1   7 1423.49   19.28
   4   1   7 1355.20   20.88
  -4  -1  -7 1316.31   17.21
  -4  -1  -7 1433.24   28.92
   4   1   8  413.42   20.52
   4   1   8  465.26   18.38
  -4  -1  -8  377.82   12.36
  -4  -1  -8  377.62   12.20
   4   1   9  277.85   29.04
   4   1   9  280.09   48.74
   4   1   9  256.56   20.41
  -4  -1  -9  258.40   12.41
  -4  -1  -9  222.19   11.28
   4   1  10 1002.07   26.27
   4   1  10 1226.67   40.05
   4   1  10 1064.90   37.78
  -4  -1 -10  957.00   25.06
  -4  -1 -10  811.84   23.47
   4   1  11 1040.11   29.90
   4   1  11 1205.32   40.80
   4   1  11 1183.62   44.48
  -4  -1 -11  876.80   19.94
  -4  -1 -11  921.61   21.59
   4   1  12  213.32   27.36
   4   1  12  182.13   33.59
   4   1  12  215.56   43.51
   4   1  13  177.58   50.99
   4   1  13  144.84   79.02
  -4  -2  10   54.02   38.09
  -4  -2  10   36.43   27.39
  -4  -2  10   71.86   55.98
  -4  -2   9   30.49   24.87
  -4  -2   9   57.72   33.59
  -4  -2   9   25.61   23.98
  -4  -2   8   53.18   22.98
  -4  -2   8   30.43   22.58
  -4  -2   8   36.89   61.97
  -4  -2   8   72.81   21.04
  -4  -2   8   52.32   16.86
  -4  -2   7   16.35   18.54
  -4  -2   7   35.95   27.61
  -4  -2   7   16.35    9.74
  -4  -2   7   26.87   19.52
  -4  -2   7   40.43   20.02
  -4  -2   6  566.79   30.95
  -4  -2   6  406.19   12.19
  -4  -2   6   33.62   19.84
  -4  -2   6  394.58   36.88
  -4  -2   6  495.06   23.86
  -4  -2   5  542.17   18.21
  -4  -2   5  628.93   23.73
  -4  -2   5  551.37   14.79
  -4  -2   5   19.33   38.89
  -4  -2   5  547.33   24.27
  -4  -2   4  182.02   13.50
  -4  -2   4  222.48   17.53
  -4  -2   4  208.60   12.62
  -4  -2   4   29.54   19.61
  -4  -2   4  199.63   26.14
  -4  -2   3  395.51   11.48
  -4  -2   3  425.56   14.52
  -4  -2   3  346.95   11.08
  -4  -2   3  435.84   27.38
  -4  -2   3   60.01   31.12
  -4  -2   2  870.50   11.03
  -4  -2   2  881.54   12.27
  -4  -2   2  927.06   15.58
  -4  -2   2  875.12   25.19
  -4  -2   2   -0.41   22.07
   4   2  -1 2574.51   18.50
  -4  -2   1 2311.85   14.38
  -4  -2   1 2374.10   20.14
  -4  -2   1 2284.34   13.28
   4   2   0  961.72   91.52
   4   2   0 4011.42   22.55
   4   2   0 3868.36   14.11
  -4  -2   0 4252.57   25.75
  -4  -2   0 3633.96   17.99
  -4  -2   0 4571.58   18.87
  -4  -2   0 3530.77   15.56
   4   2   1 1761.97   13.82
  -4  -2  -1 1874.89   14.43
  -4  -2  -1 2100.61    9.92
  -4  -2  -1 2233.25   30.84
   4   2   2  348.20   11.54
   4   2   2  297.32    5.46
   4   2   2  300.49   12.15
  -4  -2  -2  277.73   11.06
  -4  -2  -2  349.77   11.60
   4   2   3  525.84    9.73
   4   2   3  521.27   13.78
  -4  -2  -3  584.87   10.12
  -4  -2  -3  525.26   13.96
   4   2   4  173.70   21.68
   4   2   4  209.81    6.15
  -4  -2  -4  268.06   12.82
  -4  -2  -4  291.12    7.84
   4   2   5  261.19   13.55
   4   2   5  307.51    9.38
   4   2   5  354.17   13.54
  -4  -2  -5  348.51   10.25
  -4  -2  -5  311.93   22.60
   4   2   6   59.65   16.24
   4   2   6   56.18   10.28
  -4  -2  -6   54.42   10.75
  -4  -2  -6   60.95   12.27
   4   2   7   27.99   25.34
   4   2   7  -43.61  113.47
  -4  -2  -7   17.70    9.77
   4   2   8  598.23   19.44
   4   2   8  582.96   22.45
  -4  -2  -8  449.59   12.12
  -4  -2  -8  476.30   23.33
   4   2   9  141.40   20.48
   4   2   9  151.42   23.37
  -4  -2  -9  130.25   21.43
  -4  -2  -9  163.09   24.98
   4   2  10  813.54   29.52
   4   2  10  902.38   50.39
  -4  -2 -10  654.55   21.96
  -4  -2 -10  708.98   25.97
   4   2  11  619.04   29.83
   4   2  11  636.52   37.36
  -4  -2 -11  456.16   20.00
  -4  -2 -11  470.59   25.08
   4   2  12  327.93   31.20
   4   2  12  302.48   34.64
   4   2  13  334.02   83.25
  -4  -3  10  276.55   32.61
  -4  -3  10  256.72   42.26
  -4  -3  10   21.07   27.28
  -4  -3   9  117.08   26.82
  -4  -3   9  113.18   37.17
  -4  -3   9   24.74   26.10
  -4  -3   8  104.67   26.51
  -4  -3   8  102.86   33.12
  -4  -3   8   25.46   20.91
  -4  -3   8  106.73   18.57
  -4  -3   8   89.95   17.41
  -4  -3   7  147.38   30.01
  -4  -3   7  110.24   10.15
  -4  -3   7   24.10   18.55
  -4  -3   7  153.22   24.15
  -4  -3   6  220.60   19.50
  -4  -3   6  271.14   25.83
  -4  -3   6  293.62   15.77
  -4  -3   6   29.57   17.99
  -4  -3   6  301.97   28.34
  -4  -3   5   37.19   20.29
  -4  -3   5   30.12   12.77
  -4  -3   5   66.91   37.79
  -4  -3   5   25.68   30.93
  -4  -3   5   50.43   29.16
  -4  -3   4  144.29   13.60
  -4  -3   4  160.93   16.58
  -4  -3   4  116.83   10.61
  -4  -3   4   -2.24   15.93
   4   3  -3  326.95   14.41
  -4  -3   3  333.79   12.31
  -4  -3   3    0.55    8.69
  -4  -3   3  390.91   14.75
   4   3  -2   -5.06   11.01
   4   3  -2  272.15   11.86
  -4  -3   2  164.79    8.21
  -4  -3   2  339.70   12.75
  -4  -3   2  304.29   20.51
   4   3  -1 1382.39   15.59
   4   3  -1 2209.96   31.59
   4   3  -1  590.08   16.84
  -4  -3   1 1401.65   28.30
  -4  -3   1 1084.91   14.17
  -4  -3   1 1065.10   17.82
   4   3   0 2234.17   21.85
  -4  -3   0 1633.63   10.44
  -4  -3   0 2536.54   22.48
   4   3   1 1017.96   15.00
   4   3   1 1091.17   10.49
   4   3   1 1168.15   15.51
  -4  -3  -1 1283.38   26.90
  -4  -3  -1 1528.53   24.86
   4   3   2 3013.80   21.72
   4   3   2 2869.09   22.39
   4   3   2 2243.79   19.99
  -4  -3  -2 2284.97   11.59
  -4  -3  -2 2257.51   19.69
   4   3   3 1264.73   10.54
   4   3   3 1176.54   13.92
  -4  -3  -3 1212.48   15.44
  -4  -3  -3 1357.41   16.16
   4   3   4  173.51   11.70
  -4  -3  -4  336.96   14.45
   4   3   5 1081.30   21.27
   4   3   5 1189.78   17.90
  -4  -3  -5 1119.13   23.28
  -4  -3  -5  965.81   14.89
   4   3   6  833.45   25.61
  -4  -3  -6  949.62   28.16
  -4  -3  -6  788.18   25.96
   4   3   7   71.46   26.63
  -4  -3  -7   78.03   13.82
  -4  -3  -7   63.89   10.92
   4   3   8  557.86   19.32
   4   3   8 1358.10   39.08
  -4  -3  -8  619.57   36.55
  -4  -3  -8  457.59   23.00
   4   3   9  264.94   21.99
   4   3   9  213.57   29.06
  -4  -3  -9  208.08   20.88
   4   3  10   96.06   24.06
   4   3  10   97.95  140.54
  -4  -3 -10   53.06   20.33
   4   3  11   79.27   28.02
   4   3  11   72.30   60.35
  -4  -3 -11   58.63   22.11
  -4  -3 -11   88.94   26.85
   4   3  12    8.37   31.41
   4   3  12   15.83   67.49
   4   3  13  210.33   37.47
   4   3  13  244.94   77.11
  -4  -4  10  282.77   38.71
  -4  -4  10  228.65   44.30
  -4  -4  10   21.77   26.01
  -4  -4   9  272.47   35.07
  -4  -4   9  353.42   45.07
  -4  -4   9   40.62   21.83
  -4  -4   8  365.36   28.84
  -4  -4   8  441.62   40.26
  -4  -4   8   27.40   19.09
  -4  -4   8  247.97   19.36
  -4  -4   7 1043.45   35.37
  -4  -4   7  819.47   15.80
  -4  -4   7  963.51   52.54
  -4  -4   7 1092.03   33.60
  -4  -4   7   56.30   36.30
  -4  -4   6 1448.22   27.80
  -4  -4   6 1608.00   33.81
  -4  -4   6 1967.19   42.43
  -4  -4   6 1366.68   30.26
  -4  -4   6   41.23   47.51
   4   4  -5  302.51   21.84
   4   4  -5  181.00  102.60
  -4  -4   5   27.11   14.94
  -4  -4   5  288.60   23.40
  -4  -4   5  428.58   20.55
   4   4  -4  116.60   12.80
   4   4  -4  135.75   36.76
  -4  -4   4  221.38   39.66
  -4  -4   4   44.49   21.28
  -4  -4   4  135.39   33.60
   4   4  -3  103.14   16.11
  -4  -4   3   87.06   14.74
  -4  -4   3  102.36   16.62
  -4  -4   3   -1.87    9.01
   4   4  -2   78.75   13.15
   4   4  -2   74.93   12.69
  -4  -4   2   83.16   11.07
  -4  -4   2  120.49   29.62
  -4  -4   2   78.21    6.97
   4   4  -1  177.72   19.91
  -4  -4   1  276.50   14.51
  -4  -4   1  333.99    8.70
  -4  -4   1  233.32    9.61
   4   4   0  420.72   11.01
   4   4   0  378.04   12.80
  -4  -4   0  424.95   14.66
  -4  -4   0  453.63   18.39
   4   4   1  183.01   12.23
   4   4   1  162.33    8.45
   4   4   1  160.34   23.87
  -4  -4  -1  178.11   13.00
   4   4   2 2396.01   27.41
   4   4   2 2142.29   21.47
   4   4   2 2032.31   22.60
  -4  -4  -2 2079.19   33.56
  -4  -4  -2 2163.09   15.36
   4   4   3  311.55   10.84
   4   4   3  301.20   18.53
   4   4   3  314.18   14.38
  -4  -4  -3  284.85    8.53
  -4  -4  -3  300.76   13.77
   4   4   4 1011.66   23.77
   4   4   4  997.65   18.26
  -4  -4  -4  866.91   16.21
  -4  -4  -4  952.40   13.01
   4   4   5 1658.48   21.59
   4   4   5 1502.90   16.89
  -4  -4  -5 1483.50   19.58
  -4  -4  -5 1519.49   16.73
   4   4   6 1645.21   22.51
   4   4   6 1518.30   19.35
  -4  -4  -6 1362.29   17.92
  -4  -4  -6 1515.62   18.69
   4   4   7  559.20   34.02
   4   4   7  494.64   18.38
  -4  -4  -7  421.58   24.45
  -4  -4  -7  576.60   19.09
   4   4   8  591.69   19.97
   4   4   8  645.65   33.22
  -4  -4  -8  414.56   12.96
   4   4   9  497.12   27.61
   4   4   9  492.77   21.02
  -4  -4  -9  412.24   22.04
  -4  -4  -9  303.02   24.92
   4   4  10   58.86   25.28
  -4  -4 -10   60.26   48.35
  -4  -4 -10   49.80   23.26
   4   4  11   16.67   17.28
  -4  -4 -11    7.68   24.73
  -4  -4 -12  119.23   43.11
   4   4  13  146.74   39.90
   4   4  13  137.57   40.06
  -4  -5  10    2.13   42.04
  -4  -5   9   26.27   33.11
  -4  -5   9   41.49   37.51
  -4  -5   8  273.16   32.12
  -4  -5   8   21.36   17.04
  -4  -5   8  278.04   68.80
  -4  -5   8  292.92   35.91
  -4  -5   8  260.79   30.62
  -4  -5   7  654.68   34.33
  -4  -5   7  701.38   60.11
  -4  -5   7  690.56   35.71
  -4  -5   7  481.10   31.74
  -4  -5   7   94.68   52.90
   4   5  -6 1132.31   20.68
   4   5  -6 2762.55   69.83
  -4  -5   6 2932.38   48.06
   4   5  -5 1702.35  212.36
   4   5  -5  954.03   28.93
  -4  -5   5 1235.84   41.12
  -4  -5   5  935.85   27.38
   4   5  -4  232.29   15.24
   4   5  -4  304.88   22.90
  -4  -5   4  393.69   19.52
  -4  -5   4  285.80   20.89
   4   5  -3  458.98   40.35
   4   5  -3  304.59   11.19
  -4  -5   3  568.51   19.63
  -4  -5   3  407.72   16.78
   4   5  -2  956.94   31.02
   4   5  -2 1016.81   19.63
  -4  -5   2 1298.09   40.20
  -4  -5   2  896.62   16.72
   4   5  -1  355.66   29.43
   4   5  -1  387.19   15.81
  -4  -5   1  411.56   18.18
  -4  -5   1  288.84   11.67
   4   5   0  628.73   28.78
   4   5   0  565.32   14.85
  -4  -5   0  633.24   18.42
  -4  -5   0  578.76   14.14
   4   5   1  183.47   13.62
   4   5   1  287.78   14.27
   4   5   1  249.97   13.95
  -4  -5  -1  226.33   11.96
  -4  -5  -1  212.72   15.82
   4   5   2  396.41    8.50
   4   5   2  463.22   13.44
  -4  -5  -2  458.58   16.86
  -4  -5  -2  430.70   12.42
   4   5   3  150.06   24.27
  -4  -5  -3  155.52   11.19
  -4  -5  -3  109.30   26.83
   4   5   4  265.01   28.41
   4   5   4  294.28   15.62
  -4  -5  -4  284.65   24.89
  -4  -5  -4  223.18   13.88
   4   5   5  307.13   27.55
   4   5   5  274.15   15.55
  -4  -5  -5  304.12   25.64
  -4  -5  -5  253.64   14.40
   4   5   6  262.00   16.33
   4   5   6  250.05   15.28
  -4  -5  -6  215.04   14.46
  -4  -5  -6  259.90   14.99
   4   5   7  750.91   21.00
  -4  -5  -7  580.89   29.31
   4   5   8  922.01   23.75
   4   5   8  724.30   23.12
  -4  -5  -8  640.56   16.87
  -4  -5  -8  785.41   21.54
   4   5   9  409.37   24.78
   4   5   9  425.93   22.45
  -4  -5  -9  409.34   26.15
  -4  -5  -9  267.95   28.10
   4   5  10  165.56   24.93
   4   5  10  201.81   43.08
  -4  -5 -10  178.74   49.12
  -4  -5 -10  120.78   29.24
   4   5  11   54.41   18.66
   4   5  11   47.04   28.25
  -4  -5 -11   46.67   15.40
  -4  -5 -11   45.34   28.60
   4   5  12  505.43  308.15
   4   5  12  400.94   35.45
  -4  -5 -12  352.49   46.44
  -4  -5 -12  354.45   33.33
   4   5  13  412.71   39.40
  -4  -5 -13  369.66   41.77
  -4  -6   9  100.48   76.57
  -4  -6   8  140.66   37.03
   4   6  -7  261.54   37.82
   4   6  -7  346.98   76.04
  -4  -6   7  354.11   43.50
  -4  -6   7  302.42   33.75
   4   6  -6  585.16   33.74
  -4  -6   6  662.91   31.61
  -4  -6   6  721.32   23.43
   4   6  -5  248.28   31.10
   4   6  -5  167.21   13.80
  -4  -6   5  253.16   53.70
  -4  -6   5  291.61   41.46
   4   6  -4  318.08   24.83
   4   6  -4  241.63   16.63
  -4  -6   4  335.52   23.98
  -4  -6   4  385.58   41.13
   4   6  -3  397.86   23.37
   4   6  -3  395.81   33.16
  -4  -6   3  387.72   36.17
  -4  -6   3  467.81   40.06
   4   6  -2 1755.66   27.23
   4   6  -2 1454.12   20.93
  -4  -6   2 1897.77   27.24
  -4  -6   2 1283.41   32.43
   4   6  -1 1259.25   38.35
  -4  -6   1 1033.67   18.25
  -4  -6   1 1282.84   24.01
   4   6   0  983.56   36.97
   4   6   0  854.01   20.16
  -4  -6   0 1004.85   31.74
  -4  -6   0  951.25   21.84
   4   6   1 1327.64   15.96
   4   6   1 1415.03   23.48
   4   6   1 1050.65   20.26
  -4  -6  -1 1194.22   22.22
   4   6   2 1034.86   17.13
  -4  -6  -2 1258.01   19.33
  -4  -6  -2 1139.82   21.49
   4   6   3  630.90   17.67
  -4  -6  -3  665.63   17.57
  -4  -6  -3  587.16   34.53
   4   6   4  122.40   19.43
  -4  -6  -4   81.53   14.33
  -4  -6  -4   53.14   15.72
   4   6   5   20.29   15.27
   4   6   5    2.01   15.75
  -4  -6  -5   10.08   15.47
   4   6   6  145.71   19.86
   4   6   6  107.13   17.40
  -4  -6  -6   79.28   16.81
  -4  -6  -6  116.21   16.88
   4   6   7  300.54   22.07
   4   6   7  301.71   20.14
  -4  -6  -7  237.34   16.65
  -4  -6  -7  299.83   35.28
   4   6   8  280.75   22.53
   4   6   8  299.51   20.82
  -4  -6  -8  218.69   17.31
  -4  -6  -8  317.35   43.63
   4   6   9  140.51   25.08
   4   6   9  201.61   24.71
  -4  -6  -9  151.63   22.48
  -4  -6  -9  107.13   34.77
   4   6  10   35.82   24.25
  -4  -6 -10   11.11   27.84
  -4  -6 -10   15.93   16.79
   4   6  11  107.00   51.23
   4   6  11  101.72   32.42
  -4  -6 -11   73.12   18.71
  -4  -6 -11   85.02   29.73
   4   6  12  543.52   51.60
   4   6  12  707.61   41.70
  -4  -6 -12  637.74   71.18
  -4  -6 -12  509.85   27.29
   4   7  -8  318.53   43.42
  -4  -7   8  279.78   39.99
   4   7  -7  244.32   42.64
  -4  -7   7  193.57   35.35
   4   7  -6  137.89   66.98
   4   7  -6  102.53   16.94
  -4  -7   6  320.50   62.27
  -4  -7   6  253.66   40.97
   4   7  -5  186.18   18.53
   4   7  -5  282.79   35.47
  -4  -7   5  279.96   26.02
  -4  -7   5  255.63   30.35
   4   7  -4  354.67   57.67
   4   7  -4  285.75   20.09
  -4  -7   4  408.60   24.72
  -4  -7   4  317.30   24.88
   4   7  -3  106.46   46.43
   4   7  -3  113.69   19.72
  -4  -7   3   83.53   36.09
  -4  -7   3  108.13   22.28
   4   7  -2  142.25   25.67
   4   7  -2  144.84   21.18
  -4  -7   2  112.82   23.61
   4   7  -1  421.15   22.22
   4   7  -1  378.37   19.62
  -4  -7   1  435.23   24.56
  -4  -7   1  394.40   35.25
   4   7   0  964.86   26.09
  -4  -7   0  919.51   20.92
  -4  -7   0 1004.66   26.21
   4   7   1 1218.14   22.86
   4   7   1 1651.38   47.16
  -4  -7  -1 1376.73   22.79
   4   7   2 1121.66   22.54
   4   7   2 1458.59   24.48
  -4  -7  -2 1492.97   27.66
  -4  -7  -2 1521.85   24.10
   4   7   3  580.51   21.95
  -4  -7  -3  525.63   22.83
   4   7   4  835.66   25.35
   4   7   4  579.22   20.78
  -4  -7  -4  809.28   21.39
  -4  -7  -4  705.93   42.82
   4   7   5   33.50   18.15
   4   7   5   43.38   21.29
  -4  -7  -5   24.90   19.42
  -4  -7  -5   48.01   18.86
   4   7   6  535.07   21.88
   4   7   6  595.48   22.70
  -4  -7  -6  530.70   21.41
  -4  -7  -6  641.82   23.36
   4   7   7  776.64   48.03
   4   7   7  715.04   24.72
  -4  -7  -7  589.59   22.97
  -4  -7  -7  708.45   24.17
   4   7   8  297.16   48.67
   4   7   8  231.82   27.92
  -4  -7  -8  225.74   21.35
  -4  -7  -8  224.44   21.64
   4   7   9   96.85   52.58
   4   7   9   58.32   50.12
  -4  -7  -9   44.45   19.58
  -4  -7  -9   46.58   24.48
   4   7  10   29.53   28.09
   4   7  10  122.62   57.51
  -4  -7 -10   39.54   57.01
  -4  -7 -10  122.72   48.30
   4   7  11   23.01   29.84
   4   7  11   14.89   32.18
  -4  -7 -11   -2.74   22.87
  -4  -7 -11   18.89   33.69
   4   8  -8  555.22   49.83
   4   8  -7  344.90   47.61
   4   8  -7  446.57   42.25
  -4  -8   7  555.57   36.05
  -4  -8   7  433.67   42.51
   4   8  -6  321.38   78.47
   4   8  -6  196.43   20.57
  -4  -8   6  501.36   77.60
  -4  -8   6  361.27   38.93
   4   8  -5  243.50   39.36
   4   8  -5  290.32   32.19
  -4  -8   5  424.51   31.42
  -4  -8   5  271.16   27.78
   4   8  -4   83.31   21.93
   4   8  -4   33.68   30.09
  -4  -8   4   85.25   30.13
  -4  -8   4   87.54   25.98
   4   8  -3   98.57   29.24
   4   8  -3   84.40   22.22
  -4  -8   3  129.31   28.53
   4   8  -2   18.36   20.86
   4   8  -2   19.80   27.68
  -4  -8   2    4.80   27.07
  -4  -8   2   13.19   21.62
   4   8  -1   22.04   51.36
   4   8  -1   59.60   21.89
  -4  -8   1   23.09   24.70
  -4  -8   1    6.27   19.20
   4   8   0  388.16   43.18
   4   8   0  340.80   27.52
  -4  -8   0  344.13   25.69
  -4  -8   0  323.40   22.92
   4   8   1  553.23   22.47
   4   8   1  690.85   25.54
  -4  -8  -1  723.26   27.06
  -4  -8  -1  675.15   23.44
   4   8   2   51.40   29.06
   4   8   2  529.86   48.52
   4   8   2  417.27   21.56
  -4  -8  -2  500.55   22.16
  -4  -8  -2  502.54   25.31
   4   8   3   -3.36   17.18
   4   8   3   28.98   21.55
   4   8   3   81.20   24.79
  -4  -8  -3   23.09   23.17
   4   8   4  544.80   30.56
   4   8   4  430.81   23.68
  -4  -8  -4  536.13   28.07
  -4  -8  -4  428.04   49.85
   4   8   5  579.06   54.73
   4   8   5  521.04   24.63
  -4  -8  -5  480.35   26.48
  -4  -8  -5  579.68   27.44
   4   8   6  733.07   50.66
   4   8   6  773.24   29.32
  -4  -8  -6  652.80   27.41
  -4  -8  -6  760.52   28.44
   4   8   7 1151.82   62.01
   4   8   7 1003.65   30.17
  -4  -8  -7  918.47   52.44
  -4  -8  -7 1118.57   31.65
  -4  -8  -8  455.87   28.23
  -4  -8  -8  404.37   48.17
   4   8   9   41.48   59.10
   4   8   9   65.91   31.65
  -4  -8  -9   18.49   46.51
  -4  -8  -9   29.89   27.06
   4   8  10  426.64   71.18
   4   8  10  280.99   34.95
  -4  -8 -10  245.92   60.58
  -4  -8 -10  238.28   26.52
   4   8  11  158.96   70.46
   4   8  11   82.15   36.81
  -4  -8 -11   44.22   26.91
  -4  -8 -11   81.66   37.26
   4   9  -6  168.93   22.91
   4   9  -6  301.89   47.21
  -4  -9   6  351.92   40.82
  -4  -9   6  267.55   42.50
   4   9  -5  474.48   53.86
   4   9  -5  539.24   43.58
  -4  -9   5  562.01   39.45
  -4  -9   5  529.54   43.64
   4   9  -4  401.20   35.74
  -4  -9   4  381.31   31.98
  -4  -9   4  459.27   36.70
   4   9  -3  266.21   70.52
   4   9  -3  239.75   28.92
  -4  -9   3  259.05   34.29
  -4  -9   3  206.71   28.77
   4   9  -2  279.87   70.44
  -4  -9   2  234.78   53.38
  -4  -9   2  328.27   66.78
   4   9  -1   92.85   24.09
   4   9  -1  104.37   31.88
  -4  -9   1  167.23   33.45
  -4  -9   1  111.31   22.98
   4   9   0  367.54   59.07
   4   9   0  352.83   29.73
  -4  -9   0  422.90   33.41
  -4  -9   0  319.00   23.26
   4   9   1  326.58   52.98
   4   9   1   27.19   20.01
   4   9   1  306.67   25.72
  -4  -9  -1  320.72   24.69
  -4  -9  -1  414.84   33.11
   4   9   2   20.56   14.41
   4   9   2  202.02   53.30
   4   9   2  127.98   26.44
  -4  -9  -2  129.12   23.78
  -4  -9  -2  152.63   30.63
   4   9   3  118.41   54.73
   4   9   3   84.09   62.87
   4   9   3   68.65   22.45
  -4  -9  -3   70.54   26.01
  -4  -9  -3   71.73   30.00
   4   9   4  144.18   59.61
   4   9   4   17.59   18.26
   4   9   4   64.15   59.06
  -4  -9  -4   34.53   26.00
   4   9   5  199.97   28.05
   4   9   5  204.74   29.92
  -4  -9  -5  180.72   27.75
  -4  -9  -5  197.85   29.91
   4   9   6  464.81   62.97
   4   9   6  379.89   30.55
  -4  -9  -6  378.39   57.04
  -4  -9  -6  464.13   35.09
   4   9   7  457.32   32.68
   4   9   7  629.32   34.97
  -4  -9  -7  476.68   29.85
  -4  -9  -7  642.68   35.44
   4   9   8  172.52   32.07
   4   9   8  218.28   33.18
  -4  -9  -8  122.11   28.62
  -4  -9  -8  188.70   31.40
   4   9   9  149.23   38.82
   4   9   9  114.11   33.40
  -4  -9  -9   83.19   29.18
  -4  -9  -9   50.31   30.64
   4  10  -5  293.81   96.33
   4  10  -5  174.95   32.87
  -4 -10   5  409.67  107.26
  -4 -10   5  166.49   41.15
   4  10  -4  300.67   41.90
   4  10  -4  288.90   35.92
  -4 -10   4  282.34   73.38
  -4 -10   4  402.93   87.98
   4  10  -3  122.58   42.46
   4  10  -3  138.85   32.49
  -4 -10   3  116.08   41.29
  -4 -10   3  132.32   64.08
   4  10  -2  127.57   32.34
   4  10  -2   85.00   80.38
  -4 -10   2   88.44   28.21
   4  10  -1  677.30   67.24
   4  10  -1  730.15   76.90
  -4 -10   1  776.78   41.26
  -4 -10   1  535.10   28.36
   4  10   0  312.33   30.47
   4  10   0  344.03   34.69
  -4 -10   0  398.31   37.95
  -4 -10   0  287.18   28.09
   4  10   1  147.10   30.70
   4  10   1  194.41   36.56
  -4 -10  -1  136.60   49.97
   4  10   2  183.16   60.44
   4  10   2   34.29   27.54
   4  10   2  189.80   33.07
  -4 -10  -2  204.78   27.64
  -4 -10  -2  165.64   35.46
   4  10   3   32.90   63.09
   4  10   3   30.96   44.52
   4  10   3   22.62   30.79
  -4 -10  -3   43.16   29.37
  -4 -10  -3   42.34   33.35
   4  10   4   11.32   25.43
   4  10   4  280.86   77.08
   4  10   4   86.51   28.53
  -4 -10  -4  116.08   30.38
  -4 -10  -4  111.82   34.09
   4  10   5  105.22   29.72
   4  10   5  183.15   35.63
   4  10   5  225.91   41.36
  -4 -10  -5  172.51   34.96
   4  10   6   27.50   30.58
   4  10   6  201.07   34.98
   4  10   6  257.30   41.67
  -4 -10  -6  174.55   34.03
   4  10   7  120.80   38.03
   4  10   7  108.61   62.03
   4  10   7  247.15   85.90
  -4 -10  -7  104.05   74.75
  -4 -10  -7   84.56   68.50
   4  10   8   99.03   44.54
   4  10   8   73.35   40.19
  -4 -10  -8   13.64   34.06
  -4 -10  -8   42.88   36.65
   4  11  -2   15.97   35.61
  -4 -11   2    8.08   30.52
  -4 -11   2    7.69   48.72
   4  11  -1  172.77   39.10
   4  11  -1  296.43   82.87
  -4 -11   1  209.14   61.11
  -4 -11   1  235.82   95.05
   4  11   0  182.58   38.15
   4  11   0  155.76   38.68
  -4 -11   0  242.31   45.34
  -4 -11   0  148.59   30.61
   4  11   1  282.13   37.91
   4  11   1  322.26   37.46
  -4 -11  -1  354.55   44.18
  -4 -11  -1  244.10   57.99
   4  11   2  350.53   81.32
   4  11   2  247.36   36.08
  -4 -11  -2  297.18   42.28
  -4 -11  -2  270.84   32.81
   4  11   3  276.35   89.29
   4  11   3  162.66   78.96
  -4 -11  -3  193.35   42.01
  -4 -11  -3  129.49   34.83
   4  11   4  182.19   42.11
   4  11   4   31.38   32.59
   4  11   4  243.58   86.07
  -4 -11  -4  106.02   34.42
  -4 -11  -4  171.02   82.77
   4  11   5  291.51   51.00
   4  11   5   52.89   46.67
   4  11   5  151.34   34.32
  -4 -11  -5  295.34   44.80
  -4 -11  -5  221.93   43.37
   5  -7  -2    3.66   36.32
   5  -7  -2   37.08   77.51
  -5   7   2    5.53   27.96
  -5   7   2  106.37   81.73
  -5   7   2   61.19   87.23
   5  -7  -1   24.88   75.81
   5  -7  -1   41.47   35.38
  -5   7   1   12.12   38.50
  -5   7   1   43.82   64.61
  -5   7   1  135.01   46.42
   5  -7   0   10.37   31.47
  -5   7   0   -4.30   38.14
  -5   7   0   10.28   37.62
  -5   7   0   13.27   32.40
   5  -7   1   67.74   32.53
  -5   7  -1   76.11   32.17
  -5   7  -1   71.46   39.19
  -5   7  -1  127.62   78.08
   5  -7   2  265.21   34.49
   5  -7   2  267.59   75.68
   5  -7   2   79.09   82.38
  -5   7  -2  293.48   36.24
  -5   7  -2  288.62   40.62
  -5   7  -2  298.43   39.73
   5  -7   3   78.50   35.91
   5  -7   3   79.02   41.16
   5  -7   3   44.48   32.69
  -5   7  -3   46.30   39.70
  -5   7  -3  117.04   37.43
  -5   7  -3   97.04   70.02
   5  -7   4  131.35   37.87
   5  -7   4  191.59  105.24
   5  -7   4  138.11   70.26
  -5   7  -4  138.71   40.15
  -5   7  -4  207.78   78.20
  -5   7  -4  122.09   77.07
   5  -7   5  383.12   83.00
   5  -7   5  247.18   33.61
   5  -7   5  -21.65  108.36
  -5   7  -5  354.80   41.60
  -5   7  -5  371.33   87.07
  -5   7  -5  322.62   42.66
   5  -7   6  285.51   67.67
   5  -7   6  143.62  133.09
   5  -7   6  324.68   44.57
  -5   7  -6  311.28   39.65
  -5   7  -6  303.50   41.34
   5  -6  -4  392.74   63.24
   5  -6  -4  392.31   39.44
  -5   6   4  359.29   34.60
  -5   6   4  470.50   70.64
  -5   6   4  -20.38   43.44
   5  -6  -3   38.11   33.92
  -5   6   3   83.88   29.84
  -5   6   3   64.07   65.33
  -5   6   3   -4.86  103.39
   5  -6  -2   45.82   32.60
   5  -6  -2   41.24   28.86
  -5   6   2   11.52   48.45
  -5   6   2   39.95   33.44
  -5   6   2   64.19   55.81
   5  -6  -1  160.91   32.52
   5  -6  -1  216.86   30.64
  -5   6   1  198.08   36.53
  -5   6   1  151.61   23.32
  -5   6   1  143.79   70.37
   5  -6   0  262.26   29.56
  -5   6   0  224.06   36.66
  -5   6   0  222.01   33.29
  -5   6   0  193.80   28.71
   5  -6   1   95.76   52.86
   5  -6   1  -41.34   63.62
  -5   6  -1  108.51   35.27
  -5   6  -1   93.36   26.14
  -5   6  -1   96.21   36.41
   5  -6   2   64.47   33.18
   5  -6   2   32.73   30.69
   5  -6   2   20.94   50.78
  -5   6  -2   17.27   35.78
  -5   6  -2   30.94   27.98
  -5   6  -2   66.80   69.05
   5  -6   3    9.01   31.33
   5  -6   3    4.77   53.74
  -5   6  -3    9.53   35.67
  -5   6  -3    9.55   30.10
  -5   6  -3   13.02   36.18
   5  -6   4   56.22   45.58
   5  -6   4   68.14   58.73
   5  -6   4   44.70   32.34
  -5   6  -4   79.18   37.21
  -5   6  -4   63.96   35.95
   5  -6   5   90.25   50.46
   5  -6   5   59.16   36.25
   5  -6   5   86.35   58.78
  -5   6  -5   84.89   38.58
  -5   6  -5   86.88   32.34
  -5   6  -5   80.36   74.49
   5  -6   6   29.48   29.73
   5  -6   6  125.61   80.44
   5  -6   6  191.15  105.89
  -5   6  -6   30.09   30.22
  -5   6  -6   48.17   36.31
  -5   6  -6   69.38   39.73
   5  -6   7  198.92   78.33
   5  -6   7   22.17  101.66
   5  -6   7   98.78   61.23
  -5   6  -7  140.76   37.01
  -5   6  -7  172.10   46.38
   5  -6   8  561.38   71.96
   5  -6   8  447.53   32.71
   5  -6   8  116.16  110.42
  -5   6  -8  597.95   73.03
  -5   6  -8  715.12   51.45
   5  -5  -6  213.64   40.55
   5  -5  -6  117.69   72.68
  -5   5   6  110.95   58.96
  -5   5   6  261.40  118.06
  -5   5   6  174.06   63.59
   5  -5  -5   60.79   32.27
   5  -5  -5  138.53   40.03
  -5   5   5  113.05   66.95
  -5   5   5   56.10   58.70
  -5   5   5  132.12   64.35
   5  -5  -4  164.48   27.52
   5  -5  -4  194.47   32.25
  -5   5   4   -3.09   43.49
  -5   5   4  214.28   28.51
  -5   5   4  263.96   34.89
   5  -5  -3  255.58   27.55
   5  -5  -3  266.81   32.27
  -5   5   3    4.18   35.93
  -5   5   3  300.07   26.91
  -5   5   3  283.52   31.97
   5  -5  -2  422.99   26.56
   5  -5  -2  402.46   29.58
  -5   5   2  -35.79   53.34
  -5   5   2  467.14   26.23
  -5   5   2  421.15   32.22
   5  -5  -1  550.62   25.69
   5  -5  -1  533.69   30.15
  -5   5   1   24.29   35.78
  -5   5   1  589.03   25.05
  -5   5   1  584.72   32.97
   5  -5   0  891.45   31.65
   5  -5   0   28.07   34.59
   5  -5   0 1030.25   28.78
  -5   5   0  910.39   26.36
  -5   5   0  828.77   33.66
  -5   5   0 1022.92   66.39
   5  -5   1  609.19   27.09
   5  -5   1  535.70   30.24
   5  -5   1   12.29   26.40
  -5   5  -1  604.86   26.96
  -5   5  -1  589.26   32.81
  -5   5  -1  608.10   33.34
   5  -5   2  261.03   21.60
   5  -5   2  305.20   28.93
   5  -5   2  -59.24   98.64
  -5   5  -2  312.92   25.45
  -5   5  -2  306.29   31.44
  -5   5  -2  363.85   34.64
   5  -5   3  292.74   28.68
   5  -5   3  425.42   40.75
   5  -5   3  313.68   46.43
  -5   5  -3  421.81   32.19
  -5   5  -3  340.62   31.71
  -5   5  -3  394.09   34.72
   5  -5   4   57.18   30.23
   5  -5   4   61.24   34.25
   5  -5   4   76.11   23.79
  -5   5  -4   66.65   30.68
  -5   5  -4  106.04   32.25
  -5   5  -4  116.54   52.16
   5  -5   5   11.87   33.79
   5  -5   5   19.78   26.87
   5  -5   5  111.09   66.96
  -5   5  -5   17.94   35.18
  -5   5  -5   28.63   26.69
  -5   5  -5  128.21   67.49
   5  -5   6   15.66   27.17
   5  -5   6    9.16   30.03
   5  -5   6   99.69   88.45
  -5   5  -6   17.09   26.19
  -5   5  -6   78.07   38.13
  -5   5  -6   -7.23   35.48
   5  -5   7   80.83   33.31
   5  -5   7   -6.56   32.42
   5  -5   7   12.25   51.86
  -5   5  -7   17.90   25.69
  -5   5  -7   -8.44   32.43
  -5   5  -7    5.76   40.67
   5  -5   8  -11.04   51.12
   5  -5   8  186.69   26.35
   5  -5   8  277.71   29.44
  -5   5  -8  256.59   32.45
   5  -5   9   96.76   39.89
   5  -5   9  208.24   61.37
   5  -5   9   72.01   24.11
  -5   5  -9  115.94   30.92
  -5   5  -9  222.05   37.67
   5  -5  10  169.67   51.39
   5  -5  10  185.11   86.25
   5  -5  10   89.18   30.20
  -5   5 -10  123.89   35.22
  -5   5 -10   78.28   30.21
   5  -4  -7  101.16   44.36
   5  -4  -7   28.32   34.00
  -5   4   7  109.97   55.27
  -5   4   7   31.78   38.76
  -5   4   7  121.96   61.19
   5  -4  -6  174.84   39.95
   5  -4  -6   49.11   32.76
  -5   4   6    1.81   39.56
  -5   4   6   85.72   26.49
  -5   4   6  125.25   58.51
   5  -4  -5  109.05   28.77
   5  -4  -5   83.81   26.14
  -5   4   5    6.32   38.92
  -5   4   5   97.23   26.69
  -5   4   5  135.73   51.16
   5  -4  -4   78.20   28.20
   5  -4  -4   69.77   23.79
  -5   4   4  126.75   55.89
  -5   4   4  155.30   30.45
   5  -4  -3  136.66   23.53
   5  -4  -3  115.76   54.13
  -5   4   3    3.04   37.81
  -5   4   3  112.91   21.97
  -5   4   3  110.90   25.78
   5  -4  -2   56.22   22.33
   5  -4  -2   71.67   26.12
  -5   4   2   83.74   39.00
  -5   4   2   81.10   20.13
  -5   4   2   66.51   26.96
   5  -4  -1  321.44   38.97
   5  -4  -1  319.75   26.88
  -5   4   1   15.65   74.83
  -5   4   1  287.40   28.34
   5  -4   0  800.51   21.41
   5  -4   0  800.00   28.81
  -5   4   0  910.80   32.58
  -5   4   0  725.98   18.99
  -5   4   0  788.34   29.76
   5  -4   1  391.11   27.10
   5  -4   1   28.08   58.74
   5  -4   1  438.64   21.17
  -5   4  -1  437.12   28.15
  -5   4  -1  502.64   30.11
  -5   4  -1  479.03   40.91
   5  -4   2 1303.83   38.57
   5  -4   2  980.27   29.48
   5  -4   2  955.49   38.54
  -5   4  -2 1142.66   34.99
  -5   4  -2 1017.02   31.10
  -5   4  -2 1081.86   47.66
   5  -4   3  809.52   28.58
   5  -4   3  700.64   32.96
   5  -4   3  748.83   39.05
  -5   4  -3  872.05   24.04
  -5   4  -3  834.23   29.82
  -5   4  -3  934.62   33.10
   5  -4   4  999.49   26.01
   5  -4   4  893.49   54.44
   5  -4   4  851.95   69.85
  -5   4  -4  914.24   24.35
  -5   4  -4  904.53   30.83
  -5   4  -4  981.46   34.45
   5  -4   5  160.15   25.95
   5  -4   5  105.45   31.88
   5  -4   5  159.79   47.76
  -5   4  -5  186.51   31.54
  -5   4  -5  155.52   38.69
  -5   4  -5  215.00   59.80
   5  -4   6   45.60   68.88
   5  -4   6  172.25   23.69
  -5   4  -6  212.02   28.18
  -5   4  -6  190.77   22.64
   5  -4   7   47.98   23.74
   5  -4   7   54.48   32.40
   5  -4   7   42.82   39.98
  -5   4  -7   48.18   25.03
  -5   4  -7   61.66   53.50
  -5   4  -7   51.48   71.23
   5  -4   8  186.72   23.34
   5  -4   8  234.38   30.32
   5  -4   8  245.46   46.12
  -5   4  -8  206.77   24.96
  -5   4  -8  287.15   59.74
   5  -4   9   47.45   25.42
   5  -4   9  107.29   24.74
   5  -4   9   75.01   28.79
  -5   4  -9   55.90   52.92
   5  -4  10   40.46   28.60
   5  -4  10  192.05   69.01
  -5   4 -10   47.70   30.51
   5  -4  11   26.67   30.02
   5  -4  11  100.39   40.44
   5  -4  11   14.07   30.80
  -5   4 -11   18.35   21.45
  -5   4 -11   74.02   29.75
   5  -3  -8  175.59   61.74
   5  -3  -8   76.23   33.17
  -5   3   8   66.32   35.06
  -5   3   8  129.06   54.21
  -5   3   8   -8.31   47.87
   5  -3  -7  443.24   31.30
   5  -3  -7  561.61   34.12
  -5   3   7  396.17   25.81
  -5   3   7  631.20   68.86
  -5   3   7  -22.11   86.13
   5  -3  -6  769.81   36.21
   5  -3  -6  627.82   29.64
  -5   3   6  110.75   46.40
  -5   3   6  722.41   29.02
   5  -3  -5  345.54   51.09
   5  -3  -5  317.91   30.05
  -5   3   5  306.50   23.32
  -5   3   5   16.53   72.02
  -5   3   5  283.21   23.13
   5  -3  -4  167.94   25.68
  -5   3   4  156.20   23.47
  -5   3   4  206.33   40.46
  -5   3   4   11.76   77.08
   5  -3  -3  199.97   24.09
   5  -3  -3  195.72   18.39
  -5   3   3  215.09   23.87
  -5   3   3  227.26   17.68
  -5   3   3   70.67   77.01
   5  -3  -2  121.55   23.04
   5  -3  -2   76.58   33.01
  -5   3   2   -9.20   27.74
  -5   3   2  104.09   16.30
  -5   3   2  154.11   26.69
   5  -3  -1   -4.07   29.04
   5  -3  -1   30.51   15.44
   5  -3  -1   42.35   21.64
  -5   3   1  -29.88   37.17
  -5   3   1   48.37   32.98
  -5   3   1   38.23   44.73
   5  -3   0  109.86   21.72
   5  -3   0    7.43   21.51
   5  -3   0  132.52   14.98
  -5   3   0  122.13   23.30
  -5   3   0  161.96   25.20
  -5   3   0  174.80   32.70
   5  -3   1   29.71   12.92
   5  -3   1   28.12   20.96
   5  -3   1   17.60   51.07
  -5   3  -1   39.96   14.91
  -5   3  -1   34.10   22.93
  -5   3  -1   47.52   23.94
   5  -3   2  364.61   15.56
   5  -3   2  360.53   22.47
   5  -3   2   -5.24   49.40
  -5   3  -2  428.93   27.24
  -5   3  -2  403.88   30.66
  -5   3  -2  380.89   47.46
   5  -3   3 1459.17   33.40
   5  -3   3 1480.69   27.72
   5  -3   3 1524.91   59.95
  -5   3  -3 1476.08   20.53
  -5   3  -3 1574.71   53.75
  -5   3  -3 1833.62   33.64
   5  -3   4  404.63   21.53
   5  -3   4  482.79   49.24
   5  -3   4  525.60   36.94
  -5   3  -4  453.00   16.38
  -5   3  -4  505.03   51.78
  -5   3  -4  587.76   48.33
   5  -3   5   44.28   34.21
   5  -3   5  248.27   38.43
   5  -3   5  189.08   39.55
  -5   3  -5  186.55   17.87
  -5   3  -5  181.83   23.79
  -5   3  -5  148.27   26.87
   5  -3   6  724.71   28.42
   5  -3   6  634.20   18.43
   5  -3   6  670.93   41.89
  -5   3  -6  844.97   31.36
  -5   3  -6  619.23   18.57
  -5   3  -6  811.52   48.61
   5  -3   7  791.95   28.69
   5  -3   7  760.19   23.01
   5  -3   7  752.37   41.31
  -5   3  -7  927.24   35.84
  -5   3  -7  851.72   26.32
  -5   3  -7  711.07   40.74
   5  -3   8  911.95   22.16
   5  -3   8  899.49   30.39
   5  -3   8  921.50   25.55
  -5   3  -8  981.94   25.16
  -5   3  -8 1042.79   27.64
   5  -3   9  400.68   45.58
   5  -3   9  470.20   30.62
  -5   3  -9  522.79   48.03
  -5   3  -9  555.73   30.32
   5  -3  10   52.17   24.88
   5  -3  10   83.71   30.88
   5  -3  10   73.61   24.99
  -5   3 -10   20.64   19.33
  -5   3 -10  118.39   27.13
   5  -3  11    1.31   51.86
   5  -3  11   11.58   28.76
  -5   3 -11   36.29  283.32
  -5   3 -11   50.17   27.61
   5  -3  12    6.57   28.22
   5  -3  12   -6.71   33.19
   5  -2  -8   95.17   33.25
  -5   2   8   97.73   31.62
  -5   2   8  104.88   24.55
  -5   2   8  177.24  291.11
  -5   2   8   94.11   96.68
   5  -2  -7  171.65   26.96
   5  -2  -7  164.28   21.96
  -5   2   7   88.00   45.99
  -5   2   7  224.76   30.06
  -5   2   7  232.32   26.23
   5  -2  -6  461.71   49.75
   5  -2  -6  499.81   26.87
  -5   2   6  660.53   35.01
  -5   2   6  451.31   47.27
  -5   2   6    3.26   39.24
   5  -2  -5  786.52   28.74
   5  -2  -5  673.71   23.61
  -5   2   5    5.61   35.30
  -5   2   5  608.97   22.23
  -5   2   5  733.52   45.24
   5  -2  -4 1066.58   29.67
   5  -2  -4  900.57   23.11
  -5   2   4   -5.13   31.04
  -5   2   4  837.08   23.42
  -5   2   4  937.43   38.83
   5  -2  -3  577.53   25.43
   5  -2  -3  512.73   16.74
  -5   2   3  -12.87   38.15
  -5   2   3  564.33   23.03
  -5   2   3  587.16   31.34
   5  -2  -2  864.83   28.45
   5  -2  -2 1128.55   26.13
  -5   2   2 1095.36   30.34
  -5   2   2 1058.67   25.31
   5  -2  -1   -0.83   20.07
   5  -2  -1  156.68   11.86
   5  -2  -1  151.96   37.27
  -5   2   1   -9.48   33.43
  -5   2   1  155.37   19.67
  -5   2   1  164.69   23.50
   5  -2   0  159.91   18.01
   5  -2   0   10.53   49.85
   5  -2   0  177.27   22.19
  -5   2   0  183.68   11.82
  -5   2   0  185.24   20.16
  -5   2   0  168.09   21.69
   5  -2   1  497.58   19.27
   5  -2   1    5.04   23.00
   5  -2   1  515.87   11.87
  -5   2  -1  623.67   23.31
  -5   2  -1  621.17   23.27
  -5   2  -1  617.97   25.21
   5  -2   2  479.00   22.84
   5  -2   2  404.63   35.29
   5  -2   2  410.11   21.00
  -5   2  -2  468.16   12.19
  -5   2  -2  513.06   23.35
   5  -2   3  149.90   20.20
   5  -2   3  146.24   10.58
   5  -2   3  142.61   17.34
  -5   2  -3  140.86   19.65
  -5   2  -3  166.17   20.86
   5  -2   4  -12.61   32.90
   5  -2   4  -20.74   47.34
   5  -2   4   33.97   26.01
  -5   2  -4   19.00    9.12
  -5   2  -4   15.73   19.21
   5  -2   5  124.80   20.68
   5  -2   5  107.69   12.34
  -5   2  -5  126.11   18.93
  -5   2  -5  100.83   11.23
  -5   2  -5  128.95   41.81
   5  -2   6  566.14   24.89
   5  -2   6  552.72   31.84
   5  -2   6  494.27   33.26
  -5   2  -6  593.63   51.44
  -5   2  -6  583.11   32.12
  -5   2  -6  627.02   39.17
   5  -2   7  786.50   34.44
   5  -2   7  862.31   26.85
  -5   2  -7  800.60   37.49
  -5   2  -7  839.34   21.80
   5  -2   8  990.43   22.90
   5  -2   8 1015.96   21.38
  -5   2  -8 1089.58   25.39
  -5   2  -8 1068.42   42.80
   5  -2   9  500.71   24.03
   5  -2   9  572.44   27.92
  -5   2  -9  526.22   19.81
  -5   2  -9  562.56   40.26
   5  -2  10  186.10   23.87
   5  -2  10  194.95   24.84
   5  -2  10  180.55   29.31
  -5   2 -10  400.73  257.78
  -5   2 -10  292.16   46.65
   5  -2  11  235.07   25.50
   5  -2  11  214.89   28.80
   5  -2  11  304.50   65.37
  -5   2 -11  200.12   15.90
  -5   2 -11  283.47   43.23
   5  -2  12  178.87   28.73
   5  -2  12  212.44   36.67
   5  -2  12  165.17   64.05
  -5   1   9   31.10   61.19
  -5   1   9  154.44  101.96
  -5   1   8   32.71   33.85
  -5   1   8   37.73   21.66
  -5   1   8   26.05   44.07
  -5   1   8   55.54   54.99
  -5   1   8   48.27   40.01
  -5   1   7   45.92   29.44
  -5   1   7   90.84   49.05
  -5   1   7   63.99   50.40
  -5   1   7   92.89   41.59
   5  -1  -6   72.54   24.43
   5  -1  -6   46.81   23.55
  -5   1   6   74.96   43.25
  -5   1   6   48.86   23.22
  -5   1   6   74.36   37.47
   5  -1  -5  313.17   18.91
   5  -1  -5  336.08   39.13
  -5   1   5  342.04   20.42
  -5   1   5  392.99   43.40
  -5   1   5   19.40   66.47
   5  -1  -4  343.72   17.16
   5  -1  -4  418.67   21.09
  -5   1   4  403.23   20.43
  -5   1   4  409.20   32.19
  -5   1   4   17.77   58.47
   5  -1  -3  399.65   40.02
  -5   1   3  365.79   19.68
  -5   1   3   20.52   61.79
  -5   1   3  430.61   14.68
   5  -1  -2 1117.57   23.75
  -5   1   2 1244.53   25.67
  -5   1   2 1078.11   24.38
   5  -1  -1  744.86   19.59
   5  -1  -1  922.55   39.58
   5  -1  -1  157.50   39.43
  -5   1   1  892.01   24.15
  -5   1   1  224.75   31.32
  -5   1   1  779.38   20.98
   5  -1   0 1014.20   26.23
   5  -1   0  837.54   10.57
  -5   1   0  936.77   22.67
  -5   1   0 1085.88   26.85
  -5   1   0  979.93   20.73
   5  -1   1 1577.98   20.16
   5  -1   1 1852.49   27.49
   5  -1   1 1728.69   40.07
  -5   1  -1 2076.45   30.41
  -5   1  -1 1882.46   22.72
  -5   1  -1 1696.67   23.99
   5  -1   2 1766.10   24.48
   5  -1   2 1652.96   22.17
   5  -1   2 1836.58   19.92
  -5   1  -2 1881.70   24.69
  -5   1  -2 1706.44   12.25
  -5   1  -2 2283.18   50.72
   5  -1   3  169.88   25.23
   5  -1   3  688.42   10.51
   5  -1   3  595.24   17.49
  -5   1  -3  694.74   23.22
  -5   1  -3  518.62   14.28
  -5   1  -3  592.21   35.20
   5  -1   4  265.35   20.29
   5  -1   4  203.39   14.40
   5  -1   4  270.17   35.66
  -5   1  -4  291.06   38.48
  -5   1  -4  232.05   18.72
   5  -1   5  164.92   11.65
   5  -1   5  117.08   12.61
   5  -1   5  155.78   38.20
  -5   1  -5  188.29   19.15
  -5   1  -5  162.36   19.96
  -5   1  -5  179.49   36.81
   5  -1   6  132.48   15.17
   5  -1   6  133.60   19.87
   5  -1   6  140.25   12.10
  -5   1  -6  148.00   19.17
  -5   1  -6  142.57   22.23
   5  -1   7  137.32   40.07
   5  -1   7  135.47   14.37
   5  -1   7  120.34   14.07
  -5   1  -7  174.84   20.77
   5  -1   8  220.19   16.40
   5  -1   8  199.52   21.62
   5  -1   8  227.55   15.93
  -5   1  -8  255.64   21.69
  -5   1  -8  240.53   17.88
   5  -1   9   65.19   17.61
   5  -1   9   54.45   20.77
   5  -1   9   65.03   47.04
  -5   1  -9  125.56   34.36
   5  -1  10   87.65   20.80
   5  -1  10  119.45   27.42
   5  -1  10  113.35   48.08
  -5   1 -10  121.69   27.73
   5  -1  11  537.43   27.63
   5  -1  11  473.80   30.77
   5  -1  11  461.44   65.86
  -5   1 -11  507.00   36.15
  -5   1 -11  418.94   33.10
   5  -1  12  468.06   30.90
   5  -1  12  469.41   35.76
   5  -1  12  525.58   39.28
   5  -1  13  652.16   38.72
   5  -1  13  647.70   44.14
   5  -1  13  590.96   46.53
  -5   0   9  169.81   28.86
  -5   0   9  169.51   36.33
  -5   0   9   54.26   43.11
  -5   0   8  228.91   25.85
  -5   0   8  173.48   32.41
  -5   0   8  198.67   17.99
  -5   0   8  172.33   89.20
  -5   0   7   85.01   22.73
  -5   0   7   59.68   15.30
  -5   0   7   88.08   46.14
  -5   0   7   69.89   54.64
  -5   0   6   16.29   19.92
  -5   0   6    9.34   22.32
  -5   0   6   15.98   18.03
  -5   0   6   29.67   16.64
  -5   0   6  -14.33   36.79
  -5   0   5  241.22   20.71
  -5   0   5   29.13   19.24
  -5   0   5  230.72   17.42
  -5   0   5   83.64   37.67
  -5   0   5  268.25   36.40
  -5   0   4  179.88   16.51
  -5   0   4  137.48   16.77
  -5   0   4  216.74  153.08
  -5   0   4   14.99   27.82
  -5   0   4  137.81   37.39
   5   0  -3  310.52   18.45
  -5   0   3  331.46   13.17
  -5   0   3  399.19   23.07
  -5   0   3    5.91   52.73
   5   0  -2   20.09    9.89
   5   0  -2   20.38   29.94
  -5   0   2  -12.78   21.05
  -5   0   2   20.62    8.23
  -5   0   2   36.32   20.75
   5   0  -1   30.65   16.56
   5   0  -1   15.33   13.18
   5   0  -1   19.12   14.21
  -5   0   1    0.68   21.61
  -5   0   1   33.28   19.37
  -5   0   1   18.04   12.17
   5   0   0  361.04   15.09
   5   0   0  587.03   25.43
   5   0   0  497.93   12.98
  -5   0   0  576.60   23.43
  -5   0   0  429.00   11.95
  -5   0   0  480.79   29.18
   5   0   1 2050.42   13.00
   5   0   1 2160.99   22.00
   5   0   1 2620.79   44.80
  -5   0  -1 3003.40   30.41
  -5   0  -1 2795.18   15.23
  -5   0  -1 2580.81   24.27
   5   0   2 2120.53   40.07
   5   0   2 2096.36   36.79
  -5   0  -2 2456.48   24.15
  -5   0  -2 2802.73   28.65
   5   0   3 1142.24   19.98
   5   0   3 1146.95   19.83
   5   0   3 1358.53   14.24
  -5   0  -3 1061.25   18.37
  -5   0  -3 1201.66   21.63
  -5   0  -3 1117.76   12.79
   5   0   4 1077.18   18.69
   5   0   4 1048.87   22.19
  -5   0  -4  294.65  116.58
  -5   0  -4  867.44   33.66
  -5   0  -4  985.19   20.08
   5   0   5  582.46   20.22
   5   0   5  543.17   18.78
  -5   0  -5  592.97   21.40
  -5   0  -5   11.77   14.93
  -5   0  -5  550.59   17.51
   5   0   6  761.51   14.02
   5   0   6  659.84   13.74
   5   0   6  628.04   36.49
  -5   0  -6  824.97   21.42
  -5   0  -6  684.03   33.31
   5   0   7  147.93   13.28
   5   0   7  143.49   17.72
   5   0   7  151.72   24.75
  -5   0  -7  173.93   16.13
  -5   0  -7  454.63  246.96
   5   0   8   51.99   20.43
   5   0   8    8.69   16.14
  -5   0  -8   38.46   17.27
  -5   0  -8   25.41   14.92
   5   0   9  112.88   19.61
   5   0   9  127.28   20.65
   5   0   9  126.08   49.41
  -5   0  -9  118.16   13.07
  -5   0  -9  152.46   33.67
   5   0  10  435.47   23.72
   5   0  10  386.12   31.46
   5   0  10  380.68   47.00
  -5   0 -10  392.58   16.45
  -5   0 -10  376.58   30.79
   5   0  11  173.63   22.63
   5   0  11  147.17   54.80
  -5   0 -11  186.65   29.92
   5   0  12   60.88   25.26
   5   0  12   94.05   78.93
   5   0  13   86.35   40.92
   5   0  13  123.92   92.90
  -5  -1   9  306.36   29.18
  -5  -1   9  333.96   35.78
  -5  -1   9   52.19   40.62
  -5  -1   8   53.38   39.27
  -5  -1   8  163.99   65.34
  -5  -1   8  188.44   30.46
  -5  -1   8  144.33   30.60
  -5  -1   7  419.09   22.65
  -5  -1   7  554.60   37.71
  -5  -1   7  335.53   14.38
  -5  -1   7  369.91   30.37
  -5  -1   7  134.84   75.13
  -5  -1   6  556.61   20.77
  -5  -1   6  491.42   17.45
  -5  -1   6   88.90   41.01
  -5  -1   6  582.90   52.86
  -5  -1   6  604.72   33.87
  -5  -1   5  699.76   18.45
  -5  -1   5  798.07   23.98
  -5  -1   5  720.35   20.56
  -5  -1   5  -13.56   28.32
  -5  -1   4  466.17   15.31
  -5  -1   4  473.51   19.39
  -5  -1   4   45.41   29.84
  -5  -1   4  447.22   34.72
  -5  -1   3  141.35   23.30
  -5  -1   3  160.55   26.56
  -5  -1   3  170.46   47.21
  -5  -1   3  150.92   35.17
  -5  -1   3    5.85   44.21
  -5  -1   2   -2.49   15.68
  -5  -1   2   95.63   18.05
  -5  -1   2   81.51   16.75
  -5  -1   2   78.08   19.65
  -5  -1   2   22.00   34.04
   5   1  -1  331.99   16.32
  -5  -1   1  379.99   19.73
  -5  -1   1   10.80   13.38
  -5  -1   1  344.89   15.79
  -5  -1   1  405.25   38.44
   5   1   0   16.95   18.88
  -5  -1   0  538.75   18.99
  -5  -1   0  433.08    7.85
  -5  -1   0  491.90    8.98
  -5  -1   0  529.76   33.22
  -5  -1   0  441.50   23.34
   5   1   1  353.28   14.98
  -5  -1  -1  618.88   18.72
  -5  -1  -1  581.01   33.06
   5   1   2 1173.94   18.29
  -5  -1  -2 1323.83   21.72
  -5  -1  -2 1055.68   16.17
   5   1   3  393.86   15.97
  -5  -1  -3  335.45   14.61
  -5  -1  -3  424.24   47.76
   5   1   4  729.37   18.93
   5   1   4  664.11   11.25
   5   1   4  632.12   11.86
  -5  -1  -4  673.85   33.73
   5   1   5  883.32   17.71
   5   1   5  926.42   18.44
   5   1   5 1240.22   19.31
  -5  -1  -5 1190.81   21.18
   5   1   6  350.98   16.35
   5   1   6  431.83   23.58
   5   1   6  437.23   11.18
  -5  -1  -6  443.24   17.88
  -5  -1  -6  438.61   17.10
   5   1   7 1317.50   23.90
   5   1   7 1739.88   31.71
   5   1   7 1501.27   20.42
  -5  -1  -7 1461.57   19.34
  -5  -1  -7 1527.27   21.25
   5   1   8  668.62   24.08
   5   1   8  672.93   37.78
   5   1   8  689.56   17.97
  -5  -1  -8  731.99   19.07
  -5  -1  -8  667.84   18.10
   5   1   9  601.36   43.59
   5   1   9  609.55   20.40
   5   1   9  612.35   51.92
  -5  -1  -9  556.76   29.96
  -5  -1  -9  578.46   16.46
   5   1  10  219.94   50.93
   5   1  10  237.45   21.01
   5   1  10  257.91   30.98
  -5  -1 -10  211.64   15.27
   5   1  11  159.00   34.41
   5   1  11  108.86   23.62
   5   1  11  164.20   32.61
  -5  -1 -11  186.44   16.54
  -5  -1 -11  166.35   33.15
   5   1  12   36.45   24.23
   5   1  12   51.02   37.89
   5   1  12   46.58   40.05
   5   1  13    5.89   42.53
   5   1  13   -3.61   45.50
  -5  -2  10   92.29   30.61
  -5  -2  10   95.57   37.97
  -5  -2  10   48.99   40.80
  -5  -2   9  165.40   36.74
  -5  -2   9   48.98   36.63
  -5  -2   9  139.25   50.98
  -5  -2   8   39.95   20.87
  -5  -2   8   64.21   31.86
  -5  -2   8   49.79   12.13
  -5  -2   8   20.78   31.00
  -5  -2   8   74.11   27.24
  -5  -2   7  213.90   20.31
  -5  -2   7  309.21   59.62
  -5  -2   7  307.38   33.38
  -5  -2   7  219.80   28.61
  -5  -2   7  117.06   75.13
  -5  -2   6  386.14   18.54
  -5  -2   6  459.70   27.41
  -5  -2   6  386.08   17.95
  -5  -2   6  373.97   17.02
  -5  -2   6   51.16   35.18
  -5  -2   5 1319.60   20.64
  -5  -2   5 1650.34   29.06
  -5  -2   5 1414.37   20.70
  -5  -2   5 1372.91   38.24
  -5  -2   4 1221.27   17.64
  -5  -2   4 1074.58   16.76
  -5  -2   4 1437.31   40.72
  -5  -2   4 1386.66   40.69
  -5  -2   3 1014.85   17.37
  -5  -2   3  951.64   17.79
  -5  -2   3 1063.23   20.98
  -5  -2   3   36.70   23.12
  -5  -2   3  907.18   23.85
  -5  -2   2  458.62   18.17
  -5  -2   2  350.11   17.55
  -5  -2   2  358.76   19.18
  -5  -2   2  455.20   31.75
  -5  -2   2   -8.95   25.80
   5   2  -1  273.70   13.73
  -5  -2   1  306.70   17.98
  -5  -2   1  258.76   15.45
  -5  -2   1  240.23   20.66
   5   2   0   80.89   32.02
  -5  -2   0  821.23   18.29
  -5  -2   0  677.18   12.80
  -5  -2   0  649.26    9.91
  -5  -2   0  670.27   16.44
   5   2   1  632.43   12.99
  -5  -2  -1  607.52   14.10
  -5  -2  -1  658.07   12.53
  -5  -2  -1  796.40   18.44
   5   2   2   94.89   10.75
  -5  -2  -2   81.95   11.19
  -5  -2  -2  131.50   28.88
  -5  -2  -2  123.69   23.18
   5   2   3  731.29   32.82
  -5  -2  -3  499.17   26.87
  -5  -2  -3  591.41   30.78
  -5  -2  -3  616.13   17.62
   5   2   4  363.85   11.12
   5   2   4  327.65    9.30
  -5  -2  -4  424.67   26.78
  -5  -2  -4  394.46   14.71
   5   2   5  459.39   27.26
   5   2   5  590.06   16.03
   5   2   5  540.14   18.25
  -5  -2  -5  653.20   18.22
   5   2   6  333.78   25.82
   5   2   6  263.35   16.61
  -5  -2  -6  271.30   14.35
  -5  -2  -6  352.16   19.74
   5   2   7  646.88   17.27
   5   2   7  556.70   20.43
   5   2   7  717.84   15.10
  -5  -2  -7  655.72   16.71
  -5  -2  -7  634.80   17.19
   5   2   8  668.11   35.69
   5   2   8  618.79   25.76
   5   2   8  653.19   41.71
  -5  -2  -8  577.19   31.33
  -5  -2  -8  597.33   16.14
   5   2   9  637.10   30.13
   5   2   9  650.09   38.35
   5   2   9  656.59   25.77
  -5  -2  -9  541.88   16.64
  -5  -2  -9  603.85   18.33
   5   2  10  854.35   59.30
   5   2  10  870.38   70.09
   5   2  10  855.71   49.56
  -5  -2 -10  737.20   34.87
  -5  -2 -10  619.90   32.08
   5   2  11  317.17   25.35
   5   2  11  312.21   30.48
  -5  -2 -11  316.87   32.70
  -5  -2 -11  278.92   32.76
   5   2  12  150.37   27.35
   5   2  12  161.99   37.31
  -5  -2 -12  175.70   33.31
  -5  -2 -12  130.40   29.00
   5   2  13   73.35   77.73
   5   2  13   88.99   95.95
  -5  -3   9  141.52   40.93
  -5  -3   9   40.85   36.09
  -5  -3   9   84.47   52.90
  -5  -3   8   77.50   33.33
  -5  -3   8   60.00   13.72
  -5  -3   8   43.02   32.12
  -5  -3   8   56.24   45.62
  -5  -3   8   95.18   31.49
  -5  -3   7    0.05   19.67
  -5  -3   7   10.72   29.07
  -5  -3   7   13.48   13.78
  -5  -3   7   37.52   30.70
  -5  -3   7   81.54   65.86
  -5  -3   6  152.66   19.90
  -5  -3   6  144.71   25.73
  -5  -3   6  147.24   16.85
  -5  -3   6  181.21   33.89
  -5  -3   6  106.42   57.79
  -5  -3   5  658.91   19.92
  -5  -3   5  600.08   16.42
  -5  -3   5  671.69   18.91
  -5  -3   5  732.14   43.95
  -5  -3   5   72.58   48.11
  -5  -3   4  825.58   16.75
  -5  -3   4  892.66   22.86
  -5  -3   4  874.26   30.88
  -5  -3   4  976.65   38.51
  -5  -3   4   61.19   39.15
  -5  -3   3  490.63   12.96
  -5  -3   3  518.32   15.19
  -5  -3   3  502.59   16.26
  -5  -3   3  621.56   31.44
  -5  -3   3   26.35   22.32
  -5  -3   2  315.55   11.20
  -5  -3   2  342.12   15.80
  -5  -3   2  321.08   18.82
  -5  -3   2  311.88   26.02
   5   3  -1 1803.61   25.63
   5   3  -1  423.96  107.94
   5   3  -1 1696.64   14.77
  -5  -3   1 1527.36   13.54
  -5  -3   1 1994.03   23.80
  -5  -3   1 1549.68   19.28
  -5  -3   1 1797.45   14.17
   5   3   0 1591.28   17.60
   5   3   0  626.03   16.26
  -5  -3   0 1394.62    9.47
  -5  -3   0 1611.09   22.13
  -5  -3   0 1980.34   23.87
   5   3   1 1799.30   15.65
   5   3   1 1738.16   34.29
   5   3   1 2046.70   30.63
  -5  -3  -1 2034.47   23.75
  -5  -3  -1 2060.43   18.18
  -5  -3  -1 2021.58   14.90
   5   3   2  186.82   14.70
   5   3   2  249.20   12.02
   5   3   2  237.92   10.34
  -5  -3  -2  168.03   14.56
  -5  -3  -2  194.94    7.33
  -5  -3  -2  221.94   27.12
   5   3   3 2664.93   20.32
   5   3   3 2472.47   23.08
  -5  -3  -3 2418.81   16.09
  -5  -3  -3 2327.51   24.36
   5   3   4  256.24   12.91
   5   3   4  228.55   12.49
  -5  -3  -4  318.14   13.96
  -5  -3  -4  277.89   14.62
   5   3   5  274.84   13.79
   5   3   5  355.90   10.48
   5   3   5  374.83   17.79
  -5  -3  -5  352.74   15.56
  -5  -3  -5  391.51   17.87
   5   3   6   87.21   17.18
   5   3   6   72.12   18.85
   5   3   6   56.38   19.99
  -5  -3  -6   75.71   11.40
  -5  -3  -6   68.02   14.08
   5   3   7   10.67   21.01
   5   3   7    6.43   11.55
   5   3   7   36.12   18.19
  -5  -3  -7    6.28   12.82
  -5  -3  -7   10.79   27.12
   5   3   8  181.07   16.23
   5   3   8  184.75   27.71
  -5  -3  -8  215.95   18.07
  -5  -3  -8  185.50   32.20
   5   3   9  312.97   22.20
   5   3   9  364.28   31.70
   5   3   9  331.55   38.51
  -5  -3  -9  284.59   17.20
  -5  -3  -9  321.76   35.89
   5   3  10  386.14   23.66
   5   3  10  415.70   37.11
   5   3  10  419.13   56.99
  -5  -3 -10  297.65   29.63
  -5  -3 -10  303.25   32.27
   5   3  11  108.69   25.78
   5   3  11  129.80   39.39
   5   3  11  129.48   57.87
  -5  -3 -11  130.69   18.04
  -5  -3 -11  124.41   31.78
   5   3  12  125.37   29.27
   5   3  12  186.37   44.54
   5   3  12  174.00   64.80
  -5  -3 -12  176.12   36.82
  -5  -3 -12  163.55   34.43
   5   3  13  231.68   35.16
   5   3  13  298.95   50.95
   5   3  13  239.23   75.14
  -5  -4   9  118.52   59.59
  -5  -4   9  106.84   75.27
  -5  -4   8   11.40   54.87
  -5  -4   8   91.98   63.53
  -5  -4   7  130.94   60.32
  -5  -4   7  113.05   31.41
  -5  -4   7  111.20   31.25
  -5  -4   7   98.58   57.40
  -5  -4   6  383.80   21.30
  -5  -4   6  473.48   28.34
  -5  -4   6  536.84   36.36
  -5  -4   6  431.93   35.36
  -5  -4   6   80.35   45.52
  -5  -4   5  590.98   20.63
  -5  -4   5  692.01   20.32
  -5  -4   5  567.42   18.40
  -5  -4   5  620.16   44.43
  -5  -4   4  191.30   15.33
  -5  -4   4  200.73   31.22
  -5  -4   4  195.41   33.47
  -5  -4   4  211.65   31.59
  -5  -4   4   14.60   19.28
   5   4  -3  467.46   32.06
  -5  -4   3  447.36   16.79
  -5  -4   3  465.13   32.29
   5   4  -2   63.64   14.46
   5   4  -2  225.64   13.13
  -5  -4   2  287.18   17.01
  -5  -4   2  218.29   11.10
  -5  -4   2  254.12   13.25
   5   4  -1  889.50   35.69
   5   4  -1  464.38   25.64
  -5  -4   1  388.74   11.69
  -5  -4   1  561.01   31.63
  -5  -4   1  470.81   15.39
   5   4   0  920.14   12.93
   5   4   0   39.90   19.25
  -5  -4   0  930.55   19.60
  -5  -4   0 1157.07   22.09
   5   4   1  868.48   12.17
  -5  -4  -1  852.46   10.94
   5   4   2 1108.14   19.22
   5   4   2 1036.12   18.81
   5   4   2 1228.04   15.83
  -5  -4  -2  978.88   10.46
   5   4   3 5362.47   40.00
   5   4   3 5208.79   33.44
  -5  -4  -3 5432.69   30.62
  -5  -4  -3 5200.65   32.31
   5   4   4 1786.72   23.38
   5   4   4 1477.76   16.72
   5   4   4 1916.85   16.21
  -5  -4  -4 1756.23   14.20
  -5  -4  -4 1735.07   21.42
   5   4   5  820.93   19.77
   5   4   5  724.91   18.95
   5   4   5  729.91   12.50
  -5  -4  -5  753.00   12.34
  -5  -4  -5  688.03   17.70
   5   4   6  412.97   18.39
   5   4   6  422.25   21.91
  -5  -4  -6  377.52   17.13
  -5  -4  -6  422.80   25.77
   5   4   7  147.60   26.00
  -5  -4  -7  136.99   15.78
  -5  -4  -7  143.33   28.60
   5   4   8  342.60   17.40
  -5  -4  -8  369.07   18.01
  -5  -4  -8  353.73   32.76
   5   4   9  408.78   40.71
   5   4   9   84.15   45.96
  -5  -4  -9  310.36   30.72
  -5  -4  -9  428.56   22.29
   5   4  10  172.81   24.08
   5   4  10  109.28   39.08
  -5  -4 -10  140.28   47.79
  -5  -4 -10  154.99   31.74
   5   4  11   38.02   26.90
   5   4  11  192.15  155.22
  -5  -4 -11   50.68   15.83
   5   4  12   30.61   31.22
   5   4  12   38.57   67.71
  -5  -4 -12   76.50   39.07
  -5  -4 -12   66.09   34.81
   5   4  13   66.99   36.02
   5   4  13   86.82   76.38
  -5  -5   9  109.87   78.12
  -5  -5   8  166.72   58.11
  -5  -5   8  184.10   69.71
  -5  -5   7  428.22   28.86
  -5  -5   7  500.79   35.84
  -5  -5   7  350.45   19.60
  -5  -5   7   22.58   18.06
  -5  -5   7  356.95   33.14
  -5  -5   6  631.57   26.79
  -5  -5   6  475.63   17.53
  -5  -5   6   47.61   29.01
   5   5  -5 2028.37   33.38
   5   5  -5 2022.14  149.43
  -5  -5   5 1950.33   31.11
  -5  -5   5 3140.90   64.56
   5   5  -4  124.86   19.73
   5   5  -4    1.74   16.02
  -5  -5   4  110.95   17.57
  -5  -5   4  296.79   59.35
  -5  -5   4  106.40   10.23
   5   5  -3  523.09   20.50
   5   5  -3  946.27  222.17
  -5  -5   3  796.57   49.02
   5   5  -2  261.81   16.81
  -5  -5   2  211.57   13.14
  -5  -5   2  337.27   21.85
   5   5  -1   31.15   13.67
   5   5  -1   35.43   27.11
  -5  -5   1   38.96   18.81
   5   5   0  115.28   30.06
  -5  -5   0   93.30   11.26
  -5  -5   0   90.25   18.33
   5   5   1  160.03   13.57
   5   5   1  229.29   12.86
   5   5   1  257.19   13.57
  -5  -5  -1  247.06   11.33
  -5  -5  -1  255.48   18.40
   5   5   2 1094.17   29.02
   5   5   2  890.66   20.11
   5   5   2 1502.58   29.61
  -5  -5  -2 1010.78   23.59
  -5  -5  -2 1012.08   22.04
   5   5   3 2020.75   20.10
   5   5   3 1767.76   24.56
   5   5   3 1455.73   24.20
  -5  -5  -3 1819.44   24.47
  -5  -5  -3 1761.92   25.91
   5   5   4  882.17   17.09
   5   5   4 1035.74   17.30
   5   5   4  960.53   22.15
  -5  -5  -4  893.55   20.55
   5   5   5  541.26   14.61
   5   5   5  574.77   20.28
  -5  -5  -5  587.71   19.80
  -5  -5  -5  562.04   24.72
   5   5   6  255.18   40.64
   5   5   6  189.69   27.52
  -5  -5  -6  144.02   16.51
  -5  -5  -6  147.72   11.89
   5   5   7  387.21   31.58
   5   5   7  303.24   17.80
  -5  -5  -7  343.74   30.11
  -5  -5  -7  277.88   16.44
   5   5   8 2386.31   29.26
   5   5   8 2467.87   31.15
  -5  -5  -8 2522.80   30.38
  -5  -5  -8 1940.17   39.44
   5   5   9  735.19   26.60
   5   5   9  658.33   23.96
  -5  -5  -9  478.00   17.88
  -5  -5  -9  623.13   23.86
   5   5  10  247.74   48.39
  -5  -5 -10  214.95   24.12
  -5  -5 -10  157.06   17.33
   5   5  11    8.61   43.78
   5   5  11   34.50   25.83
  -5  -5 -11   19.17   17.00
  -5  -5 -11   19.44   26.19
   5   5  12    2.37   43.69
   5   5  12    5.24   29.85
  -5  -5 -12    1.61   22.01
  -5  -5 -12    2.36   32.90
   5   5  13  252.22   35.87
   5   5  13  213.75   40.26
  -5  -6   8   90.51   34.96
  -5  -6   7  157.47   31.35
  -5  -6   7  174.95   61.55
  -5  -6   7  155.56   37.27
  -5  -6   7  143.70   40.21
   5   6  -6  561.25   38.91
  -5  -6   6  685.63   54.32
   5   6  -5  919.00   32.51
   5   6  -5   27.77   35.73
  -5  -6   5 1254.64   30.56
  -5  -6   5  785.59   49.69
   5   6  -4  329.74   26.60
  -5  -6   4  284.98   23.20
  -5  -6   4  391.85   50.45
   5   6  -3  424.41   34.55
   5   6  -3  603.31   24.84
  -5  -6   3  675.98   26.06
  -5  -6   3  498.96   19.59
   5   6  -2  710.13   44.37
   5   6  -2  448.28   15.40
  -5  -6   2  734.05   25.22
  -5  -6   2  502.09   16.49
   5   6  -1  380.16   19.79
   5   6  -1  297.80   17.72
  -5  -6   1  419.54   42.86
   5   6   0  355.85   16.49
   5   6   0  375.57   21.64
  -5  -6   0  390.80   21.50
  -5  -6   0  360.98   29.52
   5   6   1  374.68   11.50
   5   6   1  393.50   16.70
   5   6   1  361.86   36.59
  -5  -6  -1  386.53   20.95
   5   6   2  982.56   20.52
   5   6   2  746.83   21.40
   5   6   2 1186.18   28.05
  -5  -6  -2  924.50   17.18
  -5  -6  -2  902.24   40.28
   5   6   3  978.12   22.91
   5   6   3  915.47   24.14
   5   6   3 1044.50   18.94
  -5  -6  -3 1095.13   18.54
  -5  -6  -3  929.38   21.79
   5   6   4  293.62   17.45
   5   6   4  228.68   19.01
  -5  -6  -4  220.26   17.54
  -5  -6  -4  257.36   26.65
   5   6   5   41.28   18.09
   5   6   5   46.05   16.59
  -5  -6  -5   34.33   16.67
  -5  -6  -5   41.33   13.59
   5   6   6  223.35   42.89
   5   6   6  183.08   16.51
  -5  -6  -6  188.46   34.77
  -5  -6  -6  170.54   15.09
   5   6   7  667.04   24.74
   5   6   7  593.47   20.74
  -5  -6  -7  509.29   19.54
  -5  -6  -7  546.07   17.97
   5   6   8 1421.34   51.67
   5   6   8 1201.26   24.53
  -5  -6  -8  999.62   21.77
  -5  -6  -8 1271.21   25.13
   5   6   9  546.81   49.75
   5   6   9  405.33   24.19
  -5  -6  -9  345.39   19.75
  -5  -6  -9  436.74   26.30
   5   6  10  254.35   51.39
   5   6  10  168.33   26.99
  -5  -6 -10  186.21   52.12
  -5  -6 -10   98.89   18.31
   5   6  11  103.48   29.41
  -5  -6 -11   70.16   28.40
  -5  -6 -11  118.84   45.88
   5   6  12  216.58   35.85
  -5  -6 -12  150.52   34.17
  -5  -6 -12  214.02   54.59
  -5  -7   8  126.49   80.86
   5   7  -7   -3.08  203.72
   5   7  -7   27.21   39.80
  -5  -7   7   42.17   24.75
  -5  -7   7    3.24   32.21
   5   7  -6   59.39   43.24
   5   7  -6   64.31   34.21
  -5  -7   6  158.70   31.99
  -5  -7   6   69.89   30.18
   5   7  -5   40.30   65.56
  -5  -7   5   34.76   28.48
  -5  -7   5   62.49   55.03
   5   7  -4  309.11   63.46
   5   7  -4  173.17   17.08
  -5  -7   4  309.19   55.19
  -5  -7   4  234.38   26.57
   5   7  -3  433.05   34.74
   5   7  -3  617.84   58.16
  -5  -7   3  635.41   53.81
  -5  -7   3  432.23   39.96
   5   7  -2  243.06   20.47
   5   7  -2  310.22   25.54
  -5  -7   2  332.97   25.42
  -5  -7   2  241.08   18.84
   5   7  -1  613.99   22.62
   5   7  -1  680.48   24.17
  -5  -7   1  706.11   26.22
  -5  -7   1  615.89   19.84
   5   7   0  846.00   23.96
   5   7   0  785.37   43.16
  -5  -7   0  852.59   25.84
   5   7   1  708.90   43.22
   5   7   1  557.82   21.22
  -5  -7  -1  689.10   24.85
  -5  -7  -1  646.74   18.96
   5   7   2  688.60   10.89
   5   7   2  927.89   43.39
   5   7   2  739.01   22.43
  -5  -7  -2  855.46   20.41
  -5  -7  -2  818.87   24.31
   5   7   3  273.53   16.49
  -5  -7  -3  346.01   19.41
  -5  -7  -3  309.14   20.94
   5   7   4  293.41   20.70
  -5  -7  -4  262.45   20.91
  -5  -7  -4  292.87   34.21
   5   7   5  101.27   20.92
  -5  -7  -5  118.71   17.79
  -5  -7  -5   77.94   37.71
   5   7   6  170.10   21.28
   5   7   6  145.98   20.31
  -5  -7  -6  132.64   19.68
  -5  -7  -6  172.98   38.01
   5   7   7  376.46   46.00
   5   7   7  378.40   22.11
  -5  -7  -7  430.96   40.14
  -5  -7  -7  373.51   22.12
   5   7   8  238.89   24.42
   5   7   8  228.30   24.80
  -5  -7  -8  158.07   19.74
  -5  -7  -8  232.29   41.19
   5   7   9  144.44   25.58
   5   7   9  182.12   27.15
  -5  -7  -9  126.30   20.57
   5   7  10  106.25   26.75
   5   7  10  149.23   30.67
  -5  -7 -10  110.44   28.88
  -5  -7 -10   66.29   43.09
   5   7  11   83.57   60.94
   5   7  11   90.46   28.62
  -5  -7 -11   41.89   62.52
  -5  -7 -11   57.05   22.37
   5   7  12  136.32   65.85
   5   7  12  125.80   36.11
  -5  -7 -12  116.80   29.19
  -5  -7 -12   97.49   33.80
   5   8  -7   33.76   85.26
   5   8  -7   62.86   46.09
  -5  -8   7  103.07   29.45
  -5  -8   7   71.41   38.52
   5   8  -6   98.07   42.75
  -5  -8   6   42.84   31.48
  -5  -8   6  141.03   41.83
   5   8  -5  106.86   19.34
   5   8  -5  204.33   40.59
  -5  -8   5  204.66   34.45
  -5  -8   5  147.41   26.03
   5   8  -4  241.61   66.08
   5   8  -4  228.27   23.82
  -5  -8   4  274.93   31.93
  -5  -8   4  213.96   25.76
   5   8  -3  243.76   56.53
   5   8  -3  235.03   23.35
  -5  -8   3  290.93   30.18
  -5  -8   3  239.94   24.18
   5   8  -2   35.21   53.56
   5   8  -2    8.83   23.32
  -5  -8   2   22.56   28.84
  -5  -8   2   12.40   21.13
   5   8  -1   30.97   25.81
   5   8  -1   66.40   25.30
  -5  -8   1   40.94   27.86
   5   8   0   77.01   25.59
   5   8   0   95.21   49.13
  -5  -8   0   34.14   52.14
   5   8   1  241.35   49.86
   5   8   1  166.50   21.92
  -5  -8  -1  238.01   50.97
  -5  -8  -1  198.64   20.86
   5   8   2 1006.56   27.91
   5   8   2  781.29   25.41
   5   8   2  844.18   20.46
  -5  -8  -2 1001.97   24.35
  -5  -8  -2 1028.78   54.13
   5   8   3  369.22   44.17
   5   8   3  336.94   42.93
  -5  -8  -3  312.86   25.55
   5   8   4  256.90   43.51
   5   8   4  341.18   48.54
  -5  -8  -4  287.48   25.08
  -5  -8  -4  294.35   22.25
   5   8   5  311.42   52.38
   5   8   5  218.50   23.68
  -5  -8  -5  230.75   46.98
  -5  -8  -5  300.69   24.24
   5   8   6  186.51   24.22
   5   8   6  275.09   29.15
  -5  -8  -6  176.61   23.19
  -5  -8  -6  216.59   24.34
   5   8   7  337.43   49.89
   5   8   7  399.96   27.68
  -5  -8  -7  424.31   49.59
  -5  -8  -7  320.18   23.62
   5   8   8  323.16   26.92
   5   8   8  308.98   26.58
  -5  -8  -8  290.17   24.86
  -5  -8  -8  332.13   49.42
   5   8   9  114.98   27.89
  -5  -8  -9  110.22   26.76
  -5  -8  -9  110.88   24.19
   5   8  10  228.91   69.19
   5   8  10  131.12   32.54
  -5  -8 -10  105.31   24.39
  -5  -8 -10  120.68   28.84
   5   8  11  144.05   71.65
   5   8  11  166.39   37.03
  -5  -8 -11   72.68   53.96
  -5  -8 -11  150.44   36.30
   5   9  -6  123.09   24.11
   5   9  -6  146.21   43.13
  -5  -9   6  195.40   43.11
  -5  -9   6  144.82   35.41
   5   9  -5  378.30   82.44
   5   9  -5  277.26   44.24
  -5  -9   5  537.88   42.70
   5   9  -4  653.82   42.19
   5   9  -4  494.17   27.99
  -5  -9   4  837.40   44.52
   5   9  -3  286.50   31.34
   5   9  -3  333.46   36.09
  -5  -9   3  398.81   37.37
  -5  -9   3  252.71   28.00
   5   9  -2   81.40   32.78
   5   9  -2  104.22   26.39
  -5  -9   2  100.65   25.76
  -5  -9   2  149.10   72.33
   5   9  -1   40.41   33.26
  -5  -9   1   35.02   22.11
  -5  -9   1   47.82   30.99
   5   9   0  117.50   31.42
   5   9   0  115.36   25.65
  -5  -9   0   96.49   29.31
   5   9   1  124.07   28.23
   5   9   1   91.75   23.24
  -5  -9  -1  127.95   28.32
   5   9   2   28.37   23.03
   5   9   2  109.20   23.43
   5   9   2  127.72   51.60
   5   9   2  139.40   21.58
  -5  -9  -2  116.84   27.54
   5   9   3   81.73   52.57
   5   9   3   41.14   28.24
   5   9   3   30.05   23.45
  -5  -9  -3   67.93   26.14
  -5  -9  -3   36.17   26.65
   5   9   4  142.56   51.43
   5   9   4  180.73   28.69
  -5  -9  -4  132.65   26.32
  -5  -9  -4  153.87   26.05
   5   9   5  171.54   35.16
   5   9   5  157.67   30.00
  -5  -9  -5  127.79   27.76
  -5  -9  -5  108.24   52.48
   5   9   6  192.96   26.83
   5   9   6  274.52   32.16
  -5  -9  -6  228.11   27.99
  -5  -9  -6  257.09   29.20
   5   9   7  495.79   31.64
   5   9   7  622.03   33.10
  -5  -9  -7  496.46   30.30
  -5  -9  -7  723.59   38.88
   5   9   8  165.57   32.00
  -5  -9  -8  207.27   59.65
  -5  -9  -8  138.91   54.62
   5   9   9  251.64   34.42
   5   9   9  211.62   32.41
  -5  -9  -9  231.12   30.15
  -5  -9  -9  161.75   54.08
   5   9  10  160.66   35.37
   5   9  10  251.80   42.73
  -5  -9 -10  192.01   34.72
  -5  -9 -10  167.37   57.97
   5  10  -4 1035.46   78.21
   5  10  -4  935.22   48.68
  -5 -10   4 1231.21   53.07
  -5 -10   4  922.86   40.96
   5  10  -3  397.40   65.13
   5  10  -3  443.51   83.21
  -5 -10   3  544.32   45.06
  -5 -10   3  397.11   37.15
   5  10  -2  205.70   41.36
  -5 -10   2  184.08   81.52
   5  10  -1  119.86   32.58
   5  10  -1  121.70   40.62
  -5 -10   1  110.31   40.92
  -5 -10   1   69.13   24.74
   5  10   0  287.21   28.53
   5  10   0  391.72   37.10
  -5 -10   0  372.02   39.89
  -5 -10   0  316.78   27.57
   5  10   1  310.37   32.75
   5  10   1  272.08   28.11
  -5 -10  -1  263.85   51.66
   5  10   2  197.37   30.07
  -5 -10  -2  183.93   27.26
   5  10   3   58.17   43.00
   5  10   3  127.94   64.66
  -5 -10  -3   91.22   34.70
  -5 -10  -3   91.61   29.93
   5  10   4   94.55   77.48
   5  10   4  204.85   32.88
  -5 -10  -4  182.32   34.82
  -5 -10  -4  250.08   29.92
   5  10   5  102.34   57.66
   5  10   5   77.37   32.79
  -5 -10  -5   86.69   33.55
  -5 -10  -5  113.60   34.15
   5  10   6   37.07   35.35
   5  10   6   98.91   36.04
  -5 -10  -6    1.08   30.76
   5  10   7  199.65   37.30
   5  10   7  121.09   71.30
  -5 -10  -7  134.37   71.60
  -5 -10  -7  136.80   62.36
   5  10   8   65.30   39.61
   5  10   8   -2.98   36.87
  -5 -10  -8   17.73   30.74
  -5 -10  -8    6.43   34.87
   5  11  -2   18.98   46.79
  -5 -11   2   39.14   30.37
  -5 -11   2   57.28   48.28
   5  11  -1  174.25   37.92
   5  11  -1  146.65   44.25
  -5 -11   1  149.38   47.06
  -5 -11   1   97.22   28.51
   5  11   0  438.19   41.40
   5  11   0  371.50   35.43
  -5 -11   0  344.51   31.88
  -5 -11   0  494.69   89.14
   5  11   1  958.67   39.73
  -5 -11  -1  796.56   32.89
  -5 -11  -1 1111.69   47.93
   5  11   2  308.00   69.17
   5  11   2  320.85   38.12
  -5 -11  -2  319.26   42.35
  -5 -11  -2  278.54   32.13
   5  11   3  286.54   39.65
  -5 -11  -3  255.47   67.62
  -5 -11  -3  272.80   79.94
   5  11   4  264.00   41.27
  -5 -11  -4  242.04   34.53
  -5 -11  -4  195.30   39.01
   5  11   5   33.56   32.67
   5  11   5  249.12   81.72
   5  11   5  194.44   33.07
  -5 -11  -5  206.07   38.69
  -5 -11  -5  194.90   37.93
   5  11   6   43.66   39.10
   5  11   6   56.41   39.15
   5  11   6   50.43   35.56
   6  -6  -2   98.79   65.66
   6  -6  -2   55.30   41.60
  -6   6   2  211.21   50.09
  -6   6   2  137.95   56.26
  -6   6   2  218.30   59.24
   6  -6  -1    2.51   32.12
   6  -6  -1    6.83   40.23
  -6   6   1   44.69   40.63
  -6   6   1   12.29   28.95
  -6   6   1   35.80   43.12
   6  -6   0   29.34   33.70
   6  -6   0    1.50   78.11
  -6   6   0   23.09   39.89
  -6   6   0   43.68   30.34
  -6   6   0   45.39   42.42
   6  -6   1    1.96   43.94
   6  -6   1   78.76   77.95
   6  -6   1   54.48   29.65
  -6   6  -1   82.05   29.85
  -6   6  -1   84.92   43.09
   6  -6   2   15.29   77.96
   6  -6   2  145.24   77.85
   6  -6   2   21.19   29.67
  -6   6  -2   19.27   31.79
  -6   6  -2   42.12   40.46
   6  -6   3  149.88   40.22
   6  -6   3  -27.57   88.82
   6  -6   3  118.69   33.11
  -6   6  -3   96.14   31.55
  -6   6  -3  151.02   40.64
   6  -6   4  395.91   42.81
   6  -6   4   87.43   49.30
   6  -6   4  355.11   33.65
  -6   6  -4  449.81   37.14
  -6   6  -4  350.60   44.42
   6  -6   5  176.93   33.30
   6  -6   5   93.93   63.91
   6  -6   5  144.49   81.15
  -6   6  -5  177.41   37.01
  -6   6  -5  176.00   43.69
  -6   6  -5  242.55   45.58
   6  -6   6  179.64   30.33
   6  -6   6  241.80   40.97
   6  -6   6  113.40  121.46
  -6   6  -6  224.77   36.61
  -6   6  -6  245.10   44.13
  -6   6  -6  311.71   46.77
   6  -6   7  178.17   42.10
   6  -6   7  -59.04  107.72
   6  -6   7  129.58   59.52
  -6   6  -7  188.92   41.65
  -6   6  -7  244.24  104.13
  -6   6  -7  143.44   74.03
   6  -5  -4  445.89   36.06
  -6   5   4  457.70   33.20
  -6   5   4  417.70   39.24
  -6   5   4  116.50  110.86
   6  -5  -3  285.29   30.64
   6  -5  -3  326.09   34.98
  -6   5   3   -8.63   59.85
  -6   5   3  342.85   59.62
  -6   5   3  258.12   75.58
   6  -5  -2  406.20   31.48
   6  -5  -2  397.09   37.08
  -6   5   2   -3.41   46.42
  -6   5   2  390.67   29.28
  -6   5   2  384.39   38.57
   6  -5  -1  316.11   36.22
   6  -5  -1  295.60   29.06
  -6   5   1  347.32   39.49
  -6   5   1  239.03   22.67
  -6   5   1  303.41   74.06
   6  -5   0  111.65   34.88
   6  -5   0  -33.32   39.45
   6  -5   0   68.89   25.09
  -6   5   0  103.10   26.19
  -6   5   0   98.95   36.39
  -6   5   0  117.82   72.79
   6  -5   1  174.41   27.15
   6  -5   1  175.50   34.51
   6  -5   1   -0.50   28.19
  -6   5  -1  154.53   25.33
  -6   5  -1  168.38   35.70
  -6   5  -1  204.29   37.54
   6  -5   2   74.64   34.11
   6  -5   2  -18.68   74.51
   6  -5   2   45.54   49.38
  -6   5  -2   68.37   34.67
  -6   5  -2   25.75   53.31
   6  -5   3  109.47   34.56
   6  -5   3   26.14   39.21
   6  -5   3   61.08   24.77
  -6   5  -3   83.95   26.54
  -6   5  -3   92.99   38.17
   6  -5   4  131.93   28.66
   6  -5   4    4.16   43.07
   6  -5   4  138.65   67.83
  -6   5  -4  147.77   28.83
  -6   5  -4  143.49   35.34
  -6   5  -4  168.83   38.42
   6  -5   5   16.16   33.05
   6  -5   5   -5.36   42.93
   6  -5   5   23.85   54.14
  -6   5  -5   29.63   28.09
  -6   5  -5   16.77   34.66
  -6   5  -5   20.88   39.67
   6  -5   6   77.57   40.72
   6  -5   6  103.86   49.54
   6  -5   6   -6.55   27.15
  -6   5  -6   16.31   27.35
  -6   5  -6  -10.95   40.66
  -6   5  -6   76.71   76.34
   6  -5   7    6.71   98.39
   6  -5   7   21.32   26.06
  -6   5  -7   27.11   27.15
  -6   5  -7   39.31   92.01
  -6   5  -7   -4.93   35.84
   6  -5   8  272.80   74.89
   6  -5   8   -1.08   84.50
   6  -5   8  132.33   52.84
  -6   5  -8  142.81   30.72
  -6   5  -8  193.66   75.76
   6  -5   9  372.30   30.59
   6  -5   9  501.42   32.80
   6  -5   9  328.34   43.02
  -6   5  -9  468.88   66.94
  -6   5  -9  538.81   74.38
   6  -4  -5  122.50   65.17
   6  -4  -5  226.57   42.51
  -6   4   5  119.47   28.28
  -6   4   5  269.34   82.51
  -6   4   5   -8.30   43.99
   6  -4  -4   71.72   26.18
   6  -4  -4  173.51   39.47
  -6   4   4  -12.06   36.76
  -6   4   4  103.06   27.20
  -6   4   4   84.41   31.84
   6  -4  -3  164.42   60.55
   6  -4  -3  172.14   24.94
  -6   4   3  252.39   28.03
  -6   4   3   -2.50   90.93
  -6   4   3  192.73   31.26
   6  -4  -2  434.95   30.67
   6  -4  -2  457.14   27.08
  -6   4   2    1.64   41.23
  -6   4   2  446.57   34.65
  -6   4   2  462.22   48.81
   6  -4  -1  462.90   26.61
   6  -4  -1  370.05   29.60
  -6   4   1  513.60   39.34
  -6   4   1  434.88   44.59
  -6   4   1  488.96   65.70
   6  -4   0  505.75   45.51
  -6   4   0  539.44   34.48
  -6   4   0  580.42   35.10
  -6   4   0  589.76   23.62
   6  -4   1  -10.58   94.05
   6  -4   1  468.89   20.88
  -6   4  -1  475.25   33.60
  -6   4  -1  479.93   44.13
  -6   4  -1  489.20   36.91
   6  -4   2  651.03   25.40
   6  -4   2  559.94   30.28
   6  -4   2  457.66   37.00
  -6   4  -2  677.72   46.43
  -6   4  -2  575.88   65.43
   6  -4   3  -11.48   36.95
   6  -4   3  623.33   30.77
   6  -4   3  676.09   39.80
  -6   4  -3  859.78   38.93
  -6   4  -3  700.38   23.77
  -6   4  -3  706.65   65.80
   6  -4   4  252.24   29.00
   6  -4   4  180.75   39.53
   6  -4   4  311.50   24.02
  -6   4  -4  287.93   31.84
  -6   4  -4  342.85   35.14
  -6   4  -4  308.25   42.73
   6  -4   5  112.61   28.82
   6  -4   5  133.89   44.97
   6  -4   5   91.91   48.23
  -6   4  -5  100.12   18.96
  -6   4  -5  109.10   30.15
  -6   4  -5  138.88   36.59
   6  -4   6   47.85   23.41
   6  -4   6   -3.54   37.02
   6  -4   6  101.98   61.93
  -6   4  -6   33.04   22.14
  -6   4  -6   94.83   33.14
  -6   4  -6   26.68   35.74
   6  -4   7   20.29   31.34
   6  -4   7   86.65   60.88
   6  -4   7   24.65   22.29
  -6   4  -7   36.34   25.84
  -6   4  -7  112.34   36.91
   6  -4   8  239.93   59.92
   6  -4   8   34.37   86.27
   6  -4   8   74.85   44.98
  -6   4  -8  119.85   24.96
  -6   4  -8  118.75   60.03
   6  -4   9  158.53   37.68
   6  -4   9  100.90   20.53
   6  -4   9  175.55   26.44
  -6   4  -9  143.05   29.26
  -6   4  -9  280.36   70.38
   6  -4  10  120.42   35.46
   6  -4  10   86.19   26.23
   6  -4  10  126.26   25.36
  -6   4 -10  114.12   30.51
   6  -3  -6   45.59   29.01
   6  -3  -6  109.66   38.38
  -6   3   6   98.97   63.44
  -6   3   6   72.20   35.24
  -6   3   6  105.44   35.75
   6  -3  -5  168.78   41.31
   6  -3  -5   76.44   25.87
  -6   3   5   89.76   28.69
  -6   3   5   80.74   25.91
  -6   3   5  138.20   95.62
   6  -3  -4   18.82   24.54
   6  -3  -4   93.54   37.33
  -6   3   4   -4.88   38.36
  -6   3   4   20.45   20.98
  -6   3   4   14.59   27.50
   6  -3  -3  169.91   39.94
   6  -3  -3  273.71   63.90
  -6   3   3  202.19   39.67
  -6   3   3  174.97   27.94
  -6   3   3  -14.55   33.15
   6  -3  -2  181.03   34.44
   6  -3  -2  254.07   28.31
  -6   3   2  285.45   29.24
  -6   3   2  287.15   37.17
  -6   3   2  -67.20   48.05
   6  -3  -1   -5.40   34.51
   6  -3  -1   10.30   16.55
   6  -3  -1   61.00   31.26
  -6   3   1   10.48   16.78
  -6   3   1   22.34   56.93
  -6   3   1   53.91   67.43
   6  -3   0    6.18   25.93
   6  -3   0  222.60   34.30
  -6   3   0  274.96   30.30
  -6   3   0  211.19   14.85
  -6   3   0  234.67   30.56
   6  -3   1  204.45   32.80
   6  -3   1   13.65   92.06
  -6   3  -1  226.82   61.03
  -6   3  -1  250.45   18.10
  -6   3  -1  222.61   58.69
   6  -3   2  430.88   31.39
   6  -3   2  460.86   27.14
   6  -3   2  658.86   69.44
  -6   3  -2  546.16   34.13
  -6   3  -2  504.79   30.95
   6  -3   3 1178.57   31.00
   6  -3   3 1072.92   38.62
   6  -3   3 1156.93   21.04
  -6   3  -3 1329.16   35.49
  -6   3  -3 1470.43   37.53
  -6   3  -3 1301.49   36.55
   6  -3   4 1588.43   46.69
   6  -3   4 1221.92   22.47
   6  -3   4 1116.83   53.88
  -6   3  -4 1343.75   36.57
  -6   3  -4 1297.82   34.46
  -6   3  -4 1142.57   36.19
   6  -3   5  386.58   25.97
   6  -3   5  489.64   23.56
   6  -3   5  361.45   62.39
  -6   3  -5  485.42   33.74
  -6   3  -5  400.88   20.19
  -6   3  -5  535.48   62.30
   6  -3   6  121.82   19.94
   6  -3   6  125.29   23.36
   6  -3   6   -5.64   41.76
  -6   3  -6  132.63   19.11
  -6   3  -6  118.07   27.38
  -6   3  -6  150.38   31.81
   6  -3   7  143.68   22.19
   6  -3   7  166.77   31.65
   6  -3   7  142.05   19.07
  -6   3  -7  169.51   19.69
  -6   3  -7  200.01   36.44
  -6   3  -7  256.98   56.80
   6  -3   8  201.52   19.70
   6  -3   8  219.24   29.47
   6  -3   8  182.81   36.67
  -6   3  -8  328.35   30.97
  -6   3  -8  243.42   43.20
   6  -3   9  119.92   21.60
   6  -3   9  103.48   27.81
   6  -3   9   98.58   21.94
  -6   3  -9  125.24   25.00
  -6   3  -9  182.53   30.47
   6  -3  10   26.96   31.24
   6  -3  10   19.83   24.77
   6  -3  10   27.73   24.40
  -6   3 -10   11.14   23.05
  -6   3 -10   76.42   54.30
   6  -3  11   82.57   36.19
   6  -3  11   63.74   52.12
   6  -3  11   56.23   26.40
  -6   3 -11   88.92   46.71
  -6   3 -11  115.84   30.03
   6  -2  -7  288.24   34.31
  -6   2   7  304.48   31.49
  -6   2   7   92.51   46.25
  -6   2   7  306.48   33.99
  -6   2   7  435.50  367.72
   6  -2  -6  277.15   66.59
   6  -2  -6  154.58   27.00
  -6   2   6  178.07   60.23
  -6   2   6  -16.79   37.32
   6  -2  -5  104.73   47.51
   6  -2  -5  196.02   59.81
  -6   2   5  161.96   56.10
  -6   2   5  121.57   25.92
  -6   2   5   93.10   55.10
   6  -2  -4  371.37   58.54
   6  -2  -4  344.66   21.97
  -6   2   4  419.10   29.19
  -6   2   4  403.76   39.10
  -6   2   4  -25.72   36.21
   6  -2  -3  264.45   28.03
   6  -2  -3  246.56   37.95
  -6   2   3  -13.13   30.41
  -6   2   3  258.69   18.18
  -6   2   3  308.82   30.98
   6  -2  -2  220.74   29.37
   6  -2  -2  356.65   52.06
  -6   2   2  345.79   29.39
  -6   2   2  353.63   28.15
  -6   2   2  -12.39   44.95
   6  -2  -1   27.23   23.69
   6  -2  -1   24.58   23.66
   6  -2  -1   -0.76   55.00
  -6   2   1   44.59   13.73
  -6   2   1   51.96   24.82
  -6   2   1    0.74   30.40
   6  -2   0   55.77   22.65
   6  -2   0   12.94   78.85
   6  -2   0   34.54   23.43
  -6   2   0   47.76   24.58
  -6   2   0   84.33   50.91
  -6   2   0   55.96   25.52
   6  -2   1  105.71   30.47
   6  -2   1   60.71   21.82
  -6   2  -1   73.30   26.12
  -6   2  -1   57.53   25.53
  -6   2  -1   67.44   25.01
   6  -2   2  217.39   26.64
   6  -2   2  237.19   22.82
   6  -2   2  212.21   22.55
  -6   2  -2  254.45   12.08
  -6   2  -2  235.31   26.37
   6  -2   3  843.40   35.79
   6  -2   3  656.81   14.39
  -6   2  -3  614.62   27.29
  -6   2  -3  632.72   13.54
   6  -2   4  542.73   25.71
   6  -2   4  558.59   15.18
   6  -2   4  514.27   22.23
  -6   2  -4  636.74   27.43
  -6   2  -4  515.21   22.47
   6  -2   5  759.45   42.04
   6  -2   5 1037.44   22.89
   6  -2   5  101.51   65.44
  -6   2  -5  823.29   27.72
  -6   2  -5  782.72   28.68
  -6   2  -5  887.55   30.89
   6  -2   6  281.99   17.05
   6  -2   6  239.31   19.59
   6  -2   6  294.84   27.19
  -6   2  -6  294.74   16.92
  -6   2  -6  313.02   24.15
  -6   2  -6  305.57   29.50
   6  -2   7  371.14   25.65
   6  -2   7  328.85   32.20
  -6   2  -7  498.98   33.49
  -6   2  -7  407.13   18.58
  -6   2  -7  411.89   23.65
   6  -2   8  490.84   20.51
   6  -2   8  529.66   28.04
  -6   2  -8  218.84  187.94
  -6   2  -8  603.85   47.18
   6  -2   9  275.69   39.76
   6  -2   9  286.85   28.56
   6  -2   9  255.07   38.78
  -6   2  -9  349.93   49.54
  -6   2  -9  301.57   22.26
   6  -2  10  133.83   31.55
   6  -2  10  102.34   44.70
   6  -2  10   97.97   21.86
  -6   2 -10  220.43   49.34
  -6   2 -10  138.10   24.56
   6  -2  11  161.61   23.93
   6  -2  11  164.93   26.75
  -6   2 -11  296.22   51.85
   6  -2  12  184.50   31.78
   6  -2  12  187.93   39.34
  -6   1   8  300.35   30.26
  -6   1   8  612.57   58.45
  -6   1   8  266.72   29.47
  -6   1   8   79.93   50.43
  -6   1   8  272.06   73.95
  -6   1   7   20.08   32.92
  -6   1   7   39.37   24.30
  -6   1   7   79.57   46.94
  -6   1   7   28.51   54.42
  -6   1   7   22.75   51.80
  -6   1   6   42.20   26.81
  -6   1   6   59.43   29.04
  -6   1   6   67.90   25.04
  -6   1   6   72.60   39.08
  -6   1   5  199.44   24.43
  -6   1   5  291.25   51.11
  -6   1   5  -31.65   77.35
   6  -1  -4 1319.64   54.98
   6  -1  -4 1252.00   44.00
  -6   1   4    6.49   76.19
  -6   1   4 1236.24   29.83
   6  -1  -3  622.64   18.40
   6  -1  -3  585.43   23.71
  -6   1   3  668.34   29.34
  -6   1   3  567.69   29.71
  -6   1   3   60.32   60.78
   6  -1  -2  456.83   28.57
   6  -1  -2  500.13   24.57
  -6   1   2  634.37   32.52
  -6   1   2  527.40   28.59
  -6   1   2    2.61   40.35
   6  -1  -1    5.65   22.83
   6  -1  -1  155.16   21.90
   6  -1  -1  129.10   21.53
  -6   1   1    0.17   25.84
  -6   1   1  156.36   10.78
  -6   1   1  198.69   56.63
   6  -1   0   91.84   20.00
   6  -1   0   94.66    8.25
   6  -1   0   37.83   79.20
  -6   1   0  121.04   21.36
  -6   1   0  108.22   26.33
  -6   1   0  122.25   19.55
   6  -1   1  267.43   19.95
   6  -1   1   17.16   25.45
   6  -1   1  239.94   15.07
  -6   1  -1  346.66    9.76
  -6   1  -1  410.01   29.27
  -6   1  -1  317.39   22.96
   6  -1   2  280.94   19.41
   6  -1   2  272.90   22.52
   6  -1   2  304.30   15.20
  -6   1  -2  307.54    7.29
  -6   1  -2  448.22   28.10
  -6   1  -2  386.10   22.21
   6  -1   3  522.04   15.89
   6  -1   3  515.59   19.71
   6  -1   3  541.99   43.28
  -6   1  -3  714.51   28.20
  -6   1  -3  430.74   13.86
  -6   1  -3  568.55   22.48
   6  -1   4   45.46    9.03
   6  -1   4   33.36   15.07
   6  -1   4   -0.61   54.78
  -6   1  -4   57.42   23.95
  -6   1  -4   49.70   15.51
  -6   1  -4   54.15   41.77
   6  -1   5  191.17   13.89
   6  -1   5  150.54   22.88
   6  -1   5  124.73   33.36
  -6   1  -5  134.94    9.60
  -6   1  -5  182.87   24.61
  -6   1  -5  113.37   21.66
   6  -1   6  179.66   18.82
   6  -1   6  215.97   23.15
   6  -1   6  191.94   25.01
  -6   1  -6  219.79   12.95
  -6   1  -6  261.17   24.75
  -6   1  -6  220.72   26.02
   6  -1   7    5.27   24.74
   6  -1   7   15.05   13.12
   6  -1   7    2.50   22.26
  -6   1  -7   69.75   24.45
   6  -1   8  381.67   31.20
   6  -1   8  287.81   16.64
  -6   1  -8  382.90   23.19
  -6   1  -8   55.28   21.95
   6  -1   9  527.41   19.95
   6  -1   9  513.19   27.74
   6  -1   9  489.07   39.82
  -6   1  -9 1216.32  313.29
   6  -1  10  220.00   22.60
   6  -1  10  278.63   30.64
   6  -1  10  248.86   21.30
  -6   1 -10  231.98   20.03
  -6   1 -10  288.87   23.71
   6  -1  11  353.74   25.93
   6  -1  11  314.76   26.14
   6  -1  11  364.74   66.67
  -6   1 -11  316.22   37.35
   6  -1  12  260.84   28.54
   6  -1  12  222.03   30.01
   6  -1  12  264.00   38.05
  -6   0   8  189.33   29.20
  -6   0   8  218.75   36.67
  -6   0   8   54.40   47.20
  -6   0   8  182.32   43.07
  -6   0   8  228.10   46.67
  -6   0   7   -0.62   25.30
  -6   0   7   34.82   20.71
  -6   0   7   51.95   42.33
  -6   0   7   14.05   61.00
  -6   0   6   11.87   23.22
  -6   0   6    3.70   44.51
  -6   0   6   45.87   21.30
  -6   0   5   35.73   22.20
  -6   0   5   63.50   39.30
  -6   0   5   36.68   41.97
  -6   0   5   42.45   44.94
  -6   0   4  187.79   20.20
  -6   0   4    2.10   21.87
  -6   0   4  195.53   24.99
  -6   0   4   65.52   45.44
  -6   0   4  216.34   38.21
  -6   0   3 1035.89   17.81
  -6   0   3 1049.39   20.94
  -6   0   3 1121.93   56.36
  -6   0   3   27.39   53.60
   6   0  -2  410.43   25.31
  -6   0   2  385.46   11.78
  -6   0   2  506.12  244.78
  -6   0   2  536.95   56.48
  -6   0   2   21.41   34.44
   6   0  -1  415.26   22.06
   6   0  -1  402.46   19.22
   6   0  -1   59.03   42.46
  -6   0   1  187.41   41.60
  -6   0   1  427.06   16.78
  -6   0   1  546.65   54.19
   6   0   0  325.29   20.86
   6   0   0  323.84   25.60
  -6   0   0  395.62   26.05
  -6   0   0  348.37   14.23
  -6   0   0  332.96   36.54
   6   0   1 1733.00   31.05
   6   0   1 1652.29   15.41
   6   0   1 1705.53   26.60
  -6   0  -1 2171.21   34.92
  -6   0  -1 1680.47   25.92
   6   0   2  924.30   46.91
   6   0   2  736.16   21.53
  -6   0  -2  751.08   21.40
  -6   0  -2  939.17   28.38
   6   0   3  333.37   29.55
  -6   0  -3 1168.78   22.70
  -6   0  -3  560.65  149.56
   6   0   4  428.74   21.67
   6   0   4  440.15   14.64
   6   0   5  221.50   20.85
   6   0   5  186.99   14.86
   6   0   5  205.46   19.24
  -6   0  -5   18.88   18.45
  -6   0  -5  238.59   22.23
  -6   0  -5  208.27   20.32
   6   0   6  260.49   10.30
   6   0   6  299.64   22.43
   6   0   6  248.08   19.66
  -6   0  -6   47.76   23.58
  -6   0  -6  342.31   22.25
  -6   0  -6  291.40   24.82
   6   0   7   85.01   20.45
   6   0   7   66.36   11.75
   6   0   7   59.64   11.52
  -6   0  -7  214.59   42.01
  -6   0  -7   73.04   38.80
   6   0   8   75.80   22.39
   6   0   8   84.38   27.83
  -6   0  -8  141.56   43.03
   6   0   9   54.73   35.10
   6   0   9   53.78   24.26
   6   0   9   58.63   35.56
  -6   0  -9  128.25   44.97
  -6   0  -9   68.56   17.62
   6   0  10   44.76   28.12
   6   0  10   74.75   38.33
   6   0  10   63.83   21.52
  -6   0 -10   88.86   19.84
  -6   0 -10   92.50   20.90
   6   0  11  254.34   22.33
   6   0  11  295.03   34.63
   6   0  11  246.89   53.36
  -6   0 -11  346.84   39.28
  -6   0 -11  282.11   40.93
   6   0  12  163.66   75.99
   6   0  12  113.17   24.78
   6   0  12  119.45   62.95
  -6   0 -12  145.08   21.43
   6   0  13   69.63   27.12
   6   0  13   68.36   44.13
   6   0  13   53.89   74.47
  -6  -1   8  421.25   28.29
  -6  -1   8  507.20   35.76
  -6  -1   7   67.61   23.20
  -6  -1   7   76.82   28.72
  -6  -1   7   70.92   17.07
  -6  -1   7   70.93   18.85
  -6  -1   7   15.22   36.32
  -6  -1   6   29.82   20.49
  -6  -1   6   32.09   29.32
  -6  -1   6   19.49   36.58
  -6  -1   6   84.36   42.93
  -6  -1   5  142.79   18.89
  -6  -1   5  172.76   25.40
  -6  -1   5  119.05   74.52
  -6  -1   4  283.41   17.27
  -6  -1   4  263.13   23.89
  -6  -1   4  281.35   38.79
  -6  -1   4  134.50   70.80
  -6  -1   3  574.67   17.03
  -6  -1   3   27.98   39.58
  -6  -1   3   10.95   20.23
  -6  -1   3  518.63   32.26
  -6  -1   2  252.98   25.55
  -6  -1   2  173.12   18.55
  -6  -1   2  199.13   23.26
  -6  -1   2  225.35   45.27
  -6  -1   2   17.57   47.36
   6   1  -1  181.48   20.45
  -6  -1   1   -2.68   20.07
  -6  -1   1  218.80   16.73
  -6  -1   1  193.94   13.04
  -6  -1   1  211.65   15.65
  -6  -1   1  223.77   43.44
   6   1   0  141.55   26.05
  -6  -1   0   -8.63   19.47
  -6  -1   0  133.01   14.36
  -6  -1   0  128.06    7.01
  -6  -1   0  120.56    6.87
  -6  -1   0  151.19   42.34
   6   1   1  671.01   21.60
  -6  -1  -1  811.87   24.76
  -6  -1  -1  688.00   17.57
  -6  -1  -1   44.64   23.33
   6   1   2  332.46   15.93
  -6  -1  -2   88.92   19.56
  -6  -1  -2  421.60   39.82
  -6  -1  -2  327.78   30.05
   6   1   3 1124.13   39.55
  -6  -1  -3  887.15   22.72
  -6  -1  -3  852.07   19.57
  -6  -1  -3 1004.69   24.52
   6   1   4 1328.80   25.58
   6   1   4  703.23    7.54
  -6  -1  -4 1079.69   21.83
  -6  -1  -4 1698.98   46.66
  -6  -1  -4 1243.40   24.25
   6   1   5 1128.47   15.76
   6   1   5 1104.58   24.82
   6   1   5  961.19   15.92
  -6  -1  -5  486.79  264.00
  -6  -1  -5 1163.21   46.18
  -6  -1  -5 1133.61   24.75
   6   1   6 1015.64   23.11
   6   1   6 1239.92   22.21
   6   1   6  969.94   21.13
  -6  -1  -6 1302.31   44.57
   6   1   7  488.95   13.26
   6   1   7  395.77   20.16
   6   1   7  416.25   24.22
  -6  -1  -7  513.66   21.56
  -6  -1  -7  586.78   43.40
   6   1   8   93.32   26.23
   6   1   8   79.10   27.34
   6   1   8   80.46   20.73
  -6  -1  -8  119.76   18.24
  -6  -1  -8  100.94   18.65
   6   1   9  108.16   24.84
   6   1   9  127.88   32.29
   6   1   9  101.99   16.79
  -6  -1  -9  170.99   21.15
  -6  -1  -9  162.60   20.47
   6   1  10  143.81   21.18
   6   1  10  184.39   59.00
   6   1  10  174.90   19.14
  -6  -1 -10  175.30   17.93
  -6  -1 -10  184.32   19.43
   6   1  11  144.00   25.41
   6   1  11  184.66   36.25
   6   1  11  156.06   41.57
  -6  -1 -11  151.26   19.40
  -6  -1 -11  234.59   41.77
   6   1  12   54.19   41.33
   6   1  12   53.97   22.51
   6   1  12   46.01   29.66
  -6  -1 -12   79.69   19.19
  -6  -1 -12   95.99   41.52
   6   1  13    3.14   27.72
   6   1  13   12.70   35.71
   6   1  13  -10.73   47.72
  -6  -2   9  247.52   37.56
  -6  -2   9  244.51   56.77
  -6  -2   9  114.56   88.68
  -6  -2   8  175.46   24.91
  -6  -2   8  179.35   66.89
  -6  -2   7  112.83   29.79
  -6  -2   7   37.42   37.83
  -6  -2   7   96.96   42.85
  -6  -2   7  135.04   38.69
  -6  -2   6  164.39   19.85
  -6  -2   6  178.20   25.98
  -6  -2   6  189.97   20.08
  -6  -2   6  218.35   24.70
  -6  -2   6   39.28   31.31
  -6  -2   5  990.98   21.19
  -6  -2   5  984.69   25.93
  -6  -2   5 1016.29   24.78
  -6  -2   5 1057.15   40.44
  -6  -2   5  133.81   69.54
  -6  -2   4 1275.01   19.91
  -6  -2   4 1314.21   23.14
  -6  -2   4 1289.07   25.89
  -6  -2   4 1397.52   38.57
  -6  -2   3 1037.08   16.58
  -6  -2   3  871.05   29.15
  -6  -2   3 1004.71   38.73
  -6  -2   3 1102.70   47.15
  -6  -2   3  -13.22   40.20
  -6  -2   2  655.00   12.61
  -6  -2   2  571.50   12.41
  -6  -2   2  646.43   21.16
  -6  -2   2  644.80   22.38
   6   2  -1  275.06   18.13
  -6  -2   1  377.40   20.66
  -6  -2   1  394.97   17.67
  -6  -2   1  318.55   13.70
  -6  -2   1  305.61   24.95
   6   2   0   80.66   42.80
  -6  -2   0  145.17   18.46
  -6  -2   0  115.08   13.10
   6   2   1   41.50   19.58
  -6  -2  -1   32.80   12.11
  -6  -2  -1   31.63   33.31
   6   2   2  115.84   20.06
  -6  -2  -2  203.79   21.72
  -6  -2  -2  140.51   16.88
  -6  -2  -2  116.30   26.16
   6   2   3  327.99   16.62
  -6  -2  -3  308.79   17.74
  -6  -2  -3  308.31   15.92
  -6  -2  -3  378.53   19.69
   6   2   4  946.79   23.93
  -6  -2  -4  850.68   21.70
  -6  -2  -4  763.17   21.71
   6   2   5 1231.15   15.30
   6   2   5 1293.05   23.18
   6   2   5 1069.19   14.69
  -6  -2  -5 1352.50   42.23
  -6  -2  -5 1387.58   24.16
   6   2   6  730.98   19.84
   6   2   6  564.99   19.64
   6   2   6  570.17   18.99
  -6  -2  -6  747.60   23.07
  -6  -2  -6  735.43   22.33
   6   2   7  937.93   16.05
   6   2   7  772.30   21.86
   6   2   7  930.31   29.39
  -6  -2  -7 1052.41   24.60
  -6  -2  -7 1018.38   43.03
   6   2   8  290.38   18.62
   6   2   8  270.02   23.95
  -6  -2  -8  274.68   20.45
  -6  -2  -8  355.14   41.08
   6   2   9  508.47   24.80
   6   2   9  460.59   29.38
   6   2   9  484.41   18.93
  -6  -2  -9  450.74   20.97
  -6  -2  -9  449.59   20.89
   6   2  10  574.24   22.28
   6   2  10  607.77   35.02
   6   2  10  569.04   53.78
  -6  -2 -10  588.86   21.41
  -6  -2 -10  553.21   39.34
   6   2  11  601.25   25.98
   6   2  11  652.91   31.65
   6   2  11  694.56   75.53
  -6  -2 -11  500.87   21.31
  -6  -2 -11  726.58   48.79
   6   2  12   36.28   33.56
   6   2  12    4.78   40.23
   6   2  12   36.04   51.33
  -6  -2 -12   52.86   20.73
  -6  -2 -12   77.25   45.52
   6   2  13   58.51   30.55
   6   2  13   85.68   45.89
   6   2  13  124.07   47.13
  -6  -3   8   40.49   36.84
  -6  -3   8   77.50   45.26
  -6  -3   8   79.75   70.01
  -6  -3   7  107.97   20.55
  -6  -3   7  137.28   59.72
  -6  -3   7  131.27   37.14
  -6  -3   7  160.15   40.45
  -6  -3   7   70.59   62.29
  -6  -3   6   52.16   18.68
  -6  -3   6   75.06   18.95
  -6  -3   6   94.34   22.13
  -6  -3   6   56.90   50.54
  -6  -3   6   69.58   58.65
  -6  -3   5  834.33   25.03
  -6  -3   5  886.09   24.75
  -6  -3   5  820.61   35.08
  -6  -3   5   87.15   52.55
  -6  -3   4 1160.02   18.35
  -6  -3   4 1349.81   23.89
  -6  -3   4 1311.82   25.91
  -6  -3   4 1269.31   40.31
  -6  -3   3 1133.50   23.14
  -6  -3   3 1135.02   24.61
  -6  -3   3  956.46   27.52
  -6  -3   3 1084.11   33.06
  -6  -3   2  789.76   13.39
  -6  -3   2  720.04   21.14
  -6  -3   2  632.10   13.48
  -6  -3   2  679.41   21.76
  -6  -3   2  813.46   39.63
   6   3  -1  220.81   14.50
  -6  -3   1  355.21   19.48
  -6  -3   1  282.90   17.31
  -6  -3   1  341.06   16.39
  -6  -3   1  269.00   13.98
  -6  -3   1  285.32   22.42
   6   3   0  157.43   39.36
  -6  -3   0  808.34   21.80
  -6  -3   0  530.29   15.92
  -6  -3   0  700.50   12.16
  -6  -3   0  749.88   24.64
  -6  -3   0  809.52   13.38
   6   3   1  258.20   15.24
  -6  -3  -1  626.24   21.23
  -6  -3  -1  467.08   17.82
  -6  -3  -1  610.54   26.47
  -6  -3  -2  262.00   20.11
  -6  -3  -2  220.39   16.37
   6   3   3  393.91  159.49
   6   3   3  448.32   18.61
  -6  -3  -3  437.24   40.64
  -6  -3  -3  448.42   19.44
   6   3   4 1107.26   13.95
   6   3   4  290.43  137.91
   6   3   4 1208.69   23.09
  -6  -3  -4 1251.11   25.82
   6   3   5  676.99   15.57
   6   3   5  419.76  163.63
   6   3   5  597.55   17.20
  -6  -3  -5  807.71   23.04
   6   3   6  145.89  214.25
   6   3   6  106.10   16.71
  -6  -3  -6  133.82   18.68
  -6  -3  -6  130.96   18.08
   6   3   7   37.23   22.55
   6   3   7   32.94   28.33
   6   3   7   20.45   19.32
  -6  -3  -7   25.18   18.68
  -6  -3  -7   69.87   23.94
   6   3   8   14.71   23.52
   6   3   8   19.96   13.88
   6   3   8   40.70   19.72
  -6  -3  -8   31.86   18.84
   6   3   9  656.12   25.31
   6   3   9  622.79   20.85
  -6  -3  -9  555.88   21.12
  -6  -3  -9  622.52   21.74
   6   3  10 1452.02   40.81
   6   3  10 1529.01   68.52
   6   3  10 1325.27   27.92
  -6  -3 -10 1359.58   27.42
  -6  -3 -10 1188.48   25.06
   6   3  11  769.77   28.63
   6   3  11  885.41   39.91
   6   3  11  820.62   42.45
  -6  -3 -11  892.68   47.43
  -6  -3 -11  674.45   43.22
   6   3  12   43.56   41.84
   6   3  12   13.42   26.74
   6   3  12   18.79   40.55
  -6  -3 -12   55.94   23.28
  -6  -3 -12   59.39   41.08
   6   3  13  115.50   31.47
   6   3  13  187.34   48.25
   6   3  13  101.01   79.86
  -6  -4   8   52.81   36.61
  -6  -4   8   23.24   27.41
  -6  -4   8   31.37   48.42
  -6  -4   7  113.56   31.10
  -6  -4   7   72.02   44.85
  -6  -4   7  120.97   41.39
  -6  -4   7   86.91   37.56
  -6  -4   7   75.41   54.25
  -6  -4   6  140.72   26.57
  -6  -4   6  175.96   25.23
  -6  -4   6  128.34   42.42
  -6  -4   6  236.01   44.52
  -6  -4   6   64.03   45.07
  -6  -4   5  102.82   20.29
  -6  -4   5  135.54   19.41
  -6  -4   5   21.26   14.58
  -6  -4   5  217.88   45.96
  -6  -4   4   86.06   20.53
  -6  -4   4  104.58   20.98
  -6  -4   4   21.32   13.41
  -6  -4   4   57.53   28.45
  -6  -4   4   62.36   33.08
  -6  -4   3  327.21   14.69
  -6  -4   3  379.51   19.01
  -6  -4   3  303.25   15.85
  -6  -4   3  309.98   10.12
  -6  -4   3  335.71   26.00
  -6  -4   2  300.26   11.45
  -6  -4   2  277.34   11.69
  -6  -4   2  376.45   19.86
  -6  -4   2  283.49   17.45
  -6  -4   2  311.28   10.85
   6   4  -1   42.80   15.31
   6   4  -1  454.71   21.34
  -6  -4   1  530.92   20.36
  -6  -4   1  451.46   18.43
  -6  -4   1  537.46   21.22
   6   4   0  595.31   17.85
   6   4   0  454.46   18.33
   6   4   0   35.43   30.49
  -6  -4   0  848.23   25.91
  -6  -4   0  767.85   11.16
   6   4   1  728.60   26.95
   6   4   1  589.95   15.73
  -6  -4  -1  831.91   30.69
  -6  -4  -1  724.42   17.18
   6   4   2 1263.91   24.35
   6   4   2 1236.70   16.05
   6   4   2 1430.63   19.58
  -6  -4  -2 1267.58   14.80
   6   4   3   26.70   35.01
   6   4   3 1266.77   12.11
  -6  -4  -3 1293.31   24.51
  -6  -4  -3 1230.42   10.06
   6   4   4 2086.06   24.36
   6   4   4   78.47   37.30
   6   4   4 1862.91   36.82
  -6  -4  -4 1979.31   20.56
  -6  -4  -4 1827.80   25.89
   6   4   5  565.02   16.52
   6   4   5  691.67   12.13
   6   4   5  106.43   45.78
  -6  -4  -5  772.05   12.55
   6   4   6  225.76   73.45
   6   4   6  119.86   35.03
   6   4   6   89.07   19.98
  -6  -4  -6  131.30   11.15
  -6  -4  -6  132.88   18.57
   6   4   7   61.14   12.66
   6   4   7  103.20   26.28
   6   4   7   66.25   46.92
  -6  -4  -7  119.26   22.62
  -6  -4  -7  105.27   33.86
   6   4   8  205.02   27.36
   6   4   8  269.76   51.08
   6   4   8  163.75   14.96
  -6  -4  -8  237.98   21.42
  -6  -4  -8  212.02   20.98
   6   4   9  520.39   34.40
   6   4   9  493.15   20.70
  -6  -4  -9  464.88   22.88
  -6  -4  -9  605.02   24.03
   6   4  10  685.94  281.37
   6   4  10  546.25   37.90
   6   4  10  512.56   46.37
  -6  -4 -10  500.36   22.95
   6   4  11   99.46   38.96
   6   4  11   41.05   58.95
   6   4  11   25.87   25.28
  -6  -4 -11   32.47   20.33
  -6  -4 -11   42.61   20.52
   6   4  12    1.19   28.97
   6   4  12   10.23   42.42
   6   4  12   10.34   66.60
  -6  -4 -12   46.83   45.61
  -6  -4 -12   36.36   43.40
   6   4  13  222.84   34.79
   6   4  13  240.56   49.70
   6   4  13  167.09   76.25
  -6  -5   8  397.12   37.42
  -6  -5   8  355.21   61.59
  -6  -5   7  336.79   33.55
  -6  -5   7  288.43   20.91
  -6  -5   7  336.36   48.71
  -6  -5   6   79.07   21.05
  -6  -5   6  129.26   22.96
  -6  -5   6  147.08   26.39
  -6  -5   6   21.64   17.68
  -6  -5   6   84.41   50.93
  -6  -5   5   72.19   19.32
  -6  -5   5   62.26   21.88
  -6  -5   5  128.24   22.04
  -6  -5   5  184.37   49.45
  -6  -5   4   74.33   22.60
  -6  -5   4   86.35   20.57
  -6  -5   4   61.96   33.69
  -6  -5   4   62.38   34.37
  -6  -5   4   74.19   17.42
   6   5  -3  145.30   35.91
  -6  -5   3  165.63   43.47
  -6  -5   3  174.14   17.47
  -6  -5   3  125.59   14.12
   6   5  -2  430.61   30.91
   6   5  -2    1.32   17.40
  -6  -5   2  498.35   14.78
  -6  -5   2  779.25   21.03
  -6  -5   2  612.98   23.29
   6   5  -1   52.59   36.79
   6   5  -1  211.15   15.71
  -6  -5   1  226.38   20.78
  -6  -5   1  188.96   12.24
  -6  -5   1  309.76   20.32
   6   5   0   98.05   12.64
   6   5   0   17.18   10.19
  -6  -5   0  104.52   19.37
  -6  -5   0  121.23   22.46
   6   5   1   58.64   12.18
   6   5   1   24.30   10.23
  -6  -5  -1   57.91   18.29
  -6  -5  -1   53.31   18.76
   6   5   2 1183.05   15.78
  -6  -5  -2 1226.54   24.50
  -6  -5  -2 1269.96   23.19
   6   5   3  675.61   21.49
   6   5   3 1015.81   38.37
   6   5   3  818.26   14.84
  -6  -5  -3  744.57   11.52
  -6  -5  -3  814.70   22.83
   6   5   4  241.71   25.62
   6   5   4  284.64   19.97
  -6  -5  -4  344.05   19.74
  -6  -5  -4  359.15   20.15
   6   5   5 1708.45   27.98
   6   5   5 1459.23   36.05
   6   5   5 1749.95   34.16
  -6  -5  -5 1991.57   48.65
  -6  -5  -5 1692.69   27.06
   6   5   6  386.39   21.91
   6   5   6  390.12   15.20
  -6  -5  -6  436.35   22.95
  -6  -5  -6  403.53   13.90
   6   5   7  182.63   14.42
   6   5   7  276.63   27.22
  -6  -5  -7  249.59   16.49
  -6  -5  -7  280.09   46.42
   6   5   8  519.98   19.55
   6   5   8  643.57   32.70
  -6  -5  -8  606.00   20.16
  -6  -5  -8  631.36   44.34
   6   5   9 1147.52   61.19
   6   5   9  568.24   35.06
   6   5   9  551.73   26.69
  -6  -5  -9  515.62   22.43
  -6  -5  -9  431.66   21.52
   6   5  10  203.83   24.42
   6   5  10  195.27   31.20
  -6  -5 -10  195.45   47.82
  -6  -5 -10  271.75   45.80
   6   5  11   77.18   51.89
   6   5  11   71.63   27.10
  -6  -5 -11   94.31   41.45
  -6  -5 -11  103.53   29.04
   6   5  12  180.95   29.70
   6   5  12  180.41   43.53
   6   5  12  169.87  226.32
  -6  -5 -12  202.09   48.07
   6   5  13   99.38   32.60
   6   5  13  126.31   49.47
   6   5  13  101.73   80.42
  -6  -6   8  267.29   32.91
  -6  -6   8  280.07   37.59
  -6  -6   7  290.15   32.44
  -6  -6   7  258.25   21.75
  -6  -6   7  241.27   57.17
  -6  -6   7  273.89   49.22
  -6  -6   6  338.83   26.35
  -6  -6   6  320.83   27.76
  -6  -6   6  357.00   22.48
  -6  -6   6  259.17   21.27
   6   6  -5  221.30  197.21
  -6  -6   5  255.76   45.46
  -6  -6   5  336.49   48.54
  -6  -6   5  311.49   26.10
   6   6  -4  382.80   42.41
   6   6  -4  514.30   53.45
  -6  -6   4  558.04   48.60
  -6  -6   4  421.78   22.36
   6   6  -3  558.02   25.32
   6   6  -3   71.82   41.20
  -6  -6   3  528.88   20.25
  -6  -6   3  913.60   64.06
   6   6  -2  765.90   45.82
  -6  -6   2  467.86   14.60
  -6  -6   2  935.07   33.18
   6   6  -1  174.74   19.79
  -6  -6   1  198.11   51.64
   6   6   0   44.96   35.86
   6   6   0   37.56   17.87
  -6  -6   0   43.70   26.53
  -6  -6   0   47.36   22.97
   6   6   1  151.09   21.59
   6   6   1  143.31   15.85
   6   6   1  140.56   15.60
  -6  -6  -1  155.54   13.52
  -6  -6  -1  167.41   22.56
   6   6   2   72.10   36.02
   6   6   2   77.50   20.21
   6   6   2   83.82   27.71
  -6  -6  -2  118.79   21.76
  -6  -6  -2   96.68   24.48
   6   6   3  432.35   18.13
   6   6   3  361.67   17.62
   6   6   3  265.38   18.56
  -6  -6  -3  370.02   14.35
  -6  -6  -3  377.50   45.14
   6   6   4  432.33   14.28
   6   6   4  574.06   17.73
   6   6   4  457.70   19.92
  -6  -6  -4  574.08   25.21
  -6  -6  -4  553.08   26.85
   6   6   5  240.44   18.20
   6   6   5  183.89   19.02
   6   6   5  275.85   19.97
  -6  -6  -5  225.68   27.25
  -6  -6  -5  236.21   43.80
   6   6   6  198.27   23.68
   6   6   6  176.30   32.96
   6   6   6  218.98   23.48
  -6  -6  -6  219.17   15.50
  -6  -6  -6  194.69   21.57
   6   6   7  147.93   34.14
   6   6   7  174.36   25.93
  -6  -6  -7  119.67   31.66
  -6  -6  -7  117.52   19.96
   6   6   8  743.82   27.27
   6   6   8  683.86   22.68
  -6  -6  -8  664.47   24.31
  -6  -6  -8  729.22   21.46
   6   6   9  695.98   45.84
   6   6   9  835.10   31.21
  -6  -6  -9  652.82   23.41
  -6  -6  -9  819.15   27.87
   6   6  10  474.55   51.50
  -6  -6 -10  325.86   23.03
  -6  -6 -10  433.40   50.91
   6   6  11  458.41  501.51
   6   6  11  163.29   29.93
  -6  -6 -11  220.70   50.45
  -6  -6 -11  204.36   29.65
   6   6  12   41.67   30.46
  -6  -6 -12  131.88   31.67
  -6  -6 -12  170.70   57.39
  -6  -7   7   86.04   33.94
  -6  -7   7   74.64   32.83
  -6  -7   7  106.03   26.10
  -6  -7   7  166.01   50.80
   6   7  -6   49.27  197.66
   6   7  -6   83.27   35.69
  -6  -7   6  103.00   24.55
  -6  -7   6  108.13   30.15
   6   7  -5   56.79   64.40
   6   7  -5    6.88   23.39
  -6  -7   5  161.74   55.42
  -6  -7   5   43.41   25.06
   6   7  -4  990.54  321.94
   6   7  -4  659.69   39.41
  -6  -7   4  787.20   36.07
  -6  -7   4  458.82   23.27
   6   7  -3 1537.51   41.04
  -6  -7   3  872.06   40.16
   6   7  -2  937.27   43.26
   6   7  -2 1356.30   62.97
  -6  -7   2 1456.24   35.65
  -6  -7   2 1014.79   23.09
   6   7  -1  311.46   43.01
  -6  -7   1  246.77   18.27
  -6  -7   1  317.48   26.99
   6   7   0  224.39   22.57
   6   7   0  181.94   20.23
  -6  -7   0  246.32   25.15
   6   7   1  279.16   20.05
   6   7   1  266.14   23.10
  -6  -7  -1  264.34   23.99
  -6  -7  -1  277.88   36.13
   6   7   2  269.33   23.49
   6   7   2  311.97   21.27
  -6  -7  -2  299.06   23.08
  -6  -7  -2  276.28   16.81
   6   7   3  353.07   49.13
   6   7   3  326.46   28.08
   6   7   3  328.74   20.83
  -6  -7  -3  331.57   18.64
  -6  -7  -3  261.48   22.46
   6   7   4  133.65   20.87
   6   7   4   60.02   22.24
   6   7   4   81.89   28.08
  -6  -7  -4  109.93   16.19
  -6  -7  -4   71.82   43.04
   6   7   5   61.98   49.89
   6   7   5   48.61   20.88
   6   7   5   16.81   41.11
  -6  -7  -5   19.71   21.71
   6   7   6  417.64   53.00
   6   7   6  398.23   22.90
  -6  -7  -6  344.33   44.19
  -6  -7  -6  383.73   20.08
   6   7   7  148.25   40.82
   6   7   7  153.79   25.84
  -6  -7  -7  182.80   36.65
  -6  -7  -7  161.12   21.95
   6   7   8  246.70   22.40
   6   7   8  371.41   58.80
  -6  -7  -8  240.16   41.71
  -6  -7  -8  225.74   43.34
   6   7   9  263.88   49.97
   6   7   9  203.26   24.62
  -6  -7  -9  225.24   45.99
  -6  -7  -9  208.74   23.30
   6   7  10  197.52   52.67
   6   7  10  193.67   29.25
  -6  -7 -10  137.53   22.78
  -6  -7 -10  172.86   29.16
   6   7  11  211.30   33.91
   6   7  11  218.14   31.92
  -6  -7 -11  134.09   24.80
  -6  -7 -11  214.73   30.40
   6   7  12  306.66   68.59
  -6  -7 -12  275.58   32.16
  -6  -7 -12  294.25   68.37
   6   8  -6    7.10   28.95
   6   8  -6   34.88   48.38
  -6  -8   6   46.99   27.99
  -6  -8   6   19.56   31.22
   6   8  -5   51.41  366.93
   6   8  -5   24.65   39.84
  -6  -8   5   69.06   32.05
  -6  -8   5   31.10   22.89
   6   8  -4  125.91   80.09
  -6  -8   4   86.51   25.18
  -6  -8   4  199.49   36.87
   6   8  -3  457.00   71.62
   6   8  -3  258.70   21.64
  -6  -8   3  457.40   34.58
  -6  -8   3  359.82   26.79
   6   8  -2  514.97   61.18
   6   8  -2  379.38   24.60
  -6  -8   2  590.30   32.53
  -6  -8   2  436.89   23.65
   6   8  -1  185.41   27.68
   6   8  -1  204.57   29.21
  -6  -8   1  181.55   28.99
   6   8   0  548.57   28.31
   6   8   0  514.13   27.50
  -6  -8   0  528.06   23.32
  -6  -8   0  576.18   56.26
   6   8   1  377.31   51.48
   6   8   1  389.16   31.33
  -6  -8  -1  313.79   26.94
  -6  -8  -1  336.66   21.75
   6   8   2  831.64   28.89
   6   8   2  635.37   26.66
  -6  -8  -2  618.42   27.59
  -6  -8  -2  805.44   45.61
   6   8   3 1248.97   51.38
   6   8   3 1049.30   29.84
   6   8   3  995.27   26.53
  -6  -8  -3 1152.39   54.50
  -6  -8  -3 1298.50   27.95
   6   8   4  392.32   21.79
   6   8   4  382.68   25.42
   6   8   4  433.89   36.99
  -6  -8  -4  374.41   26.00
  -6  -8  -4  449.39   42.86
   6   8   5  311.57   25.39
   6   8   5  380.74   27.79
  -6  -8  -5  327.27   24.63
  -6  -8  -5  378.54   22.39
   6   8   6  220.66   25.55
   6   8   6  288.99   27.49
  -6  -8  -6  207.30   24.36
  -6  -8  -6  295.73   23.53
   6   8   7  119.87   26.37
   6   8   7  104.66   27.46
  -6  -8  -7  124.58   22.32
  -6  -8  -7   97.41   48.00
   6   8   8   62.29   25.97
   6   8   8   57.53   28.18
  -6  -8  -8   37.75   21.91
  -6  -8  -8   45.43   48.62
   6   8   9   52.44   52.39
   6   8   9   79.70   32.46
  -6  -8  -9    5.74   48.04
  -6  -8  -9   35.18   25.50
   6   8  10   61.55   27.72
   6   8  10   36.34   60.38
  -6  -8 -10   19.56   58.32
  -6  -8 -10   95.07   57.34
   6   8  11  120.10   37.79
   6   8  11  116.54   35.37
  -6  -8 -11   70.26   30.48
  -6  -8 -11   96.58   35.42
   6   9  -5   35.64   44.02
  -6  -9   5  141.90   53.47
   6   9  -4  108.66   23.25
   6   9  -4  194.57   84.56
  -6  -9   4  294.82   49.24
   6   9  -3  345.49   78.34
   6   9  -3  229.90   23.58
  -6  -9   3  376.34   39.34
  -6  -9   3  293.62   29.02
   6   9  -2  261.32   29.43
  -6  -9   2  322.89   28.22
  -6  -9   2  381.32   70.45
   6   9  -1  182.96   62.41
   6   9  -1  151.73   29.05
  -6  -9   1  216.52   34.35
  -6  -9   1  128.57   23.04
   6   9   0  183.85   61.83
   6   9   0  176.82   32.61
  -6  -9   0  185.57   32.79
  -6  -9   0  115.08   21.67
   6   9   1  102.25   26.27
  -6  -9  -1  139.61   30.68
   6   9   2  622.87   31.08
   6   9   2  529.83   55.79
  -6  -9  -2  446.50   25.60
   6   9   3  412.74   25.48
   6   9   3  632.95   31.06
  -6  -9  -3  528.57   31.58
  -6  -9  -3  630.37   28.65
   6   9   4  463.86   25.79
   6   9   4  416.90   20.44
   6   9   4  533.02   30.13
  -6  -9  -4  553.67   27.43
  -6  -9  -4  439.88   30.11
   6   9   5  325.73   30.06
   6   9   5  241.35   25.39
  -6  -9  -5  332.34   28.49
  -6  -9  -5  286.46   54.83
   6   9   6  475.78   54.93
  -6  -9  -6  498.00   29.47
  -6  -9  -6  342.00   28.07
   6   9   7  345.32   32.98
   6   9   7  278.18   30.86
  -6  -9  -7  316.95   30.11
  -6  -9  -7  248.88   53.44
   6   9   8  193.86   63.02
   6   9   8  265.42   36.35
  -6  -9  -8  133.90   54.54
  -6  -9  -8  192.81   29.62
   6   9   9   15.70   32.97
   6   9   9   -0.77   32.26
  -6  -9  -9   10.66   28.37
  -6  -9  -9   -0.61   28.71
   6   9  10  216.07   70.41
   6   9  10  278.20   42.19
  -6  -9 -10  214.37   64.24
  -6  -9 -10  186.88   32.14
   6  10  -3  489.15   40.16
   6  10  -3  532.89   44.24
  -6 -10   3  681.29   50.29
  -6 -10   3  400.73   31.78
   6  10  -2  151.59   40.90
   6  10  -2  135.01   36.19
  -6 -10   2  113.89   41.75
   6  10  -1  165.33   80.15
   6  10  -1  194.15   34.59
  -6 -10   1  216.32   38.98
  -6 -10   1  138.00   24.80
   6  10   0  156.04   33.21
   6  10   0  119.49   76.41
  -6 -10   0  111.23   35.98
   6  10   1  146.44   68.60
   6  10   1  161.63   31.26
  -6 -10  -1  135.01   49.53
  -6 -10  -1  138.15   33.68
   6  10   2   94.97   61.26
   6  10   2  135.32   32.00
  -6 -10  -2  145.28   32.86
  -6 -10  -2   93.06   26.63
   6  10   3  104.68   33.15
   6  10   3   73.34   29.92
  -6 -10  -3   45.40   31.33
  -6 -10  -3   60.98   28.78
   6  10   4  210.26   28.95
   6  10   4   43.80   35.63
   6  10   4  267.11   35.57
   6  10   4  251.58   44.88
  -6 -10  -4  244.77   29.48
  -6 -10  -4  223.51   32.24
   6  10   5  206.16   29.94
   6  10   5  243.11   29.72
  -6 -10  -5  232.88   31.59
  -6 -10  -5  282.55   33.58
   6  10   6  354.14   74.00
   6  10   6  247.17   31.32
  -6 -10  -6  249.51   32.47
  -6 -10  -6  337.88   34.69
   6  10   7  176.03   34.68
   6  10   7  196.17   35.71
  -6 -10  -7  185.44   35.22
  -6 -10  -7  131.38   65.06
   6  10   8  171.98   40.34
   6  10   8  133.08   37.61
  -6 -10  -8   74.52   33.61
  -6 -10  -8   89.85   34.31
   6  11  -1  262.92   43.23
   6  11  -1  278.37   48.24
  -6 -11   1  261.98   50.70
  -6 -11   1  176.58   28.75
   6  11   0  190.56   36.37
   6  11   0  150.40   85.20
  -6 -11   0  176.17   47.06
   6  11   1  102.65   38.85
   6  11   1   90.34   32.16
  -6 -11  -1  109.39   28.22
   6  11   2  380.64   40.23
  -6 -11  -2  360.37   33.14
   6  11   3  177.33   75.44
   6  11   3   42.28   75.36
  -6 -11  -3   70.49   66.38
  -6 -11  -3   99.72   39.49
   6  11   4  456.56   43.31
  -6 -11  -4  359.82   34.77
  -6 -11  -4  337.89   40.56
   6  11   5  272.19   75.26
   6  11   5  218.01   38.46
  -6 -11  -5  254.85   39.18
  -6 -11  -5  290.18   38.69
   7  -5  -1  321.53   46.40
   7  -5  -1  226.26   67.22
  -7   5   1  219.88   90.62
  -7   5   1  256.70   96.63
  -7   5   1  183.23   58.12
   7  -5   0   53.09   68.51
   7  -5   0   20.06   39.69
  -7   5   0   61.06   44.61
  -7   5   0   39.99   56.21
  -7   5   0   21.53   46.84
   7  -5   1   22.36   38.88
   7  -5   1    4.50   27.65
   7  -5   1   92.34   86.30
  -7   5  -1   22.31   45.49
  -7   5  -1   15.92   42.32
  -7   5  -1   -1.34   56.08
   7  -5   2  -10.74   35.42
   7  -5   2    1.08   29.97
   7  -5   2   -2.86   38.19
  -7   5  -2   19.30   42.67
  -7   5  -2   23.98   57.67
  -7   5  -2   55.14   86.08
   7  -5   3    1.12   38.85
   7  -5   3  -43.65   95.55
   7  -5   3    5.02   29.26
  -7   5  -3    7.07   29.58
  -7   5  -3  -15.49   42.27
  -7   5  -3  -52.47   85.02
   7  -5   4  136.75   59.15
   7  -5   4  320.23   41.41
   7  -5   4  319.11   69.34
  -7   5  -4  307.49   46.65
  -7   5  -4  306.41   30.73
  -7   5  -4  319.49   85.63
   7  -5   5  -37.58   56.35
   7  -5   5  296.41   60.56
   7  -5   5  319.08   81.36
  -7   5  -5  250.47   28.11
  -7   5  -5  314.67   42.61
  -7   5  -5  377.29   50.89
   7  -5   6  187.29   67.82
   7  -5   6  123.77   52.66
   7  -5   6  179.65   42.46
  -7   5  -6  164.33   31.43
  -7   5  -6  171.40   41.12
   7  -5   7    5.15   51.42
   7  -5   7  135.77   39.80
   7  -5   7   62.89   48.96
  -7   5  -7  149.31   53.49
  -7   5  -7  125.34   34.45
  -7   5  -7  167.68   90.27
   7  -4  -3  233.71   38.41
   7  -4  -3  187.15   28.06
  -7   4   3   -8.15   47.41
  -7   4   3  252.74   45.97
  -7   4   3  206.10   56.44
   7  -4  -2  196.97   25.94
   7  -4  -2  215.99   36.13
  -7   4   2  248.07   43.72
  -7   4   2  218.26   27.04
  -7   4   2  265.76   41.80
   7  -4  -1  623.26   71.22
   7  -4  -1  553.12   28.40
  -7   4   1  501.88   23.29
  -7   4   1  703.65   83.02
  -7   4   1  749.71   44.35
   7  -4   0  230.45   34.90
   7  -4   0  -33.83   42.64
   7  -4   0  225.61   26.58
  -7   4   0  283.09   40.49
  -7   4   0  281.36   41.03
  -7   4   0  254.49   49.57
   7  -4   1  126.88   38.80
   7  -4   1   75.85   38.57
   7  -4   1   45.96   51.29
  -7   4  -1   47.34   23.07
  -7   4  -1   45.30   38.67
  -7   4  -1  107.02   42.43
   7  -4   2   51.43   33.34
   7  -4   2  -50.78   79.48
  -7   4  -2   83.85   38.36
  -7   4  -2   65.73   45.79
  -7   4  -2   71.78   74.76
   7  -4   3   78.42   47.98
   7  -4   3   89.21   47.21
   7  -4   3  175.51   72.18
  -7   4  -3   70.63   22.80
  -7   4  -3  198.89   79.08
  -7   4  -3   73.07   38.49
   7  -4   4   -8.32   46.86
   7  -4   4  158.21   25.57
   7  -4   4  158.81   33.79
  -7   4  -4  196.48   41.38
  -7   4  -4  164.66   43.96
  -7   4  -4  363.34   84.95
   7  -4   5  110.03   34.70
   7  -4   5   98.64   55.13
   7  -4   5  110.44   97.23
  -7   4  -5   82.11   21.52
  -7   4  -5  113.52   36.70
  -7   4  -5  123.92   42.93
   7  -4   6   20.01   23.21
   7  -4   6   41.93   32.65
   7  -4   6   13.02   53.30
  -7   4  -6   31.40   20.97
  -7   4  -6  110.05   39.64
  -7   4  -6   25.63   42.33
   7  -4   7    8.92   42.97
   7  -4   7   27.77   62.25
   7  -4   7   32.82   22.77
  -7   4  -7   38.45   23.49
  -7   4  -7   14.66   46.79
   7  -4   8   44.48   37.30
   7  -4   8   56.89   45.19
   7  -4   8  197.35   68.46
  -7   4  -8   77.79   25.58
  -7   4  -8  143.27   41.26
  -7   4  -8  125.47   52.33
   7  -4   9   37.02   23.03
   7  -4   9  -31.68   54.24
   7  -4   9  104.32   62.86
  -7   4  -9   63.35   33.73
  -7   4  -9   58.71   58.60
   7  -3  -5  127.27   86.63
   7  -3  -5   17.03   61.50
  -7   3   5   87.09   43.92
  -7   3   5   79.25   42.42
   7  -3  -4    9.77   26.88
   7  -3  -4   77.68   41.26
  -7   3   4   32.35   56.03
  -7   3   4   -2.89   34.67
  -7   3   4   12.06   37.90
   7  -3  -3    5.90   52.33
   7  -3  -3  131.27   40.93
  -7   3   3  113.04   47.34
  -7   3   3   27.32   45.83
  -7   3   3  -14.20   43.15
   7  -3  -2  250.74   32.72
   7  -3  -2  184.95   42.77
  -7   3   2  231.30   36.87
  -7   3   2  226.29   43.96
  -7   3   2  221.69   82.94
   7  -3  -1  218.23   36.84
   7  -3  -1  284.78   62.45
  -7   3   1  285.11   73.51
  -7   3   1  264.13   20.64
  -7   3   1  321.51   37.69
   7  -3   0   -0.32   28.22
   7  -3   0  148.36   30.85
   7  -3   0  119.20   35.77
  -7   3   0  144.32   36.12
  -7   3   0  137.83   36.95
  -7   3   0  139.48   37.56
   7  -3   1  177.21   18.54
   7  -3   1  175.65   30.45
   7  -3   1  -11.46   71.52
  -7   3  -1  209.01   35.68
  -7   3  -1  214.55   73.57
   7  -3   2  443.56   21.81
   7  -3   2  390.77   31.70
   7  -3   2  266.90   78.95
  -7   3  -2  462.94   37.73
  -7   3  -2  399.12   36.17
   7  -3   3  384.16   18.74
   7  -3   3    6.03   39.70
   7  -3   3  401.58   57.97
  -7   3  -3  380.30   20.67
  -7   3  -3  455.67   36.54
  -7   3  -3  412.00   35.73
   7  -3   4  810.64   37.64
   7  -3   4  760.46   31.29
   7  -3   4  379.64   80.89
  -7   3  -4  855.48   38.43
  -7   3  -4  661.40   33.57
  -7   3  -4  931.62   40.40
   7  -3   5  190.07   28.33
   7  -3   5  305.00   48.16
   7  -3   5  248.28   46.37
  -7   3  -5  293.75   38.11
  -7   3  -5  205.37   33.28
  -7   3  -5  315.44   72.87
   7  -3   6  111.91   26.67
   7  -3   6  133.22   22.79
   7  -3   6  155.28   78.05
  -7   3  -6  150.56   36.60
  -7   3  -6  128.25   32.47
  -7   3  -6  124.94   37.05
   7  -3   7   75.05   22.83
   7  -3   7   96.48   83.63
   7  -3   7   57.70   40.28
  -7   3  -7  192.95   37.30
  -7   3  -7   57.42   81.26
  -7   3  -7   70.49   37.98
   7  -3   8   53.67   38.82
   7  -3   8   56.22   35.91
  -7   3  -8   56.25   45.20
  -7   3  -8  128.64   33.65
   7  -3   9  101.11   72.92
   7  -3   9    5.15   19.57
  -7   3  -9   82.14   66.03
  -7   3  -9   19.79  215.37
   7  -3  10   22.12   41.30
   7  -3  10  110.87   39.63
  -7   3 -10   99.11   66.51
  -7   3 -10   30.95   27.18
   7  -2  -6  174.94   35.18
  -7   2   6  122.21  290.99
  -7   2   6  101.83   51.16
  -7   2   6  145.01   34.94
  -7   2   6  190.50   65.09
  -7   2   6  260.31   71.50
   7  -2  -5  139.93   43.97
   7  -2  -5   53.14   27.52
  -7   2   5    1.03   35.66
  -7   2   5  126.57   34.93
  -7   2   5   63.15   62.33
   7  -2  -4    0.64   29.05
  -7   2   4   89.95   35.84
  -7   2   4   31.12   57.47
  -7   2   4  127.76   99.01
   7  -2  -3  133.63   62.21
  -7   2   3  -17.75   50.26
  -7   2   3   27.56   36.78
  -7   2   3  146.95   43.43
   7  -2  -2   61.03   19.68
   7  -2  -2   46.72   28.75
  -7   2   2   81.91   37.36
  -7   2   2   66.17   34.05
   7  -2  -1    5.97   37.35
   7  -2  -1   60.67   14.97
   7  -2  -1   64.47   27.34
  -7   2   1   77.48   36.92
  -7   2   1   68.55   32.01
  -7   2   1   98.59   64.77
   7  -2   0   26.89   25.20
   7  -2   0    0.40   27.42
   7  -2   0   22.00   52.23
  -7   2   0   60.49   32.25
  -7   2   0   46.10   26.67
  -7   2   0   68.23   31.80
   7  -2   1  231.27   35.01
   7  -2   1  386.22   52.47
  -7   2  -1  452.90   35.44
  -7   2  -1  458.72   27.70
  -7   2  -1  505.74   65.53
   7  -2   2  261.57   25.22
   7  -2   2  252.97   50.03
   7  -2   2  373.96   73.71
  -7   2  -2  344.95   33.65
  -7   2  -2  299.98   31.65
  -7   2  -2  274.24   23.26
   7  -2   3  573.34   30.33
   7  -2   3  464.13   25.82
   7  -2   3  480.79   67.86
  -7   2  -3  646.63   33.84
  -7   2  -3  467.28   23.65
  -7   2  -3  548.38   32.46
   7  -2   4  877.14   47.00
   7  -2   4  550.85   26.24
   7  -2   4  657.18   30.62
  -7   2  -4  690.15   33.91
  -7   2  -4  667.99   33.15
  -7   2  -4  572.70   25.17
   7  -2   5  202.26   30.78
   7  -2   5  219.60   44.57
   7  -2   5  315.27   34.59
  -7   2  -5  299.78   30.18
  -7   2  -5  385.13   64.65
  -7   2  -5  242.67   26.53
   7  -2   6  568.24   23.04
   7  -2   6   70.56   44.72
   7  -2   6  875.43   23.97
  -7   2  -6  658.00   17.01
  -7   2  -6  786.63   32.08
   7  -2   7  182.13   32.21
   7  -2   7  191.52   23.84
   7  -2   7  161.53   33.38
  -7   2  -7  207.92   35.62
  -7   2  -7  153.27   18.09
  -7   2  -7  177.28   53.82
   7  -2   8  166.50   15.00
   7  -2   8  246.04   28.56
  -7   2  -8  240.41   26.95
   7  -2   9  151.35   19.27
   7  -2   9  150.04   27.86
   7  -2   9  120.55   36.76
  -7   2  -9  225.24   33.33
  -7   2  -9  203.25   54.91
   7  -2  10   45.44   30.69
   7  -2  10   60.25   42.35
   7  -2  10   32.86   21.97
  -7   2 -10   31.97   51.33
  -7   2 -10  101.56   29.40
   7  -2  11   15.04   23.42
   7  -2  11   24.86   35.60
  -7   2 -11   64.09   57.45
  -7   1   6  226.90   30.54
  -7   1   6  197.54   31.56
  -7   1   6   87.21   45.68
  -7   1   6  261.52   64.88
  -7   1   6  271.28   62.06
  -7   1   5  128.00   27.23
  -7   1   5  103.12   27.86
  -7   1   5  192.43   34.89
  -7   1   5  -30.31   73.86
   7  -1  -4  233.00   24.59
  -7   1   4  221.21   30.97
  -7   1   4    5.57   33.24
  -7   1   4  277.51   24.68
  -7   1   4  272.12  267.26
   7  -1  -3  448.13   31.61
   7  -1  -3  407.23   20.33
  -7   1   3  -18.63   48.45
  -7   1   3  409.06   18.60
  -7   1   3  448.23   64.09
   7  -1  -2 1275.68   59.14
   7  -1  -2 1152.14   36.93
  -7   1   2 1340.80   40.37
  -7   1   2 1101.11   18.44
   7  -1  -1   95.70   12.72
   7  -1  -1   94.98   22.84
   7  -1  -1   15.44   68.16
  -7   1   1  139.24   36.96
  -7   1   1  120.82   25.47
  -7   1   1  119.33   58.01
   7  -1   0  153.29   22.13
   7  -1   0  190.73   11.78
   7  -1   0   44.12   90.50
  -7   1   0  199.84   27.85
  -7   1   0  241.69   36.04
  -7   1   0  211.03   20.59
   7  -1   1  174.44   33.68
   7  -1   1   99.96   21.13
   7  -1   1  102.09   16.20
  -7   1  -1  173.43   28.57
  -7   1  -1  176.89   33.39
  -7   1  -1  132.12   16.14
   7  -1   2   -3.38   19.17
   7  -1   2   18.75   28.17
   7  -1   2   17.87   14.28
  -7   1  -2   30.96   24.66
  -7   1  -2   21.84   11.83
  -7   1  -2   39.93   62.21
   7  -1   3   58.57   18.54
   7  -1   3   72.85   33.80
   7  -1   3   67.51   14.70
  -7   1  -3   89.55   31.53
  -7   1  -3   56.38   12.12
  -7   1  -3   63.15   49.24
   7  -1   4   15.19   17.08
   7  -1   4   -9.14   55.52
  -7   1  -4    8.45   14.18
  -7   1  -4  -10.05   30.09
  -7   1  -4   11.19   25.41
   7  -1   5  -12.78   39.63
   7  -1   5  105.69   22.26
   7  -1   5  103.56   22.75
  -7   1  -5  102.29   27.27
  -7   1  -5  108.18   30.43
  -7   1  -5  114.06   19.74
   7  -1   6 1506.80   38.15
   7  -1   6 1325.92   34.05
  -7   1  -6 1499.40   64.25
  -7   1  -6 1406.61   35.24
   7  -1   7  248.23   13.26
   7  -1   7  235.54   12.26
   7  -1   7  272.67   25.47
  -7   1  -7   21.70   23.11
  -7   1  -7  300.00   27.77
  -7   1  -7  343.55   33.42
   7  -1   8  314.14   26.75
   7  -1   8  318.68   30.26
   7  -1   8  385.63   16.67
  -7   1  -8  384.52   26.27
  -7   1  -8  396.25   28.13
   7  -1   9  275.67   28.47
   7  -1   9  207.90   32.66
   7  -1   9  283.86   34.36
  -7   1  -9  333.44   56.93
  -7   1  -9  658.84  385.46
   7  -1  10  230.50   32.56
   7  -1  10  237.13   41.16
   7  -1  10  181.24   39.68
  -7   1 -10  253.44   50.88
   7  -1  11  199.81   47.73
   7  -1  11  223.03   69.35
   7  -1  11  236.66   47.88
  -7   1 -11  257.97   29.05
  -7   1 -11  225.50   40.50
   7  -1  12  150.18   28.73
   7  -1  12  162.00   39.85
   7  -1  12  174.59   50.36
  -7   1 -12  157.62   45.50
  -7   1 -12  273.70   55.18
  -7   0   7  114.13   27.69
  -7   0   7  115.13   26.34
  -7   0   7   89.61   60.70
  -7   0   7  115.16   74.69
  -7   0   6   16.24   29.24
  -7   0   6   64.00   44.97
  -7   0   6   24.26   51.13
  -7   0   6   63.11   52.42
  -7   0   5   63.75   24.40
  -7   0   5   46.95   25.45
  -7   0   5   40.58   25.47
  -7   0   5   53.40   83.24
  -7   0   5  140.57   80.46
  -7   0   4  337.44   23.95
  -7   0   4   35.03   29.36
  -7   0   4  -12.82   30.42
  -7   0   4  234.20   43.14
  -7   0   4  273.67   58.55
  -7   0   3  646.90   21.88
  -7   0   3  204.11   31.93
  -7   0   3  666.95   33.46
  -7   0   3   19.12   43.39
  -7   0   3  838.14   42.06
  -7   0   2 2785.78   22.29
  -7   0   2 2950.72   40.95
   7   0  -1   21.56   26.15
  -7   0   1  526.49   12.72
  -7   0   1  555.05   26.67
  -7   0   1  554.98   20.21
  -7   0   1  706.85   68.12
  -7   0   0  908.83  222.35
  -7   0   0  756.06   34.55
  -7   0   0  703.05   18.38
  -7   0   0  609.94   15.40
  -7   0   0  660.22   48.61
   7   0   1  414.22   68.56
   7   0   1  274.28    9.82
  -7   0  -1  314.59   29.68
  -7   0  -1  522.51  223.79
   7   0   2  137.66   23.99
  -7   0  -2  195.49   28.15
  -7   0  -2  174.69   22.92
   7   0   3  234.96   25.86
  -7   0  -3  209.76   22.89
  -7   0  -3  288.70   56.71
   7   0   4  -22.55   36.37
  -7   0  -4  155.37   23.58
  -7   0  -4  127.96   53.68
   7   0   5  176.69   12.59
   7   0   5  205.80   25.53
   7   0   5  210.81   15.02
  -7   0  -5  224.05   25.21
  -7   0  -5  178.84   52.55
  -7   0  -5  182.72   22.99
   7   0   6  551.39   21.56
   7   0   6  472.74   48.82
  -7   0  -6  571.32   28.66
  -7   0  -6  539.85   25.44
  -7   0  -6  587.28   27.16
   7   0   7   58.92   20.30
   7   0   7   80.96   23.87
  -7   0  -7   94.70   24.04
  -7   0  -7  174.01   45.83
   7   0   8   51.02   24.28
   7   0   8   71.09   24.55
   7   0   8   52.01   28.15
  -7   0  -8   78.82   25.08
   7   0   9   56.46   31.64
   7   0   9   41.73   25.74
   7   0   9   46.60   30.60
  -7   0  -9  149.07   58.75
  -7   0  -9   61.24   22.99
   7   0  10   56.65   37.44
   7   0  10   79.66   17.50
   7   0  10   68.13   58.01
  -7   0 -10  167.07   54.03
  -7   0 -10   80.02   20.60
   7   0  11  408.71   24.88
   7   0  11  549.67   37.57
   7   0  11  460.92   23.32
  -7   0 -11  516.13   24.39
  -7   0 -11  482.49   25.96
   7   0  12  317.91   47.76
   7   0  12  310.24   40.96
   7   0  12  273.34   57.77
  -7   0 -12  291.80   47.35
  -7   0 -12  307.23   26.49
  -7  -1   7   50.49   34.93
  -7  -1   7   49.01   20.38
  -7  -1   7   78.29   55.67
  -7  -1   7   55.16   52.48
  -7  -1   6  137.49   22.95
  -7  -1   6  166.20   27.94
  -7  -1   6   63.50   40.40
  -7  -1   6  134.73   56.49
  -7  -1   5   80.55   21.97
  -7  -1   5   72.53   22.35
  -7  -1   5  161.15   58.04
  -7  -1   5   98.65   70.43
  -7  -1   4   50.01   18.17
  -7  -1   4   60.55   29.27
  -7  -1   4   55.11   37.46
  -7  -1   4  128.98   77.20
  -7  -1   3  709.15   19.58
  -7  -1   3  567.64   16.99
  -7  -1   3  753.07   32.89
  -7  -1   3 1298.74  385.72
  -7  -1   2   60.47   49.87
  -7  -1   2  839.11   31.35
  -7  -1   2  762.23   26.72
  -7  -1   2  667.31   24.91
   7   1  -1   -0.30   22.84
  -7  -1   1  113.34   27.53
  -7  -1   1  104.76   14.62
  -7  -1   1  260.86   84.94
  -7  -1   1  144.94   44.34
   7   1   0  305.25   29.38
  -7  -1   0  479.54   25.93
  -7  -1   0  483.20   21.43
  -7  -1   0  511.24   26.50
   7   1   1    2.80   52.16
  -7  -1  -1  849.91   22.14
  -7  -1  -1 1065.22   52.30
  -7  -1  -1 1055.55   29.27
   7   1   2  946.29   32.57
  -7  -1  -2  969.04   29.26
  -7  -1  -2  761.37   21.26
  -7  -1  -2 1040.28   28.78
   7   1   3  797.02   52.02
  -7  -1  -3  961.01   72.73
  -7  -1  -3  755.01   40.83
  -7  -1  -3  900.95   27.74
   7   1   4  903.71   52.47
  -7  -1  -4 1327.19   52.37
  -7  -1  -4  729.61   43.07
   7   1   5  489.82    9.90
   7   1   5  844.63   49.75
  -7  -1  -5  727.84   48.46
   7   1   6  699.21   17.26
   7   1   6  748.33   25.92
   7   1   6  757.50   16.73
  -7  -1  -6  879.27   28.30
   7   1   7  207.23   18.69
   7   1   7  258.50   44.16
   7   1   7  232.91   19.31
  -7  -1  -7  304.06   25.28
  -7  -1  -7  324.07   24.82
   7   1   8    6.91   23.31
   7   1   8  -21.55   45.19
   7   1   8    6.74   23.02
  -7  -1  -8   13.15   21.44
  -7  -1  -8  -11.23   20.97
   7   1   9   31.15   15.77
   7   1   9   50.91   24.73
   7   1   9   28.95   28.42
  -7  -1  -9   90.22   24.78
  -7  -1  -9  157.22   52.22
   7   1  10   76.67   16.48
   7   1  10   97.24   29.21
   7   1  10   61.26   39.57
  -7  -1 -10   95.20   43.86
  -7  -1 -10  151.39   51.03
   7   1  11  190.76   36.10
   7   1  11  182.14   19.59
   7   1  11  175.88   24.84
  -7  -1 -11  185.18   24.51
   7   1  12  233.31   29.98
   7   1  12  248.84   40.87
   7   1  12  227.00   45.56
  -7  -1 -12  316.67   50.95
  -7  -1 -12  288.11   54.17
   7   1  13   58.05   26.82
   7   1  13   56.43   35.92
   7   1  13   98.22   92.27
  -7  -2   7  194.26   24.65
  -7  -2   7  173.53   28.81
  -7  -2   7  186.07   25.22
  -7  -2   7  236.08   48.98
  -7  -2   7  103.08   87.06
  -7  -2   6   77.68   24.02
  -7  -2   6  145.79   26.78
  -7  -2   6   41.42   35.77
  -7  -2   6   97.70   44.01
  -7  -2   6  127.04   45.31
  -7  -2   5  147.74   20.14
  -7  -2   5  259.19   32.63
  -7  -2   5   50.12   29.84
  -7  -2   5  207.88   39.42
  -7  -2   5  254.12   43.93
  -7  -2   4  271.07   17.83
  -7  -2   4  220.77   16.55
  -7  -2   4  -23.08   33.59
  -7  -2   4  329.24   42.41
  -7  -2   4  370.59   57.48
  -7  -2   3  116.21   14.75
  -7  -2   3   99.66   13.87
  -7  -2   3   96.81   23.73
  -7  -2   3  122.98   44.23
  -7  -2   2   42.44   21.74
  -7  -2   2   37.91   25.07
  -7  -2   2   29.41   18.76
  -7  -2   2   95.70   41.23
   7   2  -1   21.04   21.18
  -7  -2   1  348.47   25.91
  -7  -2   1  327.91   13.40
  -7  -2   1  283.04   12.62
  -7  -2   1  376.01   33.96
   7   2   0  145.32   25.80
  -7  -2   0  304.55   22.66
  -7  -2   0  324.55   32.92
   7   2   1  210.68   24.92
  -7  -2  -1  329.98   16.85
  -7  -2  -1  405.23   43.50
   7   2   2  103.91   19.56
  -7  -2  -2  102.48   21.09
  -7  -2  -2   72.32   16.10
   7   2   3  432.06   23.35
  -7  -2  -3  461.54   23.96
  -7  -2  -3  402.41   19.74
  -7  -2  -3  437.99   43.73
   7   2   4  671.49   24.56
  -7  -2  -4  726.90   25.55
  -7  -2  -4  647.36   22.38
  -7  -2  -4  672.30   46.03
   7   2   5 2121.84   32.06
  -7  -2  -5 2027.11   30.40
  -7  -2  -5 2114.79   33.22
  -7  -2  -5 2035.37   54.83
   7   2   6 1040.90   24.95
   7   2   6  866.54   15.65
   7   2   6 1036.24   10.68
  -7  -2  -6 1221.81   26.33
  -7  -2  -6 1242.87   29.26
   7   2   7  276.92   21.18
   7   2   7  220.81   18.90
   7   2   7  322.58   11.31
  -7  -2  -7  362.17   25.65
  -7  -2  -7  328.44   24.78
   7   2   8  231.06   26.59
   7   2   8  177.17   12.95
  -7  -2  -8  268.65   49.24
  -7  -2  -8  300.65   29.03
   7   2   9   97.68   16.31
   7   2   9   96.13   26.85
   7   2   9   78.36   31.31
  -7  -2  -9  207.10   49.56
  -7  -2  -9  187.58   52.11
   7   2  10  431.88   23.31
   7   2  10  496.50   32.94
  -7  -2 -10  469.63   24.55
  -7  -2 -10  564.95   51.55
   7   2  11  313.26   27.36
   7   2  11  339.98   37.61
   7   2  11  322.08   24.31
  -7  -2 -11  347.41   24.08
  -7  -2 -11  274.92   22.34
   7   2  12   42.73   24.94
   7   2  12   49.46   59.43
  -7  -2 -12   88.19   52.97
  -7  -2 -12   97.87   50.78
   7   2  13   40.57   28.47
   7   2  13    7.55   49.43
   7   2  13   38.34   71.21
  -7  -3   7    2.01   30.52
  -7  -3   7  250.83   46.30
  -7  -3   7  300.94   62.47
  -7  -3   7  362.07   48.68
  -7  -3   7  322.74   52.60
  -7  -3   6  286.76   21.73
  -7  -3   6  319.89   25.31
  -7  -3   6   29.94   25.98
  -7  -3   6  282.53   51.91
  -7  -3   6  344.13   58.71
  -7  -3   5  264.72   22.83
  -7  -3   5   53.16   35.07
  -7  -3   5  234.61   34.70
  -7  -3   5  364.47   47.52
  -7  -3   5  285.38   52.53
  -7  -3   4  531.29   27.38
  -7  -3   4  457.22   30.92
  -7  -3   4  482.56   37.20
  -7  -3   4  665.91   45.66
  -7  -3   3  309.04   17.57
  -7  -3   3  300.00   25.43
  -7  -3   3  297.69   26.84
  -7  -3   3  443.48   50.79
  -7  -3   3  345.16   48.31
  -7  -3   2  418.34   23.39
  -7  -3   2  376.75   24.14
  -7  -3   2  328.07   16.00
  -7  -3   2  407.00   21.66
  -7  -3   2  330.46   21.07
   7   3  -1   66.93   19.33
  -7  -3   1  465.81    8.36
  -7  -3   1  560.63   24.10
  -7  -3   1  655.63   18.78
  -7  -3   1  663.74   42.87
   7   3   0   42.43   22.11
  -7  -3   0  349.57   23.78
  -7  -3   0  273.55   20.94
  -7  -3   0  310.39    9.94
  -7  -3   0  307.87   28.63
   7   3   1   -2.39   18.37
  -7  -3  -1   80.59   18.90
  -7  -3  -1   81.55   14.31
  -7  -3  -1  122.32   41.67
   7   3   2   19.99   14.49
  -7  -3  -2   28.31   17.68
  -7  -3  -2   30.32   15.61
  -7  -3  -2   20.68   18.28
   7   3   3   39.72   17.22
  -7  -3  -3  113.84   26.20
  -7  -3  -3   56.73   17.72
  -7  -3  -3   66.47   36.66
   7   3   4  617.17   47.25
  -7  -3  -4  586.30   26.55
   7   3   5  337.16    8.25
  -7  -3  -5  613.04   27.77
   7   3   6  295.89   16.23
   7   3   6  386.03   38.94
   7   3   6  333.17   16.01
  -7  -3  -6  417.24   25.79
  -7  -3  -6  368.96   22.79
   7   3   7  454.20   22.81
   7   3   7  433.34   25.00
   7   3   7  391.32   21.26
  -7  -3  -7  514.50   24.84
  -7  -3  -7  470.35   25.48
   7   3   8  337.50   27.80
   7   3   8  314.23   24.99
   7   3   8  329.65   32.70
  -7  -3  -8  395.10   52.23
  -7  -3  -8  393.62   24.93
   7   3   9  377.00   31.01
   7   3   9  418.87   34.61
   7   3   9  423.02   42.64
  -7  -3  -9  478.79   53.03
   7   3  10  662.62   37.38
   7   3  10  620.88   26.09
   7   3  10  664.43   30.81
  -7  -3 -10  572.39   26.09
  -7  -3 -10  566.96   50.72
   7   3  11  947.92   39.35
   7   3  11  807.26   42.95
   7   3  11  740.71   50.56
  -7  -3 -11  865.77   56.12
  -7  -3 -11  713.42   54.95
   7   3  12  159.42   51.22
   7   3  12  152.14   74.13
   7   3  12  219.06   44.72
  -7  -3 -12  279.35   34.58
  -7  -3 -12  141.01   24.28
   7   3  13   56.15   40.91
   7   3  13   71.54   48.70
   7   3  13   60.41   56.98
  -7  -4   7  169.31   22.32
  -7  -4   7  238.71   27.81
  -7  -4   7  177.04   26.04
  -7  -4   7  165.68   59.70
  -7  -4   7   71.87   55.83
  -7  -4   6  141.80   19.94
  -7  -4   6  122.59   24.23
  -7  -4   6  169.05   23.84
  -7  -4   6  148.47   24.52
  -7  -4   6   31.61   29.39
  -7  -4   5  138.67   26.16
  -7  -4   5   78.85   33.02
  -7  -4   5   91.86   39.95
  -7  -4   4  150.01   14.48
  -7  -4   4  203.16   24.10
  -7  -4   4  231.00   30.31
  -7  -4   4  134.96   33.38
  -7  -4   4  220.61   31.96
  -7  -4   3  315.15   14.90
  -7  -4   3  348.41   22.54
  -7  -4   3  273.56   27.22
  -7  -4   3  367.14   47.61
  -7  -4   3  312.91   27.21
  -7  -4   2  464.60   12.37
  -7  -4   2  641.52   23.49
  -7  -4   2  526.90   24.95
  -7  -4   2  592.37   45.40
  -7  -4   2  526.45   26.52
  -7  -4   1 1791.72   28.99
  -7  -4   1 1724.96   20.20
  -7  -4   1 1522.41   22.24
  -7  -4   1 1306.44   41.08
  -7  -4   0  999.41   20.26
  -7  -4   0 1090.94   48.60
  -7  -4   0  725.41   37.99
  -7  -4   0  908.56   32.25
   7   4   1  199.46   18.82
  -7  -4  -1  418.16   20.66
  -7  -4  -1  515.73   17.67
  -7  -4  -1  427.89    9.96
  -7  -4  -1  595.46   46.69
   7   4   2  263.32  175.60
   7   4   2   96.07   24.01
  -7  -4  -2   78.48   18.09
  -7  -4  -2   95.77   45.12
   7   4   3   21.63   15.40
  -7  -4  -3   36.96   21.84
   7   4   4  338.71   13.44
   7   4   4  454.27   24.77
  -7  -4  -4  266.65    8.80
  -7  -4  -4  395.24   24.52
   7   4   5  383.37   17.78
   7   4   5  351.20   19.78
  -7  -4  -5  389.24   14.93
  -7  -4  -5  409.66   25.08
   7   4   6   68.20   18.50
   7   4   6   71.04   19.49
  -7  -4  -6   59.79   22.95
   7   4   7  158.59  197.45
   7   4   7  277.53   23.39
   7   4   7  252.80   42.79
  -7  -4  -7  406.78   48.58
   7   4   8   58.57   14.48
   7   4   8   54.90   18.40
   7   4   8   76.44   53.09
  -7  -4  -8  157.17   32.58
  -7  -4  -8  150.37   52.10
   7   4   9  175.24   23.66
   7   4   9  221.41   31.96
   7   4   9  164.28   34.61
  -7  -4  -9  209.01   25.10
  -7  -4  -9  313.88   60.66
   7   4  10  382.04   35.16
   7   4  10  402.78   57.66
   7   4  10  413.38   41.57
  -7  -4 -10  389.60   51.00
  -7  -4 -10  606.10   62.08
   7   4  11  488.79   26.85
   7   4  11  488.49   40.45
   7   4  11  544.55   69.44
  -7  -4 -11  568.89   31.57
  -7  -4 -11  484.82   56.04
   7   4  12  266.12   43.22
   7   4  12  265.50   55.05
   7   4  12  353.71   42.90
  -7  -4 -12  239.73   26.69
  -7  -4 -12  297.63   32.66
   7   4  13  168.42   48.82
   7   4  13  135.48   46.54
   7   4  13  104.61   60.84
  -7  -4 -13  224.77   65.36
  -7  -4 -13  133.15   51.62
  -7  -5   7  141.69   22.90
  -7  -5   7  158.99   30.93
  -7  -5   7  233.90   29.45
  -7  -5   7  197.37   50.97
  -7  -5   6  112.88   22.38
  -7  -5   6  102.61   25.86
  -7  -5   6  153.65   28.98
  -7  -5   6  188.35   58.92
  -7  -5   5   51.71   21.23
  -7  -5   5  138.87   28.23
  -7  -5   5  117.63   28.22
  -7  -5   5   91.71   26.41
  -7  -5   4   28.18   17.12
  -7  -5   4   78.14   25.90
  -7  -5   4   38.24   30.97
  -7  -5   4   80.43   48.38
  -7  -5   4   66.35   27.26
  -7  -5   3  130.09   25.11
  -7  -5   3   93.77   20.65
  -7  -5   3   50.73   27.10
  -7  -5   3   53.51   28.79
  -7  -5   3  102.42   24.53
  -7  -5   2  183.44   12.16
  -7  -5   2  241.65   23.56
  -7  -5   2  188.42   19.82
  -7  -5   2  221.96   12.93
  -7  -5   2  191.12   25.91
   7   5  -1 1025.69   28.59
  -7  -5   1 1221.89   28.18
  -7  -5   1 1568.92   34.52
  -7  -5   1 1428.15   29.63
   7   5   0  438.54   11.45
   7   5   0   36.46   20.48
   7   5   0    0.70   26.47
   7   5   1   77.87    7.66
   7   5   1   48.78   17.39
   7   5   1  122.88   42.92
  -7  -5  -1  112.47   17.68
   7   5   2  156.19   38.23
   7   5   2  195.66   22.73
   7   5   2  200.47   17.39
  -7  -5  -2  223.51    8.07
   7   5   3 1828.62   23.78
   7   5   3 2068.06   30.06
   7   5   3 1779.23   76.49
  -7  -5  -3 1843.87   21.79
   7   5   4  896.80   25.67
   7   5   4  757.19   13.74
   7   5   4   45.10   47.16
  -7  -5  -4  734.15   26.81
  -7  -5  -4  672.76   18.02
   7   5   5  531.01   13.91
   7   5   5   89.55   54.63
  -7  -5  -5  706.26   27.55
  -7  -5  -5  590.18   49.86
   7   5   6  295.16   86.07
   7   5   6  192.28   36.27
   7   5   6  238.69   14.47
  -7  -5  -6  313.67   17.45
  -7  -5  -6  211.86   24.68
   7   5   7  168.77   24.24
   7   5   7  181.46   14.79
   7   5   7  240.12   28.22
  -7  -5  -7  222.62   25.56
  -7  -5  -7  280.75   35.67
   7   5   8   61.73   32.38
   7   5   8  366.14   29.98
   7   5   8  340.92   18.42
  -7  -5  -8  500.58   24.55
  -7  -5  -8  383.98   28.72
   7   5   9  217.67   20.09
   7   5   9  183.52   31.47
  -7  -5  -9  342.11   60.50
   7   5  10  130.20   36.53
   7   5  10   94.38   22.59
  -7  -5 -10  116.81   26.90
  -7  -5 -10  149.97   33.39
   7   5  11   26.63   28.89
   7   5  11   31.08   38.32
   7   5  11   62.04   50.60
  -7  -5 -11   93.13   29.77
  -7  -5 -11  125.57   56.89
   7   5  12  143.75   44.04
   7   5  12  111.09   29.51
   7   5  12  111.37   34.32
  -7  -5 -12  128.75   26.53
  -7  -5 -12  222.43   62.81
  -7  -6   7  406.31   33.54
  -7  -6   6  137.40   27.31
  -7  -6   6  218.32   32.32
  -7  -6   6  190.46   45.82
  -7  -6   6  262.46   58.93
  -7  -6   5  208.01   22.62
  -7  -6   5  339.25   33.91
  -7  -6   5  287.22   28.48
  -7  -6   5  186.30   41.35
  -7  -6   4   19.98   17.56
  -7  -6   4   -0.54   19.90
  -7  -6   4   68.52   35.70
  -7  -6   4   69.55   25.03
   7   6  -3   63.43   19.98
  -7  -6   3   80.46   16.22
  -7  -6   3  113.66   27.32
   7   6  -2  203.14   22.31
   7   6  -2  180.46   17.24
  -7  -6   2  314.94   29.72
  -7  -6   2  198.02   14.89
   7   6  -1  297.08   23.85
   7   6  -1  281.23   16.25
  -7  -6   1  421.89   31.32
  -7  -6   1  319.63   15.05
   7   6   0  292.35   17.97
   7   6   0  495.85   46.30
   7   6   0   24.33   17.13
  -7  -6   0  297.65   28.53
  -7  -6   0  376.89   54.12
   7   6   1  123.36  292.70
   7   6   1   81.62   25.47
   7   6   1  450.86   19.30
  -7  -6  -1  461.37   15.15
  -7  -6  -1  451.59   26.76
   7   6   2   88.45   31.22
   7   6   2   94.86   15.81
  -7  -6  -2   70.26   49.65
  -7  -6  -2   89.56   11.69
   7   6   3  467.91   30.59
   7   6   3  465.41   17.52
  -7  -6  -3  560.42   53.49
  -7  -6  -3  425.26   12.58
   7   6   4 2343.07   50.64
   7   6   4 2030.67   40.20
  -7  -6  -4 1692.10   30.16
  -7  -6  -4 1851.25   35.06
   7   6   5  949.29   20.79
   7   6   5  664.20   18.03
  -7  -6  -5  886.32   27.83
  -7  -6  -5 1002.09   55.98
   7   6   6  381.16   22.83
   7   6   6  475.33   19.87
  -7  -6  -6  515.17   28.50
  -7  -6  -6  449.69   15.17
   7   6   7  334.81   26.85
   7   6   7  335.30   18.36
  -7  -6  -7  421.10   30.39
  -7  -6  -7  340.23   16.31
   7   6   8  612.46  384.07
   7   6   8  406.88   31.05
   7   6   8  350.69   20.52
  -7  -6  -8  388.72   21.41
  -7  -6  -8  351.12   27.61
   7   6   9  360.92   69.62
   7   6   9   84.57   31.96
   7   6   9  123.89   40.60
  -7  -6  -9  101.75   24.88
  -7  -6  -9  110.44   41.29
   7   6  10  150.96   46.24
   7   6  10  216.58  104.64
   7   6  10  173.79   35.45
  -7  -6 -10  150.11   25.54
  -7  -6 -10  197.88   31.95
   7   6  11   37.88   53.26
   7   6  11   48.68   72.98
   7   6  11   21.51   39.63
  -7  -6 -11   35.73   26.90
  -7  -6 -11   35.92   25.89
   7   6  12   88.24   43.70
   7   6  12   96.38   31.01
   7   6  12  144.33  246.66
  -7  -6 -12  116.05   33.71
  -7  -6 -12   91.17   57.12
  -7  -7   6  345.52   29.30
  -7  -7   6  320.66   27.54
  -7  -7   6  345.53   59.52
  -7  -7   6  318.52   55.03
  -7  -7   5  241.52   27.23
  -7  -7   5  202.32   26.04
  -7  -7   5  269.73   32.24
  -7  -7   5  281.12   57.27
   7   7  -4  181.11  212.52
   7   7  -4   48.81   25.91
  -7  -7   4   77.11   59.12
  -7  -7   4   41.97   20.72
   7   7  -3  458.66   50.01
   7   7  -3  115.70   24.22
  -7  -7   3  568.86   30.64
  -7  -7   3  368.38   20.09
   7   7  -2  855.98   53.00
   7   7  -2 1543.32   54.20
  -7  -7   2  828.58   39.15
  -7  -7   2 1099.32   34.38
   7   7  -1  996.23   54.53
  -7  -7   1  804.66   37.99
  -7  -7   1 1220.09   70.68
   7   7   0  171.30   21.10
  -7  -7   0  163.89   16.96
  -7  -7   0  202.38   32.39
   7   7   1  336.04   27.58
   7   7   1  417.63   26.20
  -7  -7  -1  480.86   32.51
  -7  -7  -1  379.31   18.60
   7   7   2   34.71   12.06
   7   7   2   98.94   51.62
   7   7   2   79.99   19.46
  -7  -7  -2   71.56   15.17
  -7  -7  -2   84.79   29.38
   7   7   3  170.46   15.52
   7   7   3  166.64   18.49
   7   7   3  168.28   29.67
  -7  -7  -3  164.22   29.22
  -7  -7  -3  173.23   29.70
   7   7   4  289.87   20.40
   7   7   4  307.36   28.80
   7   7   4  257.43   34.42
  -7  -7  -4  282.78   30.22
  -7  -7  -4  310.30   55.45
   7   7   5  238.04   25.80
   7   7   5  218.73   18.50
   7   7   5  281.79   21.45
  -7  -7  -5  247.40   16.45
  -7  -7  -5  262.43   27.36
   7   7   6  305.34   24.87
   7   7   6  306.01   26.54
   7   7   6  287.18   24.27
  -7  -7  -6  296.56   33.06
  -7  -7  -6  350.02   52.61
   7   7   7  287.72   27.66
   7   7   7  422.38   61.34
   7   7   7  283.12   23.10
  -7  -7  -7  283.30   18.48
  -7  -7  -7  251.23   26.12
   7   7   8  506.03   32.33
   7   7   8  500.23   32.03
   7   7   8  495.94   24.09
  -7  -7  -8  450.93   21.64
  -7  -7  -8  474.17   27.86
   7   7   9   91.82   23.56
   7   7   9   91.00   32.46
  -7  -7  -9  100.36   25.57
  -7  -7  -9   79.83   49.51
   7   7  10  271.57   55.01
   7   7  10  238.23   36.74
  -7  -7 -10  214.35   53.55
  -7  -7 -10  228.05   26.65
   7   7  11  199.67   41.26
   7   7  11  436.62  559.65
   7   7  11  155.08   30.98
  -7  -7 -11  140.89   29.17
  -7  -7 -11  132.95   29.41
   7   8  -5    0.97   28.13
   7   8  -5   58.53   36.00
  -7  -8   5  127.68   33.88
  -7  -8   5   39.30   22.64
   7   8  -4   57.16   78.92
   7   8  -4   19.12   67.24
  -7  -8   4   55.98   32.26
  -7  -8   4    8.20   23.35
   7   8  -3 1043.86  384.60
   7   8  -3  680.99   37.96
  -7  -8   3  621.12   48.20
  -7  -8   3  784.31   32.98
   7   8  -2  841.62   35.71
  -7  -8   2  677.30   25.19
  -7  -8   2 1053.54   72.83
   7   8  -1  406.80   30.64
   7   8  -1  457.10   34.25
  -7  -8   1  441.04   34.51
  -7  -8   1  337.46   21.63
   7   8   0  265.17   60.32
   7   8   0  229.11   25.93
  -7  -8   0  229.46   31.63
  -7  -8   0  195.59   19.68
   7   8   1  422.74   28.95
   7   8   1  430.18   54.53
  -7  -8  -1  401.53   41.23
   7   8   2  239.75   24.00
   7   8   2  332.07   48.06
  -7  -8  -2  342.67   24.31
   7   8   3  399.40   27.21
   7   8   3  273.85   24.31
  -7  -8  -3  335.98   29.52
  -7  -8  -3  381.38   42.30
   7   8   4  163.18   26.60
   7   8   4  136.01   28.48
   7   8   4  179.57   23.48
  -7  -8  -4  148.72   20.04
  -7  -8  -4  150.28   27.49
   7   8   5  205.98   20.59
   7   8   5  190.08   22.27
   7   8   5  173.71   28.88
  -7  -8  -5  202.63   27.08
  -7  -8  -5  225.27   40.17
   7   8   6  525.77   55.63
   7   8   6  329.98   25.12
  -7  -8  -6  467.74   28.43
  -7  -8  -6  466.58   23.75
   7   8   7  468.81   54.84
   7   8   7  385.61   30.45
  -7  -8  -7  361.58   54.03
  -7  -8  -7  385.28   23.80
   7   8   8   85.56   57.86
   7   8   8   79.67   26.59
   7   8   8   60.24   58.99
  -7  -8  -8   55.29   52.58
  -7  -8  -8   65.47   22.21
   7   8   9   25.65   32.49
   7   8   9    1.13   54.94
   7   8   9   21.31   29.91
  -7  -8  -9   25.33   24.21
  -7  -8  -9   20.38   27.53
   7   8  10  114.86   37.79
   7   8  10   71.57   58.35
  -7  -8 -10   92.17   61.09
  -7  -8 -10   84.44   57.37
   7   9  -4   78.53   91.49
   7   9  -4    3.74  364.13
  -7  -9   4  253.81   78.33
  -7  -9   4   72.22   27.32
   7   9  -3   95.09   49.94
  -7  -9   3   84.97   27.07
  -7  -9   3  366.87   99.85
   7   9  -2  100.43   54.91
   7   9  -2  121.09   42.59
  -7  -9   2   83.52   46.90
  -7  -9   2  154.95   38.32
   7   9  -1  118.45   32.82
   7   9  -1  126.27   30.32
  -7  -9   1   84.20   22.97
  -7  -9   1  157.52   69.98
   7   9   0  215.76   29.52
   7   9   0  197.85   33.29
  -7  -9   0  232.35   32.78
  -7  -9   0  173.36   22.55
   7   9   1  268.87   55.63
   7   9   1  261.10   60.00
  -7  -9  -1  317.99   32.08
  -7  -9  -1  295.19   24.85
   7   9   2  400.46   30.54
   7   9   2  533.05   38.08
  -7  -9  -2  443.28   31.98
  -7  -9  -2  466.66   26.13
   7   9   3  453.68   30.32
   7   9   3  322.73   29.97
  -7  -9  -3  349.54   30.43
  -7  -9  -3  419.63   51.89
   7   9   4  377.72   16.04
   7   9   4  544.61   32.01
   7   9   4  390.19   30.54
  -7  -9  -4  451.30   30.92
  -7  -9  -4  545.12   51.74
   7   9   5  521.52   32.97
   7   9   5  390.75   30.93
   7   9   5  375.94   43.00
  -7  -9  -5  493.61   27.31
  -7  -9  -5  427.37   58.33
   7   9   6  200.33   31.37
   7   9   6  242.47   25.19
   7   9   6  329.81   30.49
  -7  -9  -6  316.76   26.99
  -7  -9  -6  259.88   29.98
   7   9   7  171.08   28.65
   7   9   7  225.88   30.48
   7   9   7  250.27   38.43
  -7  -9  -7  219.21   26.58
  -7  -9  -7  199.32   59.36
   7   9   8   38.23   63.72
   7   9   8   39.07   59.78
   7   9   8   22.71   31.54
  -7  -9  -8    6.06   24.90
  -7  -9  -8   10.24   30.55
   7   9   9   17.36   32.60
   7   9   9   33.69   29.34
  -7  -9  -9    5.70   30.00
  -7  -9  -9   16.02   56.54
   7  10  -2   73.68   32.18
   7  10  -2   67.16   42.01
  -7 -10   2  176.99   52.15
  -7 -10   2   54.18   27.36
   7  10  -1  114.04   40.94
   7  10  -1  140.50   31.53
  -7 -10   1  103.92   24.92
  -7 -10   1  172.75   80.24
   7  10   0  339.66   39.56
   7  10   0  292.21   39.92
  -7 -10   0  405.21   40.83
  -7 -10   0  285.94   28.21
   7  10   1  326.11   39.88
   7  10   1  348.10   38.12
  -7 -10  -1  318.78   38.37
  -7 -10  -1  271.33   26.23
   7  10   2  112.37   31.16
  -7 -10  -2  122.95   35.63
  -7 -10  -2  104.69   54.11
   7  10   3  122.73   62.89
   7  10   3  121.92   35.35
  -7 -10  -3  112.76   58.07
  -7 -10  -3  120.47   34.37
   7  10   4  195.32   68.05
   7  10   4  240.41   35.12
  -7 -10  -4  238.59   60.51
  -7 -10  -4  206.42   34.35
   7  10   5  132.98   33.23
   7  10   5  147.31   24.93
   7  10   5  156.89   71.17
  -7 -10  -5  134.40   61.96
  -7 -10  -5  153.72   64.58
   7  10   6  174.47   33.84
   7  10   6  154.07   30.06
  -7 -10  -6  194.42   32.25
  -7 -10  -6  219.53   32.72
   7  10   7  220.06   35.68
   7  10   7  238.31   33.84
   7  10   7  289.98   70.68
  -7 -10  -7  313.48   35.03
  -7 -10  -7  247.15   64.83
   7  10   8  178.05   43.11
   7  10   8   87.00   36.10
  -7 -10  -8   80.19   33.60
  -7 -10  -8  110.50   33.61
   7  11   1  148.94   86.30
   7  11   1  148.78   35.73
  -7 -11  -1  138.79   57.20
  -7 -11  -1  179.49   41.60
   7  11   2   60.74   77.49
   7  11   2   42.78   35.14
  -7 -11  -2   10.27   38.56
  -7 -11  -2   45.23   31.24
   7  11   3   -2.43   71.84
   7  11   3    8.40   38.72
  -7 -11  -3   30.69   36.99
  -7 -11  -3   -6.13   33.39
   7  11   4  105.72   39.30
   7  11   4  121.50   39.23
  -7 -11  -4  121.10   37.59
  -7 -11  -4  115.11   66.79
   7  11   5  247.70   84.05
   7  11   5  151.95   35.68
  -7 -11  -5  219.42   74.94
  -7 -11  -5  243.86   37.93
   8  -4   0  214.74   45.37
   8  -4   0   92.27   24.69
  -8   4   0  103.16   50.88
  -8   4   0  125.30   49.84
   8  -4   1   64.63   38.92
   8  -4   1   35.15   36.86
  -8   4  -1   40.63   49.06
   8  -4   2   98.72   46.52
   8  -4   2   64.07   51.28
   8  -4   2   75.49   39.40
  -8   4  -2  160.06   47.34
  -8   4  -2  119.13   50.67
   8  -4   3  -19.70   48.82
   8  -4   3   39.29   27.00
   8  -4   3   51.95   38.75
  -8   4  -3   70.35   46.99
  -8   4  -3   20.69   92.02
   8  -4   4   59.21   38.89
   8  -4   4   -4.24   62.72
   8  -4   4   45.82   56.51
  -8   4  -4  124.95   94.77
   8  -4   5   -8.35   59.18
   8  -4   5  116.84   84.20
   8  -4   5    6.15   26.46
  -8   4  -5   23.32   42.93
  -8   4  -5  -24.79   50.19
   8  -4   6  116.73   42.44
   8  -4   6  165.40   39.04
   8  -4   6  153.30  115.64
  -8   4  -6  157.09   42.17
  -8   4  -6  159.50   53.46
  -8   4  -6  212.97   49.82
   8  -4   7  123.73   32.94
   8  -4   7   62.28   40.70
   8  -4   7  102.35  123.56
  -8   4  -7   87.00   26.09
  -8   4  -7  212.85   46.18
  -8   4  -7  166.39   54.48
   8  -3  -2  292.92   69.82
   8  -3  -2  295.50   29.15
  -8   3   2  455.81  110.16
  -8   3   2  310.25   45.39
   8  -3  -1  651.42   37.37
  -8   3   1  891.46   54.62
  -8   3   1  796.55   49.23
  -8   3   1  592.01   26.46
   8  -3   0    4.67   45.69
   8  -3   0  383.64   34.63
   8  -3   0  415.58   42.80
  -8   3   0  533.28   47.49
  -8   3   0  546.14   48.37
  -8   3   0  416.25   45.13
   8  -3   1    3.47   34.31
   8  -3   1  369.98   22.07
   8  -3   1  365.80   34.30
  -8   3  -1  438.32   47.38
  -8   3  -1    3.34   38.52
   8  -3   2  125.16   32.89
   8  -3   2  -10.08   89.48
   8  -3   2  116.67   39.00
  -8   3  -2  189.22   44.45
  -8   3  -2  142.72   36.59
   8  -3   3   54.76   31.94
   8  -3   3   96.46   52.10
   8  -3   3   55.72   37.98
  -8   3  -3   91.57   40.98
  -8   3  -3   65.52   34.45
  -8   3  -3   85.73   83.43
   8  -3   4  126.25   37.47
   8  -3   4   -1.86   50.42
   8  -3   4   78.42   43.04
  -8   3  -4   49.58   40.76
  -8   3  -4   46.03   34.82
  -8   3  -4  132.99   89.19
   8  -3   5   36.64   52.82
   8  -3   5  103.68   49.54
   8  -3   5   29.12   58.79
  -8   3  -5   17.60   19.36
  -8   3  -5  167.84   90.15
  -8   3  -5   51.39   43.70
   8  -3   6   76.25   33.78
   8  -3   6  130.02   66.55
   8  -3   6    2.88   40.76
  -8   3  -6    3.39   18.54
  -8   3  -6   81.44   46.26
  -8   3  -6    3.08   42.87
   8  -3   7   63.79   17.64
   8  -3   7   36.42   45.08
  -8   3  -7  192.43   47.05
  -8   3  -7   97.25   21.86
  -8   3  -7  202.94   45.50
   8  -3   8   90.35   18.96
   8  -3   8   87.49   36.94
  -8   3  -8  241.56   52.62
  -8   3  -8  183.14  293.93
  -8   3  -8  284.33   83.19
   8  -3   9    2.66   51.66
   8  -3   9   46.49   24.88
   8  -3   9   40.27   20.81
  -8   3  -9  117.10   38.54
  -8   2   4   89.08   30.82
  -8   2   4  167.73   45.28
  -8   2   4    0.66   46.70
  -8   2   4   16.09  471.45
   8  -2  -3   41.20   47.81
   8  -2  -3   39.60   37.69
  -8   2   3  131.88   50.62
  -8   2   3   30.85   55.03
  -8   2   3   25.78   41.87
   8  -2  -2  163.18   73.90
   8  -2  -2   52.82   20.70
  -8   2   2   50.15   20.16
  -8   2   2   67.68   88.40
  -8   2   2   70.03   39.88
   8  -2  -1  290.22   38.45
   8  -2  -1  315.42   30.09
  -8   2   1  399.68   47.24
  -8   2   1  280.02   34.72
  -8   2   1  378.74   42.17
   8  -2   0  565.94   29.38
   8  -2   0  658.24   35.34
  -8   2   0  782.25   42.56
  -8   2   0  580.60   20.24
  -8   2   0  753.16   45.90
   8  -2   1  -22.98   77.45
   8  -2   1  204.98   27.60
   8  -2   1  239.33   26.49
  -8   2  -1  223.33   15.08
  -8   2  -1  281.31   40.17
   8  -2   2  207.00   27.01
   8  -2   2  206.57   26.10
   8  -2   2   34.35   84.71
  -8   2  -2  253.00   77.45
  -8   2  -2  309.52   38.91
   8  -2   3   23.75   42.50
   8  -2   3  292.29   25.80
   8  -2   3  302.56   28.38
  -8   2  -3  353.99   37.25
  -8   2  -3  386.36   38.95
  -8   2  -3  271.75   22.19
   8  -2   4  412.43   26.42
   8  -2   4  439.99   29.60
   8  -2   4  198.93   85.54
  -8   2  -4  397.64   14.84
  -8   2  -4  513.76   38.26
  -8   2  -4  530.46   37.93
   8  -2   5  442.99   54.54
   8  -2   5  328.68   32.09
  -8   2  -5  391.85   35.71
  -8   2  -5  287.82   25.80
  -8   2  -5  379.37   76.19
   8  -2   6  198.61   21.82
   8  -2   6  152.02   28.56
   8  -2   6  101.95   74.64
  -8   2  -6  208.76   37.31
  -8   2  -6  127.89   29.27
  -8   2  -6  258.95   72.17
   8  -2   7   72.02   83.84
   8  -2   7  313.22   34.39
  -8   2  -7  448.00   44.62
  -8   2  -7  391.04   33.82
   8  -2   8  106.20   36.26
   8  -2   8   62.80   17.17
  -8   2  -8  171.89   38.20
  -8   2  -8   -3.32   29.43
   8  -2   9   26.75   17.57
   8  -2   9   45.36   65.85
   8  -2   9   36.29   19.61
  -8   2  -9   12.23   30.44
  -8   2  -9   96.92   35.06
   8  -2  10   25.85   41.68
   8  -2  10    0.49   34.86
   8  -2  10    2.71   32.68
  -8   2 -10    3.18   59.58
  -8   2 -10   34.45   34.42
  -8   1   5    2.77   39.11
  -8   1   5  125.37   68.82
  -8   1   5  129.01   57.83
  -8   1   5   73.95   59.42
  -8   1   5  229.19   80.78
  -8   1   4   35.03   24.38
  -8   1   4   20.45   38.75
  -8   1   4  112.11   53.26
  -8   1   4   51.49   50.99
  -8   1   4  214.66   83.33
  -8   1   3   78.89   21.78
  -8   1   3  192.50   43.50
  -8   1   3  131.47   44.91
   8  -1  -2  147.78   18.47
  -8   1   2  156.66   17.03
  -8   1   2   97.59  266.10
  -8   1   2  187.73   38.43
  -8   1   2  139.46   18.61
   8  -1  -1  151.42   13.96
   8  -1  -1   -0.81   41.35
  -8   1   1  189.55   36.50
  -8   1   1  194.75   29.28
   8  -1   0   -3.30   29.58
   8  -1   0  106.77   29.90
   8  -1   0   93.85   21.93
  -8   1   0  153.02   34.55
  -8   1   0  194.04   40.73
  -8   1   0   -1.98   21.46
   8  -1   1  165.31   29.02
   8  -1   1  148.38   17.90
   8  -1   1   36.52  105.84
  -8   1  -1  205.09   64.96
  -8   1  -1  159.87   14.76
  -8   1  -1  273.26   79.05
   8  -1   2  119.56   14.44
   8  -1   2  249.48   84.71
   8  -1   2  161.61   28.07
  -8   1  -2  216.65   38.40
  -8   1  -2  171.59   32.45
   8  -1   3  215.62   40.37
   8  -1   3  201.49   13.14
   8  -1   3  270.46   27.62
  -8   1  -3  354.45   38.20
  -8   1  -3  313.90   31.96
   8  -1   4  208.48   15.72
   8  -1   4  317.26   46.52
  -8   1  -4  367.44  255.28
  -8   1  -4  294.81   35.72
   8  -1   5  233.19   72.66
   8  -1   5  462.25   22.51
  -8   1  -5  490.75   34.12
  -8   1  -5  489.15   35.32
   8  -1   6  668.72   37.14
   8  -1   6   21.68   47.14
   8  -1   6  397.12   22.40
  -8   1  -6  566.88   34.95
   8  -1   7  696.03   18.27
   8  -1   7  862.02   38.29
   8  -1   7  763.40   28.73
  -8   1  -7  906.33   40.56
  -8   1  -7  891.01   60.17
  -8   1  -7  960.38   68.27
   8  -1   8  640.53   32.19
   8  -1   8  657.39   31.76
   8  -1   8  568.76   17.31
  -8   1  -8  748.91   32.51
  -8   1  -8  811.60   35.82
   8  -1   9   97.48   27.89
   8  -1   9   64.50   27.37
   8  -1   9  115.92   34.51
  -8   1  -9  212.84   69.52
  -8   1  -9  100.61  433.61
   8  -1  10   18.59   18.17
   8  -1  10  122.13   36.53
   8  -1  10   25.64   40.85
  -8   1 -10  100.84   65.11
   8  -1  11   38.46   43.98
   8  -1  11   28.40   36.01
   8  -1  11   28.58   42.67
  -8   1 -11   73.10   58.92
  -8   1 -11   43.99   24.59
  -8   0   5  197.88   26.37
  -8   0   5  198.68   31.31
  -8   0   5   16.06   54.08
  -8   0   5  258.71   66.94
  -8   0   4  326.52   22.99
  -8   0   4  342.20   34.99
  -8   0   4  100.95   47.67
  -8   0   4  302.49   48.25
  -8   0   4  429.66  102.80
  -8   0   3   94.49   33.29
  -8   0   3  277.23   37.64
  -8   0   3  289.45   36.24
  -8   0   3  209.24   38.16
  -8   0   2  381.17   15.39
  -8   0   2  533.56   38.93
  -8   0   2  470.97   33.95
  -8   0   2  441.12   27.17
  -8   0   2  590.27   75.54
   8   0  -1   20.66   40.44
  -8   0   1  348.86   32.14
  -8   0   1  435.13   32.85
  -8   0   1  387.62   23.39
  -8   0   1  316.95   20.90
   8   0   0   -5.84   29.86
  -8   0   0    5.78   28.91
  -8   0   0  147.13   37.74
  -8   0   0  165.39   59.29
   8   0   1  146.49   36.16
  -8   0  -1  400.18   37.32
  -8   0  -1  377.41   28.67
  -8   0  -1   42.39   31.82
   8   0   2    1.43   65.33
  -8   0  -2  174.65   34.60
  -8   0  -2  153.77   26.37
  -8   0  -2   11.29   27.56
   8   0   3   15.29   29.78
  -8   0  -3   16.80   26.27
  -8   0  -3   41.00   25.89
  -8   0  -3   59.87   64.00
   8   0   4  -14.08   32.80
  -8   0  -4    7.59   31.78
  -8   0  -4   16.82   26.92
  -8   0  -4   53.25   29.08
   8   0   5  103.93   54.02
  -8   0  -5   56.99   30.91
  -8   0  -5   54.26   26.64
  -8   0  -5    7.74   26.65
   8   0   6  501.25   15.62
   8   0   6  542.81   18.42
  -8   0  -6  602.29   61.66
  -8   0  -6  613.88   82.80
  -8   0  -6  598.70   64.42
   8   0   7  476.03   11.95
   8   0   7  570.28   54.41
  -8   0  -7  712.07   36.22
  -8   0  -7 1235.29   61.27
  -8   0  -7  723.33   35.39
   8   0   8  314.74   22.06
   8   0   8  383.42   28.41
   8   0   8  403.46   26.46
  -8   0  -8  502.19   33.10
   8   0   9  158.12   29.49
   8   0   9  123.70   27.66
   8   0   9  140.58   29.13
  -8   0  -9  226.69   29.16
  -8   0  -9  214.09   31.80
   8   0  10   27.41   16.86
   8   0  10   38.53   32.16
   8   0  10   45.91   17.38
  -8   0 -10   38.14   24.20
  -8   0 -10   70.58   29.99
   8   0  11  434.79   38.86
   8   0  11  245.97   22.67
  -8   0 -11  350.31   31.11
  -8   0 -11  361.35   27.55
  -8  -1   6   13.65   28.05
  -8  -1   6   30.27   26.65
  -8  -1   6   67.43   32.76
  -8  -1   6   31.59   52.99
  -8  -1   5  175.95   24.70
  -8  -1   5  168.91   29.58
  -8  -1   5  118.54   49.06
  -8  -1   5  248.79   68.59
  -8  -1   5   67.70   95.21
  -8  -1   4  232.79   22.48
  -8  -1   4  211.63   33.29
  -8  -1   4   73.39   41.73
  -8  -1   4  165.90   39.75
  -8  -1   3   59.35   15.02
  -8  -1   3  178.94   43.02
  -8  -1   3  185.93   34.25
  -8  -1   3   97.57   33.70
  -8  -1   2  602.25   37.51
  -8  -1   2  503.87   28.74
  -8  -1   2  534.87   28.57
  -8  -1   2  356.24   22.30
  -8  -1   1  866.15   63.32
  -8  -1   1  449.35   33.55
  -8  -1   1  453.86   28.78
   8   1   0   34.09   68.29
  -8  -1   0  616.87   34.92
  -8  -1   0  586.18   27.97
  -8  -1   0   -0.59   57.93
   8   1   1  650.11   41.75
  -8  -1  -1  708.04   33.74
  -8  -1  -1  644.97   27.80
  -8  -1  -1  118.80   67.82
   8   1   2  309.57   33.47
  -8  -1  -2  123.59   61.59
  -8  -1  -2  447.45   29.07
  -8  -1  -2  481.54   46.55
   8   1   3  105.21   62.15
  -8  -1  -3  105.76   26.59
  -8  -1  -3   95.99   44.88
  -8  -1  -3  178.87   60.74
   8   1   4  178.89   76.62
  -8  -1  -4  -11.22   25.87
  -8  -1  -4   28.58   23.77
  -8  -1  -4  132.40   58.71
   8   1   5  222.80   33.05
  -8  -1  -5  168.41   26.56
  -8  -1  -5  178.66   25.84
  -8  -1  -5  165.57  340.08
   8   1   6  268.19   26.83
  -8  -1  -6  316.23   28.21
  -8  -1  -6  317.09   30.14
   8   1   7  252.37   15.02
   8   1   7  298.28   25.55
  -8  -1  -7  349.39   27.94
  -8  -1  -7  342.77   26.63
   8   1   8   40.29   50.14
   8   1   8   57.08   22.02
   8   1   8   36.17   18.36
  -8  -1  -8   68.49   24.96
   8   1   9   50.83   25.68
   8   1   9   69.22   14.45
  -8  -1  -9   97.94   28.61
  -8  -1  -9  115.11   22.65
   8   1  10   62.76   30.28
   8   1  10   57.70   17.20
   8   1  10   45.89   17.30
  -8  -1 -10  130.18   29.94
  -8  -1 -10  126.75   53.68
   8   1  11  219.22   22.05
   8   1  11  282.04   37.02
   8   1  11  269.05   22.05
  -8  -1 -11  326.81   31.21
  -8  -1 -11  283.14   30.18
   8   1  12  390.20   47.49
   8   1  12  491.51   45.56
   8   1  12  341.28   54.61
  -8  -1 -12  513.97   68.32
  -8  -1 -12  382.57   27.40
  -8  -2   6   50.65   27.82
  -8  -2   6   84.51   27.27
  -8  -2   6  122.04   30.84
  -8  -2   6   93.17   52.01
  -8  -2   6   66.57   49.31
  -8  -2   5  133.65   22.86
  -8  -2   5  117.18   32.62
  -8  -2   5   55.76   36.48
  -8  -2   5  131.66   44.89
  -8  -2   5  170.25   48.93
  -8  -2   4  290.64   33.91
  -8  -2   4  236.54   39.06
  -8  -2   4  204.35   36.63
  -8  -2   4  262.37   51.43
  -8  -2   3    9.39   24.49
  -8  -2   3   53.05   28.97
  -8  -2   3    4.69   30.13
  -8  -2   3   10.06   26.42
  -8  -2   3   92.49   64.00
  -8  -2   2  102.49   26.40
  -8  -2   2   85.64   23.78
  -8  -2   2  109.89   24.71
  -8  -2   2   72.12   18.70
  -8  -2   2  149.61   58.07
  -8  -2   1   72.27   26.34
  -8  -2   1   76.28   22.30
  -8  -2   1   49.30   10.53
  -8  -2   1   45.02    9.84
  -8  -2   1   74.22   55.58
   8   2   0  -30.20   63.20
  -8  -2   0  565.06   30.37
  -8  -2   0  465.72   22.12
   8   2   1  586.40   69.63
  -8  -2  -1  750.35   30.43
  -8  -2  -1  611.12   22.18
   8   2   2  110.61   26.92
  -8  -2  -2  244.27   27.04
  -8  -2  -2  215.33   20.20
   8   2   3  932.68   57.64
  -8  -2  -3  781.48   27.71
  -8  -2  -3  847.99   25.37
  -8  -2  -3  898.65   29.28
   8   2   4  119.86   30.03
  -8  -2  -4  182.68   29.31
  -8  -2  -4  136.06   24.62
   8   2   5  332.15   53.74
  -8  -2  -5  238.83   25.72
  -8  -2  -5  259.49   50.76
  -8  -2  -5  270.29   26.14
   8   2   6  562.53   26.89
  -8  -2  -6  565.88   27.26
  -8  -2  -6  531.68   28.46
   8   2   7  188.71   15.48
   8   2   7  176.31   24.45
   8   2   7  144.08   12.22
  -8  -2  -7  211.21   55.60
  -8  -2  -7  264.77   29.26
   8   2   8  141.11   23.13
   8   2   8   99.08   18.61
   8   2   8  124.96   24.20
  -8  -2  -8  258.43   35.09
  -8  -2  -8  189.06   28.64
   8   2   9   96.54   15.03
   8   2   9   87.72   27.78
   8   2   9   64.41   27.48
  -8  -2  -9  169.42   57.75
  -8  -2  -9   83.71   54.95
   8   2  10  117.04   36.15
   8   2  10  192.64   18.22
   8   2  10  177.25   63.74
  -8  -2 -10  291.66   63.15
  -8  -2 -10  248.88   29.50
   8   2  11  122.06   36.87
   8   2  11  141.62   21.18
   8   2  11  118.01   23.16
  -8  -2 -11  197.95   31.30
  -8  -2 -11  222.21   57.83
   8   2  12  124.65   23.51
   8   2  12  108.32   28.33
   8   2  12  123.33   85.52
  -8  -2 -12  152.85   29.39
  -8  -2 -12  220.18   61.10
  -8  -3   6  391.21   31.87
  -8  -3   6   35.37   32.74
  -8  -3   6  380.54   50.00
  -8  -3   6  344.04   55.02
  -8  -3   6  486.23   57.82
  -8  -3   5  268.97   23.79
  -8  -3   5  385.78   36.05
  -8  -3   5  300.84   43.51
  -8  -3   5  392.65   54.90
  -8  -3   4  176.51   30.66
  -8  -3   4  171.81   36.14
  -8  -3   4  118.74   33.78
  -8  -3   4  200.10   61.97
  -8  -3   4  258.34   51.01
  -8  -3   3    5.89   12.78
  -8  -3   3   83.29   34.44
  -8  -3   3   43.60   22.12
  -8  -3   3    5.62   29.29
  -8  -3   3   51.92   53.29
  -8  -3   2   68.10   28.28
  -8  -3   2  100.78   32.21
  -8  -3   2   35.38   23.17
  -8  -3   2   16.22   18.32
  -8  -3   2   68.98   42.77
   8   3  -1   45.61   30.28
  -8  -3   1   82.60   24.76
  -8  -3   1  137.13   21.28
  -8  -3   1   73.11   22.63
  -8  -3   1   98.62   14.94
  -8  -3   1   70.81   11.02
   8   3   0  103.46   65.45
  -8  -3   0  293.26   25.63
  -8  -3   0  238.47   18.22
  -8  -3   0  243.67   23.32
   8   3   1   -3.77   29.47
  -8  -3  -1  604.58   24.86
  -8  -3  -1  604.60   20.02
  -8  -3  -1  588.60   50.65
   8   3   2   67.04   32.48
  -8  -3  -2   20.33   22.72
  -8  -3  -2   55.87   22.39
  -8  -3  -2   64.78   25.44
   8   3   3  177.93   54.56
  -8  -3  -3  142.04   22.34
  -8  -3  -3  152.57   23.86
   8   3   4  121.90   25.41
  -8  -3  -4  109.57   25.88
  -8  -3  -4  117.13   47.27
  -8  -3  -4  148.81   47.19
   8   3   5  521.60   29.48
  -8  -3  -5  484.33   29.84
  -8  -3  -5  414.00   52.19
   8   3   6  668.58   26.67
  -8  -3  -6  807.74   34.41
  -8  -3  -6  756.05   56.78
   8   3   7  511.44   18.52
   8   3   7  361.07   15.56
   8   3   7  431.06   23.91
  -8  -3  -7  638.06   32.11
  -8  -3  -7  559.69   31.69
   8   3   8  375.67   25.85
   8   3   8  295.14   25.57
  -8  -3  -8  405.11   33.09
  -8  -3  -8  465.06   33.19
   8   3   9  205.90   30.13
   8   3   9  153.09   29.78
   8   3   9  175.95   27.82
  -8  -3  -9  324.56   32.72
  -8  -3  -9  206.45   28.67
   8   3  10  181.73   20.88
   8   3  10  234.64   33.34
   8   3  10  218.66   37.55
  -8  -3 -10  216.27   28.64
  -8  -3 -10  286.09   63.06
   8   3  11  145.88   43.31
   8   3  11  128.57   26.08
   8   3  11  201.04   76.20
  -8  -3 -11  270.21   60.16
  -8  -3 -11  223.49   33.46
   8   3  12   58.32   30.61
   8   3  12   78.75   42.88
   8   3  12   21.32   48.10
  -8  -3 -12   77.45   29.76
  -8  -3 -12   83.29   60.33
  -8  -4   6  284.43   23.61
  -8  -4   6  228.75   27.01
  -8  -4   6  256.45   24.62
  -8  -4   6  394.72   56.67
  -8  -4   6  352.79   62.20
  -8  -4   5  387.00   27.20
  -8  -4   5  410.42   34.54
  -8  -4   5  324.21   21.60
  -8  -4   5  325.11   38.24
  -8  -4   5  285.65   43.56
  -8  -4   4  181.57   15.98
  -8  -4   4  231.68   26.19
  -8  -4   4  300.47   35.67
  -8  -4   4  189.13   19.18
  -8  -4   4  146.78   34.72
  -8  -4   3  111.54   13.29
  -8  -4   3   98.88   14.16
  -8  -4   3  203.46   29.50
  -8  -4   3  126.13   26.35
  -8  -4   3  133.82   18.44
  -8  -4   2  181.71   22.64
  -8  -4   2  162.11   22.54
  -8  -4   2  270.26   55.26
  -8  -4   2  309.06   60.28
  -8  -4   2  282.97   39.46
  -8  -4   1  486.19   28.34
  -8  -4   1  414.74   18.54
  -8  -4   1  382.35   19.79
  -8  -4   1  376.17   49.04
  -8  -4   1  419.90   36.05
   8   4   0   93.26   51.22
  -8  -4   0  792.76   30.11
  -8  -4   0  632.26   25.61
  -8  -4   0  713.84   37.29
   8   4   1   59.98   32.05
  -8  -4  -1  414.77   28.16
  -8  -4  -1  344.03   22.71
  -8  -4  -1  384.66   38.04
   8   4   2  276.36   56.34
  -8  -4  -2  516.11   22.68
  -8  -4  -2  366.33   41.88
  -8  -4  -2  504.40   29.58
   8   4   3   22.69   48.07
  -8  -4  -3  120.15   19.31
  -8  -4  -3  173.48   23.82
  -8  -4  -3  128.90   27.49
   8   4   4  149.17   24.27
  -8  -4  -4  176.50   30.11
  -8  -4  -4  117.92   21.03
   8   4   5  180.93   26.11
  -8  -4  -5  160.48   28.70
  -8  -4  -5  134.55   21.71
   8   4   6  326.06   14.01
   8   4   6  301.71   21.67
   8   4   6  457.04   19.79
  -8  -4  -6  325.01   24.39
   8   4   7  192.37   20.94
   8   4   7  127.51   21.79
   8   4   7  146.22   21.98
  -8  -4  -7  202.95   31.01
  -8  -4  -7  186.42   25.10
   8   4   8  392.30   27.48
   8   4   8  399.61   51.18
   8   4   8  330.10   16.14
  -8  -4  -8  472.10   31.21
  -8  -4  -8  439.74   31.75
   8   4   9  309.67   34.63
   8   4   9  307.77   59.93
   8   4   9  262.32   19.62
  -8  -4  -9  339.31   30.31
  -8  -4  -9  329.10   34.08
   8   4  10  273.80   21.16
   8   4  10  268.97   35.91
   8   4  10  260.09   50.54
  -8  -4 -10  331.53   33.91
  -8  -4 -10  422.75   72.01
   8   4  11  295.11   34.63
   8   4  11  320.02   43.44
   8   4  11  267.03   22.81
  -8  -4 -11  377.55   39.02
  -8  -4 -11  340.95   36.00
   8   4  12   18.01   39.03
   8   4  12   60.64   45.46
   8   4  12   10.63   23.94
  -8  -4 -12   66.60   37.63
  -8  -4 -12   45.93   29.56
  -8  -5   6  134.80   26.03
  -8  -5   6  108.37   42.20
  -8  -5   6  287.58   67.75
  -8  -5   6  284.99   65.59
  -8  -5   5  155.69   22.30
  -8  -5   5  252.62   28.36
  -8  -5   5  287.67   68.08
  -8  -5   4    8.79   15.66
  -8  -5   4    3.76   17.04
  -8  -5   4   30.14   25.95
  -8  -5   4   56.96   29.27
  -8  -5   4   41.78   16.72
  -8  -5   3   17.47   26.02
  -8  -5   3   49.97   15.45
  -8  -5   3   25.63   30.62
  -8  -5   3  137.25   57.91
  -8  -5   2   32.01   10.89
  -8  -5   2   80.04   26.10
  -8  -5   2   64.81   15.58
  -8  -5   2   32.11   25.72
  -8  -5   1  535.08   14.19
  -8  -5   1  688.27   29.54
  -8  -5   1  441.78   21.16
  -8  -5   1  708.07   21.49
  -8  -5   1  582.33   23.00
  -8  -5   0 2076.99   36.08
  -8  -5   0 2503.58   31.11
  -8  -5   0 1905.21   28.20
  -8  -5   0 1550.08   48.18
  -8  -5  -1  801.72   32.15
  -8  -5  -1  598.88   25.29
  -8  -5  -1 1026.95   27.48
  -8  -5  -1  579.53   13.11
  -8  -5  -1  645.94   15.58
   8   5   2  348.21  211.50
   8   5   2   68.02   23.91
   8   5   2  181.08   10.38
  -8  -5  -2  260.34   30.14
  -8  -5  -2   87.09    9.56
   8   5   3  134.82   24.84
  -8  -5  -3  115.13   29.28
   8   5   4  419.50   26.37
   8   5   4  251.23   10.86
  -8  -5  -4  411.88   30.87
   8   5   5  452.85   26.23
   8   5   5  499.21   23.52
  -8  -5  -5  342.53   13.81
   8   5   6  183.57   24.25
   8   5   6  115.78   19.85
  -8  -5  -6  158.70   20.02
  -8  -5  -6  183.31   30.49
   8   5   7  196.57   22.70
   8   5   7  273.65   29.74
  -8  -5  -7  260.68   30.75
   8   5   8  110.80  275.06
   8   5   8  289.04   27.53
   8   5   8  326.83   32.19
  -8  -5  -8  383.05   32.40
   8   5   9  214.04   24.55
   8   5   9  213.20   34.57
   8   5   9  213.98   18.63
  -8  -5  -9  282.32   34.29
  -8  -5  -9  281.93   35.63
   8   5  10  122.53   38.83
   8   5  10   61.47   42.07
   8   5  10   66.95   28.76
  -8  -5 -10  154.11   38.53
  -8  -5 -10  156.50   36.26
   8   5  11   36.17   32.12
   8   5  11   60.19   40.39
  -8  -5 -11  148.78   75.59
  -8  -5 -11  122.99   58.72
   8   5  12   66.19   44.49
   8   5  12   14.24   27.92
   8   5  12   29.57   38.84
  -8  -5 -12   65.29   34.96
  -8  -5 -12   74.13   65.28
  -8  -6   5   76.77   21.84
  -8  -6   5   66.70   24.08
  -8  -6   5   90.92   33.32
  -8  -6   5  123.51   34.07
  -8  -6   4   47.22   17.78
  -8  -6   4   44.57   20.52
  -8  -6   4  156.60   72.74
  -8  -6   3   52.36   15.26
  -8  -6   3  101.57   31.48
  -8  -6   3   34.11   31.15
  -8  -6   3  134.87   50.49
  -8  -6   2  137.11   16.09
  -8  -6   2  182.52   29.26
  -8  -6   2  186.38   27.56
  -8  -6   2  126.44   27.12
   8   6  -1  312.43   15.56
   8   6  -1  114.74  191.08
  -8  -6   1  339.31   14.71
  -8  -6   1  437.70   31.62
  -8  -6   1  614.86   67.03
   8   6   0   35.57   14.40
   8   6   0  235.53   12.38
  -8  -6   0  417.41   31.31
  -8  -6   0  361.98   17.00
   8   6   1   36.83   20.64
   8   6   1  121.37   20.56
   8   6   1  180.73   28.47
  -8  -6  -1  135.91   11.25
  -8  -6  -1  182.52   30.63
   8   6   2   16.23   26.88
   8   6   2   47.34   19.73
   8   6   2  156.61   18.84
  -8  -6  -2  270.86   30.64
  -8  -6  -2  220.91   19.03
   8   6   3  340.18   21.77
   8   6   3  338.77   30.08
   8   6   3  451.48   42.34
  -8  -6  -3  390.59   19.15
  -8  -6  -3  568.46   32.27
   8   6   4  552.32   32.29
   8   6   4  664.65   27.82
   8   6   4  623.36   31.09
  -8  -6  -4  663.69   15.47
  -8  -6  -4  773.12   63.33
   8   6   5 1688.53   30.60
   8   6   5 1926.99   39.01
   8   6   5 1722.52   40.20
  -8  -6  -5 2043.13   22.22
  -8  -6  -5 1893.93   40.01
   8   6   6  192.50   31.61
   8   6   6  123.05   18.96
   8   6   6  218.94   36.32
  -8  -6  -6  194.48   33.11
  -8  -6  -6  262.24   64.14
   8   6   7  391.47   35.07
   8   6   7  369.27   25.38
   8   6   7  541.54   21.45
  -8  -6  -7  587.31   20.77
  -8  -6  -7  556.44   36.39
   8   6   8   28.59   33.88
   8   6   8  474.77   32.91
   8   6   8  519.68   40.42
  -8  -6  -8  599.11   35.61
  -8  -6  -8  635.60   44.99
   8   6   9  269.18   34.77
   8   6   9  244.02   43.12
   8   6   9  284.51   39.72
  -8  -6  -9  287.37   26.09
  -8  -6  -9  273.95   36.43
   8   6  10   22.99   36.94
   8   6  10   49.21  329.41
   8   6  10   11.24   23.65
  -8  -6 -10    6.92   31.54
  -8  -6 -10   61.83   37.08
   8   6  11   12.03   25.19
   8   6  11   -0.76   38.84
   8   6  11  -21.79  370.71
  -8  -6 -11  121.56   72.91
  -8  -7   5  210.69   22.87
  -8  -7   5  213.69   25.70
  -8  -7   5  296.26   37.61
  -8  -7   5  400.93   72.53
  -8  -7   4   89.09   18.95
  -8  -7   4  272.15   37.58
  -8  -7   4  140.14   26.82
  -8  -7   4  127.84   39.62
   8   7  -3   22.16  280.28
  -8  -7   3   28.60   39.02
  -8  -7   3  185.62   76.26
  -8  -7   3   23.37   18.80
   8   7  -2   80.26   19.76
  -8  -7   2  159.36   36.09
  -8  -7   2  117.16   37.46
   8   7  -1  184.22   56.01
   8   7  -1  110.77   17.26
  -8  -7   1  152.77   34.89
  -8  -7   1  295.57   40.79
   8   7   0   91.52   27.29
  -8  -7   0  125.97   34.11
  -8  -7   0   75.17   31.66
   8   7   1  166.54   16.03
   8   7   1   67.04   55.21
   8   7   1   31.00   31.33
  -8  -7  -1  251.11   33.34
  -8  -7  -1  217.08   31.00
   8   7   2  388.93   18.86
   8   7   2  134.21   35.58
  -8  -7  -2  491.50   34.66
   8   7   3  221.92  385.20
   8   7   3  323.11   21.39
  -8  -7  -3  367.18   33.28
  -8  -7  -3  265.27   14.88
   8   7   4  348.42   50.08
   8   7   4  353.51   41.41
  -8  -7  -4  272.40   27.51
  -8  -7  -4  315.59   33.27
   8   7   5  674.17   24.91
   8   7   5  516.95   22.56
  -8  -7  -5  462.34   15.97
  -8  -7  -5  681.42   70.10
   8   7   6  139.21   22.75
   8   7   6   99.53   20.31
  -8  -7  -6  117.98   34.99
  -8  -7  -6  120.86   28.01
   8   7   7  -51.81  425.42
   8   7   7  432.25   30.13
   8   7   7  554.75   50.65
  -8  -7  -7  461.24   19.36
  -8  -7  -7  631.27   69.56
   8   7   8  596.29   27.40
   8   7   8  488.44   32.94
   8   7   8 1160.96  511.19
  -8  -7  -8  725.82   32.97
  -8  -7  -8  575.75   66.60
   8   7   9  186.82   31.63
   8   7   9  183.60   49.86
   8   7   9  216.15   83.60
  -8  -7  -9  252.10   31.51
  -8  -7  -9  184.85   31.41
   8   7  10   51.41   26.08
   8   7  10   88.51   43.67
   8   7  10   76.11   35.02
  -8  -7 -10   74.78   68.90
   8   7  11  109.46   91.21
   8   7  11  123.77   30.93
   8   7  11   78.93   76.96
  -8  -7 -11  222.93   76.65
  -8  -7 -11  102.60   39.31
   8   8  -4   63.77   28.65
   8   8  -4   51.98  229.49
  -8  -8   4   53.39   25.65
   8   8  -3  144.90   52.87
   8   8  -3   68.18   28.06
  -8  -8   3  196.33   34.43
  -8  -8   3  153.90   23.62
   8   8  -2  167.70   32.53
   8   8  -2  131.89   25.37
  -8  -8   2  319.38   41.20
  -8  -8   2  142.51   22.33
   8   8  -1  285.41   28.31
   8   8  -1  419.47   59.49
  -8  -8   1  322.76   35.47
   8   8   0  248.05   50.93
   8   8   0  254.40  397.19
  -8  -8   0  292.93   36.64
  -8  -8   0  205.05   20.66
   8   8   1  291.35   30.88
  -8  -8  -1  338.45   35.27
  -8  -8  -1  277.87   39.11
   8   8   2  607.88   62.84
  -8  -8  -2  571.15   35.46
   8   8   3  212.07   30.80
   8   8   3  183.34   31.29
   8   8   3  229.10   27.61
  -8  -8  -3  201.95   18.77
  -8  -8  -3  249.57   33.00
   8   8   4   94.80   24.03
   8   8   4  131.21   33.79
   8   8   4  111.05   24.98
  -8  -8  -4   76.33   35.93
  -8  -8  -4  105.24   62.34
   8   8   5   16.74   16.50
   8   8   5   22.34   47.48
   8   8   5   70.19   30.22
  -8  -8  -5   17.66   18.24
  -8  -8  -5   40.24   30.69
   8   8   6   93.72   22.79
   8   8   6  105.01   24.15
   8   8   6  107.84   30.63
  -8  -8  -6  112.51   30.53
  -8  -8  -6  112.81   37.92
   8   8   7  232.69   55.73
   8   8   7  187.60   33.84
   8   8   7  210.89   55.24
  -8  -8  -7  197.41   38.48
  -8  -8  -7  203.54   33.06
   8   8   8  381.69   31.37
   8   8   8  279.91   59.31
  -8  -8  -8  283.91   44.55
  -8  -8  -8  315.36   65.72
   8   8   9  120.41   29.94
  -8  -8  -9   93.34   26.97
  -8  -8  -9   63.94   31.53
   8   8  10   33.07   31.50
   8   8  10   64.18  519.24
   8   8  10   19.91   35.72
  -8  -8 -10  141.97   72.31
   8   9  -3   54.70   92.56
   8   9  -3   63.79   35.33
  -8  -9   3   52.88   52.76
  -8  -9   3  153.17   42.16
   8   9  -2  249.50  475.62
   8   9  -2   62.28   40.01
  -8  -9   2  180.52   79.80
  -8  -9   2   53.77   25.95
   8   9  -1  156.58   39.11
  -8  -9   1  106.46   22.84
  -8  -9   1  162.91   39.09
   8   9   0  590.83   44.24
  -8  -9   0  496.01   51.46
  -8  -9   0  647.64   76.56
   8   9   1  498.43   41.17
   8   9   1  391.22   39.35
  -8  -9  -1  327.40   23.81
   8   9   2  427.58   72.35
   8   9   2  430.73   36.82
  -8  -9  -2  341.99   35.81
  -8  -9  -2  370.46   25.98
   8   9   3  271.19   32.17
   8   9   3  337.01   60.15
  -8  -9  -3  312.35   48.18
   8   9   4   53.19   29.28
   8   9   4   74.75   30.82
   8   9   4  122.32   45.98
  -8  -9  -4   45.06   47.41
  -8  -9  -4  123.92   71.37
   8   9   5   99.95   33.13
   8   9   5   82.80   20.80
   8   9   5   58.18   31.76
  -8  -9  -5   41.87   23.98
  -8  -9  -5   48.43   32.27
   8   9   6  212.17   31.75
   8   9   6  218.80   49.15
   8   9   6  307.66   33.00
  -8  -9  -6  291.20   26.51
  -8  -9  -6  253.52   32.94
   8   9   7  223.01   32.50
   8   9   7  220.14   29.16
   8   9   7  244.77   31.82
  -8  -9  -7  242.12   26.27
  -8  -9  -7  246.93   33.72
   8   9   8  111.02   32.31
   8   9   8   85.75   30.39
   8   9   8  166.19   70.30
  -8  -9  -8   79.87   25.73
  -8  -9  -8  236.47   73.75
   8   9   9   78.04   40.65
   8   9   9   27.09   33.92
   8   9   9   30.30   69.43
  -8  -9  -9  -10.42   34.05
  -8  -9  -9   27.88   54.67
   8  10  -1   -1.96  101.40
   8  10  -1   14.72   35.29
  -8 -10   1   39.78   42.20
  -8 -10   1   14.32   24.83
   8  10   0  231.64   71.93
   8  10   0  230.46   88.23
  -8 -10   0  189.63   53.33
  -8 -10   0  239.61   42.09
   8  10   1  155.33   34.11
   8  10   1  152.51   78.48
  -8 -10  -1  134.16   25.77
   8  10   2  152.47   72.10
   8  10   2  192.82   63.56
   8  10   3  113.49   28.52
   8  10   3  162.90   74.67
  -8 -10  -3   96.35   29.14
   8  10   4   66.02   65.95
   8  10   4   32.33   29.47
  -8 -10  -4   54.84   35.00
  -8 -10  -4   50.12   28.45
   8  10   5  297.76   76.15
   8  10   5  191.08   30.09
  -8 -10  -5  235.91   36.58
  -8 -10  -5  243.90   30.20
   8  10   6  348.57   73.67
   8  10   6  298.29   58.42
   8  10   6  209.64   30.78
  -8 -10  -6  296.97   31.66
  -8 -10  -6  272.76   36.98
   8  10   7  296.58   32.11
   8  10   7  306.23   32.72
   8  10   7  318.44   31.63
  -8 -10  -7  325.89   31.34
  -8 -10  -7  367.78   39.15
   9  -3   1  133.80   34.40
   9  -3   1   -3.07   39.04
  -9   3  -1  209.54   51.64
   9  -3   2  102.93   33.74
   9  -3   2   -8.53   41.47
  -9   3  -2  139.05   54.02
  -9   3  -2  160.52   99.94
   9  -3   3   -4.34   53.05
   9  -3   3   46.11   33.75
  -9   3  -3  109.16   48.93
  -9   3  -3   98.68   51.31
   9  -3   4   30.04   67.60
  -9   3  -4  121.37   49.34
  -9   3  -4  121.68   49.13
   9  -3   5  145.81   76.70
  -9   3  -5   93.91   53.69
  -9   3  -5  137.21  113.92
   9  -3   6  246.56  130.46
   9  -3   6   42.60   39.08
  -9   3  -6   56.59   50.77
  -9   3  -6  112.40   51.74
  -9   2   1  394.34   51.00
  -9   2   1  448.25  105.39
   9  -2   0  120.76   56.65
   9  -2   0  249.91   39.27
  -9   2   0  318.17   50.31
  -9   2   0  302.17   52.94
   9  -2   1    5.81   36.07
   9  -2   1  334.90   38.19
  -9   2  -1  376.18   45.93
  -9   2  -1  431.46   48.79
   9  -2   2  313.15   36.65
   9  -2   2  -36.08   96.79
  -9   2  -2  343.82   48.23
  -9   2  -2  337.51   88.24
   9  -2   3  220.81   61.10
   9  -2   3  175.14   35.14
  -9   2  -3  247.77   43.60
  -9   2  -3  233.15   46.28
   9  -2   4  -27.18   54.93
   9  -2   4  142.46   34.70
  -9   2  -4  177.83   42.67
  -9   2  -4  266.42   43.05
   9  -2   5  129.93  108.03
  -9   2  -5  139.82   46.45
  -9   2  -5  148.03   53.07
   9  -2   6   14.11   58.58
  -9   2  -6    2.17   38.42
  -9   2  -6   56.19   43.00
   9  -2   7  -23.92   47.46
  -9   2  -7   14.98   35.37
  -9   2  -7  116.94   38.53
  -9   2  -7  152.46   97.36
   9  -2   8   90.62   37.35
  -9   2  -8  258.49   52.76
  -9   2  -8  164.63   72.72
  -9   2  -8  357.32   86.37
  -9   1   2   35.64   40.53
  -9   1   2   77.58   44.31
  -9   1   2   93.24   44.57
  -9   1   1   29.61   43.63
  -9   1   1   40.56   42.79
   9  -1   0   64.04   40.14
  -9   1   0   41.70   43.44
  -9   1   0   49.01   42.49
   9  -1   1  257.40  136.26
  -9   1  -1  187.40   46.18
  -9   1  -1  166.61   39.38
   9  -1   2   52.73   45.36
  -9   1  -2  325.36   46.61
  -9   1  -2  281.29   37.52
   9  -1   3  108.18   55.93
  -9   1  -3  455.38   45.33
  -9   1  -3  414.84   39.46
   9  -1   4  116.16   51.72
  -9   1  -4  327.26   85.88
   9  -1   5  165.50   56.92
  -9   1  -5   60.94   37.27
  -9   1  -5  123.40   38.40
  -9   1  -5  244.45   90.24
   9  -1   6  178.68   48.53
  -9   1  -6  522.15   42.13
  -9   1  -6  397.33   67.61
   9  -1   7   95.48   85.10
  -9   1  -7  170.11   39.23
  -9   1  -7  182.65   42.53
  -9   1  -7  168.77   34.31
   9  -1   8    1.58   85.26
  -9   1  -8   11.71   65.73
  -9   1  -9  -77.81  427.81
  -9   1  -9  120.29   42.30
  -9   0   3  374.24   82.17
  -9   0   3  351.60   42.49
  -9   0   3  374.96   40.35
  -9   0   2  155.17   50.32
  -9   0   2  167.29   46.37
  -9   0   2  185.90  127.11
  -9   0   1   23.16   37.84
  -9   0   1  125.76   47.20
  -9   0   1   10.60   37.23
   9   0   0   61.87   36.07
  -9   0   0   58.95   39.18
  -9   0   0   46.50   70.67
   9   0   1  223.10   97.68
  -9   0  -1  124.34   41.52
  -9   0  -1  139.93   34.50
   9   0   2  153.19   47.17
  -9   0  -2  233.62   40.89
  -9   0  -2  215.13   31.66
   9   0   3   20.42   41.51
  -9   0  -3   34.41   32.38
  -9   0  -3  113.36   31.08
  -9   0  -3  120.00   75.97
   9   0   4   45.72   91.24
  -9   0  -4  107.87   37.55
  -9   0  -4  117.34   32.97
  -9   0  -4  142.05   36.28
   9   0   5    6.38   42.00
  -9   0  -5   42.80   38.40
  -9   0  -5   11.34   31.23
  -9   0  -5  155.54   99.30
   9   0   6  378.82   85.72
  -9   0  -6  567.56   40.38
  -9   0  -6  408.82   36.39
  -9   0  -6  242.12   63.03
   9   0   7   45.42   34.88
  -9   0  -7   63.56   37.09
  -9   0  -7  178.10  464.55
  -9   0  -7  228.71   90.14
   9   0   8  311.78   30.99
  -9   0  -8  372.24   38.95
   9   0   9  282.90   29.98
  -9   0  -9  431.11   34.98
  -9   0  -9  435.57   78.82
   9   0  10   90.67   62.07
  -9   0 -10   85.71   28.24
  -9   0 -10  151.80   37.12
  -9  -1   4  384.95   36.93
  -9  -1   4  342.87   42.11
  -9  -1   4  502.90   46.90
  -9  -1   3  359.69   40.20
  -9  -1   3  408.10   79.73
  -9  -1   2  304.89   42.99
  -9  -1   2  291.23   36.59
  -9  -1   1   45.75  454.80
  -9  -1   1  186.95   47.56
  -9  -1   1   57.36   33.18
   9   1   0  145.37   73.31
  -9  -1   0  656.53  508.81
  -9  -1   0  391.51   72.84
  -9  -1   0  334.56   30.95
   9   1   1   15.78   38.69
  -9  -1  -1  208.50   34.15
  -9  -1  -1  233.94   55.93
   9   1   2  102.85   45.09
  -9  -1  -2  657.22   30.81
  -9  -1  -2  747.00   69.53
   9   1   3   99.74   40.51
  -9  -1  -3   98.99   33.13
  -9  -1  -3  343.42  465.39
  -9  -1  -3  131.80   54.81
   9   1   4  226.80   93.55
  -9  -1  -4   76.87   32.73
  -9  -1  -4   66.42   27.88
  -9  -1  -4  337.22  437.23
   9   1   5   72.06   34.36
  -9  -1  -5  106.80   33.43
   9   1   6   84.22   36.67
  -9  -1  -6  114.52   33.97
  -9  -1  -6   75.45   31.84
   9   1   7   24.88   27.58
  -9  -1  -7   21.53   27.83
  -9  -1  -7   31.35   34.47
   9   1   8  181.05   26.37
  -9  -1  -8  174.58   27.11
  -9  -1  -8  161.11   66.70
   9   1   9  141.76   28.66
  -9  -1  -9  206.69   30.23
  -9  -1  -9  270.00   39.75
   9   1  10   65.25   31.79
  -9  -1 -10  148.55   33.50
  -9  -1 -10  215.40   42.42
   9   1  11  161.53   39.14
  -9  -1 -11  101.54   35.32
  -9  -1 -11  172.87   60.18
  -9  -2   4  124.12   27.35
  -9  -2   4  241.69   47.24
  -9  -2   4  180.56   31.58
  -9  -2   3  119.26   30.31
  -9  -2   3  139.40   38.48
  -9  -2   3  175.07   36.77
  -9  -2   2  104.43   30.08
  -9  -2   2  115.76   35.13
  -9  -2   2  135.77   59.32
  -9  -2   1   66.70   31.44
  -9  -2   1   65.31   34.24
   9   2   0  130.09   38.44
  -9  -2   0  930.79   34.12
  -9  -2   0  971.74   30.79
  -9  -2   0  991.50   35.75
   9   2   1   86.39   40.03
  -9  -2  -1  936.84   34.67
  -9  -2  -1  759.04   32.52
  -9  -2  -1  904.83   52.33
   9   2   2   62.32   76.41
  -9  -2  -2  806.94   33.91
  -9  -2  -2  742.99   27.63
  -9  -2  -2  877.30   34.06
   9   2   3  269.00   86.25
  -9  -2  -3  314.16   31.39
  -9  -2  -3  324.74   26.02
  -9  -2  -3  430.48   35.20
   9   2   4  271.42   75.95
  -9  -2  -4  371.05   35.03
   9   2   5   81.61   94.77
  -9  -2  -5   79.13   28.57
  -9  -2  -5  171.95   62.56
   9   2   6   65.58   30.15
  -9  -2  -6   90.87   29.92
   9   2   7  132.93   25.23
  -9  -2  -7  203.02   27.20
  -9  -2  -7  280.90   39.41
   9   2   8   63.83   50.03
  -9  -2  -8  114.62   36.08
  -9  -2  -8  130.61   39.27
   9   2   9   99.48   57.31
  -9  -2  -9  127.50   31.60
  -9  -2  -9   99.16   29.90
  -9  -2 -10  307.59   37.77
   9   2  11   74.18   37.89
  -9  -2 -11   49.18   33.43
  -9  -3   4  210.49   35.48
  -9  -3   4  198.45   28.75
  -9  -3   4  261.96   61.40
  -9  -3   3   26.30   34.93
  -9  -3   3   29.90   60.72
  -9  -3   3  141.62   64.37
  -9  -3   2  163.38   34.71
  -9  -3   2   90.14   29.52
  -9  -3   1   94.27   30.59
  -9  -3   1   82.11   23.45
  -9  -3   1  217.74   62.07
   9   3   0   67.73   33.67
  -9  -3   0  265.04   30.01
  -9  -3   0  181.73   30.02
  -9  -3   0  296.43   50.91
   9   3   1   -7.51   75.33
  -9  -3  -1  507.94   28.87
  -9  -3  -1  531.40   24.33
  -9  -3  -1  502.44   27.90
   9   3   2  175.65   39.88
  -9  -3  -2  436.74   28.96
  -9  -3  -2  513.72   24.99
  -9  -3  -2  462.27   27.24
   9   3   3  242.64   70.90
  -9  -3  -3  296.91   26.84
  -9  -3  -3  286.50   55.02
   9   3   4  496.99   80.83
  -9  -3  -4  451.38   30.09
  -9  -3  -4  475.22   28.97
  -9  -3  -4  426.73   27.18
  -9  -3  -5  430.98   32.57
  -9  -3  -5  432.87   31.16
   9   3   6  568.11   30.19
  -9  -3  -6  573.95   33.02
  -9  -3  -6  604.19   63.52
   9   3   7  529.15   52.06
  -9  -3  -7  724.27   38.40
  -9  -3  -7  614.98   65.60
   9   3   8  264.02   17.65
   9   3   8  254.21   27.45
  -9  -3  -8  407.52   41.62
  -9  -3  -8  359.29   34.31
   9   3   9  112.64   22.12
   9   3   9  156.06   29.22
  -9  -3  -9  175.45   31.58
  -9  -3  -9  232.26   31.47
   9   3  10  227.23   68.02
   9   3  10  153.40   17.22
  -9  -3 -10  294.09   40.91
  -9  -3 -10  307.18   38.20
   9   3  11   54.98   38.44
   9   3  11  133.00   40.77
   9   3  11   34.26   42.58
  -9  -3 -11  154.94   68.46
  -9  -3 -11  124.03   34.56
  -9  -4   4  600.12   32.46
  -9  -4   4  665.46   35.56
  -9  -4   4  585.84   28.57
  -9  -4   3   87.25   27.97
  -9  -4   3   88.02   26.34
  -9  -4   3  210.13   77.44
  -9  -4   2  113.60   60.96
  -9  -4   2  115.96   65.95
  -9  -4   2   81.75   46.10
  -9  -4   1  190.88   35.18
  -9  -4   1   89.14   19.96
  -9  -4   1   87.42   54.88
   9   4   0   32.06   47.77
  -9  -4   0  378.08   67.11
  -9  -4   0  198.56   39.97
  -9  -4   0  178.70   27.45
   9   4   1  110.55   77.42
  -9  -4  -1  334.57   27.55
  -9  -4  -1  419.79   71.27
  -9  -4  -1  239.68   27.66
   9   4   2  133.00   68.31
  -9  -4  -2  121.96   23.67
  -9  -4  -2  139.70   57.03
  -9  -4  -2  142.40   31.90
   9   4   3  238.80   35.30
  -9  -4  -3  237.30   27.21
  -9  -4  -3  446.28   69.33
  -9  -4  -3  316.41   53.56
   9   4   4  113.10   74.92
  -9  -4  -4  386.50   32.58
  -9  -4  -4  276.12   28.63
   9   4   5  352.20   34.43
  -9  -4  -5  311.35   34.07
  -9  -4  -5  216.05   29.23
   9   4   6  426.82   28.85
  -9  -4  -6  512.28   35.68
  -9  -4  -6  430.87   31.93
   9   4   7  525.21   26.65
  -9  -4  -7  779.37   37.38
  -9  -4  -7  651.73   35.26
   9   4   8  346.03   24.41
   9   4   8  303.77   26.16
   9   4   8  206.09   18.49
  -9  -4  -8  343.96   71.41
  -9  -4  -8  467.86   42.33
   9   4   9  281.18   32.56
   9   4   9  184.02   27.54
   9   4   9  324.64   17.52
  -9  -4  -9  357.48   34.51
  -9  -4  -9  408.01   40.44
   9   4  10  403.30   21.89
   9   4  10  456.25   38.36
   9   4  10  471.40   39.77
  -9  -4 -10  608.53   37.02
  -9  -4 -10  548.07   77.30
   9   4  11   80.24   24.55
   9   4  11  165.26   81.38
  -9  -4 -11  191.88   70.35
  -9  -4 -11  202.48   74.48
  -9  -5   4  433.24   37.48
  -9  -5   4  354.63   35.52
  -9  -5   3  223.89   67.03
  -9  -5   3  229.31   67.14
  -9  -5   3  175.42   43.67
  -9  -5   2  355.78   36.41
  -9  -5   2  275.06   61.83
  -9  -5   1  297.18   31.89
  -9  -5   1  246.61   20.12
  -9  -5   1  236.41   53.14
  -9  -5   0  420.74   32.48
  -9  -5   0  453.53   47.54
   9   5   1   64.76   29.85
  -9  -5  -1  285.94   25.34
  -9  -5  -1  475.86   27.34
  -9  -5  -1  378.32   32.21
   9   5   2   87.67   60.47
  -9  -5  -2  235.32   36.48
  -9  -5  -2  157.20   52.66
   9   5   3  213.55   50.57
  -9  -5  -3  378.14   33.96
  -9  -5  -3  257.39   24.17
   9   5   4  358.06   29.72
  -9  -5  -4  474.04   36.31
  -9  -5  -4  271.00   25.27
   9   5   5  259.16   39.95
  -9  -5  -5  109.19   25.17
  -9  -5  -5  277.84   77.51
   9   5   6   16.21   24.30
  -9  -5  -6   35.67   35.41
  -9  -5  -6   21.38   26.43
   9   5   7   71.34   18.70
   9   5   7   91.04   22.47
   9   5   7  123.22   26.15
  -9  -5  -7   93.50   28.14
   9   5   8  262.72   33.85
   9   5   8  181.12   29.47
   9   5   8  218.27   27.60
  -9  -5  -8  274.66   37.10
  -9  -5  -8  233.63   31.47
   9   5   9  269.34   33.08
   9   5   9  268.96   36.39
   9   5   9  237.69   19.84
  -9  -5  -9  462.27   44.01
  -9  -5  -9  353.92   39.18
   9   5  10  307.02   22.91
   9   5  10  367.00   39.61
   9   5  10  287.23   50.87
  -9  -5 -10  683.32   93.01
   9   5  11  127.72   61.57
   9   5  11  157.66   83.26
   9   5  11   93.94   45.56
  -9  -5 -11  220.44   44.14
  -9  -5 -11  193.29   37.19
  -9  -6   4  170.66   40.72
  -9  -6   4  147.05   37.70
  -9  -6   3  131.06   39.88
  -9  -6   3  175.83   67.56
  -9  -6   2  241.60   38.73
  -9  -6   2  212.55   61.55
  -9  -6   1  232.63   32.37
  -9  -6   1  225.09   50.33
  -9  -6   0   95.53   22.26
  -9  -6   0  369.87   76.86
   9   6   1   83.63   65.51
  -9  -6  -1  328.90   34.65
  -9  -6  -1  278.25   27.72
   9   6   2  406.49  328.68
   9   6   2   48.70   46.67
  -9  -6  -2  629.33   37.08
   9   6   3  446.27  268.68
  -9  -6  -3  773.63   39.60
   9   6   4  257.39   51.71
  -9  -6  -4  482.84   79.98
   9   6   5  231.44   35.08
   9   6   5   96.14   12.91
  -9  -6  -5  330.23   44.59
   9   6   6  159.02   29.00
   9   6   6   86.77   21.42
  -9  -6  -6  136.11   37.85
   9   6   7   49.39   33.72
   9   6   7   19.46   45.70
  -9  -6  -7   77.47   37.64
   9   6   8  263.16   29.18
   9   6   8  337.32   23.20
   9   6   8  242.19  295.57
  -9  -6  -8  397.37   43.25
   9   6   9  239.37   35.00
   9   6   9  218.43   23.58
   9   6   9  186.85   24.26
  -9  -6  -9  254.55   39.97
  -9  -6  -9  398.10   88.33
   9   6  10   57.46   37.21
   9   6  10   34.27   22.92
   9   6  10   51.07   28.08
  -9  -6 -10   67.76   43.02
  -9  -6 -10  177.41   87.68
   9   6  11   58.03   52.69
   9   6  11   51.82   84.54
   9   6  11   49.49   31.66
  -9  -6 -11  154.07   48.72
  -9  -6 -11  129.56   48.14
  -9  -7   3  212.27   31.34
  -9  -7   3  144.06   44.07
  -9  -7   3  419.62   92.94
  -9  -7   2  207.40   40.50
  -9  -7   2  125.35   26.59
  -9  -7   2   90.92   41.08
  -9  -7   1  164.05   46.51
  -9  -7   1  118.72   31.99
  -9  -7   1   34.49   35.75
   9   7   0    5.73   28.67
   9   7   0  -63.78  230.73
  -9  -7   0   -4.88   31.23
  -9  -7   0    5.20   39.31
   9   7   1   35.51   26.16
   9   7   1   66.51   23.71
  -9  -7  -1  149.34   39.86
  -9  -7  -1   83.83   14.38
   9   7   2  302.89   38.67
   9   7   2  210.06   23.78
   9   7   2   67.43   40.80
  -9  -7  -2  278.27   24.92
   9   7   3  611.08   72.07
   9   7   3  467.80   46.92
   9   7   3  367.68   21.97
  -9  -7  -3  767.99   43.92
  -9  -7  -3  679.30   30.96
   9   7   4   50.50   22.54
   9   7   4    8.32   33.79
  -9  -7  -4   69.57   24.49
  -9  -7  -4  230.81   48.85
   9   7   5   18.63   35.56
   9   7   5  761.02   72.09
   9   7   5  414.13   17.33
  -9  -7  -5  480.16   16.38
  -9  -7  -5  706.29   43.64
   9   7   6  282.88   52.95
   9   7   6    6.32   35.65
  -9  -7  -6  209.51   34.51
  -9  -7  -6  240.70   40.50
   9   7   7   51.84   40.70
   9   7   7  205.94   58.99
   9   7   7  109.44   21.62
  -9  -7  -7  105.94   18.45
  -9  -7  -7  136.75   41.20
   9   7   8  351.23   27.48
   9   7   8  287.66   32.50
   9   7   8  384.46   85.72
  -9  -7  -8  401.63   45.76
  -9  -7  -8  305.94   44.20
   9   7   9  197.58   35.20
   9   7   9  226.56   56.05
   9   7   9  144.32   46.72
  -9  -7  -9  246.88   25.47
  -9  -7  -9  404.91   49.40
   9   7  10   98.46   76.02
   9   7  10   61.36   28.72
  -9  -7 -10   62.56   38.59
  -9  -7 -10   66.54   30.88
   9   8  -2   25.11   21.39
   9   8  -2   39.72  239.77
  -9  -8   2  146.33   44.43
  -9  -8   2   24.26   19.58
  -9  -8   2   31.31   23.39
   9   8  -1   13.49   38.08
   9   8  -1   12.28   29.94
  -9  -8   1  127.70   88.38
  -9  -8   1    4.43   20.12
   9   8   0   49.36   67.11
   9   8   0   -3.14   33.45
  -9  -8   0    5.15   38.83
  -9  -8   0   41.83   43.77
   9   8   1   73.78   34.84
  -9  -8  -1   69.12   18.64
  -9  -8  -1  143.64   45.34
   9   8   2  432.67  113.72
   9   8   2  238.00   31.38
  -9  -8  -2  415.14   45.30
  -9  -8  -2  307.28   20.79
   9   8   3  130.90   79.45
   9   8   3  111.63   21.36
   9   8   3  248.74   18.44
  -9  -8  -3  287.39   19.38
  -9  -8  -3  430.83   45.03
   9   8   4  153.77   78.29
   9   8   4   13.63   19.36
  -9  -8  -4   16.04   42.48
  -9  -8  -4   11.44   15.87
   9   8   5  248.37   32.20
   9   8   5  401.94   76.69
   9   8   5  269.22   36.06
  -9  -8  -5  208.08   39.77
  -9  -8  -5  227.97   82.98
   9   8   6  238.57   84.14
   9   8   6   47.68   20.10
   9   8   6   66.12   26.21
  -9  -8  -6   57.58   20.75
  -9  -8  -6  172.51   48.10
   9   8   7  360.71   78.72
   9   8   7  109.13   27.69
   9   8   7  112.48   50.77
  -9  -8  -7  116.18   22.83
  -9  -8  -7  138.21   78.21
   9   8   8  229.14   93.61
   9   8   8  497.64   64.54
   9   8   8  671.97   34.51
  -9  -8  -8  532.56   32.11
  -9  -8  -8  597.90   40.69
   9   8   9  313.39  127.98
   9   8   9  262.96   68.46
   9   8   9  345.54   35.43
  -9  -8  -9  324.72   31.62
  -9  -8  -9  328.22   41.22
   9   9  -1  118.88   46.97
   9   9  -1    9.97   35.52
  -9  -9   1  201.22   40.93
  -9  -9   1  107.16   24.16
   9   9   0   46.50   46.68
   9   9   0   -0.91   75.19
  -9  -9   0  181.42   90.86
  -9  -9   0   62.30   23.47
   9   9   1  135.83   47.57
   9   9   1  496.78   86.85
  -9  -9  -1  206.93   40.81
  -9  -9  -1  139.13   22.87
   9   9   2  148.39   26.91
   9   9   2   58.48  498.57
  -9  -9  -2  215.26   38.76
  -9  -9  -2  141.63   46.45
   9   9   3  161.51   61.58
  -9  -9  -3  142.83   22.87
  -9  -9  -3  229.26   38.15
   9   9   4  204.67   40.10
  -9  -9  -4  154.81   38.21
  -9  -9  -4  118.22   43.39
   9   9   5  148.39   30.54
   9   9   5  160.73   29.90
  -9  -9  -5  143.40   44.50
  -9  -9  -5  182.14   75.78
   9   9   6  131.57   54.90
   9   9   6   81.11   71.83
  -9  -9  -6  103.19   39.73
  -9  -9  -6   36.34   21.88
   9   9   7  212.71   32.80
   9   9   7  160.28   56.48
  -9  -9  -7  127.78   22.93
   9   9   8  257.99   34.54
   9   9   8  210.92   31.71
  -9  -9  -8  253.09   40.10
  -9  -9  -8  250.85   60.71
   9  10   2  765.54   54.05
  -9 -10  -2  590.91   43.65
  -9 -10  -2  200.20   56.64
   9  10   3  306.90   51.93
  -9 -10  -3  324.59   49.22
  -9 -10  -3  154.36   53.69
   9  10   4   29.90   36.16
   9  10   4   58.26   37.57
  -9 -10  -4   38.81   39.27
  -9 -10  -4   39.18   54.62
   9  10   5   82.81   36.77
   9  10   5  118.51   43.07
  -9 -10  -5   58.09   55.72
  -9 -10  -5   83.75   79.03
  10  -1   1   74.98   45.83
 -10   1  -1  102.23   49.11
 -10   1  -1  173.26   48.88
 -10   1  -1  119.30   42.16
  10  -1   2  186.95  127.52
 -10   1  -2  159.27   41.41
 -10   1  -2  118.76   47.53
 -10   1  -2  285.13   96.18
  10  -1   3  123.12  123.84
 -10   1  -3 1012.01   48.87
 -10   1  -3  922.79   99.63
 -10   1  -3  815.18   44.17
  10  -1   4  111.33   74.94
 -10   1  -4  416.18   50.16
 -10   1  -4  549.11   48.67
 -10   1  -4  391.94   82.86
  10  -1   5  -43.36   63.91
 -10   1  -5   24.17   40.59
 -10   1  -5  196.91   49.67
 -10   1  -5  195.98   90.24
  10  -1   6  240.28  134.26
 -10   1  -6   21.63   39.33
  10   0   0  102.44   56.76
 -10   0   0   41.86   83.87
 -10   0   0  162.97   56.92
 -10   0   0  174.99   94.20
  10   0   1   70.06   43.18
 -10   0  -1  186.30   53.72
 -10   0  -1   63.29   40.34
  10   0   2    9.25   46.92
 -10   0  -2  230.20   43.28
 -10   0  -2  267.43   38.70
  10   0   3  365.27   65.11
 -10   0  -3  601.69   40.30
 -10   0  -3  647.48   89.28
  10   0   4  159.24   65.79
 -10   0  -4   38.08   72.57
 -10   0  -4  269.26   45.43
 -10   0  -4  307.76   86.46
  10   0   5  -39.89   53.12
 -10   0  -5  156.97   44.81
 -10   0  -5  124.46   38.18
 -10   0  -5  288.13   74.13
  10   0   6   47.09   51.18
 -10   0  -6  270.46   47.64
 -10   0  -6  254.17   40.71
  10   0   7  181.53   38.59
 -10   0  -7  297.33   45.43
 -10   0  -7  422.79   93.03
  10   0   8   14.10   50.58
 -10   0  -8  360.90   42.77
 -10  -1   1  142.62   39.88
  10   1   0  130.07   96.39
 -10  -1   0  111.44   49.32
 -10  -1   0   94.48   45.53
 -10  -1   0  179.96  517.54
  10   1   1  204.42  140.55
 -10  -1  -1   42.58   40.96
 -10  -1  -1   31.79   33.44
 -10  -1  -1  261.57  509.72
  10   1   2  -24.64   44.18
 -10  -1  -2   88.92   77.37
 -10  -1  -2   94.37   63.96
  10   1   3   84.01   56.87
 -10  -1  -3  205.73   37.91
 -10  -1  -3  269.46   34.46
  10   1   4  105.63   55.51
 -10  -1  -4  173.84   37.03
 -10  -1  -4  123.03   34.79
  10   1   5  125.94  112.83
 -10  -1  -5  200.35   37.50
  10   1   6  154.57   42.71
 -10  -1  -6  270.31   38.16
 -10  -1  -6  303.99   38.40
  10   1   7    0.93   49.31
 -10  -1  -7  193.98   35.68
 -10  -1  -7  257.45   47.04
  10   1   8  576.03   39.77
 -10  -1  -8  670.39   34.88
 -10  -1  -8  751.14   85.26
  10   1   9  142.77   30.94
 -10  -1  -9  215.91   31.63
 -10  -1  -9  265.62   51.39
 -10  -2   2  611.23   45.97
 -10  -2   2  558.53   46.35
 -10  -2   1   77.72   35.48
 -10  -2   1  147.76   46.62
 -10  -2   1  158.09   41.88
  10   2   0   45.85   37.16
 -10  -2   0    6.56   30.05
 -10  -2   0    3.93   68.76
 -10  -2   0   72.45   80.18
  10   2   1  196.23  105.62
 -10  -2  -1  364.28   38.73
 -10  -2  -1  357.34   31.27
 -10  -2  -1  449.86   44.06
  10   2   2   76.32   51.58
 -10  -2  -2  440.66   37.33
 -10  -2  -2  449.63   69.99
 -10  -2  -2  474.43   59.38
  10   2   3    6.64   41.86
 -10  -2  -3  202.60   32.76
 -10  -2  -3  221.65   29.58
 -10  -2  -3  244.57   36.23
  10   2   4   56.95   52.07
 -10  -2  -4  148.30   32.59
 -10  -2  -4  252.16   73.08
  10   2   5  255.95   60.95
 -10  -2  -5  184.07   33.55
 -10  -2  -5  199.17   33.89
 -10  -2  -5  194.05   31.70
  10   2   6   13.72   56.41
 -10  -2  -6  127.69   33.61
 -10  -2  -6  167.83   35.54
 -10  -2  -6  152.89   31.27
  10   2   7  103.03   35.51
 -10  -2  -7   79.67   26.97
 -10  -2  -7  152.06   41.70
  10   2   8   76.68   28.33
 -10  -2  -8  188.32   38.23
  10   2   9   39.03   27.84
 -10  -2  -9   85.50   39.28
 -10  -2  -9  204.95   81.73
  10   2  10  117.78   32.95
 -10  -2 -10  194.46   39.93
 -10  -2 -10  274.23   75.81
 -10  -3   2  331.46   37.94
 -10  -3   2  252.79   40.47
 -10  -3   2  298.16   32.00
 -10  -3   1   12.55   34.81
 -10  -3   1   -0.90   27.06
  10   3   0   46.83   32.13
 -10  -3   0   91.58   26.77
 -10  -3   0  243.59   74.91
 -10  -3   0  112.99   64.86
  10   3   1  153.80   96.97
 -10  -3  -1  432.82   37.84
 -10  -3  -1  349.63   34.84
 -10  -3  -1  418.90   53.80
  10   3   2   74.70   51.79
 -10  -3  -2  501.90   32.36
 -10  -3  -2  479.29   29.35
 -10  -3  -2  467.91   68.10
  10   3   3   47.09   78.43
 -10  -3  -3  345.93   30.62
 -10  -3  -3  349.17   34.50
  10   3   4  171.09   97.21
 -10  -3  -4  201.70   30.84
 -10  -3  -4  256.59   67.83
 -10  -3  -4  229.46   33.60
  10   3   5  245.17   42.38
 -10  -3  -5  329.42   36.03
 -10  -3  -5  281.73   33.81
 -10  -3  -5  310.70   35.19
  10   3   6  302.02   44.07
 -10  -3  -6  287.39   35.75
 -10  -3  -6  297.94   37.66
  10   3   7  121.59   33.41
 -10  -3  -7   99.19   34.46
 -10  -3  -7   96.40   37.71
  10   3   8  116.81   62.05
 -10  -3  -8   94.41   48.92
 -10  -3  -8  110.64   82.60
  10   3   9  134.09   58.82
 -10  -3  -9  390.04   84.13
 -10  -3  -9  242.98   85.48
  10   3  10  176.58   71.64
 -10  -3 -10  147.20   38.96
 -10  -3 -10  384.57   80.80
 -10  -4   2  112.83   36.12
 -10  -4   2  235.39   73.06
 -10  -4   2  226.69   58.51
 -10  -4   1  187.24   41.45
 -10  -4   1   93.46   67.00
 -10  -4   1  167.00   55.99
  10   4   0   44.75   63.67
 -10  -4   0  268.74   76.47
 -10  -4   0  170.67   63.35
 -10  -4   0  199.89   25.53
  10   4   1   22.62   73.26
 -10  -4  -1   91.68   37.41
 -10  -4  -1   82.59   30.01
 -10  -4  -1  167.34   55.13
  10   4   2  149.17   95.08
 -10  -4  -2   76.98   36.12
 -10  -4  -2  120.84   66.26
  10   4   3   49.62   36.23
 -10  -4  -3  255.35   31.92
 -10  -4  -3  305.68   30.99
 -10  -4  -3  366.72   37.57
  10   4   4  224.51   44.76
 -10  -4  -4  281.14   33.05
 -10  -4  -4  504.54   75.82
  10   4   5  203.84   69.02
 -10  -4  -5  412.99   36.13
 -10  -4  -6  450.21   38.58
  10   4   7  133.74   26.40
 -10  -4  -7  274.36   41.70
 -10  -4  -7  286.34   44.91
  10   4   8  287.13   58.25
 -10  -4  -8  353.39   48.02
 -10  -4  -8  495.56   94.66
  10   4   9  156.69   32.47
 -10  -4  -9  288.04   44.92
 -10  -4  -9  385.15   99.09
  10   4  10  211.84   75.06
 -10  -4 -10  348.64   52.33
 -10  -5   2  272.57   40.44
 -10  -5   2  123.43   32.77
 -10  -5   2  212.38   29.64
 -10  -5   1  179.58   35.19
 -10  -5   1  193.49   27.79
 -10  -5   1  265.85   73.24
 -10  -5   0  145.12   42.23
 -10  -5   0  183.88   72.63
 -10  -5   0   70.75   47.30
  10   5   1  109.62   95.80
 -10  -5  -1  196.94   78.75
 -10  -5  -1   51.67   57.26
 -10  -5  -1   41.42   30.55
  10   5   2   85.53   89.03
 -10  -5  -2   84.16   36.04
 -10  -5  -2   79.90   66.32
  10   5   3   48.46   38.45
 -10  -5  -3  150.14   31.75
 -10  -5  -3  303.71   78.97
  10   5   4  258.03   72.09
 -10  -5  -4  290.22   33.77
  10   5   5  419.16   45.82
 -10  -5  -5  634.98   40.95
 -10  -5  -5  453.13   36.18
  10   5   6  334.10   83.40
 -10  -5  -6  252.22   46.66
 -10  -5  -6  132.89   36.08
  10   5   7   95.84   29.96
 -10  -5  -7  157.08   51.23
 -10  -5  -7  141.16   43.62
  10   5   8  253.72   65.17
 -10  -5  -8  160.97   40.78
  10   5   9  250.32   65.33
 -10  -5  -9  262.50   42.37
 -10  -5  -9  372.92   95.19
  10   5  10  185.58   78.75
 -10  -5 -10  219.84   42.45
 -10  -5 -10  272.75   50.09
 -10  -6   2  335.74   42.70
 -10  -6   2  360.65   76.85
 -10  -6   1  290.01   44.10
 -10  -6   1  229.55   66.27
 -10  -6   0  352.03   38.45
 -10  -6   0  219.53   30.43
  10   6   1   30.54   21.59
 -10  -6  -1  160.63   43.13
 -10  -6  -1   32.27   28.45
  10   6   2   46.07   36.17
 -10  -6  -2   64.13   29.58
  10   6   3   92.30   38.30
 -10  -6  -3  191.49   28.58
  10   6   4  241.33   37.31
 -10  -6  -4  584.50   43.52
 -10  -6  -4  407.29   31.40
 -10  -6  -5  236.19   43.82
 -10  -6  -5  147.90   30.78
  10   6   6  142.21   41.76
 -10  -6  -6  145.98   36.61
 -10  -6  -6  321.16  108.50
  10   6   7   70.17   28.04
 -10  -6  -7  135.47   50.66
 -10  -6  -7   17.45   33.06
 -10  -6  -8  339.05   52.68
 -10  -6  -8  204.72   35.93
  10   6   9  138.76   35.17
 -10  -6  -9  416.21  102.75
 -10  -6  -9  369.14   97.52
 -10  -7   1  179.19   35.07
 -10  -7   1  407.91  100.12
 -10  -7   0  247.07   50.29
 -10  -7   0   59.24   26.37
 -10  -7  -1   46.93   40.94
 -10  -7  -1  101.24   62.11
  10   7   2   72.18   53.09
 -10  -7  -2  259.59   43.39
 -10  -7  -2  175.26   33.65
  10   7   3   52.76   29.97
 -10  -7  -3  530.44   47.36
 -10  -7  -3  384.27   35.91
  10   7   4   97.74   30.60
 -10  -7  -4  414.87   48.14
  10   7   5  557.56  342.18
  10   7   5  374.16   72.78
 -10  -7  -5  322.87   48.62
  10   7   6  449.31  340.20
  10   7   6  498.68   95.45
 -10  -7  -6  481.45   62.18
  10   7   7  380.65  337.28
  10   7   7  166.10   57.58
 -10  -7  -7   94.89   51.53
  10   7   8  167.98   36.26
 -10  -7  -8  216.80   50.79
  10   7   9  167.90   38.51
 -10  -7  -9  336.13   53.86
 -10  -7  -9  391.84  112.95
 -10  -8   0  153.07   37.47
 -10  -8   0  199.28  101.29
  10   8   1  -20.05  286.98
 -10  -8  -1  105.94   53.98
  10   8   2  310.30  331.06
 -10  -8  -2  145.97   54.33
  10   8   3    9.95   38.57
 -10  -8  -3  417.91   52.75
  10   8   4  135.50   39.12
  10   8   4    3.37   21.84
  10   8   5  149.07   41.88
 -10  -8  -5  187.31  103.81
  10   8   6  158.55   41.08
  10   8   6  280.51   57.78
 -10  -8  -6  237.00   53.96
  10   8   7  249.15   50.75
  10   8   7  126.45   27.94
 -10  -8  -7  279.03   53.81
  10   8   8   41.44   43.36
  10   8   8  270.86   68.29
 -10  -8  -8  405.77   51.16
  10   9   2  199.60   84.37
 -10  -9  -2  359.77   59.81
  10   9   3   12.38   44.25
 -10  -9  -3  369.70   59.33
  10   9   4  226.57   50.51
 -10  -9  -4  202.08   48.66
 -10  -9  -5  207.14  105.00
  11   1   3   85.64  125.62
 -11  -1  -3  155.69   91.79
 -11  -1  -3  269.40   83.09
  11   1   4   86.47   68.62
 -11  -1  -4   78.27   46.14
 -11  -1  -4  151.58   38.76
  11   1   5  266.61  148.28
 -11  -1  -5  125.56   46.24
 -11  -1  -5  163.48   41.44
 -11  -1  -5  121.66   39.18
  11   2   2  239.41  174.75
 -11  -2  -2  177.12   46.27
 -11  -2  -2   44.77   36.44
 -11  -2  -2   49.58   37.51
  11   2   3  105.00   68.38
 -11  -2  -3   23.11   37.30
 -11  -2  -3  117.19   88.18
 -11  -2  -3  142.85   76.18
  11   2   4   96.91   57.72
 -11  -2  -4   58.22   35.82
 -11  -2  -4   -0.79   41.03
  11   2   5  130.72  141.00
 -11  -2  -5  128.28   42.26
 -11  -2  -5  141.19   38.27
 -11  -2  -5  141.79   37.03
  11   2   6   93.81   60.25
 -11  -2  -6  287.25   45.04
 -11  -2  -6  300.75   41.87
 -11  -2  -6  273.22   68.04
  11   2   7  113.10   44.75
 -11  -2  -7   62.60   31.37
 -11  -2  -7   71.15   44.92
  11   3   1   99.83   83.74
 -11  -3  -1   82.74   32.94
 -11  -3  -1  150.60   74.91
 -11  -3  -1  195.75   45.67
  11   3   2   70.16   51.42
 -11  -3  -2   90.17   35.18
 -11  -3  -2  146.54   77.81
 -11  -3  -2  142.69   65.25
  11   3   3   61.50   51.80
 -11  -3  -3   73.22   35.22
 -11  -3  -3  211.72   75.97
 -11  -3  -3  133.21   69.47
  11   3   4  115.42  104.18
 -11  -3  -4  122.71   38.67
 -11  -3  -4   96.49   34.93
 -11  -3  -4  155.74   46.52
  11   3   5  189.94   84.70
 -11  -3  -5   78.64   39.59
 -11  -3  -5  115.90   36.75
 -11  -3  -5  124.82   38.82
  11   3   6  251.96   53.04
 -11  -3  -6  450.34   40.80
 -11  -3  -6  428.68   42.99
  11   3   7  116.18   62.12
 -11  -3  -7  139.76   38.66
 -11  -3  -7  218.06   51.33
 -11  -3  -8  169.32   83.93
 -11  -3  -8  326.95  100.93
  11   4   1   98.28   74.77
 -11  -4  -1   87.38   32.49
 -11  -4  -1  153.37   88.49
 -11  -4  -1  128.40   43.16
  11   4   2   34.19   44.22
 -11  -4  -2    4.38   36.37
 -11  -4  -2   36.30   29.54
 -11  -4  -2    3.94   80.01
  11   4   3   60.66   54.62
 -11  -4  -3  104.21   37.40
 -11  -4  -3  102.77   33.98
 -11  -4  -3  220.37   88.14
  11   4   4  115.44   52.45
 -11  -4  -4  542.53   83.44
 -11  -4  -4  353.89   75.54
  11   4   5  201.92   66.99
 -11  -4  -5  407.14   41.43
 -11  -4  -5  262.00   38.49
  11   4   6  434.60  140.33
 -11  -4  -6  377.33   42.08
 -11  -4  -6  353.34   40.18
  11   4   7  159.20   46.29
 -11  -4  -7  186.86   44.64
 -11  -4  -7  220.76   49.25
  11   4   8   58.86   30.80
 -11  -4  -8  100.03   46.71
 -11  -4  -8   88.37   96.79
  11   5   1   31.06   29.63
 -11  -5  -1   78.16   40.51
 -11  -5  -1   83.31   35.72
 -11  -5  -1  109.24   84.82
  11   5   2   44.30   41.46
 -11  -5  -2   90.46   42.32
 -11  -5  -2   59.35   35.35
 -11  -5  -2   93.91   43.97
  11   5   3   50.38   51.21
 -11  -5  -3  135.91   47.39
 -11  -5  -3  152.34   42.35
  11   5   4  139.75  100.52
 -11  -5  -4  456.51   98.29
 -11  -5  -4  191.73   76.76
  11   5   5   84.19   87.14
 -11  -5  -5  276.12   86.63
  11   5   6  182.39   88.50
 -11  -5  -6  345.70   43.86
 -11  -5  -6  287.51   42.47
 -11  -5  -7   83.15   41.98
 -11  -5  -7  286.86  100.10
  11   5   8  129.14   31.09
 -11  -5  -8   49.42   48.03
 -11  -5  -8  296.30  113.15
  11   6   1   66.71   59.27
 -11  -6  -1  183.02   35.59
 -11  -6  -1  250.05   84.19
  11   6   2  118.28  106.26
 -11  -6  -2   55.53   75.44
  11   6   3   49.74   43.93
 -11  -6  -3   -4.28   36.65
  11   6   4   62.63   96.12
 -11  -6  -4   71.58   38.46
  11   6   5   23.85   35.74
 -11  -6  -5  135.08   40.59
  11   6   6  183.90   69.07
 -11  -6  -6  167.51   47.49
 -11  -6  -6  111.07   42.30
  11   6   7  188.73   36.74
 -11  -6  -7  160.68   54.54
 -11  -6  -7  136.54   43.83
 -11  -7  -2  173.96   52.28
 -11  -7  -2  131.58   40.67
  11   7   3   77.67   75.02
 -11  -7  -3  119.43   48.27
  11   7   4   66.60   86.51
 -11  -7  -4  292.56   50.82
 -11  -7  -4  221.08   35.14
  11   7   5  140.80   45.68
 -11  -7  -5  351.22   53.97
 -11  -7  -5  195.08   37.08
  11   7   6  129.79   59.63
 -11  -7  -6  258.03   70.70
 -11  -7  -6   85.40   37.44
;
loop_
_symmetry_equiv_pos_site_id
_space_group_symop_operation_xyz
1 +X,+Y,+Z
loop_
_atom_site_label
_atom_site_type_symbol
_atom_site_fract_x
_atom_site_fract_y
_atom_site_fract_z
_atom_site_U_iso_or_equiv
_atom_site_adp_type
_atom_site_occupancy
_atom_site_site_symmetry_multiplicity
_atom_site_calc_flag
_atom_site_refinement_flags
Nb1 Nb 0.84892(5) 0.33324(5) 0.21996(5) 0.0120(2) Uani 1 1 d .
Cl1 Cl 0.8993(4) 0.2204(3) 0.0197(3) 0.0234(6) Uani 1 1 d .
Cl2 Cl 0.9942(4) 0.0689(3) 0.2887(3) 0.0207(6) Uani 1 1 d .
Cl3 Cl 0.5962(4) 0.3256(3) 0.3741(3) 0.0223(5) Uani 1 1 d .
Cl4 Cl 0.6790(4) 0.5815(3) 0.1464(3) 0.0235(7) Uani 1 1 d .
N1 N 1.0805(10) 0.3947(9) 0.1318(8) 0.0119(15) Uani 1 1 d .
N2 N 0.8851(10) 0.4556(9) 0.3716(8) 0.0118(15) Uani 1 1 d .
C1 C 1.1224(14) 0.4714(12) 0.2036(11) 0.017(2) Uani 1 1 d .
C2 C 1.0129(14) 0.5069(12) 0.3383(11) 0.018(2) Uani 1 1 d .
C3 C 1.2769(14) 0.5211(14) 0.1585(11) 0.022(2) Uani 1 1 d .
C4 C 1.0488(16) 0.5977(14) 0.4264(11) 0.025(2) Uani 1 1 d .
C5 C 1.1893(13) 0.3582(11) -0.0047(9) 0.0136(18) Uani 1 1 d .
C6 C 1.1580(13) 0.4758(12) -0.1033(10) 0.0145(18) Uani 1 1 d .
C7 C 1.2686(14) 0.4335(13) -0.2318(11) 0.019(2) Uani 1 1 d .
C8 C 1.3991(14) 0.2870(13) -0.2607(11) 0.022(2) Uani 1 1 d .
C9 C 1.4259(13) 0.1766(13) -0.1618(11) 0.021(2) Uani 1 1 d .
C10 C 1.3270(13) 0.2090(12) -0.0317(10) 0.017(2) Uani 1 1 d .
C11 C 1.0206(14) 0.6423(12) -0.0766(11) 0.019(2) Uani 1 1 d .
C12 C 1.0976(16) 0.7756(13) -0.1067(13) 0.027(2) Uani 1 1 d .
C13 C 0.8971(16) 0.6709(14) -0.1587(12) 0.026(2) Uani 1 1 d .
C14 C 1.3736(14) 0.0851(12) 0.0719(11) 0.019(2) Uani 1 1 d .
C15 C 1.5461(16) 0.0632(13) 0.0861(12) 0.026(2) Uani 1 1 d .
C16 C 1.3652(15) -0.0764(12) 0.0434(12) 0.025(2) Uani 1 1 d .
C17 C 0.7763(14) 0.4884(12) 0.5082(10) 0.016(2) Uani 1 1 d .
C18 C 0.6403(14) 0.6375(13) 0.5399(11) 0.021(2) Uani 1 1 d .
C19 C 0.5450(15) 0.6705(13) 0.6724(11) 0.023(2) Uani 1 1 d .
C20 C 0.5856(15) 0.5582(14) 0.7706(11) 0.026(2) Uani 1 1 d .
C21 C 0.7143(14) 0.4125(14) 0.7374(10) 0.022(2) Uani 1 1 d .
C22 C 0.8174(13) 0.3725(13) 0.6063(10) 0.0162(19) Uani 1 1 d .
C23 C 0.5904(16) 0.7666(12) 0.4395(12) 0.025(2) Uani 1 1 d .
C24 C 0.604(2) 0.9252(14) 0.4657(15) 0.039(3) Uani 1 1 d .
C25 C 0.4124(15) 0.7924(13) 0.4331(12) 0.028(2) Uani 1 1 d .
C26 C 0.9662(14) 0.2132(13) 0.5770(10) 0.020(2) Uani 1 1 d .
C27 C 1.1020(18) 0.2124(16) 0.6361(13) 0.035(3) Uani 1 1 d .
C28 C 0.9067(17) 0.0712(14) 0.6271(13) 0.029(3) Uani 1 1 d .
H3A H 1.34042 0.4863 0.06745 0.0262 Uiso 1 1 calc R
H3B H 1.34996 0.47013 0.21481 0.0262 Uiso 1 1 calc R
H3C H 1.23966 0.63869 0.16425 0.0262 Uiso 1 1 calc R
H4A H 0.95939 0.61817 0.5109 0.0298 Uiso 1 1 calc R
H4B H 1.05193 0.70073 0.38557 0.0298 Uiso 1 1 calc R
H4C H 1.15871 0.53376 0.44058 0.0298 Uiso 1 1 calc R
H7 H 1.25189 0.50919 -0.30056 0.0228 Uiso 1 1 calc R
H8 H 1.47064 0.26175 -0.34833 0.0260 Uiso 1 1 calc R
H9 H 1.51522 0.07454 -0.18335 0.0247 Uiso 1 1 calc R
H11 H 0.95431 0.64935 0.01851 0.0229 Uiso 1 1 calc R
H12A H 1.1519 0.77878 -0.20138 0.0324 Uiso 1 1 calc R
H12B H 1.18227 0.75208 -0.06024 0.0324 Uiso 1 1 calc R
H12C H 1.00741 0.88028 -0.07755 0.0324 Uiso 1 1 calc R
H13A H 0.84657 0.58762 -0.13771 0.0314 Uiso 1 1 calc R
H13B H 0.95969 0.66544 -0.25242 0.0314 Uiso 1 1 calc R
H13C H 0.80708 0.77752 -0.1379 0.0314 Uiso 1 1 calc R
H14 H 1.28616 0.12662 0.15772 0.0232 Uiso 1 1 calc R
H15A H 1.54163 0.16527 0.11423 0.0311 Uiso 1 1 calc R
H15B H 1.63378 0.03044 0.00143 0.0311 Uiso 1 1 calc R
H15C H 1.57317 -0.02029 0.15162 0.0311 Uiso 1 1 calc R
H16A H 1.4667 -0.13401 -0.02716 0.0296 Uiso 1 1 calc R
H16B H 1.26382 -0.05475 0.01646 0.0296 Uiso 1 1 calc R
H16C H 1.35974 -0.14285 0.12281 0.0296 Uiso 1 1 calc R
H19 H 0.452 0.76992 0.69582 0.0272 Uiso 1 1 calc R
H20 H 0.52335 0.58376 0.86022 0.0308 Uiso 1 1 calc R
H21 H 0.73554 0.33538 0.80446 0.0259 Uiso 1 1 calc R
H23 H 0.67253 0.72587 0.35154 0.0296 Uiso 1 1 calc R
H24A H 0.70829 0.90123 0.48916 0.0472 Uiso 1 1 calc R
H24B H 0.50563 0.9833 0.53811 0.0472 Uiso 1 1 calc R
H24C H 0.60699 0.99206 0.38656 0.0472 Uiso 1 1 calc R
H25A H 0.32768 0.83899 0.5162 0.0341 Uiso 1 1 calc R
H25B H 0.40797 0.68861 0.41809 0.0341 Uiso 1 1 calc R
H25C H 0.38818 0.8662 0.36107 0.0341 Uiso 1 1 calc R
H26 H 1.0175 0.20224 0.4796 0.0235 Uiso 1 1 calc R
H27A H 1.0548 0.22169 0.73179 0.0423 Uiso 1 1 calc R
H27B H 1.13777 0.30366 0.60127 0.0423 Uiso 1 1 calc R
H27C H 1.20003 0.11118 0.61284 0.0423 Uiso 1 1 calc R
H28A H 0.82037 0.07559 0.58744 0.0351 Uiso 1 1 calc R
H28B H 0.85828 0.07812 0.72278 0.0351 Uiso 1 1 calc R
H28C H 1.00362 -0.03064 0.60293 0.0351 Uiso 1 1 calc R
loop_
_atom_site_aniso_label
_atom_site_aniso_U_11
_atom_site_aniso_U_22
_atom_site_aniso_U_33
_atom_site_aniso_U_12
_atom_site_aniso_U_13
_atom_site_aniso_U_23
Nb1 0.0146(4) 0.0119(4) 0.0110(4) -0.0066(3) -0.0040(3) 0.0012(3)
Cl1 0.0332(15) 0.0261(13) 0.0143(14) -0.0135(12) -0.0078(12) -0.0013(10)
Cl2 0.0266(15) 0.0160(12) 0.0203(14) -0.0083(11) -0.0084(11) 0.0031(10)
Cl3 0.0275(14) 0.0229(13) 0.0148(13) -0.0124(11) -0.0010(11) 0.0021(10)
Cl4 0.0189(14) 0.0215(14) 0.0257(16) -0.0043(11) -0.0071(12) 0.0067(11)
N1 0.014(4) 0.012(4) 0.008(4) -0.006(3) -0.002(3) 0.002(3)
N2 0.008(4) 0.014(4) 0.011(4) -0.006(3) 0.003(3) -0.001(3)
C1 0.020(5) 0.014(4) 0.020(5) -0.010(4) -0.007(4) -0.000(4)
C2 0.025(6) 0.017(5) 0.016(5) -0.010(4) -0.007(4) 0.002(4)
C3 0.023(6) 0.034(6) 0.015(5) -0.021(5) -0.001(4) 0.000(4)
C4 0.029(6) 0.038(6) 0.016(5) -0.020(5) -0.004(5) -0.009(4)
C5 0.018(5) 0.017(4) 0.008(5) -0.009(4) -0.003(4) -0.001(3)
C6 0.014(5) 0.020(5) 0.012(5) -0.010(4) -0.003(4) 0.000(4)
C7 0.023(5) 0.026(5) 0.012(5) -0.013(4) -0.005(4) 0.000(4)
C8 0.021(5) 0.033(6) 0.017(6) -0.018(5) -0.002(4) -0.004(4)
C9 0.012(5) 0.025(5) 0.024(6) -0.006(4) -0.000(4) -0.009(4)
C10 0.017(5) 0.016(4) 0.020(5) -0.007(4) -0.006(4) -0.002(4)
C11 0.021(5) 0.020(5) 0.016(5) -0.005(4) -0.006(4) -0.001(4)
C12 0.029(6) 0.016(5) 0.036(7) -0.007(5) -0.011(5) -0.002(5)
C13 0.027(6) 0.028(6) 0.019(6) -0.004(5) -0.009(5) 0.003(4)
C14 0.016(5) 0.018(5) 0.022(6) -0.004(4) -0.005(4) 0.002(4)
C15 0.027(6) 0.022(5) 0.029(7) -0.007(5) -0.012(5) 0.001(4)
C16 0.028(6) 0.015(5) 0.029(6) -0.010(4) -0.004(5) 0.001(4)
C17 0.023(5) 0.022(5) 0.012(5) -0.015(4) -0.007(4) 0.003(4)
C18 0.020(5) 0.024(5) 0.025(6) -0.013(4) -0.009(4) -0.003(4)
C19 0.020(5) 0.021(5) 0.024(6) -0.004(4) -0.002(4) -0.010(4)
C20 0.032(7) 0.039(7) 0.012(5) -0.023(5) 0.001(5) -0.008(4)
C21 0.018(5) 0.044(6) 0.010(5) -0.021(5) -0.002(4) 0.002(4)
C22 0.011(5) 0.029(5) 0.010(5) -0.012(4) 0.003(4) -0.008(4)
C23 0.030(6) 0.015(5) 0.023(6) -0.007(4) -0.000(5) -0.005(4)
C24 0.062(10) 0.016(5) 0.039(8) -0.015(6) -0.012(7) 0.001(5)
C25 0.025(6) 0.020(5) 0.032(7) -0.000(5) -0.006(5) -0.002(4)
C26 0.020(5) 0.027(5) 0.010(5) -0.010(4) -0.003(4) 0.001(4)
C27 0.039(8) 0.035(7) 0.028(7) -0.003(6) -0.015(6) -0.007(5)
C28 0.040(7) 0.024(5) 0.025(6) -0.013(5) -0.013(5) 0.007(4)
loop_
_atom_type_symbol
_atom_type_description
_atom_type_scat_dispersion_real
_atom_type_scat_dispersion_imag
_atom_type_scat_source
Nb Nb -2.0727 0.6215
;
International Tables for Crystallography
(Vol. C, Tables 4.2.6.8 and 6.1.1.4)
;
N N 0.0061 0.0033
;
International Tables for Crystallography
(Vol. C, Tables 4.2.6.8 and 6.1.1.4)
;
Cl Cl 0.1484 0.1585
;
International Tables for Crystallography
(Vol. C, Tables 4.2.6.8 and 6.1.1.4)
;
C C 0.0033 0.0016
;
International Tables for Crystallography
(Vol. C, Tables 4.2.6.8 and 6.1.1.4)
;
H H 0.0000 0.0000
;
International Tables for Crystallography
(Vol. C, Table 6.1.1.4)
;
loop_
_geom_angle_atom_site_label_1
_geom_angle_atom_site_label_2
_geom_angle_atom_site_label_3
_geom_angle
_geom_angle_publ_flag
Cl1 Nb1 Cl2 87.79(10) yes
Cl1 Nb1 Cl3 111.96(12) yes
Cl1 Nb1 Cl4 88.01(10) yes
Cl1 Nb1 N1 88.6(3) yes
Cl1 Nb1 N2 159.6(2) yes
Cl2 Nb1 Cl3 88.57(9) yes
Cl2 Nb1 Cl4 172.21(14) yes
Cl2 Nb1 N1 95.4(2) yes
Cl2 Nb1 N2 93.6(2) yes
Cl3 Nb1 Cl4 86.92(9) yes
Cl3 Nb1 N1 159.2(2) yes
Cl3 Nb1 N2 88.4(2) yes
Cl4 Nb1 N1 91.0(2) yes
Cl4 Nb1 N2 92.7(2) yes
N1 Nb1 N2 71.1(3) yes
Nb1 N1 C1 118.8(6) yes
Nb1 N1 C5 124.2(8) yes
C1 N1 C5 117.0(10) yes
Nb1 N2 C2 118.8(7) yes
Nb1 N2 C17 126.0(8) yes
C2 N2 C17 115.2(10) yes
N1 C1 C2 116.2(11) yes
N1 C1 C3 125.3(9) yes
C2 C1 C3 118.5(12) yes
N2 C2 C1 115.1(12) yes
N2 C2 C4 125.1(9) yes
C1 C2 C4 119.8(11) yes
N1 C5 C6 119.3(7) yes
N1 C5 C10 118.4(8) yes
C6 C5 C10 122.2(8) yes
C5 C6 C7 116.4(8) yes
C5 C6 C11 123.9(8) yes
C7 C6 C11 119.7(9) yes
C6 C7 C8 122.2(10) yes
C7 C8 C9 119.6(9) yes
C8 C9 C10 122.4(9) yes
C5 C10 C9 117.1(9) yes
C5 C10 C14 124.1(8) yes
C9 C10 C14 118.7(8) yes
C6 C11 C12 111.3(9) yes
C6 C11 C13 110.7(10) yes
C12 C11 C13 109.8(10) yes
C10 C14 C15 112.0(10) yes
C10 C14 C16 110.4(11) yes
C15 C14 C16 112.1(8) yes
N2 C17 C18 119.3(9) yes
N2 C17 C22 118.9(7) yes
C18 C17 C22 121.7(9) yes
C17 C18 C19 118.2(10) yes
C17 C18 C23 124.1(9) yes
C19 C18 C23 117.7(8) yes
C18 C19 C20 120.8(9) yes
C19 C20 C21 120.0(10) yes
C20 C21 C22 122.2(10) yes
C17 C22 C21 117.1(8) yes
C17 C22 C26 123.4(8) yes
C21 C22 C26 119.6(9) yes
C18 C23 C24 111.8(12) yes
C18 C23 C25 110.7(10) yes
C24 C23 C25 111.9(10) yes
C22 C26 C27 110.1(11) yes
C22 C26 C28 110.7(9) yes
C27 C26 C28 111.7(10) yes
C1 C3 H3A 109.469 no
C1 C3 H3B 109.467 no
C1 C3 H3C 109.468 no
H3A C3 H3B 109.470 no
H3A C3 H3C 109.473 no
H3B C3 H3C 109.481 no
C2 C4 H4A 109.472 no
C2 C4 H4B 109.469 no
C2 C4 H4C 109.473 no
H4A C4 H4B 109.468 no
H4A C4 H4C 109.471 no
H4B C4 H4C 109.475 no
C6 C7 H7 118.883 no
C8 C7 H7 118.891 no
C7 C8 H8 120.221 no
C9 C8 H8 120.222 no
C8 C9 H9 118.795 no
C10 C9 H9 118.794 no
C6 C11 H11 108.303 no
C12 C11 H11 108.309 no
C13 C11 H11 108.310 no
C11 C12 H12A 109.469 no
C11 C12 H12B 109.466 no
C11 C12 H12C 109.470 no
H12A C12 H12B 109.476 no
H12A C12 H12C 109.472 no
H12B C12 H12C 109.474 no
C11 C13 H13A 109.475 no
C11 C13 H13B 109.472 no
C11 C13 H13C 109.472 no
H13A C13 H13B 109.468 no
H13A C13 H13C 109.468 no
H13B C13 H13C 109.472 no
C10 C14 H14 107.340 no
C15 C14 H14 107.339 no
C16 C14 H14 107.343 no
C14 C15 H15A 109.471 no
C14 C15 H15B 109.472 no
C14 C15 H15C 109.472 no
H15A C15 H15B 109.474 no
H15A C15 H15C 109.468 no
H15B C15 H15C 109.471 no
C14 C16 H16A 109.464 no
C14 C16 H16B 109.472 no
C14 C16 H16C 109.472 no
H16A C16 H16B 109.478 no
H16A C16 H16C 109.469 no
H16B C16 H16C 109.471 no
C18 C19 H19 119.614 no
C20 C19 H19 119.614 no
C19 C20 H20 119.998 no
C21 C20 H20 120.001 no
C20 C21 H21 118.916 no
C22 C21 H21 118.923 no
C18 C23 H23 107.370 no
C24 C23 H23 107.374 no
C25 C23 H23 107.369 no
C23 C24 H24A 109.472 no
C23 C24 H24B 109.472 no
C23 C24 H24C 109.465 no
H24A C24 H24B 109.472 no
H24A C24 H24C 109.476 no
H24B C24 H24C 109.469 no
C23 C25 H25A 109.471 no
C23 C25 H25B 109.472 no
C23 C25 H25C 109.466 no
H25A C25 H25B 109.474 no
H25A C25 H25C 109.468 no
H25B C25 H25C 109.477 no
C22 C26 H26 108.053 no
C27 C26 H26 108.050 no
C28 C26 H26 108.049 no
C26 C27 H27A 109.468 no
C26 C27 H27B 109.472 no
C26 C27 H27C 109.470 no
H27A C27 H27B 109.472 no
H27A C27 H27C 109.471 no
H27B C27 H27C 109.474 no
C26 C28 H28A 109.472 no
C26 C28 H28B 109.466 no
C26 C28 H28C 109.469 no
H28A C28 H28B 109.471 no
H28A C28 H28C 109.474 no
H28B C28 H28C 109.475 no
loop_
_geom_bond_atom_site_label_1
_geom_bond_atom_site_label_2
_geom_bond_distance
_geom_bond_publ_flag
Nb1 Cl1 2.326(3) yes
Nb1 Cl2 2.386(3) yes
Nb1 Cl3 2.354(3) yes
Nb1 Cl4 2.378(3) yes
Nb1 N1 2.228(9) yes
Nb1 N2 2.235(10) yes
N1 C1 1.309(17) yes
N1 C5 1.472(12) yes
N2 C2 1.318(17) yes
N2 C17 1.470(12) yes
C1 C2 1.457(14) yes
C1 C3 1.524(19) yes
C2 C4 1.50(2) yes
C5 C6 1.418(14) yes
C5 C10 1.413(12) yes
C6 C7 1.413(13) yes
C6 C11 1.516(12) yes
C7 C8 1.371(13) yes
C8 C9 1.378(16) yes
C9 C10 1.390(14) yes
C10 C14 1.515(15) yes
C11 C12 1.546(19) yes
C11 C13 1.55(2) yes
C14 C15 1.53(2) yes
C14 C16 1.548(18) yes
C17 C18 1.409(13) yes
C17 C22 1.422(14) yes
C18 C19 1.405(15) yes
C18 C23 1.523(16) yes
C19 C20 1.405(16) yes
C20 C21 1.363(14) yes
C21 C22 1.415(13) yes
C22 C26 1.516(13) yes
C23 C24 1.54(2) yes
C23 C25 1.54(2) yes
C26 C27 1.53(2) yes
C26 C28 1.535(19) yes
C3 H3A 0.980 no
C3 H3B 0.980 no
C3 H3C 0.980 no
C4 H4A 0.980 no
C4 H4B 0.980 no
C4 H4C 0.980 no
C7 H7 0.950 no
C8 H8 0.950 no
C9 H9 0.950 no
C11 H11 1.000 no
C12 H12A 0.980 no
C12 H12B 0.980 no
C12 H12C 0.980 no
C13 H13A 0.980 no
C13 H13B 0.980 no
C13 H13C 0.980 no
C14 H14 1.000 no
C15 H15A 0.980 no
C15 H15B 0.980 no
C15 H15C 0.980 no
C16 H16A 0.980 no
C16 H16B 0.980 no
C16 H16C 0.980 no
C19 H19 0.950 no
C20 H20 0.950 no
C21 H21 0.950 no
C23 H23 1.000 no
C24 H24A 0.980 no
C24 H24B 0.980 no
C24 H24C 0.980 no
C25 H25A 0.980 no
C25 H25B 0.980 no
C25 H25C 0.980 no
C26 H26 1.000 no
C27 H27A 0.980 no
C27 H27B 0.980 no
C27 H27C 0.980 no
C28 H28A 0.980 no
C28 H28B 0.980 no
C28 H28C 0.980 no
loop_
_geom_contact_atom_site_label_1
_geom_contact_atom_site_label_2
_geom_contact_distance
_geom_contact_publ_flag
_geom_contact_site_symmetry_2
Cl1 C5 3.195(13) no .
Cl2 C14 3.488(11) no .
Cl2 C16 3.401(11) no .
Cl2 C26 3.399(13) no .
Cl2 C28 3.470(14) no .
Cl3 C17 3.249(15) no .
Cl4 C11 3.408(11) no .
Cl4 C13 3.416(12) no .
Cl4 C23 3.458(13) no .
Cl4 C25 3.466(11) no .
N1 C11 2.985(13) no .
N1 C14 2.963(11) no .
N2 C23 2.983(11) no .
N2 C26 2.967(13) no .
C1 C6 3.210(16) no .
C1 C10 3.234(14) no .
C1 C11 3.442(16) no .
C1 C14 3.499(13) no .
C2 C18 3.188(14) no .
C2 C22 3.218(14) no .
C2 C23 3.482(14) no .
C2 C26 3.497(15) no .
C3 C4 2.928(14) no .
C3 C5 2.86(2) no .
C3 C6 3.424(19) no .
C3 C10 3.467(18) no .
C4 C17 2.81(2) no .
C4 C18 3.344(18) no .
C4 C22 3.430(18) no .
C5 C8 2.776(14) no .
C6 C9 2.804(12) no .
C7 C10 2.800(15) no .
C7 C12 3.105(15) no .
C7 C13 3.082(15) no .
C9 C15 3.105(19) no .
C9 C16 3.046(16) no .
C17 C20 2.791(14) no .
C17 C27 3.568(18) no .
C18 C21 2.807(16) no .
C19 C22 2.821(13) no .
C19 C24 3.063(18) no .
C19 C25 3.083(19) no .
C21 C27 3.116(16) no .
C21 C28 3.045(16) no .
Cl3 C24 3.585(14) no 1_545
C7 C20 3.42(2) no 1_654
C7 C27 3.52(2) no 1_554
C8 C20 3.52(2) no 1_654
C8 C21 3.40(2) no 1_654
C8 C27 3.48(2) no 1_554
C20 C7 3.42(2) no 1_456
C20 C8 3.52(2) no 1_456
C21 C8 3.40(2) no 1_456
C24 Cl3 3.585(14) no 1_565
C27 C7 3.52(2) no 1_556
C27 C8 3.48(2) no 1_556
Nb1 H11 3.5858 no .
Nb1 H14 3.4977 no .
Nb1 H23 3.5208 no .
Nb1 H26 3.4638 no .
Cl1 H13A 3.4522 no .
Cl1 H16B 3.2419 no .
Cl2 H14 2.7467 no .
Cl2 H16B 3.1344 no .
Cl2 H16C 3.1305 no .
Cl2 H26 2.5940 no .
Cl2 H28A 3.0856 no .
Cl2 H28C 3.4103 no .
Cl3 H25B 3.0533 no .
Cl3 H28A 3.5481 no .
Cl4 H11 2.6592 no .
Cl4 H13A 2.9449 no .
Cl4 H13C 3.4276 no .
Cl4 H23 2.6607 no .
Cl4 H25B 3.1131 no .
Cl4 H25C 3.3323 no .
N1 H3A 2.6107 no .
N1 H3B 3.1278 no .
N1 H3C 3.1255 no .
N1 H11 2.4935 no .
N1 H14 2.4556 no .
N2 H4A 2.5862 no .
N2 H4B 3.1248 no .
N2 H4C 3.0952 no .
N2 H23 2.4806 no .
N2 H26 2.4709 no .
C1 H4A 3.3565 no .
C1 H4B 2.7618 no .
C1 H4C 2.8128 no .
C1 H11 2.8440 no .
C1 H14 2.8959 no .
C2 H3A 3.3671 no .
C2 H3B 2.7780 no .
C2 H3C 2.8038 no .
C2 H23 2.8903 no .
C2 H26 2.9540 no .
C2 H27B 3.4348 no .
C3 H4B 2.8151 no .
C3 H4C 2.8758 no .
C3 H11 3.4231 no .
C3 H12B 3.0515 no .
C3 H14 3.5032 no .
C3 H15A 3.1435 no .
C4 H3B 2.8426 no .
C4 H3C 2.8536 no .
C4 H23 3.4383 no .
C4 H24A 3.1505 no .
C4 H27B 3.0478 no .
C5 H3A 2.4070 no .
C5 H3B 3.5284 no .
C5 H3C 3.5041 no .
C5 H7 3.2677 no .
C5 H9 3.2516 no .
C5 H11 2.6315 no .
C5 H12B 3.4876 no .
C5 H13A 3.5977 no .
C5 H14 2.6153 no .
C5 H15A 3.5244 no .
C5 H16B 3.4926 no .
C6 H3A 2.8459 no .
C6 H8 3.2918 no .
C6 H12A 2.7796 no .
C6 H12B 2.6704 no .
C6 H12C 3.3629 no .
C6 H13A 2.7048 no .
C6 H13B 2.7330 no .
C6 H13C 3.3647 no .
C7 H3A 3.5918 no .
C7 H9 3.2263 no .
C7 H11 3.3373 no .
C7 H12A 2.8861 no .
C7 H12B 3.2879 no .
C7 H13A 3.3250 no .
C7 H13B 2.8089 no .
C9 H7 3.2281 no .
C9 H14 3.2987 no .
C9 H15A 3.4199 no .
C9 H15B 2.8152 no .
C9 H16A 2.9287 no .
C9 H16B 3.1019 no .
C10 H3A 2.8735 no .
C10 H8 3.2778 no .
C10 H15A 2.7366 no .
C10 H15B 2.7090 no .
C10 H15C 3.3624 no .
C10 H16A 2.8435 no .
C10 H16B 2.5887 no .
C10 H16C 3.3382 no .
C11 H3A 3.4321 no .
C11 H7 2.6675 no .
C12 H3A 3.4768 no .
C12 H3C 3.4538 no .
C12 H7 2.9635 no .
C12 H13A 3.3823 no .
C12 H13B 2.7321 no .
C12 H13C 2.7118 no .
C13 H7 2.8984 no .
C13 H12A 2.6860 no .
C13 H12B 3.3824 no .
C13 H12C 2.7553 no .
C14 H3A 3.4872 no .
C14 H9 2.6250 no .
C15 H3A 3.5410 no .
C15 H9 2.9825 no .
C15 H16A 2.6673 no .
C15 H16B 3.3813 no .
C15 H16C 2.8397 no .
C16 H9 2.8410 no .
C16 H15A 3.3905 no .
C16 H15B 2.7956 no .
C16 H15C 2.6984 no .
C17 H4A 2.3454 no .
C17 H4B 3.5057 no .
C17 H4C 3.4256 no .
C17 H19 3.2758 no .
C17 H21 3.2801 no .
C17 H23 2.6206 no .
C17 H24A 3.5032 no .
C17 H25B 3.4788 no .
C17 H26 2.6207 no .
C17 H27B 3.4287 no .
C17 H28A 3.5936 no .
C18 H4A 2.7033 no .
C18 H20 3.2979 no .
C18 H24A 2.6108 no .
C18 H24B 2.8646 no .
C18 H24C 3.3527 no .
C18 H25A 2.7604 no .
C18 H25B 2.6632 no .
C18 H25C 3.3582 no .
C19 H4A 3.4181 no .
C19 H21 3.2511 no .
C19 H23 3.3100 no .
C19 H24A 3.1246 no .
C19 H24B 2.9447 no .
C19 H25A 2.8482 no .
C19 H25B 3.2982 no .
C21 H4A 3.5635 no .
C21 H19 3.2496 no .
C21 H26 3.3352 no .
C21 H27A 2.8488 no .
C21 H27B 3.3726 no .
C21 H28A 3.2575 no .
C21 H28B 2.7755 no .
C22 H4A 2.8727 no .
C22 H20 3.2859 no .
C22 H27A 2.7114 no .
C22 H27B 2.6693 no .
C22 H27C 3.3436 no .
C22 H28A 2.6800 no .
C22 H28B 2.7256 no .
C22 H28C 3.3509 no .
C23 H4A 3.3540 no .
C23 H19 2.6343 no .
C24 H4A 3.4483 no .
C24 H4B 3.5861 no .
C24 H19 2.8927 no .
C24 H25A 2.7322 no .
C24 H25B 3.3853 no .
C24 H25C 2.7487 no .
C25 H19 2.9312 no .
C25 H24A 3.3758 no .
C25 H24B 2.6510 no .
C25 H24C 2.8380 no .
C26 H4A 3.5937 no .
C26 H21 2.6688 no .
C27 H4C 3.4572 no .
C27 H21 3.0226 no .
C27 H28A 3.3794 no .
C27 H28B 2.7330 no .
C27 H28C 2.7330 no .
C28 H21 2.8340 no .
C28 H27A 2.7375 no .
C28 H27B 3.3794 no .
C28 H27C 2.7284 no .
H3A H11 3.3813 no .
H3A H12B 2.7298 no .
H3A H14 3.4201 no .
H3A H15A 2.8379 no .
H3B H4B 2.8834 no .
H3B H4C 2.4641 no .
H3B H14 3.4885 no .
H3B H15A 2.7422 no .
H3C H4B 2.4159 no .
H3C H4C 2.9520 no .
H3C H11 3.3584 no .
H3C H12B 2.6330 no .
H4A H23 3.3096 no .
H4A H24A 2.7164 no .
H4A H27B 2.8884 no .
H4B H23 3.4410 no .
H4B H24A 2.8241 no .
H4C H26 3.5764 no .
H4C H27B 2.5511 no .
H7 H8 2.3080 no .
H7 H12A 2.4757 no .
H7 H12B 3.3282 no .
H7 H13A 3.3099 no .
H7 H13B 2.3582 no .
H8 H9 2.3139 no .
H9 H14 3.5686 no .
H9 H15A 3.4927 no .
H9 H15B 2.4622 no .
H9 H16A 2.4294 no .
H9 H16B 3.0485 no .
H11 H12A 2.8777 no .
H11 H12B 2.4163 no .
H11 H12C 2.3440 no .
H11 H13A 2.3892 no .
H11 H13B 2.8854 no .
H11 H13C 2.3832 no .
H12A H13A 3.5916 no .
H12A H13B 2.5162 no .
H12A H13C 2.9355 no .
H12C H13B 3.0681 no .
H12C H13C 2.5687 no .
H14 H15A 2.3272 no .
H14 H15B 2.8583 no .
H14 H15C 2.3763 no .
H14 H16A 2.8623 no .
H14 H16B 2.4517 no .
H14 H16C 2.2913 no .
H14 H26 3.4934 no .
H15A H16A 3.5949 no .
H15B H16A 2.5606 no .
H15B H16C 3.2337 no .
H15C H16A 2.8290 no .
H15C H16C 2.6411 no .
H19 H20 2.3500 no .
H19 H23 3.5822 no .
H19 H24A 3.1189 no .
H19 H24B 2.4827 no .
H19 H25A 2.4305 no .
H19 H25B 3.3296 no .
H20 H21 2.2985 no .
H21 H27A 2.5150 no .
H21 H27B 3.4782 no .
H21 H28A 3.2021 no .
H21 H28B 2.2863 no .
H23 H24A 2.4480 no .
H23 H24B 2.8525 no .
H23 H24C 2.2760 no .
H23 H25A 2.8645 no .
H23 H25B 2.3790 no .
H23 H25C 2.3386 no .
H24A H25A 3.5639 no .
H24B H25A 2.4737 no .
H24B H25B 3.5591 no .
H24B H25C 2.8995 no .
H24C H25A 3.1557 no .
H24C H25C 2.6921 no .
H26 H27A 2.8683 no .
H26 H27B 2.3684 no .
H26 H27C 2.3612 no .
H26 H28A 2.3721 no .
H26 H28B 2.8684 no .
H26 H28C 2.3577 no .
H27A H28B 2.5672 no .
H27A H28C 3.0279 no .
H27C H28B 3.0142 no .
H27C H28C 2.5575 no .
Cl1 H12C 3.0299 no 1_545
Cl1 H15A 3.2353 no 1_455
Cl1 H15B 3.4621 no 1_455
Cl1 H21 3.0009 no 1_554
Cl1 H27A 2.9614 no 1_554
Cl2 H4B 3.2343 no 1_545
Cl2 H24A 3.4700 no 1_545
Cl2 H24C 3.5822 no 1_545
Cl2 H25C 3.5813 no 1_645
Cl3 H3B 3.0251 no 1_455
Cl3 H4C 3.4967 no 1_455
Cl3 H8 2.9045 no 1_456
Cl3 H15A 3.5294 no 1_455
Cl3 H24B 3.5847 no 1_545
Cl3 H24C 2.9401 no 1_545
Cl4 H3B 3.2912 no 1_455
Cl4 H15C 3.3267 no 1_465
Cl4 H16A 3.3203 no 1_465
Cl4 H16C 3.0403 no 1_465
C3 H16C 3.3152 no 1_565
C3 H20 3.3826 no 1_654
C4 H13B 3.3614 no 1_556
C4 H25B 3.5671 no 1_655
C6 H27A 3.5726 no 1_554
C7 H20 3.4700 no 1_654
C7 H27A 3.2855 no 1_554
C7 H27B 2.9667 no 1_554
C8 H21 3.4782 no 1_654
C8 H24B 3.3314 no 1_644
C8 H27A 3.3653 no 1_554
C8 H27B 3.0917 no 1_554
C8 H27C 3.4151 no 1_554
C8 H28A 3.4326 no 1_654
C9 H21 3.4662 no 1_654
C9 H24B 3.5825 no 1_644
C9 H28A 3.5455 no 1_654
C9 H28B 3.4378 no 1_654
C12 H16B 3.1162 no 1_565
C12 H19 3.1821 no 1_654
C12 H20 3.4400 no 1_654
C12 H28B 3.4913 no 1_564
C12 H28C 3.5698 no 1_564
C13 H4A 3.4765 no 1_554
C13 H15B 3.4406 no 1_465
C13 H16A 3.4378 no 1_465
C14 H25C 3.4854 no 1_645
C15 H13C 3.3343 no 1_645
C15 H24C 3.3929 no 1_645
C15 H25C 3.4393 no 1_645
C16 H3C 3.1477 no 1_545
C16 H12B 3.1208 no 1_545
C16 H13C 3.5822 no 1_645
C16 H20 3.3933 no 1_644
C16 H25C 3.4533 no 1_645
C19 H7 3.3614 no 1_456
C19 H12A 3.1257 no 1_456
C19 H12B 3.4682 no 1_456
C20 H3A 3.3921 no 1_456
C20 H7 3.4895 no 1_456
C20 H12A 3.5436 no 1_456
C20 H12B 3.3305 no 1_456
C20 H13A 2.9086 no 1_556
C20 H16A 3.3434 no 1_466
C21 H8 3.3484 no 1_456
C21 H13A 2.9283 no 1_556
C22 H8 3.4715 no 1_456
C23 H15C 3.4530 no 1_465
C24 H8 3.4185 no 1_466
C24 H15C 3.4380 no 1_465
C24 H27C 3.2700 no 1_465
C24 H28A 3.3565 no 1_565
C25 H15C 3.4470 no 1_465
C25 H16C 3.4678 no 1_465
C25 H27C 3.2143 no 1_465
C25 H28C 3.3448 no 1_465
C27 H8 3.5391 no 1_556
C27 H24B 3.2810 no 1_645
C27 H25A 3.3383 no 1_645
C28 H8 3.5396 no 1_456
C28 H9 3.4275 no 1_456
C28 H12A 3.4822 no 1_546
C28 H13C 3.5862 no 1_546
C28 H24A 3.4522 no 1_545
C28 H25A 3.4125 no 1_645
H3A C20 3.3921 no 1_654
H3A H16C 3.5195 no 1_565
H3A H20 2.5862 no 1_654
H3B Cl3 3.0251 no 1_655
H3B Cl4 3.2912 no 1_655
H3B H16C 3.5160 no 1_565
H3B H25B 3.3739 no 1_655
H3C C16 3.1477 no 1_565
H3C H16A 3.4584 no 1_565
H3C H16B 3.0505 no 1_565
H3C H16C 2.5013 no 1_565
H3C H20 3.3887 no 1_654
H4A C13 3.4765 no 1_556
H4A H7 3.5849 no 1_556
H4A H13A 3.5912 no 1_556
H4A H13B 2.6299 no 1_556
H4B Cl2 3.2343 no 1_565
H4B H25B 3.2662 no 1_655
H4B H28C 3.3674 no 1_565
H4C Cl3 3.4967 no 1_655
H4C H7 3.1115 no 1_556
H4C H13B 3.3207 no 1_556
H4C H25B 2.9751 no 1_655
H7 C19 3.3614 no 1_654
H7 C20 3.4895 no 1_654
H7 H4A 3.5849 no 1_554
H7 H4C 3.1115 no 1_554
H7 H19 3.4275 no 1_654
H7 H25A 3.5142 no 1_654
H7 H25B 3.3953 no 1_654
H7 H27A 3.5614 no 1_554
H7 H27B 2.8484 no 1_554
H8 Cl3 2.9045 no 1_654
H8 C21 3.3484 no 1_654
H8 C22 3.4715 no 1_654
H8 C24 3.4185 no 1_644
H8 C27 3.5391 no 1_554
H8 C28 3.5396 no 1_654
H8 H21 3.5562 no 1_654
H8 H24A 3.4268 no 1_644
H8 H24B 2.7741 no 1_644
H8 H24C 3.5531 no 1_644
H8 H27B 3.0645 no 1_554
H8 H27C 3.3284 no 1_554
H8 H28A 2.8174 no 1_654
H8 H28B 3.5104 no 1_654
H9 C28 3.4275 no 1_654
H9 H13C 3.0557 no 1_645
H9 H19 3.4540 no 1_644
H9 H21 3.5489 no 1_654
H9 H24B 3.2316 no 1_644
H9 H28A 3.0355 no 1_654
H9 H28B 2.9128 no 1_654
H11 H15B 3.5540 no 1_465
H11 H15C 3.5519 no 1_465
H12A C19 3.1257 no 1_654
H12A C20 3.5436 no 1_654
H12A C28 3.4822 no 1_564
H12A H16B 3.4876 no 1_565
H12A H19 2.5234 no 1_654
H12A H20 3.3473 no 1_654
H12A H25A 3.0303 no 1_654
H12A H27C 3.4712 no 1_564
H12A H28B 3.1976 no 1_564
H12A H28C 2.8812 no 1_564
H12B C16 3.1208 no 1_565
H12B C19 3.4682 no 1_654
H12B C20 3.3305 no 1_654
H12B H16A 3.2002 no 1_565
H12B H16B 2.4254 no 1_565
H12B H16C 3.2913 no 1_565
H12B H19 2.9760 no 1_654
H12B H20 2.7245 no 1_654
H12C Cl1 3.0299 no 1_565
H12C H15B 2.9496 no 1_465
H12C H16B 3.0375 no 1_565
H12C H27A 3.5598 no 1_564
H12C H28B 2.9411 no 1_564
H12C H28C 3.4415 no 1_564
H13A C20 2.9086 no 1_554
H13A C21 2.9283 no 1_554
H13A H4A 3.5912 no 1_554
H13A H16A 3.2900 no 1_465
H13A H20 2.9049 no 1_554
H13A H21 2.9835 no 1_554
H13A H27A 3.3105 no 1_554
H13B C4 3.3614 no 1_554
H13B H4A 2.6299 no 1_554
H13B H4C 3.3207 no 1_554
H13B H27B 3.3463 no 1_554
H13B H28B 3.4538 no 1_564
H13B H28C 3.0657 no 1_564
H13C C15 3.3343 no 1_465
H13C C16 3.5822 no 1_465
H13C C28 3.5862 no 1_564
H13C H9 3.0557 no 1_465
H13C H15B 2.5357 no 1_465
H13C H15C 3.4117 no 1_465
H13C H16A 2.7120 no 1_465
H13C H20 3.5783 no 1_554
H13C H28B 3.0399 no 1_564
H13C H28C 3.4386 no 1_564
H14 H25C 3.0817 no 1_645
H15A Cl1 3.2353 no 1_655
H15A Cl3 3.5294 no 1_655
H15A H24C 3.2628 no 1_645
H15B Cl1 3.4621 no 1_655
H15B C13 3.4406 no 1_645
H15B H11 3.5540 no 1_645
H15B H12C 2.9496 no 1_645
H15B H13C 2.5357 no 1_645
H15B H21 3.4716 no 1_654
H15B H28B 3.1117 no 1_654
H15C Cl4 3.3267 no 1_645
H15C C23 3.4530 no 1_645
H15C C24 3.4380 no 1_645
H15C C25 3.4470 no 1_645
H15C H11 3.5519 no 1_645
H15C H13C 3.4117 no 1_645
H15C H23 3.0168 no 1_645
H15C H24C 2.6578 no 1_645
H15C H25C 2.6808 no 1_645
H16A Cl4 3.3203 no 1_645
H16A C13 3.4378 no 1_645
H16A C20 3.3434 no 1_644
H16A H3C 3.4584 no 1_545
H16A H12B 3.2002 no 1_545
H16A H13A 3.2900 no 1_645
H16A H13C 2.7120 no 1_645
H16A H19 3.2517 no 1_644
H16A H20 2.7342 no 1_644
H16B C12 3.1162 no 1_545
H16B H3C 3.0505 no 1_545
H16B H12A 3.4876 no 1_545
H16B H12B 2.4254 no 1_545
H16B H12C 3.0375 no 1_545
H16B H19 3.5711 no 1_644
H16B H20 3.4313 no 1_644
H16C Cl4 3.0403 no 1_645
H16C C3 3.3152 no 1_545
H16C C25 3.4678 no 1_645
H16C H3A 3.5195 no 1_545
H16C H3B 3.5160 no 1_545
H16C H3C 2.5013 no 1_545
H16C H12B 3.2913 no 1_545
H16C H20 3.5198 no 1_644
H16C H25B 3.4330 no 1_645
H16C H25C 2.6673 no 1_645
H19 C12 3.1821 no 1_456
H19 H7 3.4275 no 1_456
H19 H9 3.4540 no 1_466
H19 H12A 2.5234 no 1_456
H19 H12B 2.9760 no 1_456
H19 H16A 3.2517 no 1_466
H19 H16B 3.5711 no 1_466
H19 H27C 3.2565 no 1_465
H20 C3 3.3826 no 1_456
H20 C7 3.4700 no 1_456
H20 C12 3.4400 no 1_456
H20 C16 3.3933 no 1_466
H20 H3A 2.5862 no 1_456
H20 H3C 3.3887 no 1_456
H20 H12A 3.3473 no 1_456
H20 H12B 2.7245 no 1_456
H20 H13A 2.9049 no 1_556
H20 H13C 3.5783 no 1_556
H20 H16A 2.7342 no 1_466
H20 H16B 3.4313 no 1_466
H20 H16C 3.5198 no 1_466
H21 Cl1 3.0009 no 1_556
H21 C8 3.4782 no 1_456
H21 C9 3.4662 no 1_456
H21 H8 3.5562 no 1_456
H21 H9 3.5489 no 1_456
H21 H13A 2.9835 no 1_556
H21 H15B 3.4716 no 1_456
H23 H15C 3.0168 no 1_465
H24A Cl2 3.4700 no 1_565
H24A C28 3.4522 no 1_565
H24A H8 3.4268 no 1_466
H24A H28A 2.6097 no 1_565
H24A H28C 3.5036 no 1_565
H24B Cl3 3.5847 no 1_565
H24B C8 3.3314 no 1_466
H24B C9 3.5825 no 1_466
H24B C27 3.2810 no 1_465
H24B H8 2.7741 no 1_466
H24B H9 3.2316 no 1_466
H24B H27B 3.3687 no 1_465
H24B H27C 2.4163 no 1_465
H24B H28A 3.4168 no 1_565
H24C Cl2 3.5822 no 1_565
H24C Cl3 2.9401 no 1_565
H24C C15 3.3929 no 1_465
H24C H8 3.5531 no 1_466
H24C H15A 3.2628 no 1_465
H24C H15C 2.6578 no 1_465
H24C H27C 3.5030 no 1_465
H24C H28A 3.5981 no 1_565
H25A C27 3.3383 no 1_465
H25A C28 3.4125 no 1_465
H25A H7 3.5142 no 1_456
H25A H12A 3.0303 no 1_456
H25A H26 3.4566 no 1_465
H25A H27C 2.4606 no 1_465
H25A H28C 2.5621 no 1_465
H25B C4 3.5671 no 1_455
H25B H3B 3.3739 no 1_455
H25B H4B 3.2662 no 1_455
H25B H4C 2.9751 no 1_455
H25B H7 3.3953 no 1_456
H25B H16C 3.4330 no 1_465
H25C Cl2 3.5813 no 1_465
H25C C14 3.4854 no 1_465
H25C C15 3.4393 no 1_465
H25C C16 3.4533 no 1_465
H25C H14 3.0817 no 1_465
H25C H15C 2.6808 no 1_465
H25C H16C 2.6673 no 1_465
H25C H26 3.5033 no 1_465
H25C H27C 3.2660 no 1_465
H25C H28C 3.4424 no 1_465
H26 H25A 3.4566 no 1_645
H26 H25C 3.5033 no 1_645
H27A Cl1 2.9614 no 1_556
H27A C6 3.5726 no 1_556
H27A C7 3.2855 no 1_556
H27A C8 3.3653 no 1_556
H27A H7 3.5614 no 1_556
H27A H12C 3.5598 no 1_546
H27A H13A 3.3105 no 1_556
H27B C7 2.9667 no 1_556
H27B C8 3.0917 no 1_556
H27B H7 2.8484 no 1_556
H27B H8 3.0645 no 1_556
H27B H13B 3.3463 no 1_556
H27B H24B 3.3687 no 1_645
H27C C8 3.4151 no 1_556
H27C C24 3.2700 no 1_645
H27C C25 3.2143 no 1_645
H27C H8 3.3284 no 1_556
H27C H12A 3.4712 no 1_546
H27C H19 3.2565 no 1_645
H27C H24B 2.4163 no 1_645
H27C H24C 3.5030 no 1_645
H27C H25A 2.4606 no 1_645
H27C H25C 3.2660 no 1_645
H28A C8 3.4326 no 1_456
H28A C9 3.5455 no 1_456
H28A C24 3.3565 no 1_545
H28A H8 2.8174 no 1_456
H28A H9 3.0355 no 1_456
H28A H24A 2.6097 no 1_545
H28A H24B 3.4168 no 1_545
H28A H24C 3.5981 no 1_545
H28B C9 3.4378 no 1_456
H28B C12 3.4913 no 1_546
H28B H8 3.5104 no 1_456
H28B H9 2.9128 no 1_456
H28B H12A 3.1976 no 1_546
H28B H12C 2.9411 no 1_546
H28B H13B 3.4538 no 1_546
H28B H13C 3.0399 no 1_546
H28B H15B 3.1117 no 1_456
H28C C12 3.5698 no 1_546
H28C C25 3.3448 no 1_645
H28C H4B 3.3674 no 1_545
H28C H12A 2.8812 no 1_546
H28C H12C 3.4415 no 1_546
H28C H13B 3.0657 no 1_546
H28C H13C 3.4386 no 1_546
H28C H24A 3.5036 no 1_545
H28C H25A 2.5621 no 1_645
H28C H25C 3.4424 no 1_645
loop_
_geom_torsion_atom_site_label_1
_geom_torsion_atom_site_label_2
_geom_torsion_atom_site_label_3
_geom_torsion_atom_site_label_4
_geom_torsion
_geom_torsion_publ_flag
Cl1 Nb1 N1 C1 178.7(5) no
Cl1 Nb1 N1 C5 0.2(5) no
Cl1 Nb1 N2 C2 3.4(10) no
Cl1 Nb1 N2 C17 -177.83(19) no
Cl2 Nb1 N1 C1 -93.7(5) no
Cl2 Nb1 N1 C5 87.9(5) no
Cl2 Nb1 N2 C2 96.6(5) no
Cl2 Nb1 N2 C17 -84.6(5) no
Cl3 Nb1 N1 C1 6.7(10) no
Cl3 Nb1 N1 C5 -171.7(2) no
Cl3 Nb1 N2 C2 -174.9(5) no
Cl3 Nb1 N2 C17 3.9(5) no
Cl4 Nb1 N1 C1 90.7(5) no
Cl4 Nb1 N1 C5 -87.7(5) no
Cl4 Nb1 N2 C2 -88.0(5) no
Cl4 Nb1 N2 C17 90.7(5) no
N1 Nb1 N2 C2 2.1(4) no
N1 Nb1 N2 C17 -179.1(6) no
N2 Nb1 N1 C1 -1.8(5) no
N2 Nb1 N1 C5 179.8(6) no
Nb1 N1 C1 C2 1.3(10) no
Nb1 N1 C1 C3 179.6(5) no
Nb1 N1 C5 C6 92.6(10) no
Nb1 N1 C5 C10 -90.3(11) no
C1 N1 C5 C6 -85.9(12) no
C1 N1 C5 C10 91.2(11) no
C5 N1 C1 C2 179.8(7) no
C5 N1 C1 C3 -1.9(12) no
Nb1 N2 C2 C1 -2.2(10) no
Nb1 N2 C2 C4 176.9(5) no
Nb1 N2 C17 C18 -92.2(11) no
Nb1 N2 C17 C22 91.5(11) no
C2 N2 C17 C18 86.6(13) no
C2 N2 C17 C22 -89.7(12) no
C17 N2 C2 C1 178.9(7) no
C17 N2 C2 C4 -2.1(12) no
N1 C1 C2 N2 0.6(12) no
N1 C1 C2 C4 -178.5(7) no
C3 C1 C2 N2 -177.8(8) no
C3 C1 C2 C4 3.1(13) no
N1 C5 C6 C7 179.2(10) no
N1 C5 C6 C11 2.1(19) no
N1 C5 C10 C9 179.0(10) no
N1 C5 C10 C14 -1.8(19) no
C6 C5 C10 C9 -4.1(19) no
C6 C5 C10 C14 175.1(11) no
C10 C5 C6 C7 2.2(19) no
C10 C5 C6 C11 -174.9(11) no
C5 C6 C7 C8 0.2(19) no
C5 C6 C11 C12 115.0(12) no
C5 C6 C11 C13 -122.6(12) no
C7 C6 C11 C12 -62.0(15) no
C7 C6 C11 C13 60.4(15) no
C11 C6 C7 C8 177.4(11) no
C6 C7 C8 C9 -1(2) no
C7 C8 C9 C10 -1(2) no
C8 C9 C10 C5 4(2) no
C8 C9 C10 C14 -175.6(12) no
C5 C10 C14 C15 -114.2(12) no
C5 C10 C14 C16 120.1(12) no
C9 C10 C14 C15 65.0(15) no
C9 C10 C14 C16 -60.7(14) no
N2 C17 C18 C19 -175.9(10) no
N2 C17 C18 C23 4(2) no
N2 C17 C22 C21 176.9(10) no
N2 C17 C22 C26 -1.6(19) no
C18 C17 C22 C21 0.7(19) no
C18 C17 C22 C26 -177.9(12) no
C22 C17 C18 C19 0(2) no
C22 C17 C18 C23 179.8(11) no
C17 C18 C19 C20 1(2) no
C17 C18 C23 C24 -118.9(13) no
C17 C18 C23 C25 115.5(13) no
C19 C18 C23 C24 60.5(15) no
C19 C18 C23 C25 -65.0(15) no
C23 C18 C19 C20 -178.9(12) no
C18 C19 C20 C21 -3(2) no
C19 C20 C21 C22 4(2) no
C20 C21 C22 C17 -3(2) no
C20 C21 C22 C26 175.7(13) no
C17 C22 C26 C27 111.7(13) no
C17 C22 C26 C28 -124.2(12) no
C21 C22 C26 C27 -66.8(14) no
C21 C22 C26 C28 57.3(16) no
