#------------------------------------------------------------------------------
#$Date: 2017-09-15 02:01:13 +0300 (Fri, 15 Sep 2017) $
#$Revision: 200890 $
#$URL: file:///home/coder/svn-repositories/cod/cif/4/12/63/4126398.cif $
#------------------------------------------------------------------------------
#
# This file is available in the Crystallography Open Database (COD),
# http://www.crystallography.net/
#
# All data on this site have been placed in the public domain by the
# contributors.
#
data_4126398
loop_
_publ_author_name
'Silver, Mark A.'
'Cary, Samantha K.'
'Garza, Alejandro J.'
'Baumbach, Ryan E.'
'Arico, Alexandra A.'
'Galmin, Gregory A.'
'Chen, Kuan-Wen'
'Johnson, Jason A.'
'Wang, Jamie C.'
'Clark, Ronald J.'
'Chemey, Alexander'
'Eaton, Teresa M.'
'Marsh, Matthew L.'
'Seidler, Kevin'
'Galley, Shane S.'
'van de Burgt, Lambertus'
'Gray, Ashley L.'
'Hobart, David E.'
'Hanson, Kenneth'
'van Cleve, Shelley M.'
'Gendron, Fr\'ed\'eric'
'Autschbach, Jochen'
'Scuseria, Gustavo E.'
'Maron, Laurent'
'Speldrich, Manfred'
'K\"ogerler, Paul'
'Celis-Barros, Cristian'
'Pa\'ez-Hernand\'ez, Day\'an'
'Arratia-Perez, Ramiro'
'Ruf, Michael'
'Albrecht-Schmitt, Thomas E'
_publ_section_title
;
 Departure from a Spherically Symmetric Ground State in a System with a
 Half-filled Shell: The Case Example of Berkelium(IV) Iodate.
;
_journal_name_full               'Journal of the American Chemical Society'
_journal_paper_doi               10.1021/jacs.7b05569
_journal_year                    2017
_chemical_formula_moiety         'I2 O6, 4(I O3), 2(Bk)'
_chemical_formula_sum            'Bk2 I6 O18'
_chemical_formula_weight         1547.40
_chemical_melting_point          ?
_chemical_name_common            'Berkelium(III) iodate'
_chemical_name_systematic
;
 ?
;
_space_group_crystal_system      monoclinic
_space_group_IT_number           14
_space_group_name_Hall           '-P 2yn'
_space_group_name_H-M_alt        'P 1 21/n 1'
_symmetry_space_group_name_Hall  '-P 2yn'
_symmetry_space_group_name_H-M   'P 1 21/n 1'
_audit_creation_method           SHELXL-2014
_cell_angle_alpha                90
_cell_angle_beta                 96.8723(8)
_cell_angle_gamma                90
_cell_formula_units_Z            2
_cell_length_a                   8.7475(4)
_cell_length_b                   5.9029(3)
_cell_length_c                   15.0832(7)
_cell_measurement_reflns_used    2364
_cell_measurement_temperature    100(2)
_cell_measurement_theta_max      30.538
_cell_measurement_theta_min      2.566
_cell_volume                     773.23(6)
_computing_cell_refinement       'smart saint'
_computing_data_collection       smart
_computing_data_reduction        SAINT
_computing_molecular_graphics    'SHELXL-2014/7 (Sheldrick, 2014)'
_computing_publication_material  'SHELXCIF-97 (Sheldrick, 1997)'
_computing_structure_refinement  'SHELXL-2014/7 (Sheldrick, 2014)'
_computing_structure_solution    'SHELXL-2014/7 (Sheldrick, 2014)'
_diffrn_ambient_temperature      100(2)
_diffrn_detector_area_resol_mean 0
_diffrn_measured_fraction_theta_full 1.000
_diffrn_measured_fraction_theta_max 1.000
_diffrn_measurement_device_type  'BRUKER apex II'
_diffrn_measurement_method       '0.5 wide w/ exposures'
_diffrn_radiation_type           MoK\a
_diffrn_radiation_wavelength     0.71073
_diffrn_reflns_av_R_equivalents  0.0237
_diffrn_reflns_av_unetI/netI     0.0151
_diffrn_reflns_Laue_measured_fraction_full 1.000
_diffrn_reflns_Laue_measured_fraction_max 1.000
_diffrn_reflns_limit_h_max       12
_diffrn_reflns_limit_h_min       -12
_diffrn_reflns_limit_k_max       8
_diffrn_reflns_limit_k_min       -8
_diffrn_reflns_limit_l_max       21
_diffrn_reflns_limit_l_min       -21
_diffrn_reflns_number            13244
_diffrn_reflns_point_group_measured_fraction_full 1.000
_diffrn_reflns_point_group_measured_fraction_max 1.000
_diffrn_reflns_theta_full        25.242
_diffrn_reflns_theta_max         30.538
_diffrn_reflns_theta_min         2.566
_diffrn_source                   'Imus microfocused'
_exptl_absorpt_coefficient_mu    22.546
_exptl_absorpt_correction_type   multi-scan
_exptl_absorpt_process_details   SHELTXPREP
_exptl_crystal_colour            gold
_exptl_crystal_density_diffrn    6.646
_exptl_crystal_density_meas      ?
_exptl_crystal_density_method    'Not measured'
_exptl_crystal_description       'truncated, tetragoanl bipyramid'
_exptl_crystal_F_000             1312
_exptl_crystal_size_max          0.1
_exptl_crystal_size_mid          0.08
_exptl_crystal_size_min          0.06
_exptl_transmission_factor_max   0.7456
_exptl_transmission_factor_min   0.5089
_refine_diff_density_max         2.782
_refine_diff_density_min         -3.213
_refine_diff_density_rms         0.378
_refine_ls_extinction_method     none
_refine_ls_goodness_of_fit_ref   1.216
_refine_ls_hydrogen_treatment    undef
_refine_ls_matrix_type           full
_refine_ls_number_parameters     118
_refine_ls_number_reflns         2364
_refine_ls_number_restraints     0
_refine_ls_restrained_S_all      1.216
_refine_ls_R_factor_all          0.0310
_refine_ls_R_factor_gt           0.0307
_refine_ls_shift/su_max          0.001
_refine_ls_shift/su_mean         0.000
_refine_ls_structure_factor_coef Fsqd
_refine_ls_weighting_details
'w=1/[\s^2^(Fo^2^)+(0.0229P)^2^+26.4093P] where P=(Fo^2^+2Fc^2^)/3'
_refine_ls_weighting_scheme      calc
_refine_ls_wR_factor_gt          0.0750
_refine_ls_wR_factor_ref         0.0752
_reflns_Friedel_coverage         0.000
_reflns_number_gt                2352
_reflns_number_total             2364
_reflns_threshold_expression     'I > 2\s(I)'
_cod_data_source_file            ja7b05569_si_002.cif
_cod_data_source_block           1
_cod_depositor_comments
;
The following automatic conversions were performed:

'_chemical_melting_point' value 'not measured' was changed to '?' -
the value is undefined or not given.

'_exptl_crystal_density_meas' value 'N/A' was changed to '?' - the
value is perceived as not measured.

Automatic conversion script
Id: cif_fix_values 4973 2017-02-22 13:04:09Z antanas 
;
_cod_database_code               4126398
_shelx_space_group_comment
;
The symmetry employed for this shelxl refinement is uniquely defined
by the following loop, which should always be used as a source of
symmetry information in preference to the above space-group names.
They are only intended as comments.
;
_shelxl_version_number           2014-3
_shelx_res_file
;
TITL 1 in P2(1)/n
CELL 0.71073   8.74750   5.90290  15.08320  90.0000  96.8723  90.0000
ZERR    2.00   0.00040   0.00030   0.00070   0.0000   0.0008   0.0000
LATT  1
SYMM 0.5-X, 0.5+Y, 0.5-Z
SFAC O I
SFAC Bk 36.7881 0.451018 24.7736 3.04619 17.8919 12.8946 4.23284 =
 86.0030 13.2754 -6.8498 4.9086 20100 3.0 249
UNIT 36 12 4
TEMP -173.150

L.S. 40
BOND
ACTA
FMAP 2
PLAN 20

WGHT    0.022900   26.409300
FVAR       0.04776
BK1   3    0.539575    0.231119    0.399573    11.00000    0.01634    0.02050 =
         0.01556   -0.00009    0.00234   -0.00307
I1    2    0.617265   -0.092388    0.199246    11.00000    0.01278    0.01418 =
         0.01309    0.00021    0.00173    0.00036
I2    2    0.279691    0.687898    0.350582    11.00000    0.01307    0.01352 =
         0.01423   -0.00047    0.00211   -0.00011
I3    2    0.834826   -0.142646    0.477661    11.00000    0.01325    0.01346 =
         0.01405   -0.00073    0.00151    0.00057
O7    1    0.779741    0.030568    0.380283    11.00000    0.01873    0.01388 =
         0.01470    0.00064    0.00157    0.00221
O2    1    0.768097   -0.001329    0.133918    11.00000    0.01597    0.02059 =
         0.01736    0.00194    0.00435    0.00336
O3    1    0.362252    0.597065    0.460420    11.00000    0.02041    0.01914 =
         0.01717    0.00064   -0.00284   -0.00186
O8    1    0.453350   -0.091100    0.113601    11.00000    0.01628    0.01650 =
         0.01794   -0.00160   -0.00242    0.00081
O6    1    0.587201    0.186478    0.243613    11.00000    0.01990    0.01306 =
         0.01397   -0.00209    0.00087    0.00070
O5    1    0.359979    0.445904    0.297683    11.00000    0.01888    0.01888 =
         0.02591   -0.00613    0.00325    0.00140
O1    1    0.640599   -0.107853    0.509402    11.00000    0.01358    0.02351 =
         0.02259    0.00045    0.00829   -0.00242
O4    1    0.423691    0.894848    0.328926    11.00000    0.01765    0.01983 =
         0.01690   -0.00116    0.00287   -0.00481
O9    1    0.911250    0.079941    0.555545    11.00000    0.01543    0.01690 =
         0.02163   -0.00521   -0.00076   -0.00127
HKLF 4

REM  1 in P2(1)/n
REM R1 =  0.0307 for    2352 Fo > 4sig(Fo)  and  0.0310 for all    2364 data
REM    118 parameters refined using      0 restraints

END

WGHT      0.0229     26.4165

REM Highest difference peak  2.782,  deepest hole -3.213,  1-sigma level  0.378
Q1    1   0.5752  0.1161  0.3940  11.00000  0.05    2.78
Q2    1   0.3108  0.6821  0.3940  11.00000  0.05    1.68
Q3    1   0.4990  0.2284  0.3468  11.00000  0.05    1.65
Q4    1   0.5826 -0.0834  0.1644  11.00000  0.05    1.54
Q5    1   0.8374 -0.1622  0.5145  11.00000  0.05    1.50
Q6    1   0.6563 -0.1164  0.1834  11.00000  0.05    1.29
Q7    1   0.6269 -0.0034  0.2054  11.00000  0.05    1.23
Q8    1   0.8516 -0.2277  0.4811  11.00000  0.05    1.22
Q9    1   0.5948  0.2202  0.4553  11.00000  0.05    1.20
Q10   1   0.2517  0.6988  0.3258  11.00000  0.05    1.18
Q11   1   0.8222 -0.0666  0.4808  11.00000  0.05    1.17
Q12   1   0.3189  0.6560  0.3456  11.00000  0.05    1.15
Q13   1   0.2642  0.6191  0.3642  11.00000  0.05    1.06
Q14   1   0.2413  0.6742  0.3523  11.00000  0.05    1.05
Q15   1   0.4119  0.6568  0.4953  11.00000  0.05    1.01
Q16   1   0.6599  0.2343  0.2256  11.00000  0.05    0.95
Q17   1   0.4356  0.9837  0.3526  11.00000  0.05    0.95
Q18   1   0.3977  0.3786  0.3354  11.00000  0.05    0.94
Q19   1   0.6161  0.2431  0.3623  11.00000  0.05    0.92
Q20   1   0.5853 -0.2684  0.4606  11.00000  0.05    0.92
;
_shelx_res_checksum              85685
_shelx_hkl_file
;
   1   0   0    1.12    0.05
   1   0   0    0.80    0.06
  -2   0   0    1.68    0.09
   2   0   0    1.59    0.09
   2   0   0    1.81    0.11
  -3   0   0    0.67    0.08
   3   0   0    0.85    0.08
  -3   0   0    1.08    0.10
   4   0   0    2.51    0.14
  -4   0   0    3.00    0.17
  -5   0   0    0.88    0.12
   5   0   0    0.79    0.10
  -6   0   0    0.86    0.13
  -6   0   0    1.04    0.17
  -7   0   0    0.22    0.13
  -7   0   0    0.32    0.11
   7   0   0    0.48    0.09
  -8   0   0    0.54    0.12
  -8   0   0    0.27    0.13
   9   0   0    0.22    0.09
  -9   0   0    0.31    0.14
  -9   0   0    0.15    0.11
  10   0   0   19.40    0.65
 -10   0   0   20.00    0.73
 -10   0   0   19.06    0.68
 -11   0   0    0.00    0.17
  11   0   0    0.19    0.11
 -11   0   0    0.10    0.15
 -12   0   0   32.38    1.02
 -12   0   0   32.32    1.07
  12   0   0   31.02    0.96
   0  -1   0    0.23    0.04
   0  -1   0    0.36    0.04
   0  -1   0    0.33    0.04
   0   1   0    0.26    0.04
  -1  -1   0   20.42    0.55
  -1  -1   0   20.04    0.55
   1  -1   0   20.08    0.54
  -1  -1   0   19.79    0.56
   1  -1   0   20.36    0.53
   1  -1   0   20.26    0.54
  -1   1   0   19.16    0.55
  -1   1   0   20.82    0.57
   1   1   0   19.62    0.55
  -1   1   0   18.83    0.53
   1   1   0   20.30    0.55
  -2  -1   0  158.25    3.95
   2  -1   0  158.42    4.02
  -2  -1   0  162.17    3.97
   2  -1   0  155.04    3.94
  -2  -1   0  156.54    3.98
   2  -1   0  163.45    4.02
   2  -1   0  158.39    3.95
  -2  -1   0  145.24    3.94
   2   1   0  155.02    3.96
  -2   1   0  153.67    3.98
   2   1   0  155.05    3.95
   2   1   0  155.54    3.94
  -3  -1   0   45.07    1.13
   3  -1   0   44.74    1.13
  -3  -1   0   39.28    1.12
  -3   1   0   42.82    1.14
   3   1   0   40.40    1.12
   3   1   0   42.76    1.11
  -3   1   0   41.86    1.19
   3   1   0   42.32    1.14
  -4  -1   0    3.56    0.18
  -4  -1   0    3.18    0.18
   4  -1   0    3.61    0.17
   4   1   0    3.05    0.14
  -4   1   0    3.14    0.17
   4   1   0    3.01    0.17
  -4   1   0    3.10    0.21
  -5  -1   0   80.39    2.14
  -5  -1   0   79.73    2.16
   5  -1   0   81.26    2.12
   5   1   0   80.49    2.13
  -5   1   0   81.81    2.14
   5   1   0   79.48    2.06
  -5   1   0   82.11    2.21
  -6  -1   0  319.47    8.01
   6   1   0  316.69    7.89
  -6   1   0  326.89    8.00
  -6   1   0  298.41    8.13
   6   1   0  317.65    7.99
  -7  -1   0    2.75    0.21
  -7  -1   0    2.82    0.23
   7  -1   0    2.51    0.18
   7   1   0    2.31    0.12
  -7   1   0    2.73    0.28
   7   1   0    2.81    0.19
  -7   1   0    2.40    0.20
  -8  -1   0   42.92    1.25
   8  -1   0   42.56    1.20
  -8  -1   0   43.09    1.26
   8   1   0   41.73    1.21
  -8   1   0   41.88    1.23
  -8   1   0   41.75    1.31
  -9  -1   0    5.54    0.34
   9  -1   0    5.80    0.29
  -9  -1   0    5.79    0.33
   9   1   0    6.24    0.30
  -9   1   0    5.71    0.31
  -9   1   0    6.45    0.39
  10  -1   0    5.68    0.29
 -10  -1   0    5.99    0.37
 -10  -1   0    5.76    0.34
 -10   1   0    5.46    0.32
 -10   1   0    5.57    0.39
  10   1   0    5.86    0.30
 -11  -1   0    0.51    0.17
  11  -1   0    0.62    0.13
 -11  -1   0    0.86    0.20
  11   1   0    0.54    0.13
  12  -1   0    4.73    0.29
 -12  -1   0    4.42    0.35
  12   1   0    4.71    0.29
 -12   1   0    4.68    0.32
 -12   1   0    5.27    0.42
   0  -2   0  190.94    4.91
   0  -2   0  200.43    4.95
   0  -2   0  191.67    4.98
   0   2   0  197.25    4.99
  -1  -2   0  252.10    6.45
  -1  -2   0  264.48    6.53
   1  -2   0  251.80    6.40
   1  -2   0  266.76    6.56
   1   2   0  245.30    6.40
  -1   2   0  247.79    6.42
  -1   2   0  247.72    6.40
   2  -2   0   47.76    1.23
  -2  -2   0   47.61    1.27
  -2  -2   0   45.41    1.25
   2  -2   0   44.83    1.24
  -2   2   0   46.29    1.23
   2   2   0   47.03    1.26
  -2   2   0   46.81    1.29
   3  -2   0    9.59    0.32
  -3  -2   0   10.32    0.37
   3  -2   0    9.42    0.33
  -3  -2   0    9.62    0.34
  -3   2   0    9.35    0.38
   3   2   0    9.90    0.34
  -3   2   0    9.50    0.31
  -4  -2   0  125.44    3.10
   4  -2   0  121.15    3.14
  -4  -2   0  127.04    3.20
   4  -2   0  126.37    3.14
  -4   2   0  122.88    3.09
   4   2   0  115.46    3.09
   4   2   0  121.33    3.16
  -4   2   0  120.62    3.23
  -4   2   0  119.14    3.08
   4   2   0  122.39    3.13
  -5  -2   0  107.35    2.79
  -5  -2   0  106.08    2.70
   5  -2   0  104.28    2.72
   5  -2   0  103.82    2.73
  -5   2   0  107.75    2.84
   5   2   0   99.72    2.69
   5   2   0  105.57    2.75
   6  -2   0    1.73    0.15
  -6  -2   0    1.44    0.15
   6  -2   0    1.77    0.16
   6   2   0    1.44    0.13
  -6   2   0    1.50    0.15
   6   2   0    1.58    0.15
  -6   2   0    1.69    0.22
  -7  -2   0    7.37    0.32
   7  -2   0    7.24    0.31
   7   2   0    6.93    0.32
  -7   2   0    7.37    0.41
   7   2   0    7.25    0.26
   8  -2   0   23.83    0.74
  -8  -2   0   23.77    0.75
  -8  -2   0   24.03    0.81
  -8   2   0   23.26    0.75
   8   2   0   24.62    0.77
   8   2   0   24.74    0.67
  -8   2   0   23.24    0.85
   9  -2   0    1.06    0.17
  -9  -2   0    1.27    0.19
  -9  -2   0    1.37    0.21
   9   2   0    1.44    0.18
  -9   2   0    1.26    0.21
  -9   2   0    1.23    0.17
  10  -2   0   17.38    0.59
 -10  -2   0   16.88    0.65
 -10   2   0   17.03    0.61
  10   2   0   16.16    0.67
 -10   2   0   17.39    0.71
  11  -2   0    0.75    0.15
  11  -2   0    0.71    0.18
 -11  -2   0    0.92    0.20
 -11   2   0    1.31    0.24
  11   2   0    0.84    0.15
  12  -2   0   12.48    0.49
  12  -2   0   12.87    0.53
 -12  -2   0   12.87    0.56
  12   2   0   12.07    0.50
 -12   2   0   12.73    0.63
   0  -3   0    0.53    0.09
   0   3   0    0.83    0.10
   0   3   0    0.71    0.10
   1  -3   0    5.98    0.23
   1  -3   0    5.74    0.24
  -1  -3   0    6.19    0.25
  -1  -3   0    6.01    0.25
  -1   3   0    5.78    0.25
  -1   3   0    5.62    0.25
   1   3   0    5.93    0.26
   2  -3   0  113.28    3.00
  -2  -3   0  116.92    3.03
   2  -3   0  120.44    2.99
  -2  -3   0  112.93    3.00
  -2   3   0  117.46    3.04
  -2   3   0  114.79    3.00
   2   3   0  118.45    3.03
   3  -3   0  101.25    2.58
   3  -3   0   97.55    2.59
  -3  -3   0   97.81    2.64
  -3  -3   0   98.62    2.61
   3   3   0  103.44    2.62
  -3   3   0  100.67    2.59
  -3   3   0   99.89    2.66
   4  -3   0   73.48    1.95
  -4  -3   0   74.41    1.98
  -4  -3   0   69.71    2.06
   4  -3   0   76.34    1.97
   4   3   0   73.66    1.97
  -4   3   0   74.58    2.05
  -4   3   0   76.80    1.94
   5  -3   0   41.58    1.14
  -5  -3   0   40.85    1.25
  -5   3   0   40.40    1.08
  -5   3   0   39.59    1.23
   5   3   0   38.81    1.15
   5   3   0   40.62    1.13
  -6  -3   0   17.88    0.64
   6  -3   0   19.12    0.59
   6  -3   0   16.31    0.60
   6   3   0   18.02    0.60
   6   3   0   17.12    0.56
  -6   3   0   17.38    0.49
  -7  -3   0    0.43    0.13
   7  -3   0    0.56    0.11
   7  -3   0    0.36    0.10
   7   3   0    0.43    0.12
  -7   3   0    0.25    0.13
  -8  -3   0    1.42    0.21
   8  -3   0    1.10    0.17
  -8   3   0    0.90    0.19
   8   3   0    1.41    0.17
   8   3   0    0.91    0.14
   9  -3   0    0.66    0.15
   9  -3   0    0.65    0.13
  -9  -3   0    0.77    0.17
  -9   3   0    0.56    0.18
   9   3   0    0.47    0.13
 -10  -3   0   63.23    1.82
  10  -3   0   63.59    1.75
 -10   3   0   60.93    1.88
  10   3   0   64.22    1.76
 -11  -3   0    0.79    0.20
  11  -3   0    0.60    0.14
  11  -3   0    0.74    0.16
 -11   3   0    0.74    0.22
  11   3   0    0.88    0.16
   0  -4   0    2.81    0.18
   0  -4   0    3.00    0.18
   0   4   0    2.74    0.17
   0   4   0    2.76    0.20
  -1  -4   0   18.90    0.56
   1  -4   0   20.81    0.62
  -1  -4   0   19.21    0.62
  -1  -4   0   19.39    0.63
   1  -4   0   19.86    0.62
  -1   4   0   20.43    0.64
   1   4   0   20.35    0.56
  -1   4   0   20.16    0.63
   2  -4   0   62.47    1.69
   2  -4   0   63.80    1.68
  -2  -4   0   62.48    1.70
  -2  -4   0   63.69    1.72
  -2   4   0   61.01    1.71
   2   4   0   62.51    1.72
  -2   4   0   63.33    1.70
  -3  -4   0  110.07    2.95
   3  -4   0  113.20    2.89
   3  -4   0  110.86    2.90
   3   4   0  110.63    2.93
  -3   4   0  115.12    2.91
  -3   4   0  109.11    2.95
   4  -4   0  123.17    3.33
  -4  -4   0  125.23    3.33
   4  -4   0  130.36    3.31
  -4  -4   0  129.10    3.37
  -4   4   0  124.84    3.38
  -4   4   0  132.05    3.30
   4   4   0  128.20    3.37
   5  -4   0    0.32    0.09
  -5  -4   0    0.26    0.12
   5   4   0    0.58    0.12
  -5   4   0    0.45    0.10
   5   4   0    0.45    0.11
  -5   4   0    0.47    0.14
  -6  -4   0    5.47    0.33
   6  -4   0    5.66    0.27
   6  -4   0    5.92    0.28
  -6   4   0    5.35    0.24
  -6   4   0    5.78    0.35
   6   4   0    5.56    0.29
   6   4   0    5.84    0.27
   7  -4   0    0.40    0.11
   7  -4   0    0.35    0.10
  -7  -4   0    0.63    0.16
  -7   4   0    0.41    0.15
   7   4   0    0.31    0.11
   7   4   0    0.36    0.10
  -8  -4   0    5.57    0.35
   8  -4   0    5.91    0.29
   8  -4   0    5.99    0.30
   8   4   0    5.93    0.27
  -8   4   0    5.98    0.40
   8   4   0    5.84    0.31
   9  -4   0    7.84    0.34
   9  -4   0    7.62    0.36
  -9  -4   0    6.88    0.40
   9   4   0    7.26    0.38
  -9   4   0    8.26    0.47
   9   4   0    7.10    0.36
  10  -4   0    5.73    0.39
  10  -4   0    5.70    0.31
 -10  -4   0    5.37    0.38
 -10   4   0    5.51    0.43
  10   4   0    5.61    0.33
   0  -5   0    0.22    0.09
   0  -5   0    0.17    0.09
   0   5   0    0.19    0.10
   0   5   0    0.19    0.09
   1  -5   0    0.54    0.11
  -1  -5   0    0.54    0.11
   1  -5   0    0.42    0.10
  -1   5   0    0.97    0.15
   1   5   0    0.83    0.13
  -2  -5   0   12.00    0.47
   2  -5   0   12.18    0.44
   2  -5   0   12.39    0.44
  -2  -5   0   12.18    0.48
  -2   5   0   12.31    0.47
   2   5   0   12.83    0.47
  -2   5   0   11.96    0.46
   3  -5   0   42.28    1.21
  -3  -5   0   40.61    1.19
  -3  -5   0   41.50    1.22
  -3   5   0   41.62    1.22
   3   5   0   41.08    1.20
   4  -5   0   84.73    2.21
  -4  -5   0   80.25    2.22
   4  -5   0   84.38    2.20
  -4  -5   0   83.33    2.27
  -4   5   0   81.97    2.27
  -4   5   0   81.79    2.20
   4   5   0   83.79    2.23
  -5  -5   0    0.75    0.16
  -5  -5   0    1.07    0.15
   5  -5   0    1.01    0.17
   5  -5   0    1.08    0.15
   5   5   0    1.24    0.17
  -5   5   0    1.61    0.22
  -5   5   0    1.20    0.16
   5   5   0    1.13    0.16
   6  -5   0   22.45    0.70
  -6  -5   0   22.27    0.78
   6  -5   0   22.64    0.71
  -6   5   0   21.95    0.79
   6   5   0   22.40    0.71
   6   5   0   22.27    0.73
   7  -5   0    2.47    0.21
   7  -5   0    2.67    0.21
  -7  -5   0    2.70    0.27
  -7   5   0    2.78    0.30
   7   5   0    2.43    0.22
   7   5   0    2.51    0.21
   8  -5   0    8.93    0.39
  -8  -5   0    8.33    0.44
   8  -5   0    8.81    0.38
   8   5   0    8.82    0.36
  -8   5   0    8.80    0.48
  -9  -5   0   53.99    1.60
   9  -5   0   53.14    1.50
   9  -5   0   53.21    1.50
   9   5   0   54.57    1.53
   9   5   0   53.06    1.47
  -9   5   0   54.15    1.65
  10   5   0    8.43    0.40
   0  -6   0   16.08    0.57
   0  -6   0   15.83    0.55
   0   6   0   16.67    0.58
   0   6   0   16.10    0.52
  -1  -6   0    6.68    0.32
   1  -6   0    7.39    0.32
  -1  -6   0    7.41    0.34
   1  -6   0    6.27    0.31
  -1   6   0    6.64    0.33
   1   6   0    6.82    0.34
  -1   6   0    6.73    0.31
   2  -6   0   76.34    2.06
   2  -6   0   77.45    2.06
  -2  -6   0   77.47    2.10
  -2  -6   0   74.73    2.07
   2   6   0   78.17    2.10
  -2   6   0   75.00    2.07
  -2   6   0   78.57    2.08
  -3  -6   0   36.85    1.12
   3  -6   0   36.18    1.06
   3  -6   0   37.44    1.07
  -3  -6   0   36.07    1.09
  -3   6   0   37.34    1.11
   3   6   0   37.33    1.10
  -3   6   0   37.47    1.08
   4  -6   0    4.15    0.25
  -4  -6   0    4.31    0.30
   4  -6   0    4.35    0.26
  -4  -6   0    4.14    0.27
   4   6   0    3.92    0.27
  -4   6   0    4.68    0.30
  -4   6   0    4.25    0.26
  -5  -6   0    1.81    0.24
   5  -6   0    1.94    0.19
   5  -6   0    2.33    0.21
  -5  -6   0    2.03    0.21
   5   6   0    2.21    0.21
  -5   6   0    2.21    0.21
  -5   6   0    2.08    0.25
   6  -6   0    0.85    0.15
   6  -6   0    0.88    0.15
   6   6   0    1.07    0.16
   6   6   0    1.19    0.17
  -6   6   0    1.05    0.20
  -7  -6   0   17.07    0.67
   7  -6   0   16.48    0.58
   7  -6   0   16.93    0.59
  -7   6   0   17.69    0.68
   7   6   0   17.33    0.61
   8  -6   0    2.72    0.29
  -8  -6   0    3.10    0.32
   8  -6   0    3.09    0.25
   8   6   0    3.55    0.27
   8   6   0    3.51    0.26
  -8   6   0    3.39    0.34
   0  -7   0    0.02    0.11
   0  -7   0    0.01    0.12
   0   7   0    0.16    0.11
   1  -7   0   37.76    1.12
   1  -7   0   39.52    1.14
  -1  -7   0   38.98    1.16
  -1  -7   0   37.51    1.13
  -1   7   0   39.89    1.15
   1   7   0   38.94    1.15
  -2  -7   0    2.78    0.24
  -2  -7   0    3.12    0.27
   2  -7   0    2.81    0.24
   2  -7   0    3.08    0.24
  -2   7   0    2.95    0.24
  -3  -7   0    0.80    0.18
   3  -7   0    0.89    0.15
   3  -7   0    0.76    0.14
  -3  -7   0    0.91    0.16
  -3   7   0    0.75    0.16
   3   7   0    0.82    0.15
  -3   7   0    0.83    0.16
  -4  -7   0   14.10    0.57
  -4  -7   0   14.25    0.53
   4  -7   0   15.02    0.52
   4  -7   0   13.47    0.51
  -4   7   0   14.71    0.52
   4   7   0   14.32    0.53
  -4   7   0   13.86    0.56
  -5  -7   0    0.00    0.15
  -5  -7   0    0.33    0.14
   5  -7   0    0.15    0.13
   5  -7   0    0.32    0.13
  -5   7   0    0.20    0.14
   5   7   0    0.08    0.12
   5   7   0    0.42    0.14
  -5   7   0    0.30    0.16
   6  -7   0    8.04    0.40
  -6  -7   0    8.55    0.45
   6  -7   0    7.45    0.40
  -6   7   0    8.25    0.44
   6   7   0    8.31    0.39
   6   7   0    8.38    0.38
   0  -8   0    1.75    0.25
   0  -8   0    1.81    0.25
   0   8   0    1.78    0.21
  -1  -8   0    0.60    0.17
   1  -8   0    0.46    0.16
   1  -8   0    0.76    0.17
   1   8   0    0.43    0.13
  -1   8   0    0.42    0.13
  -2  -8   0   12.29    0.50
   2  -8   0   13.65    0.52
  -2  -8   0   13.09    0.55
   2   8   0   12.87    0.51
  -2   8   0   13.78    0.52
  -3  -8   0    0.34    0.15
   3  -8   0    0.75    0.16
  -3  -8   0    0.37    0.18
   3  -8   0    0.83    0.17
   3   8   0    0.37    0.14
  -3   8   0    0.32    0.16
 -12   0   1    0.34    0.19
  12   0  -1    0.31    0.13
 -12   0   1    0.04    0.15
 -11   0   1   80.42    2.40
  11   0  -1   88.53    2.31
 -11   0   1   88.71    2.40
 -10   0   1    0.13    0.11
  10   0  -1    0.22    0.10
 -10   0   1    0.16    0.14
  -9   0   1    7.85    0.41
  -9   0   1    8.19    0.38
   8   0  -1    0.21    0.09
  -8   0   1    0.16    0.13
  -8   0   1    0.22    0.10
  -7   0   1   64.42    1.76
   7   0  -1   64.59    1.74
  -7   0   1   62.73    1.86
  -6   0   1    0.41    0.10
  -6   0   1    0.46    0.12
   5   0  -1   20.94    0.63
  -5   0   1   20.54    0.67
  -5   0   1   20.49    0.64
  -4   0   1    0.87    0.10
  -4   0   1    0.59    0.06
  -3   0   1    3.49    0.18
  -3   0   1    3.27    0.11
  -3   0   1    3.45    0.16
   3   0  -1    3.37    0.11
   2   0  -1    0.67    0.06
  -2   0   1    0.68    0.04
   2   0  -1    0.74    0.04
  -2   0   1    0.66    0.06
  -2   0   1    0.70    0.06
  -2   0   1    0.80    0.08
  -1   0   1   23.87    0.65
  -1   0   1   22.85    0.63
  -1   0   1   25.80    0.63
   1   0  -1   23.33    0.65
  -1   0   1   25.19    0.64
   1   0  -1   26.11    0.63
   1   0  -1   24.26    0.63
   1   0  -1   24.55    0.64
   1   0   1   91.21    2.42
   1   0   1   98.84    2.37
  -1   0  -1   98.97    2.38
  -1   0  -1   91.71    2.37
   1   0   1  102.18    2.37
  -1   0  -1   89.19    2.38
   1   0   1   84.94    2.37
   2   0   1    0.43    0.07
  -2   0  -1    0.44    0.07
   3   0   1  671.70   18.16
  -3   0  -1  793.22   18.38
  -3   0  -1  682.80   18.32
  -4   0  -1    0.23    0.08
  -4   0  -1    0.24    0.06
   5   0   1   18.81    0.59
  -5   0  -1   18.49    0.65
  -5   0  -1   21.22    0.64
  -6   0  -1    0.62    0.13
  -6   0  -1    0.35    0.10
  -7   0  -1   19.39    0.69
   7   0   1   18.92    0.61
  -7   0  -1   19.32    0.67
  -8   0  -1    0.27    0.11
   8   0   1    0.38    0.09
  -9   0  -1   33.87    1.04
  -9   0  -1   33.80    1.08
   9   0   1   33.19    0.99
 -10   0  -1    0.18    0.13
  10   0   1    0.17    0.09
 -10   0  -1    0.14    0.16
 -11   0  -1   16.14    0.62
 -11   0  -1   16.49    0.67
  11   0   1   16.44    0.57
  12   0   1    0.18    0.12
 -12   0  -1    0.11    0.16
 -12   0  -1   -0.14    0.19
  12  -1  -1    2.36    0.23
 -12  -1   1    2.56    0.29
 -12   1   1    3.20    0.36
 -12   1   1    2.43    0.27
  12   1  -1    2.55    0.24
 -11  -1   1   22.84    0.79
 -11  -1   1   22.23    0.78
  11  -1  -1   22.60    0.74
 -11   1   1   22.75    0.76
  11   1  -1   22.76    0.74
  10  -1  -1   30.52    0.92
 -10  -1   1   29.92    0.97
 -10  -1   1   30.14    0.97
 -10   1   1   30.14    1.02
 -10   1   1   28.88    0.93
  10   1  -1   31.02    0.93
  -9  -1   1   13.87    0.54
   9  -1  -1   13.74    0.49
  -9  -1   1   13.64    0.54
  -9   1   1   13.86    0.59
  -9   1   1   13.37    0.51
   9   1  -1   13.84    0.50
   8  -1  -1    0.97    0.14
  -8  -1   1    1.05    0.17
  -8  -1   1    1.39    0.20
  -8   1   1    0.76    0.16
   8   1  -1    1.10    0.14
  -8   1   1    0.80    0.13
   7  -1  -1   14.51    0.49
  -7  -1   1   15.41    0.53
  -7  -1   1   13.59    0.56
  -7   1   1   12.14    0.65
  -7   1   1   14.17    0.50
   7   1  -1   13.75    0.49
   7   1  -1   14.53    0.41
  -6  -1   1   57.10    1.66
  -6  -1   1   60.48    1.61
  -6   1   1   55.53    1.70
   6   1  -1   55.25    1.62
  -6   1   1   59.31    1.59
   6   1  -1   61.19    1.50
  -5  -1   1  236.34    6.15
   5  -1  -1  249.47    6.14
  -5  -1   1  250.76    6.18
  -5   1   1  248.91    6.15
   5   1  -1  242.53    6.09
   5   1  -1  240.95    6.15
  -5   1   1  228.65    6.21
   4  -1  -1    6.77    0.26
  -4  -1   1    6.68    0.28
   4   1  -1    6.99    0.23
  -4   1   1    6.76    0.31
  -4   1   1    6.90    0.26
   4   1  -1    6.92    0.27
  -3  -1   1  236.84    5.86
  -3  -1   1  236.32    5.93
   3  -1  -1  229.09    5.85
  -3   1   1  216.93    5.84
   3   1  -1  211.99    5.78
   3   1  -1  230.33    5.87
   3   1  -1  232.68    5.88
  -3   1   1  244.60    5.78
  -3   1   1  247.65    5.95
  -3   1   1  212.68    5.83
   2  -1  -1   68.35    1.74
  -2  -1   1   63.46    1.74
  -2  -1   1   59.20    1.73
   2  -1  -1   70.74    1.73
  -2   1   1   73.22    1.72
  -2   1   1   68.23    1.79
  -2   1   1   71.00    1.73
   2   1  -1   67.71    1.75
   2   1  -1   67.37    1.74
   2   1  -1   67.70    1.73
  -1  -1   1   70.88    1.75
  -1  -1   1   59.23    1.74
   1  -1  -1   68.79    1.73
   1  -1  -1   63.31    1.76
  -1  -1   1   76.59    1.73
   1  -1  -1   73.28    1.74
  -1  -1   1   69.29    1.72
  -1   1   1   66.82    1.74
   1   1  -1   63.43    1.75
   1   1  -1   71.17    1.74
  -1   1   1   70.09    1.74
   1   1  -1   66.22    1.74
  -1   1   1   68.36    1.73
  -1   1   1   67.16    1.76
   0  -1  -1   12.30    0.35
   0  -1   1   13.04    0.35
   0  -1   1   12.48    0.33
   0  -1  -1   11.52    0.34
   0  -1   1   10.88    0.34
   0  -1   1   12.22    0.35
   0  -1  -1   11.46    0.35
   0  -1  -1   12.26    0.34
   0   1  -1   12.65    0.33
   0   1  -1   12.41    0.35
   0   1   1   11.74    0.35
   0   1  -1   12.44    0.35
   0   1   1   11.73    0.33
   0   1   1   12.04    0.33
   1  -1   1    2.67    0.11
   1  -1   1    2.45    0.10
  -1  -1  -1    2.43    0.12
  -1  -1  -1    2.73    0.12
   1   1   1    2.60    0.11
  -1   1  -1    2.31    0.09
   1   1   1    2.57    0.11
  -2  -1  -1   77.32    1.97
   2  -1   1   74.73    1.91
  -2  -1  -1   79.04    1.95
   2  -1   1   74.03    1.95
   2  -1   1   76.85    1.93
  -2  -1  -1   72.97    1.94
  -2  -1  -1   75.41    1.92
  -2   1  -1   66.46    1.92
  -2   1  -1   76.51    1.90
   2   1   1   79.21    1.92
  -2   1  -1   75.50    1.99
   2   1   1   77.24    1.94
  -3  -1  -1   28.32    0.75
  -3  -1  -1   26.90    0.78
   3  -1   1   27.79    0.74
  -3  -1  -1   24.29    0.73
   3   1   1   26.01    0.73
  -3   1  -1   27.86    0.76
  -3   1  -1   26.75    0.81
   3   1   1   26.76    0.73
  -4  -1  -1    1.37    0.13
   4  -1   1    1.73    0.11
  -4   1  -1    1.44    0.16
  -4   1  -1    1.53    0.12
   4   1   1    1.63    0.10
   4   1   1    1.42    0.11
   5  -1   1  192.33    4.68
  -5  -1  -1  184.88    4.70
  -5  -1  -1  181.12    4.73
  -5   1  -1  180.56    4.77
   5   1   1  174.54    4.68
  -5   1  -1  192.06    4.71
   5   1   1  180.13    4.61
  -6  -1  -1    0.32    0.10
  -6  -1  -1    0.55    0.12
  -6   1  -1    0.42    0.10
   6   1   1    0.43    0.06
   6   1   1    0.40    0.09
   7  -1   1    0.26    0.08
  -7  -1  -1    0.38    0.12
  -7   1  -1    0.26    0.12
   7   1   1    0.48    0.10
   8  -1   1   23.65    0.74
  -8  -1  -1   24.55    0.79
  -8  -1  -1   23.29    0.79
  -8   1  -1   23.77    0.77
   8   1   1   23.38    0.74
  -8   1  -1   23.99    0.84
  -9  -1  -1  117.37    3.12
  -9  -1  -1  114.46    3.10
   9  -1   1  118.45    3.05
   9   1   1  119.26    3.07
  -9   1  -1  114.59    3.09
  -9   1  -1  114.25    3.17
 -10  -1  -1    3.11    0.27
 -10  -1  -1    3.12    0.29
  10  -1   1    2.53    0.21
 -10   1  -1    3.06    0.34
  10   1   1    2.99    0.23
 -10   1  -1    2.67    0.25
  11  -1   1   23.65    0.75
 -11  -1  -1   23.38    0.81
 -11  -1  -1   23.16    0.83
  11   1   1   23.65    0.76
 -11   1  -1   22.96    0.95
 -11   1  -1   24.20    0.80
 -12  -1  -1    8.51    0.45
  12  -1   1    8.74    0.39
  12   1   1    8.53    0.39
 -12   1  -1    8.22    0.42
 -12   1  -1    9.18    0.52
  12  -2  -1    1.61    0.25
 -12  -2   1    1.46    0.23
  12  -2  -1    1.39    0.19
  12   2  -1    1.53    0.22
 -12   2   1    1.41    0.27
 -11  -2   1   15.01    0.60
  11  -2  -1   15.14    0.55
  11  -2  -1   14.78    0.60
 -11   2   1   15.09    0.67
  11   2  -1   15.33    0.56
  10  -2  -1   14.05    0.51
 -10  -2   1   13.68    0.57
 -10  -2   1   14.64    0.54
 -10   2   1   14.06    0.53
 -10   2   1   14.12    0.62
  10   2  -1   14.45    0.53
   9  -2  -1    7.86    0.35
  -9  -2   1    7.93    0.40
  -9  -2   1    8.01    0.37
   9   2  -1    8.03    0.36
  -9   2   1    8.13    0.46
  -9   2   1    7.65    0.36
  -8  -2   1    7.04    0.36
   8  -2  -1    6.48    0.30
  -8  -2   1    6.77    0.33
  -8   2   1    5.96    0.30
   8   2  -1    6.39    0.31
   8   2  -1    6.41    0.24
  -8   2   1    6.23    0.38
  -7  -2   1  122.06    3.08
   7  -2  -1  117.72    3.09
  -7  -2   1  120.12    3.16
  -7   2   1  114.69    3.08
   7   2  -1  114.45    3.09
   7   2  -1  121.68    3.03
  -7   2   1  117.89    3.20
  -6  -2   1    5.79    0.26
   6  -2  -1    6.05    0.26
  -6  -2   1    5.29    0.29
   6   2  -1    5.30    0.26
  -6   2   1    5.32    0.35
   6   2  -1    5.58    0.23
  -6   2   1    5.41    0.25
   5  -2  -1    0.39    0.08
  -5  -2   1    0.34    0.08
   5  -2  -1    0.60    0.09
  -5   2   1    0.63    0.08
   5   2  -1    0.50    0.08
  -5   2   1    0.44    0.12
  -4  -2   1   78.75    2.05
   4  -2  -1   76.31    2.00
  -4  -2   1   78.12    1.97
   4  -2  -1   76.22    1.99
  -4   2   1   77.38    2.08
   4   2  -1   75.64    1.99
   4   2  -1   75.62    2.01
   4   2  -1   69.46    1.95
  -4   2   1   78.52    1.96
  -3  -2   1    3.42    0.19
   3  -2  -1    3.06    0.15
   3  -2  -1    3.22    0.15
   3   2  -1    3.22    0.17
  -3   2   1    3.16    0.20
   3   2  -1    3.46    0.17
  -3   2   1    2.99    0.15
   3   2  -1    3.15    0.12
   2  -2  -1    7.33    0.25
   2  -2  -1    7.58    0.26
  -2  -2   1    7.87    0.29
  -2  -2   1    7.27    0.26
  -2   2   1    7.15    0.29
   2   2  -1    7.58    0.28
  -2   2   1    7.32    0.26
   1  -2  -1  276.23    6.64
   1  -2  -1  256.92    6.61
  -1  -2   1  264.75    6.60
  -1  -2   1  259.14    6.45
   1   2  -1  240.87    6.45
  -1   2   1  236.69    6.44
   1   2  -1  264.49    6.50
  -1   2   1  248.86    6.47
   0  -2  -1   10.59    0.32
   0  -2   1    9.19    0.31
   0  -2   1    9.52    0.30
   0  -2  -1    9.25    0.30
   0  -2   1    9.24    0.31
   0  -2  -1    9.20    0.30
   0   2  -1    9.85    0.33
   0   2  -1    9.08    0.29
   0   2  -1    9.77    0.31
   0   2   1    9.34    0.29
   1  -2   1   45.86    1.16
  -1  -2  -1   45.54    1.19
  -1  -2  -1   41.54    1.18
   1  -2   1   44.18    1.18
  -1   2  -1   44.16    1.21
  -1   2  -1   43.48    1.18
  -2  -2  -1  106.06    2.69
   2  -2   1  105.47    2.65
   2  -2   1  103.93    2.68
  -2  -2  -1  102.90    2.70
   2   2   1  103.37    2.68
  -2   2  -1  102.62    2.65
  -2   2  -1  103.01    2.72
   3  -2   1  266.01    6.59
  -3  -2  -1  263.87    6.53
   3  -2   1  260.17    6.52
  -3  -2  -1  252.70    6.55
  -3   2  -1  254.08    6.54
  -3   2  -1  253.86    6.58
   3   2   1  256.15    6.51
  -4  -2  -1  130.97    3.16
   4  -2   1  122.02    3.14
   4  -2   1  120.24    3.21
  -4  -2  -1  132.24    3.27
   4  -2   1  128.19    3.19
   4   2   1  124.73    3.23
  -4   2  -1  121.93    3.14
   4   2   1  123.81    3.20
   4   2   1  117.99    3.15
  -5  -2  -1   53.04    1.49
   5  -2   1   52.62    1.43
  -5  -2  -1   51.88    1.38
   5  -2   1   51.77    1.40
   5   2   1   51.05    1.38
   5   2   1   51.13    1.43
  -6  -2  -1    1.06    0.14
   6  -2   1    1.02    0.15
   6  -2   1    1.23    0.14
   6   2   1    1.37    0.12
  -7  -2  -1   12.38    0.42
   7  -2   1   10.76    0.40
  -7  -2  -1   10.54    0.45
   7  -2   1   10.24    0.41
   7   2   1   10.49    0.41
   7   2   1   10.65    0.35
  -7   2  -1   10.33    0.42
  -7   2  -1    9.90    0.48
  -8  -2  -1   80.94    2.11
  -8  -2  -1   77.38    2.18
   8  -2   1   80.62    2.11
   8   2   1   77.37    2.12
  -8   2  -1   75.55    2.23
   8   2   1   81.09    2.03
  -8   2  -1   78.29    2.14
   9  -2   1    4.28    0.26
  -9  -2  -1    4.90    0.32
   9  -2   1    4.52    0.28
  -9  -2  -1    4.43    0.29
  -9   2  -1    4.50    0.29
  -9   2  -1    4.63    0.36
   9   2   1    5.01    0.28
  10  -2   1    3.41    0.26
  10  -2   1    3.43    0.24
 -10   2  -1    3.14    0.34
  11  -2   1   30.10    0.95
  11  -2   1   30.21    0.92
 -11  -2  -1   29.96    0.99
  11   2   1   29.92    0.93
 -11   2  -1   29.89    1.06
 -11  -3   1    5.63    0.38
  11  -3  -1    4.96    0.34
  11  -3  -1    5.12    0.30
 -11   3   1    4.97    0.42
  11   3  -1    5.62    0.32
  10  -3  -1   44.00    1.41
  10  -3  -1   48.99    1.37
 -10  -3   1   48.39    1.44
  10   3  -1   49.59    1.39
 -10   3   1   48.96    1.51
   9  -3  -1   14.64    0.53
   9  -3  -1   14.62    0.52
  -9  -3   1   14.18    0.59
   9   3  -1   15.27    0.55
  -9   3   1   14.61    0.63
  -8  -3   1    0.28    0.12
   8  -3  -1    0.57    0.12
   8  -3  -1    0.45    0.12
   8   3  -1    0.30    0.11
   8   3  -1    0.51    0.10
  -8   3   1    0.31    0.17
   7  -3  -1  100.97    2.65
  -7  -3   1  102.25    2.73
  -7  -3   1  104.45    2.60
  -7   3   1   98.83    2.77
   7   3  -1  101.00    2.68
   7   3  -1   97.62    2.66
  -6  -3   1    0.80    0.12
   6  -3  -1    0.88    0.13
   6  -3  -1    0.85    0.19
   6   3  -1    0.89    0.13
  -6   3   1    1.23    0.12
   6   3  -1    0.85    0.12
  -6   3   1    0.61    0.15
   5  -3  -1    3.05    0.18
   5  -3  -1    3.08    0.18
  -5  -3   1    2.77    0.24
   5   3  -1    3.48    0.21
   5   3  -1    2.90    0.19
  -5   3   1    2.94    0.17
  -5   3   1    2.75    0.24
   4  -3  -1    9.67    0.35
  -4  -3   1    9.26    0.43
   4  -3  -1   10.07    0.35
   4   3  -1   10.09    0.37
  -4   3   1   10.42    0.35
   4   3  -1   10.03    0.37
  -4   3   1    9.63    0.42
   3  -3  -1   28.41    0.81
  -3  -3   1   28.34    0.82
  -3  -3   1   28.37    0.85
   3  -3  -1   28.02    0.81
   3   3  -1   28.51    0.84
  -3   3   1   28.36    0.81
  -3   3   1   28.69    0.88
  -2  -3   1    0.78    0.11
   2  -3  -1    0.97    0.10
   2  -3  -1    0.65    0.09
   2   3  -1    0.83    0.12
  -2   3   1    0.63    0.11
  -1  -3   1  239.16    6.13
   1  -3  -1  246.40    6.17
  -1  -3   1  237.93    6.19
   1  -3  -1  248.18    6.18
  -1  -3   1  243.37    6.17
   1   3  -1  253.50    6.15
  -1   3   1  245.80    6.20
  -1   3   1  241.07    6.18
   1   3  -1  244.74    6.21
   0  -3  -1   34.25    0.95
   0  -3   1   33.02    0.93
   0  -3  -1   34.10    0.94
   0  -3   1   32.05    0.95
   0   3   1   34.16    0.97
   0   3  -1   35.62    0.94
   0   3   1   33.28    0.92
   0   3  -1   34.41    0.97
  -1  -3  -1   51.32    1.38
   1  -3   1   49.35    1.37
   1  -3   1   51.23    1.35
  -1  -3  -1   50.57    1.38
   1   3   1   50.45    1.39
  -1   3  -1   51.60    1.39
  -1   3  -1   51.32    1.39
   2  -3   1   47.36    1.28
   2  -3   1   48.60    1.26
  -2  -3  -1   47.45    1.31
  -2  -3  -1   47.67    1.29
  -2   3  -1   44.77    1.32
  -2   3  -1   45.61    1.27
  -3  -3  -1    0.47    0.10
   3  -3   1    0.39    0.08
   3  -3   1    0.44    0.07
  -3  -3  -1    0.48    0.09
   3   3   1    0.58    0.10
  -3   3  -1    0.33    0.09
  -3   3  -1    0.39    0.11
   4  -3   1   16.25    0.49
  -4  -3  -1   15.81    0.53
   4  -3   1   15.80    0.52
  -4  -3  -1   14.41    0.59
   4   3   1   16.26    0.52
  -4   3  -1   15.46    0.58
  -4   3  -1   16.67    0.48
   5  -3   1   97.89    2.51
   5  -3   1   93.14    2.57
  -5   3  -1   91.08    2.46
   5   3   1   95.40    2.52
   5   3   1   91.63    2.55
  -5   3  -1  111.77    3.00
  -6  -3  -1  100.39    2.68
   6  -3   1  103.93    2.77
   6  -3   1   99.08    2.65
  -6   3  -1   93.44    2.71
   6   3   1   95.35    2.62
   6   3   1  101.03    2.58
   7  -3   1   46.56    1.30
  -7  -3  -1   47.89    1.23
  -7  -3  -1   46.97    1.38
   7  -3   1   44.95    1.27
   7   3   1   44.51    1.31
  -7   3  -1   43.66    1.41
   8  -3   1   30.79    0.94
   8  -3   1   31.16    0.92
  -8  -3  -1   31.57    1.01
  -8   3  -1   30.08    1.06
   8   3   1   31.72    0.95
   8   3   1   31.44    0.88
   9  -3   1   12.51    0.46
  -9  -3  -1   11.88    0.53
   9  -3   1   12.58    0.49
  -9   3  -1   12.41    0.59
   9   3   1   12.79    0.49
 -10  -3  -1    0.24    0.15
  10  -3   1    0.20    0.13
  10   3   1    0.11    0.11
 -10   3  -1    0.07    0.17
 -11  -3  -1    4.17    0.36
  11  -3   1    4.67    0.32
  11  -3   1    4.41    0.27
 -11   3  -1    4.27    0.41
  11   3   1    4.20    0.29
  10  -4  -1    2.93    0.24
 -10  -4   1    2.56    0.29
  10  -4  -1    2.79    0.26
  10   4  -1    3.14    0.25
 -10   4   1    2.84    0.35
   9  -4  -1   33.87    1.00
   9  -4  -1   33.04    0.99
  -9  -4   1   33.55    1.08
   9   4  -1   33.15    0.95
  -9   4   1   32.64    1.12
  -8  -4   1   46.94    1.40
   8  -4  -1   47.57    1.32
   8  -4  -1   45.53    1.32
   8   4  -1   47.14    1.29
   8   4  -1   46.94    1.34
  -8   4   1   46.86    1.45
   7  -4  -1   14.94    0.52
   7  -4  -1   14.69    0.52
  -7  -4   1   14.97    0.59
  -7   4   1   15.74    0.63
   7   4  -1   15.20    0.51
   7   4  -1   15.11    0.55
   6  -4  -1    3.13    0.20
   6  -4  -1    3.39    0.22
  -6  -4   1    3.12    0.25
   6   4  -1    3.34    0.23
  -6   4   1    3.21    0.20
   6   4  -1    3.20    0.21
  -6   4   1    2.95    0.28
  -5  -4   1   11.48    0.48
   5  -4  -1   11.22    0.41
  -5   4   1   11.67    0.40
   5   4  -1   11.68    0.44
   5   4  -1   11.20    0.43
  -5   4   1   12.02    0.50
   4  -4  -1    8.76    0.33
   4  -4  -1    8.53    0.33
  -4  -4   1    8.35    0.34
  -4  -4   1    8.21    0.37
  -4   4   1    8.97    0.34
  -4   4   1    8.19    0.39
   3  -4  -1    0.31    0.09
  -3  -4   1    0.25    0.09
  -3   4   1    0.34    0.10
   3   4  -1    0.28    0.09
   2  -4  -1    2.88    0.18
   2  -4  -1    3.55    0.19
  -2  -4   1    2.84    0.18
  -2   4   1    3.09    0.21
  -2   4   1    2.87    0.19
   2   4  -1    3.15    0.21
  -1  -4   1  120.41    3.14
   1  -4  -1  120.79    3.12
  -1  -4   1  120.99    3.11
   1  -4  -1  122.45    3.13
  -1   4   1  115.31    3.13
   1   4  -1  121.70    3.06
  -1   4   1  121.51    3.12
   0  -4   1  155.03    4.09
   0  -4  -1  156.98    4.08
   0  -4  -1  164.48    4.10
   0  -4   1  158.99    4.07
   0   4   1  165.31    4.05
   0   4   1  152.99    4.10
   0   4  -1  156.29    4.11
   0   4  -1  164.16    4.06
  -1  -4  -1   81.85    2.13
   1  -4   1   84.32    2.11
   1  -4   1   80.23    2.12
  -1  -4  -1   75.92    2.12
  -1   4  -1   77.78    2.13
  -1   4  -1   80.23    2.13
   2  -4   1   10.10    0.37
  -2  -4  -1    9.18    0.37
   2  -4   1   10.33    0.35
  -2   4  -1    9.33    0.37
  -2   4  -1    9.28    0.40
   2   4   1    9.25    0.38
  -3  -4  -1    0.51    0.11
   3  -4   1    0.61    0.09
  -3  -4  -1    0.58    0.12
   3  -4   1    0.60    0.10
   3   4   1    0.83    0.12
  -3   4  -1    0.30    0.10
  -3   4  -1    0.41    0.12
   4  -4   1    7.74    0.30
  -4  -4  -1    7.35    0.36
  -4  -4  -1    7.23    0.36
   4  -4   1    7.78    0.32
  -4   4  -1    8.23    0.31
  -4   4  -1    7.70    0.44
  -5  -4  -1   88.37    2.45
   5  -4   1   92.39    2.36
  -5  -4  -1   87.89    2.40
   5   4   1   89.89    2.38
   5   4   1   89.64    2.40
  -5   4  -1   86.51    2.47
  -5   4  -1   95.07    2.34
   6  -4   1   17.99    0.59
   6  -4   1   17.83    0.56
  -6  -4  -1   17.86    0.65
  -6   4  -1   17.35    0.68
  -6   4  -1   17.43    0.52
   6   4   1   17.35    0.60
   6   4   1   17.55    0.57
   7  -4   1   36.88    1.08
  -7  -4  -1   36.56    1.15
   7  -4   1   36.37    1.05
  -7   4  -1   35.33    1.18
   7   4   1   37.82    1.09
   7   4   1   36.91    1.05
  -8  -4  -1   14.21    0.59
   8  -4   1   13.99    0.49
   8  -4   1   13.98    0.52
   8   4   1   14.98    0.54
   8   4   1   14.14    0.48
  -8   4  -1   13.76    0.63
  -9  -4  -1    6.75    0.41
   9  -4   1    7.39    0.33
   9  -4   1    7.07    0.36
  -9   4  -1    7.12    0.46
   9   4   1    7.54    0.36
 -10  -4  -1    6.37    0.40
  10  -4   1    6.48    0.32
  10  -4   1    6.29    0.38
  10   4   1    6.29    0.34
 -10   4  -1    6.47    0.46
  10  -5  -1    2.21    0.24
 -10  -5   1    1.78    0.24
 -10   5   1    2.11    0.35
  10   5  -1    1.79    0.25
  -9  -5   1    4.42    0.35
   9  -5  -1    4.43    0.29
   9  -5  -1    4.45    0.29
   9   5  -1    4.21    0.27
  -9   5   1    4.74    0.39
   9   5  -1    4.99    0.31
   8  -5  -1    0.52    0.14
  -8  -5   1    0.49    0.16
   8  -5  -1    0.44    0.12
  -8   5   1    0.70    0.19
   8   5  -1    0.60    0.13
   8   5  -1    0.51    0.21
   7  -5  -1   21.42    0.68
   7  -5  -1   20.60    0.67
  -7  -5   1   21.41    0.76
   7   5  -1   21.18    0.70
  -7   5   1   21.77    0.79
   7   5  -1   21.32    0.68
  -6  -5   1   57.26    1.65
   6  -5  -1   57.69    1.57
   6  -5  -1   57.56    1.57
  -6   5   1   56.16    1.66
   6   5  -1   57.12    1.58
  -6   5   1   55.93    1.53
   6   5  -1   58.34    1.60
   5  -5  -1    6.08    0.29
   5  -5  -1    5.89    0.29
  -5  -5   1    6.27    0.34
  -5   5   1    6.63    0.29
   5   5  -1    6.37    0.31
  -5   5   1    6.23    0.35
   5   5  -1    6.19    0.31
   4  -5  -1    0.82    0.13
  -4  -5   1    0.52    0.13
   4  -5  -1    0.38    0.10
   4   5  -1    0.59    0.12
  -4   5   1    0.62    0.14
   3  -5  -1   51.49    1.44
   3  -5  -1   54.12    1.44
  -3  -5   1   48.12    1.48
  -3  -5   1   53.31    1.49
  -3   5   1   51.18    1.49
   3   5  -1   53.51    1.48
  -3   5   1   53.91    1.49
  -2  -5   1   50.98    1.46
  -2  -5   1   50.14    1.43
   2  -5  -1   53.33    1.48
   2  -5  -1   52.27    1.43
  -2   5   1   52.71    1.45
   2   5  -1   53.15    1.47
  -2   5   1   51.22    1.45
   1  -5  -1   57.99    1.61
   1  -5  -1   59.11    1.61
  -1  -5   1   57.63    1.63
   1   5  -1   60.40    1.54
  -1   5   1   60.20    1.60
  -1   5   1   58.73    1.63
   1   5  -1   59.17    1.64
   0  -5  -1    1.31    0.16
   0  -5   1    1.27    0.15
   0  -5  -1    1.15    0.15
   0   5  -1    1.58    0.15
   0   5  -1    1.17    0.17
   0   5   1    1.31    0.15
   0   5   1    1.55    0.17
  -1  -5  -1    3.32    0.23
   1  -5   1    3.44    0.20
  -1  -5  -1    3.18    0.22
  -1   5  -1    3.23    0.22
   1   5   1    2.87    0.21
  -1   5  -1    3.46    0.22
  -2  -5  -1   22.29    0.74
  -2  -5  -1   23.20    0.73
  -2   5  -1   23.88    0.75
  -2   5  -1   23.27    0.73
  -3  -5  -1    1.98    0.19
   3  -5   1    1.91    0.16
  -3  -5  -1    1.86    0.20
   3  -5   1    1.76    0.17
   3   5   1    1.67    0.18
   4  -5   1    0.92    0.13
  -4  -5  -1    1.06    0.17
   4  -5   1    1.39    0.16
  -4  -5  -1    1.09    0.17
  -4   5  -1    0.97    0.17
  -4   5  -1    0.81    0.13
   4   5   1    0.98    0.15
   5  -5   1    5.35    0.26
  -5  -5  -1    5.41    0.30
  -5  -5  -1    5.95    0.34
   5  -5   1    6.22    0.29
  -5   5  -1    5.48    0.35
  -5   5  -1    5.36    0.27
   5   5   1    4.98    0.28
  -6  -5  -1   57.29    1.65
   6  -5   1   56.97    1.55
   6  -5   1   54.73    1.57
   6   5   1   56.71    1.59
   6   5   1   58.23    1.57
  -6   5  -1   56.43    1.67
  -7  -5  -1   54.32    1.62
   7  -5   1   54.56    1.54
   7  -5   1   54.79    1.51
   7   5   1   55.74    1.56
  -7   5  -1   55.41    1.66
   7   5   1   56.20    1.52
   8  -5   1    0.05    0.12
  -8  -5  -1   -0.01    0.16
   8  -5   1    0.12    0.11
   8   5   1    0.08    0.10
  -8   5  -1    0.26    0.17
   8   5   1    0.06    0.11
  -9  -5  -1   11.85    0.55
   9  -5   1   11.81    0.46
  -9   5  -1   11.93    0.59
   9   5   1   12.08    0.49
   8  -6  -1    1.97    0.22
  -8  -6   1    1.82    0.28
  -8   6   1    2.03    0.31
   8   6  -1    1.92    0.22
   8   6  -1    2.19    0.25
   7  -6  -1    6.07    0.33
  -7  -6   1    6.42    0.39
   7  -6  -1    6.15    0.33
  -7   6   1    6.45    0.40
   7   6  -1    6.11    0.38
  -6  -6   1    0.59    0.21
   6  -6  -1    0.34    0.12
   6  -6  -1    0.36    0.13
  -6   6   1    0.24    0.14
   6   6  -1    0.38    0.13
  -6   6   1    0.25    0.16
   6   6  -1    0.24    0.12
   5  -6  -1    0.08    0.11
  -5  -6   1    0.59    0.16
   5  -6  -1    0.24    0.11
   5   6  -1    0.03    0.11
   5   6  -1    0.14    0.11
  -5   6   1    0.27    0.12
   4  -6  -1   52.37    1.44
  -4  -6   1   51.50    1.51
  -4  -6   1   51.71    1.46
   4  -6  -1   50.91    1.45
  -4   6   1   52.09    1.49
  -4   6   1   53.16    1.45
   4   6  -1   52.20    1.48
  -3  -6   1    1.00    0.15
  -3   6   1    1.06    0.16
   3   6  -1    1.14    0.17
  -3   6   1    1.36    0.18
  -2  -6   1    3.28    0.23
  -2  -6   1    3.39    0.25
   2  -6  -1    3.08    0.22
   2  -6  -1    3.47    0.22
   2   6  -1    3.03    0.24
  -2   6   1    2.80    0.23
  -2   6   1    3.29    0.24
  -1  -6   1    0.17    0.11
  -1  -6   1    0.43    0.12
   1  -6  -1    0.18    0.10
   1  -6  -1    0.28    0.11
   1   6  -1    0.22    0.11
  -1   6   1    0.24    0.11
  -1   6   1    0.36    0.12
   0  -6  -1   43.34    1.27
   0  -6   1   44.51    1.26
   0  -6   1   46.20    1.29
   0  -6  -1   43.33    1.26
   0   6  -1   45.14    1.22
   0   6  -1   43.89    1.28
   0   6   1   45.58    1.29
  -1  -6  -1   59.73    1.70
  -1  -6  -1   61.20    1.69
   1  -6   1   60.00    1.66
   1  -6   1   61.74    1.69
   1   6   1   61.20    1.70
  -1   6  -1   62.98    1.67
  -1   6  -1   61.33    1.70
   2  -6   1    3.20    0.22
  -2  -6  -1    3.06    0.25
  -2  -6  -1    2.99    0.23
   2  -6   1    3.28    0.22
  -2   6  -1    3.07    0.24
   2   6   1    3.33    0.24
   3  -6   1   13.60    0.49
   3  -6   1   13.12    0.47
  -3  -6  -1   13.37    0.51
  -3  -6  -1   13.23    0.53
   3   6   1   13.15    0.50
  -3   6  -1   14.39    0.50
  -3   6  -1   12.98    0.52
   4  -6   1   17.29    0.57
  -4  -6  -1   17.35    0.64
   4  -6   1   17.07    0.59
  -4  -6  -1   17.68    0.61
   4   6   1   17.24    0.60
  -4   6  -1   16.89    0.63
  -4   6  -1   16.74    0.58
  -5  -6  -1   12.91    0.54
  -5  -6  -1   13.08    0.50
   5  -6   1   13.12    0.48
   5  -6   1   12.64    0.46
  -5   6  -1   12.92    0.46
  -5   6  -1   12.63    0.54
   5   6   1   12.29    0.48
   6  -6   1    6.59    0.32
   6  -6   1    6.48    0.34
   6   6   1    7.17    0.35
   6   6   1    7.26    0.34
  -6   6  -1    7.10    0.42
   7  -6   1    2.30    0.24
  -7  -6  -1    1.96    0.28
   7  -6   1    1.79    0.21
   7   6   1    1.97    0.28
  -7   6  -1    1.57    0.24
   7   6   1    2.07    0.23
   8  -6   1    4.14    0.27
   8  -6   1    3.66    0.29
  -8  -6  -1    4.42    0.35
  -8   6  -1    3.92    0.38
   8   6   1    4.03    0.29
   8   6   1    4.10    0.27
  -6  -7   1   11.21    0.51
   6  -7  -1   11.11    0.45
   6   7  -1   11.44    0.47
   6   7  -1   11.76    0.47
  -6   7   1   10.97    0.51
   5  -7  -1   30.00    0.93
   5  -7  -1   30.86    0.92
  -5  -7   1   30.54    0.99
  -5   7   1   30.32    0.99
   5   7  -1   31.18    0.95
  -5   7   1   30.60    0.92
  -4  -7   1    4.56    0.33
   4  -7  -1    5.00    0.29
  -4  -7   1    4.58    0.29
   4  -7  -1    4.38    0.28
   4   7  -1    4.48    0.30
  -4   7   1    4.92    0.30
  -4   7   1    5.10    0.32
  -3  -7   1   31.32    0.93
  -3  -7   1   29.66    0.99
   3  -7  -1   30.77    0.92
   3  -7  -1   30.32    0.93
  -3   7   1   31.25    0.94
   3   7  -1   31.66    0.96
  -3   7   1   30.02    0.94
   2  -7  -1    1.00    0.16
   2  -7  -1    0.59    0.14
  -2  -7   1    0.86    0.16
  -2   7   1    0.62    0.14
   1  -7  -1    0.57    0.14
  -1  -7   1    0.31    0.12
  -1  -7   1    0.47    0.14
   1  -7  -1    0.35    0.13
   1   7  -1    0.31    0.12
   0  -7   1    2.51    0.23
   0  -7   1    2.61    0.23
   0  -7  -1    2.17    0.23
   0  -7  -1    2.41    0.24
   0   7   1    2.79    0.24
   0   7  -1    2.47    0.23
  -1  -7  -1    0.86    0.16
   1  -7   1    0.72    0.14
  -1  -7  -1    0.93    0.17
   1  -7   1    0.97    0.16
   1   7   1    1.07    0.17
  -1   7  -1    0.95    0.15
  -2  -7  -1   68.98    1.91
   2  -7   1   69.09    1.89
   2  -7   1   70.51    1.91
  -2  -7  -1   70.00    1.95
  -2   7  -1   70.62    1.92
   3  -7   1    5.06    0.30
  -3  -7  -1    5.05    0.30
   3  -7   1    5.23    0.28
  -3  -7  -1    5.09    0.34
  -3   7  -1    5.33    0.31
  -3   7  -1    5.21    0.32
   3   7   1    4.92    0.30
   4  -7   1   13.81    0.51
  -4  -7  -1   13.67    0.55
  -4  -7  -1   14.01    0.64
   4  -7   1   15.05    0.53
  -4   7  -1   14.99    0.54
  -4   7  -1   14.68    0.57
   4   7   1   14.98    0.54
  -5  -7  -1   13.21    0.55
  -5  -7  -1   12.86    0.51
   5  -7   1   12.94    0.49
   5  -7   1   12.44    0.48
  -5   7  -1   12.72    0.48
  -5   7  -1   12.35    0.55
   5   7   1   12.26    0.49
   6  -7   1    2.27    0.24
   6  -7   1    2.27    0.28
  -6  -7  -1    1.87    0.29
   6   7   1    1.72    0.23
   6   7   1    2.22    0.25
  -6   7  -1    1.99    0.29
   3  -8  -1   21.19    0.88
  -3  -8   1   25.22    0.79
   3  -8  -1   24.43    0.78
  -3  -8   1   25.20    0.84
   3   8  -1   23.94    0.80
  -3   8   1   25.62    0.79
   2  -8  -1    1.12    0.18
  -2  -8   1    1.57    0.22
  -2   8   1    1.24    0.18
   2   8  -1    1.21    0.18
   1  -8  -1    1.97    0.29
  -1  -8   1    2.27    0.25
  -1  -8   1    2.64    0.27
   1   8  -1    2.41    0.25
  -1   8   1    2.31    0.25
   0  -8   1    0.39    0.15
   0  -8  -1    0.60    0.18
   0  -8  -1    0.71    0.17
   0  -8   1    0.53    0.15
   0   8  -1    0.35    0.14
   0   8   1    0.87    0.16
  -1  -8  -1   13.42    0.52
   1  -8   1   14.08    0.54
  -1  -8  -1   13.66    0.55
   1   8   1   13.48    0.53
  -1   8  -1   14.23    0.54
  -2  -8  -1    1.64    0.23
  -2  -8  -1    1.66    0.25
   2  -8   1    1.52    0.24
  -2   8  -1    2.10    0.25
   2   8   1    1.61    0.21
   3  -8   1    6.38    0.35
  -3  -8  -1    6.48    0.36
  -3  -8  -1    6.42    0.39
  -3   8  -1    6.66    0.36
   3   8   1    6.33    0.34
 -12   0   2    1.47    0.21
  12   0  -2    1.28    0.20
 -12   0   2    1.21    0.23
  11   0  -2    0.69    0.14
 -11   0   2    0.35    0.17
 -11   0   2    0.07    0.14
  10   0  -2   18.85    0.64
 -10   0   2   19.12    0.71
 -10   0   2   19.08    0.66
   9   0  -2    0.33    0.10
  -9   0   2    0.08    0.12
  -9   0   2    0.27    0.12
   8   0  -2  274.37    7.18
  -8   0   2  289.88    7.21
  -8   0   2  283.64    7.24
  -7   0   2    0.49    0.11
  -7   0   2    0.40    0.12
  -6   0   2    0.51    0.10
  -6   0   2    0.43    0.12
   6   0  -2    0.28    0.05
  -5   0   2    0.73    0.12
  -4   0   2  233.04    6.03
   4   0  -2  260.79    6.09
  -4   0   2  231.91    6.13
  -4   0   2  249.90    6.14
   4   0  -2  230.10    6.09
  -3   0   2    0.72    0.07
   3   0  -2    0.81    0.07
   3   0  -2    0.57    0.05
   2   0  -2   41.29    1.03
   2   0  -2   38.03    1.03
  -2   0   2   37.68    1.06
  -2   0   2   33.83    1.02
   2   0  -2   42.02    1.02
  -2   0   2   42.04    1.01
  -2   0   2   40.28    1.03
  -1   0   2    0.97    0.05
  -1   0   2    0.95    0.05
  -1   0   2    0.96    0.07
  -1   0   2    0.81    0.05
   1   0  -2    1.12    0.05
   0   0  -2   18.88    0.49
   0   0   2   19.41    0.49
   0   0   2   17.99    0.48
   0   0  -2   18.67    0.48
   0   0  -2   17.89    0.48
   0   0   2   18.62    0.48
  -1   0  -2    0.67    0.04
   1   0   2    0.77    0.07
  -1   0  -2    0.79    0.07
   1   0   2    0.81    0.05
   1   0   2    0.67    0.04
  -1   0  -2    0.68    0.05
   2   0   2   17.38    0.49
  -2   0  -2   16.44    0.50
   2   0   2   15.30    0.49
   2   0   2   17.29    0.44
  -2   0  -2   17.17    0.44
   2   0   2   15.75    0.47
  -3   0  -2    0.18    0.05
  -3   0  -2    0.45    0.09
   3   0   2    0.40    0.04
   3   0   2    0.28    0.04
  -4   0  -2  335.05    8.23
   4   0   2  314.80    8.19
  -4   0  -2  327.85    8.25
  -5   0  -2    0.66    0.13
  -5   0  -2    0.26    0.08
   5   0   2    0.38    0.08
  -6   0  -2  276.63    7.16
  -6   0  -2  283.33    7.14
  -7   0  -2    0.32    0.13
   7   0   2    0.39    0.09
  -7   0  -2    0.27    0.10
  -8   0  -2   22.73    0.79
   8   0   2   22.87    0.72
  -8   0  -2   22.92    0.77
  -9   0  -2    0.32    0.15
   9   0   2    0.32    0.10
  -9   0  -2    0.21    0.12
 -10   0  -2   31.59    1.00
  10   0   2   31.51    0.95
 -10   0  -2   31.73    1.05
 -11   0  -2    0.03    0.17
  11   0   2    0.30    0.11
 -11   0  -2    0.04    0.13
 -12   0  -2   23.00    0.86
 -12   0  -2   23.62    0.82
  12   0   2   23.78    0.76
 -12  -1   2   11.44    0.58
 -12  -1   2    9.56    0.47
  12  -1  -2   10.55    0.44
  12   1  -2    9.58    0.43
 -12   1   2    9.58    0.45
 -12   1   2    9.76    0.53
 -11  -1   2    0.29    0.17
  11  -1  -2    0.12    0.11
 -11   1   2    0.08    0.13
  11   1  -2    0.19    0.11
  10  -1  -2   22.89    0.73
 -10  -1   2   22.36    0.78
 -10  -1   2   22.59    0.77
  10   1  -2   22.57    0.74
 -10   1   2   22.63    0.75
 -10   1   2   23.44    0.83
   9  -1  -2    0.22    0.09
  -9  -1   2    0.37    0.13
  -9  -1   2    0.34    0.14
  -9   1   2    0.15    0.15
  -9   1   2    0.14    0.11
   8  -1  -2   21.62    0.68
  -8  -1   2   20.61    0.71
  -8  -1   2   21.47    0.71
  -8   1   2   21.26    0.69
   8   1  -2   22.45    0.59
   8   1  -2   20.80    0.68
  -8   1   2   21.69    0.77
  -7  -1   2   50.96    1.41
   7  -1  -2   49.84    1.37
  -7   1   2   45.02    1.50
   7   1  -2   47.61    1.37
   7   1  -2   52.83    1.29
  -6  -1   2    0.82    0.13
   6   1  -2    0.72    0.09
  -6   1   2    0.80    0.12
   5  -1  -2    0.82    0.11
  -5  -1   2    0.89    0.13
  -5  -1   2    1.24    0.13
  -5   1   2    1.13    0.07
   5   1  -2    0.83    0.11
   5   1  -2    0.93    0.09
  -5   1   2    0.81    0.14
  -5   1   2    0.96    0.11
   4  -1  -2    0.45    0.06
  -4  -1   2    0.34    0.07
  -4  -1   2    0.30    0.08
   4  -1  -2    0.32    0.07
   4   1  -2    0.54    0.08
  -4   1   2    0.19    0.08
  -3  -1   2  142.63    3.66
   3  -1  -2  144.15    3.61
  -3  -1   2  142.97    3.65
   3  -1  -2  145.81    3.64
   3   1  -2  141.07    3.62
  -3   1   2  142.27    3.70
  -3   1   2  144.35    3.60
   3   1  -2  139.75    3.64
  -3   1   2  146.99    3.63
   2  -1  -2  894.69   20.18
  -2  -1   2  770.03   20.24
  -2  -1   2  705.51   20.16
  -2  -1   2  786.71   20.35
   2  -1  -2  794.32   20.28
   2  -1  -2  845.28   20.21
   2   1  -2  813.25   20.26
   2   1  -2  766.88   20.19
  -2   1   2  875.46   20.21
   2   1  -2  813.17   20.24
  -2   1   2  750.71   20.44
   1  -1  -2   93.55    2.63
   1  -1  -2  105.88    2.61
   1  -1  -2  108.40    2.61
  -1  -1   2   99.40    2.61
  -1  -1   2  115.56    2.61
  -1  -1   2  103.29    2.62
   1  -1  -2  105.44    2.61
   1   1  -2   90.97    2.61
   1   1  -2  101.03    2.61
   1   1  -2  109.25    2.59
  -1   1   2   99.41    2.63
   1   1  -2  102.27    2.60
  -1   1   2  100.30    2.61
  -1   1   2  106.06    2.60
   0  -1   2   49.60    1.40
   0  -1  -2   57.53    1.39
   0  -1   2   56.68    1.42
   0  -1   2   52.01    1.41
   0  -1  -2   53.32    1.40
   0   1   2   58.39    1.39
   0   1   2   52.40    1.41
   0   1  -2   55.10    1.40
   0   1   2   55.45    1.41
   0   1  -2   57.43    1.42
   0   1   2   58.77    1.41
   0   1  -2   49.52    1.41
   0   1   2   54.20    1.41
   1  -1   2   27.91    0.81
  -1  -1  -2   28.12    0.78
   1  -1   2   27.76    0.77
  -1  -1  -2   30.32    0.75
  -1  -1  -2   29.72    0.78
   1  -1   2   29.03    0.74
   1  -1   2   28.77    0.75
   1   1   2   29.19    0.77
   1   1   2   27.58    0.76
  -1   1  -2   27.97    0.74
  -1   1  -2   29.14    0.75
  -1   1  -2   27.73    0.80
   1   1   2   27.43    0.77
   1   1   2   29.51    0.75
   2  -1   2  124.12    3.10
   2  -1   2  118.94    3.05
  -2  -1  -2  125.58    3.11
  -2  -1  -2  124.34    3.08
   2  -1   2  122.19    3.06
  -2   1  -2  116.63    3.14
  -2   1  -2  114.62    3.07
   2   1   2  124.34    3.07
   2   1   2  122.35    3.08
  -3  -1  -2    7.54    0.26
   3  -1   2    7.17    0.25
  -3   1  -2    7.16    0.27
   3   1   2    7.19    0.24
   3   1   2    6.56    0.25
  -4  -1  -2    2.32    0.17
  -4  -1  -2    2.49    0.16
   4  -1   2    2.52    0.14
   4   1   2    2.34    0.14
  -4   1  -2    2.12    0.15
  -4   1  -2    2.89    0.21
   4   1   2    2.95    0.13
  -5  -1  -2   36.64    1.06
   5  -1   2   36.74    1.01
  -5  -1  -2   36.23    1.04
   5   1   2   37.05    0.96
  -5   1  -2   34.72    1.10
   5   1   2   35.38    1.02
  -5   1  -2   35.60    1.04
  -6  -1  -2    6.20    0.31
  -6  -1  -2    6.51    0.32
  -6   1  -2    6.12    0.38
  -6   1  -2    6.15    0.29
   6   1   2    5.91    0.27
   6   1   2    5.98    0.21
   7  -1   2    1.72    0.15
  -7  -1  -2    1.73    0.20
  -7  -1  -2    2.16    0.22
  -7   1  -2    1.64    0.23
  -7   1  -2    1.51    0.17
   7   1   2    1.22    0.15
  -8  -1  -2   51.35    1.48
   8  -1   2   51.77    1.43
  -8  -1  -2   50.51    1.49
   8   1   2   51.53    1.44
  -8   1  -2   51.97    1.47
  -8   1  -2   52.09    1.55
  -9  -1  -2    0.39    0.13
   9  -1   2    0.34    0.11
   9   1   2    0.26    0.10
  -9   1  -2    0.14    0.11
  -9   1  -2    0.13    0.14
 -10  -1  -2   16.43    0.63
 -10  -1  -2   16.20    0.63
  10  -1   2   16.03    0.56
 -10   1  -2   16.95    0.69
 -10   1  -2   16.35    0.61
  10   1   2   16.24    0.58
  11  -1   2    4.43    0.27
 -11  -1  -2    4.01    0.35
 -11  -1  -2    4.13    0.34
 -11   1  -2    4.40    0.31
 -11   1  -2    4.39    0.39
  11   1   2    4.26    0.27
  12  -1   2   27.55    0.86
 -12  -1  -2   26.49    0.92
  12   1   2   27.41    0.87
 -12   1  -2   27.69    0.99
 -12   1  -2   28.37    0.91
  12  -2  -2   12.70    0.51
  12  -2  -2   12.32    0.49
 -12  -2   2   11.71    0.55
  12   2  -2   12.73    0.50
 -12   2   2   12.64    0.62
 -11  -2   2    4.34    0.33
  11  -2  -2    4.08    0.29
  11  -2  -2    3.96    0.27
 -11   2   2    4.38    0.36
  11   2  -2    4.39    0.28
 -10  -2   2   12.75    0.54
 -10  -2   2   12.57    0.51
  10  -2  -2   13.71    0.49
  10   2  -2   12.86    0.50
 -10   2   2   12.43    0.49
 -10   2   2   13.65    0.60
   9  -2  -2    6.53    0.31
  -9  -2   2    6.48    0.35
  -9  -2   2    6.57    0.36
   9   2  -2    6.20    0.32
  -9   2   2    6.59    0.40
  -9   2   2    6.18    0.31
   8  -2  -2   70.42    1.90
  -8  -2   2   71.01    1.90
  -8  -2   2   67.90    1.95
   8   2  -2   70.54    1.83
  -8   2   2   71.82    1.89
  -8   2   2   69.87    2.01
   8   2  -2   69.44    1.91
  -7  -2   2   63.47    1.72
  -7  -2   2   64.50    1.79
   7  -2  -2   63.31    1.73
   7   2  -2   64.28    1.75
  -7   2   2   61.86    1.83
   7   2  -2   65.10    1.68
   6  -2  -2    3.10    0.19
  -6  -2   2    3.60    0.21
  -6  -2   2    3.29    0.23
   6   2  -2    3.60    0.18
   6   2  -2    2.86    0.20
  -6   2   2    3.04    0.19
  -6   2   2    3.57    0.28
  -5  -2   2   49.26    1.30
  -5  -2   2   47.62    1.36
   5  -2  -2   48.93    1.32
   5  -2  -2   48.04    1.30
  -5   2   2   48.64    1.26
   5   2  -2   47.43    1.29
  -5   2   2   46.64    1.39
   5   2  -2   47.04    1.32
   4  -2  -2  186.63    4.67
  -4  -2   2  179.20    4.66
  -4  -2   2  188.85    4.74
   4  -2  -2  183.28    4.69
   4   2  -2  186.83    4.70
  -4   2   2  189.52    4.65
   4   2  -2  178.93    4.68
  -4   2   2  182.14    4.77
  -3  -2   2    7.55    0.30
  -3  -2   2    7.57    0.25
   3  -2  -2    7.40    0.25
   3  -2  -2    7.24    0.27
   3   2  -2    6.87    0.23
   3   2  -2    7.22    0.27
   3   2  -2    7.49    0.27
  -3   2   2    7.07    0.31
  -3   2   2    7.51    0.26
  -2  -2   2    3.68    0.14
  -2  -2   2    3.36    0.18
   2  -2  -2    3.82    0.17
  -2  -2   2    4.49    0.15
  -2  -2   2    3.91    0.17
   2  -2  -2    4.11    0.16
  -2   2   2    3.30    0.19
  -2   2   2    4.24    0.17
   2   2  -2    3.39    0.18
  -2   2   2    3.62    0.16
   1  -2  -2   42.52    1.09
   1  -2  -2   40.72    1.06
  -1  -2   2   40.10    1.10
  -1  -2   2   42.09    1.06
  -1  -2   2   40.29    1.06
   1   2  -2   41.69    1.06
  -1   2   2   35.85    1.05
  -1   2   2   41.40    1.09
  -1   2   2   39.50    1.09
   1   2  -2   38.77    1.06
   0  -2  -2   33.79    0.89
   0  -2  -2   33.16    0.92
   0  -2   2   34.28    0.88
   0  -2  -2   31.72    0.89
   0  -2   2   31.81    0.91
   0   2   2   31.89    0.92
   0   2  -2   34.01    0.91
   0   2   2   33.77    0.89
   0   2  -2   34.45    0.88
   1  -2   2  151.34    3.66
  -1  -2  -2  144.08    3.68
  -1  -2  -2  146.14    3.67
   1  -2   2  147.14    3.68
   1   2   2  141.88    3.67
  -1   2  -2  143.85    3.70
  -1   2  -2  139.86    3.66
  -1   2  -2  138.12    3.62
  -2  -2  -2   90.51    2.29
   2  -2   2   90.05    2.23
   2  -2   2   84.39    2.27
   2   2   2   87.26    2.27
  -2   2  -2   83.34    2.23
  -2   2  -2   87.88    2.32
  -3  -2  -2   41.25    1.16
  -3  -2  -2   42.79    1.18
   3  -2   2   41.29    1.15
   3  -2   2   42.45    1.11
  -3   2  -2   40.75    1.09
   3   2   2   41.77    1.14
  -3   2  -2   41.83    1.22
   4  -2   2   98.09    2.53
   4  -2   2   98.43    2.48
  -4  -2  -2   95.37    2.56
  -4  -2  -2  101.58    2.46
   4  -2   2   91.51    2.44
  -4   2  -2   97.92    2.44
   4   2   2   95.07    2.53
   4   2   2   91.54    2.45
   4   2   2   97.35    2.50
  -4   2  -2   96.15    2.61
   5  -2   2   13.19    0.43
   5  -2   2   13.39    0.47
  -5  -2  -2   13.58    0.43
   5   2   2   13.43    0.43
   6  -2   2   26.23    0.83
  -6  -2  -2   29.66    0.81
  -6  -2  -2   26.53    0.88
   6  -2   2   28.50    0.84
   6   2   2   27.54    0.77
   6   2   2   26.87    0.83
  -7  -2  -2   20.19    0.72
   7  -2   2   21.12    0.68
  -7  -2  -2   21.99    0.66
   7  -2   2   20.79    0.65
  -7   2  -2   20.23    0.76
   7   2   2   20.83    0.60
   7   2   2   19.86    0.66
  -8  -2  -2   66.76    1.89
   8  -2   2   66.06    1.80
   8  -2   2   67.62    1.85
  -8  -2  -2   67.89    1.81
   8   2   2   66.43    1.83
  -8   2  -2   63.29    1.94
   8   2   2   68.20    1.72
  -9  -2  -2    3.10    0.29
   9  -2   2    2.46    0.20
   9  -2   2    2.72    0.23
  -9  -2  -2    2.75    0.24
  -9   2  -2    2.93    0.32
   9   2   2    2.98    0.23
  10  -2   2    0.32    0.12
  10  -2   2    0.27    0.12
 -10  -2  -2    0.72    0.21
 -10   2  -2    0.33    0.20
 -11  -2  -2   58.40    1.72
  11  -2   2   58.84    1.63
  11  -2   2   60.32    1.68
  11   2   2   58.43    1.65
 -11   2  -2   58.64    1.79
  11  -3  -2    6.78    0.38
 -11  -3   2    6.70    0.40
  11  -3  -2    6.72    0.34
  11   3  -2    6.86    0.35
 -11   3   2    6.72    0.46
  10  -3  -2   28.73    0.88
 -10  -3   2   28.12    0.95
  10  -3  -2   27.24    0.88
 -10   3   2   29.00    1.01
  10   3  -2   29.12    0.90
   9  -3  -2    3.56    0.24
  -9  -3   2    3.67    0.28
   9  -3  -2    3.47    0.24
  -9   3   2    3.35    0.33
   9   3  -2    3.45    0.25
  -8  -3   2    9.60    0.43
   8  -3  -2    9.26    0.38
   8  -3  -2    9.19    0.38
   8   3  -2    9.71    0.35
  -8   3   2    9.01    0.47
   8   3  -2    9.32    0.40
  -7  -3   2   38.29    1.00
  -7  -3   2   35.80    1.10
   7  -3  -2   35.54    1.02
   7  -3  -2   34.15    1.03
   7   3  -2   35.71    1.05
   7   3  -2   36.25    1.01
  -7   3   2   33.35    1.12
  -6  -3   2   69.94    1.78
  -6  -3   2   66.43    1.89
   6  -3  -2   67.06    1.84
   6  -3  -2   69.64    1.82
  -6   3   2   66.85    1.77
   6   3  -2   69.87    1.86
  -6   3   2   67.70    1.94
  -5  -3   2   22.27    0.77
   5  -3  -2   21.38    0.65
   5  -3  -2   21.08    0.66
   5   3  -2   21.62    0.67
  -5   3   2   22.69    0.64
  -5   3   2   20.89    0.74
   4  -3  -2   99.19    2.56
   4  -3  -2  103.03    2.59
   4   3  -2   96.47    2.60
  -4   3   2   96.99    2.66
  -4   3   2  101.15    2.57
   4   3  -2   98.04    2.60
   3  -3  -2   82.18    2.14
   3  -3  -2   84.25    2.17
  -3  -3   2   80.95    2.20
  -3  -3   2   82.01    2.17
  -3   3   2   82.13    2.22
   3   3  -2   82.56    2.19
  -3   3   2   84.06    2.16
   2  -3  -2   19.38    0.56
  -2  -3   2   19.30    0.58
   2  -3  -2   20.52    0.59
  -2  -3   2   18.64    0.53
  -2  -3   2   19.09    0.61
  -2  -3   2   19.83    0.54
  -2   3   2   18.95    0.59
  -2   3   2   17.58    0.60
   2   3  -2   19.18    0.61
  -1  -3   2  127.62    3.20
  -1  -3   2  121.40    3.23
   1  -3  -2  128.21    3.23
   1  -3  -2  123.87    3.20
   1   3  -2  124.74    3.24
  -1   3   2  122.80    3.23
   1   3  -2  128.30    3.18
  -1   3   2  124.39    3.21
   0  -3  -2   18.00    0.57
   0  -3   2   18.43    0.58
   0  -3  -2   17.71    0.56
   0  -3   2   19.64    0.55
   0   3   2   18.83    0.54
   0   3  -2   19.41    0.57
   0   3   2   18.62    0.58
   0   3  -2   18.18    0.58
  -1  -3  -2   23.01    0.69
  -1  -3  -2   23.67    0.69
   1  -3   2   23.05    0.65
   1  -3   2   22.69    0.69
  -1   3  -2   22.34    0.68
   1   3   2   22.89    0.70
  -1   3  -2   22.85    0.71
  -2  -3  -2  278.65    7.31
  -2  -3  -2  288.00    7.31
   2  -3   2  289.06    7.34
   2  -3   2  305.42    7.35
  -2   3  -2  288.92    7.34
  -2   3  -2  288.23    7.28
   2   3   2  282.22    7.30
   3  -3   2    8.97    0.31
   3  -3   2    8.63    0.34
  -3  -3  -2    9.74    0.36
  -3  -3  -2    8.98    0.37
   3   3   2    8.65    0.34
  -3   3  -2    9.44    0.32
  -3   3  -2    9.09    0.40
   4  -3   2    1.23    0.13
   4  -3   2    1.20    0.11
  -4   3  -2    1.41    0.12
   5  -3   2   28.69    0.76
   5  -3   2   26.56    0.79
  -5   3  -2   22.83    0.99
  -5   3  -2   26.18    0.71
   5   3   2   27.59    0.77
   5   3   2   23.26    0.87
  -6  -3  -2    9.65    0.44
   6  -3   2    9.76    0.39
   6  -3   2   10.00    0.36
   6   3   2   10.08    0.40
  -6   3  -2    9.68    0.47
   6   3   2    9.64    0.36
  -7  -3  -2    1.18    0.19
   7  -3   2    0.69    0.11
   7  -3   2    0.88    0.14
   7   3   2    1.04    0.15
  -7   3  -2    1.21    0.22
   8  -3   2   34.96    1.01
   8  -3   2   35.66    1.05
  -8  -3  -2   36.04    1.13
  -8   3  -2   34.03    1.16
   8   3   2   34.75    1.05
   8   3   2   34.60    0.97
   9  -3   2   14.51    0.51
   9  -3   2   14.77    0.55
  -9  -3  -2   14.60    0.60
  -9   3  -2   14.91    0.66
   9   3   2   14.56    0.54
 -10  -3  -2   14.56    0.62
  10   3   2   14.57    0.55
 -10   3  -2   14.84    0.67
  11  -3   2    2.55    0.27
  11  -3   2    2.83    0.24
 -11  -3  -2    3.03    0.32
 -11   3  -2    2.29    0.33
  11   3   2    2.91    0.25
  11  -4  -2   12.32    0.50
 -11  -4   2   12.11    0.56
  11   4  -2   12.37    0.50
  10  -4  -2    2.75    0.26
 -10  -4   2    2.74    0.30
  10  -4  -2    2.84    0.25
  10   4  -2    2.59    0.25
 -10   4   2    2.67    0.34
   9  -4  -2    0.45    0.12
  -9  -4   2    0.22    0.14
   9  -4  -2    0.37    0.13
  -9   4   2    0.40    0.16
   9   4  -2    0.64    0.17
   9   4  -2    0.25    0.10
   8  -4  -2    7.28    0.34
  -8  -4   2    7.59    0.40
   8  -4  -2    7.22    0.33
   8   4  -2    7.31    0.32
  -8   4   2    7.59    0.44
   8   4  -2    8.32    0.36
   7  -4  -2   11.35    0.43
  -7  -4   2   11.76    0.49
   7  -4  -2   11.43    0.42
   7   4  -2   11.57    0.42
  -7   4   2   10.94    0.52
   7   4  -2   12.14    0.46
   6  -4  -2   70.09    1.92
  -6  -4   2   70.30    1.99
   6  -4  -2   72.24    1.90
   6   4  -2   70.06    1.93
   6   4  -2   70.28    1.92
  -6   4   2   73.52    1.88
  -6   4   2   71.92    2.02
   5  -4  -2  112.70    3.01
  -5  -4   2  114.62    3.08
   5  -4  -2  116.03    2.99
  -5   4   2  116.09    2.99
  -5   4   2  116.33    3.10
   5   4  -2  116.74    3.03
   5   4  -2  116.80    3.03
   4  -4  -2   12.57    0.44
  -4   4   2   13.05    0.44
   4   4  -2   11.43    0.47
  -4   4   2   12.27    0.48
   3  -4  -2    8.38    0.38
  -3  -4   2    9.28    0.38
   3  -4  -2    9.19    0.33
  -3  -4   2    9.26    0.35
  -3   4   2    9.17    0.38
  -3   4   2    9.32    0.36
   3   4  -2    9.52    0.37
  -2  -4   2    5.10    0.23
   2  -4  -2    4.82    0.24
   2  -4  -2    4.63    0.22
  -2  -4   2    4.68    0.25
  -2   4   2    4.60    0.24
  -2   4   2    4.68    0.25
   2   4  -2    4.73    0.26
   1  -4  -2    1.98    0.15
   1  -4  -2    1.56    0.15
  -1  -4   2    1.65    0.15
  -1   4   2    2.20    0.16
  -1   4   2    1.72    0.16
   1   4  -2    2.00    0.14
   0  -4   2    0.26    0.08
   0  -4   2    0.22    0.07
   0  -4  -2    0.34    0.08
   0  -4  -2    0.21    0.08
   0   4  -2    0.45    0.11
   0   4  -2    0.37    0.09
   0   4   2    0.29    0.09
  -1  -4  -2   25.99    0.79
   1  -4   2   26.65    0.75
  -1  -4  -2   25.71    0.79
   1  -4   2   26.93    0.79
  -1   4  -2   26.65    0.80
  -1   4  -2   26.52    0.79
   1   4   2   23.81    0.82
   2  -4   2  157.90    3.95
   2  -4   2  154.94    4.00
  -2  -4  -2  155.77    4.02
  -2   4  -2  155.89    4.03
  -2   4  -2  154.81    3.99
   2   4   2  150.16    4.00
  -3  -4  -2   12.15    0.46
   3  -4   2   12.50    0.46
   3  -4   2   13.36    0.42
  -3  -4  -2   12.58    0.48
  -3   4  -2   13.30    0.44
   3   4   2   12.48    0.46
  -4  -4  -2   41.49    1.23
  -4  -4  -2   41.84    1.20
   4  -4   2   43.48    1.14
   4  -4   2   40.99    1.18
  -4   4  -2   38.25    1.31
  -4   4  -2   43.03    1.15
  -5  -4  -2    5.49    0.32
  -5  -4  -2    5.53    0.29
   5  -4   2    5.56    0.28
   5  -4   2    5.93    0.25
  -5   4  -2    5.42    0.24
   5   4   2    5.59    0.27
  -5   4  -2    5.73    0.35
   6  -4   2    0.51    0.11
   6  -4   2    0.48    0.10
  -6  -4  -2    0.49    0.14
  -6   4  -2    0.66    0.10
  -6   4  -2    0.35    0.16
   6   4   2    0.36    0.10
   6   4   2    0.67    0.13
   7  -4   2   36.26    1.03
  -7  -4  -2   37.21    1.15
   7  -4   2   36.31    1.07
   7   4   2   36.14    1.03
  -7   4  -2   34.95    1.18
   7   4   2   36.17    1.08
  -8  -4  -2   43.78    1.32
   8  -4   2   42.77    1.21
   8  -4   2   42.76    1.24
  -8   4  -2   42.68    1.37
   8   4   2   42.64    1.25
   8   4   2   42.28    1.18
  -9  -4  -2    0.23    0.15
   9  -4   2    0.33    0.14
   9  -4   2    0.40    0.12
   9   4   2    0.54    0.14
  -9   4  -2    0.60    0.19
 -10  -4  -2   17.02    0.69
  10  -4   2   16.60    0.59
  10  -4   2   17.87    0.63
  10   4   2   17.64    0.62
 -10   4  -2   16.29    0.75
 -10  -5   2    0.90    0.22
  10  -5  -2    0.93    0.17
 -10   5   2    1.12    0.24
  10   5  -2    0.93    0.18
  -9  -5   2    0.32    0.16
   9  -5  -2    0.33    0.13
  -9   5   2    0.06    0.17
   9   5  -2    0.26    0.14
   9   5  -2    0.25    0.13
   8  -5  -2    7.86    0.35
  -8  -5   2    8.15    0.43
   8  -5  -2    8.02    0.36
   8   5  -2    7.78    0.37
  -8   5   2    7.98    0.45
   8   5  -2    7.79    0.35
   7  -5  -2    0.30    0.11
   7  -5  -2    0.40    0.12
  -7  -5   2    0.60    0.16
  -7   5   2    0.41    0.15
   7   5  -2    0.39    0.12
   7   5  -2    0.39    0.13
   6  -5  -2    4.42    0.25
  -6  -5   2    4.51    0.30
   6   5  -2    4.38    0.27
  -6   5   2    4.44    0.25
  -6   5   2    4.62    0.32
   6   5  -2    4.24    0.27
   5  -5  -2   29.63    0.90
   5  -5  -2   30.82    0.92
  -5  -5   2   30.07    0.96
   5   5  -2   30.02    0.91
   5   5  -2   30.83    0.92
  -5   5   2   30.07    0.97
  -4  -5   2   58.08    1.64
   4  -5  -2   60.55    1.62
   4  -5  -2   60.78    1.65
  -4  -5   2   58.90    1.70
  -4   5   2   59.44    1.68
  -4   5   2   59.93    1.70
   4   5  -2   63.26    1.68
   3  -5  -2   19.09    0.63
  -3  -5   2   19.40    0.66
  -3  -5   2   18.98    0.62
  -3   5   2   19.61    0.63
   3   5  -2   20.68    0.67
  -3   5   2   19.90    0.66
   2  -5  -2    2.55    0.20
   2  -5  -2    2.91    0.19
  -2  -5   2    2.40    0.21
   2   5  -2    2.37    0.20
  -2   5   2    2.64    0.21
  -2   5   2    2.95    0.21
  -1  -5   2    3.63    0.24
   1  -5  -2    3.70    0.26
   1  -5  -2    3.28    0.23
  -1  -5   2    3.83    0.22
   1   5  -2    3.39    0.24
  -1   5   2    3.77    0.22
  -1   5   2    4.10    0.24
   1   5  -2    3.80    0.19
   0  -5   2  109.45    2.78
   0  -5  -2  101.38    2.84
   0  -5   2  104.78    2.81
   0  -5  -2  102.64    2.91
   0   5   2  104.54    2.82
   0   5  -2  109.22    2.77
   0   5  -2  111.65    2.84
   0   5   2  110.79    2.75
  -1  -5  -2  128.78    3.39
   1  -5   2  131.22    3.34
  -1  -5  -2  127.23    3.38
   1  -5   2  129.05    3.38
  -1   5  -2  131.73    3.37
   1   5   2  129.35    3.39
  -1   5  -2  129.80    3.39
   2  -5   2   18.66    0.58
  -2  -5  -2   18.70    0.63
   2  -5   2   18.44    0.61
  -2  -5  -2   18.59    0.64
   2   5   2   18.10    0.62
  -2   5  -2   18.39    0.61
  -3  -5  -2    1.45    0.20
   3  -5   2    1.19    0.16
  -3  -5  -2    1.15    0.17
  -3   5  -2    1.91    0.21
   3   5   2    1.36    0.18
   4  -5   2    1.74    0.17
  -4  -5  -2    1.85    0.22
   4  -5   2    1.58    0.17
  -4  -5  -2    1.93    0.19
  -4   5  -2    1.80    0.18
  -4   5  -2    2.01    0.23
   4   5   2    1.40    0.18
  -5  -5  -2    9.98    0.46
   5  -5   2   10.29    0.37
   5  -5   2   10.04    0.40
  -5  -5  -2    9.81    0.42
   5   5   2   10.21    0.41
  -5   5  -2   10.00    0.37
  -5   5  -2    9.59    0.47
  -6  -5  -2    0.15    0.13
   6  -5   2    0.16    0.10
   6  -5   2    0.13    0.09
  -6   5  -2    0.21    0.14
   6   5   2    0.33    0.11
   6   5   2    0.18    0.10
   7  -5   2    0.26    0.11
  -7  -5  -2    0.53    0.16
   7  -5   2    0.29    0.12
  -7   5  -2    0.09    0.16
   7   5   2    0.39    0.11
   7   5   2    0.38    0.13
  -8  -5  -2    0.40    0.17
   8  -5   2    0.35    0.13
   8  -5   2    0.45    0.12
   8   5   2    0.52    0.14
  -8   5  -2    0.15    0.18
   8   5   2    0.34    0.12
  -9  -5  -2    8.66    0.47
   9  -5   2    8.77    0.41
   9  -5   2    8.57    0.39
  -9   5  -2    8.53    0.51
   9   5   2    8.36    0.40
  -8  -6   2   12.54    0.56
   8  -6  -2   12.38    0.49
  -8   6   2   12.85    0.58
   8   6  -2   12.48    0.48
   8   6  -2   12.64    0.50
  -7  -6   2    0.59    0.18
  -7   6   2    0.40    0.18
   7   6  -2    0.04    0.13
   7   6  -2    0.22    0.20
   6  -6  -2   75.49    2.05
   6  -6  -2   76.48    2.02
  -6  -6   2   73.86    2.18
  -6   6   2   76.27    2.12
   6   6  -2   77.06    2.06
   6   6  -2   74.79    2.05
  -6   6   2   74.86    2.01
   5  -6  -2    5.28    0.27
  -5  -6   2    5.44    0.33
   5  -6  -2    5.06    0.28
  -5   6   2    5.69    0.29
   5   6  -2    5.19    0.29
  -5   6   2    4.96    0.33
   5   6  -2    5.08    0.30
   4  -6  -2   11.34    0.42
   4  -6  -2   11.24    0.44
  -4  -6   2   11.10    0.44
  -4  -6   2   11.44    0.49
  -4   6   2   11.14    0.47
   4   6  -2   11.54    0.46
  -4   6   2   11.61    0.44
  -3  -6   2    4.92    0.30
   3  -6  -2    4.99    0.28
   3  -6  -2    5.04    0.26
  -3  -6   2    4.71    0.27
  -3   6   2    5.06    0.27
  -3   6   2    4.96    0.29
   3   6  -2    5.04    0.30
   2  -6  -2    0.20    0.10
   2  -6  -2    0.04    0.10
  -2  -6   2    0.25    0.11
  -2   6   2    0.16    0.10
  -2   6   2    0.19    0.11
   1  -6  -2   37.19    1.10
  -1  -6   2   36.51    1.07
  -1  -6   2   36.68    1.11
   1  -6  -2   37.69    1.09
   1   6  -2   37.56    1.11
  -1   6   2   38.97    1.07
  -1   6   2   38.02    1.10
   0  -6  -2    5.06    0.28
   0  -6   2    4.78    0.29
   0  -6   2    5.45    0.29
   0  -6  -2    5.34    0.28
   0   6  -2    4.99    0.28
   0   6   2    5.10    0.28
   0   6  -2    4.85    0.25
  -1  -6  -2    0.19    0.10
  -1  -6  -2    0.40    0.12
   1  -6   2    0.28    0.11
   1   6   2    0.24    0.11
  -1   6  -2    0.30    0.11
  -2  -6  -2    7.72    0.35
   2  -6   2    7.90    0.34
   2  -6   2    7.29    0.32
  -2  -6  -2    7.38    0.37
  -2   6  -2    7.78    0.36
  -2   6  -2    7.73    0.36
   2   6   2    7.20    0.35
  -3  -6  -2   10.52    0.44
  -3  -6  -2   10.76    0.47
   3  -6   2   11.05    0.43
   3  -6   2   10.96    0.41
   3   6   2   11.39    0.45
  -3   6  -2   11.39    0.44
  -3   6  -2   10.84    0.47
  -4  -6  -2   30.76    0.97
  -4  -6  -2   31.63    1.00
   4  -6   2   31.15    0.92
   4  -6   2   32.26    0.95
  -4   6  -2   32.22    1.01
  -4   6  -2   30.89    0.93
   4   6   2   32.41    0.96
   5  -6   2    9.39    0.37
  -5  -6  -2    9.57    0.45
   5  -6   2    9.62    0.40
  -5  -6  -2    9.06    0.41
  -5   6  -2    8.28    0.45
   5   6   2    9.01    0.39
  -5   6  -2    9.24    0.37
   6  -6   2   33.02    0.98
   6  -6   2   31.83    0.95
  -6   6  -2   32.58    1.06
   6   6   2   31.90    0.97
  -7  -6  -2   40.81    1.23
   7  -6   2   39.06    1.12
   7  -6   2   39.39    1.20
   7   6   2   36.36    1.17
  -7   6  -2   38.98    1.25
   7   6   2   39.62    1.16
   8  -6   2    1.25    0.19
   8  -6   2    1.01    0.17
  -8  -6  -2    1.29    0.22
   8   6   2    1.03    0.18
  -8   6  -2    1.01    0.23
   8   6   2    1.32    0.19
   6  -7  -2    0.69    0.15
  -6  -7   2    0.42    0.17
  -6   7   2    0.76    0.19
   6   7  -2    0.54    0.15
   6   7  -2    0.69    0.15
  -5  -7   2    2.99    0.29
  -5   7   2    3.41    0.30
  -5   7   2    3.67    0.26
   5   7  -2    2.96    0.26
   5   7  -2    3.44    0.27
  -4  -7   2    9.74    0.41
   4  -7  -2    9.98    0.43
  -4  -7   2    9.87    0.47
   4  -7  -2    9.95    0.41
   4   7  -2   10.40    0.44
  -4   7   2    9.70    0.44
  -4   7   2   10.79    0.43
  -3  -7   2    3.16    0.24
   3  -7  -2    3.02    0.25
   3  -7  -2    2.81    0.24
  -3   7   2    2.86    0.26
   3   7  -2    3.23    0.26
  -3   7   2    3.80    0.26
  -2  -7   2   11.81    0.50
   2  -7  -2   11.52    0.47
  -2  -7   2   11.63    0.46
   2  -7  -2   11.77    0.46
  -2   7   2   13.02    0.48
  -1  -7   2    0.71    0.14
   1  -7  -2    0.63    0.15
  -1  -7   2    0.61    0.14
   1   7  -2    0.58    0.15
  -1   7   2    0.62    0.14
   0  -7   2   50.75    1.42
   0  -7   2   51.65    1.46
   0  -7  -2   50.84    1.45
   0  -7  -2   50.78    1.45
   0   7   2   50.17    1.45
   0   7  -2   52.90    1.47
   1  -7   2    4.55    0.27
  -1  -7  -2    4.44    0.30
  -1  -7  -2    4.89    0.31
   1  -7   2    4.84    0.29
   1   7   2    4.83    0.34
  -1   7  -2    4.92    0.31
   2  -7   2    3.57    0.26
  -2  -7  -2    3.35    0.26
  -2  -7  -2    3.21    0.28
   2  -7   2    3.31    0.23
   2   7   2    3.10    0.30
  -2   7  -2    3.35    0.26
  -3  -7  -2    1.56    0.19
   3  -7   2    1.43    0.20
  -3  -7  -2    1.59    0.24
   3  -7   2    1.78    0.21
   3   7   2    1.43    0.20
  -3   7  -2    1.33    0.20
  -3   7  -2    1.92    0.22
   4  -7   2    2.97    0.24
   4  -7   2    3.39    0.25
  -4  -7  -2    2.55    0.36
  -4  -7  -2    2.83    0.33
   4   7   2    3.23    0.26
  -4   7  -2    3.24    0.28
  -4   7  -2    3.29    0.26
  -5  -7  -2   61.27    1.70
  -5  -7  -2   59.83    1.74
  -5   7  -2   59.38    1.65
   5   7   2   59.98    1.68
  -6  -7  -2    0.72    0.20
   6  -7   2    0.33    0.14
   6   7   2    0.48    0.14
   6   7   2    0.45    0.15
  -6   7  -2    0.60    0.19
  -3  -8   2   14.92    0.60
   3  -8  -2   14.47    0.55
   3   8  -2   14.60    0.57
  -3   8   2   14.87    0.55
   2  -8  -2    5.34    0.34
  -2  -8   2    5.84    0.36
   2   8  -2    5.72    0.34
  -2   8   2    6.01    0.33
   1  -8  -2   51.34    1.48
   1  -8  -2   53.14    1.51
  -1  -8   2   53.12    1.51
   1   8  -2   51.11    1.49
  -1   8   2   52.47    1.48
   0  -8   2   13.32    0.52
   0  -8  -2   12.54    0.51
   0   8  -2   12.35    0.51
   0   8   2   12.36    0.49
  -1  -8  -2    0.76    0.19
   1  -8   2    1.03    0.18
  -1  -8  -2    0.80    0.17
  -1   8  -2    0.77    0.16
   1   8   2    1.24    0.17
  -2  -8  -2    0.73    0.19
  -2  -8  -2    0.57    0.16
   2  -8   2    0.87    0.17
   2   8   2    0.75    0.15
  -2   8  -2    0.63    0.17
  -3  -8  -2    0.56    0.19
   3  -8   2    0.86    0.16
  -3  -8  -2    0.58    0.16
  -3   8  -2    0.51    0.16
   3   8   2    0.31    0.13
 -12   0   3    0.32    0.15
  12   0  -3    0.27    0.13
 -12   0   3    0.25    0.18
 -11   0   3    9.39    0.43
 -11   0   3    9.54    0.47
  11   0  -3    8.95    0.40
  10   0  -3    0.23    0.10
 -10   0   3    0.11    0.12
 -10   0   3    0.16    0.15
  -9   0   3    0.67    0.16
   9   0  -3    0.81    0.13
  -9   0   3    0.88    0.14
  -8   0   3    0.18    0.11
  -8   0   3    0.29    0.10
   8   0  -3    0.28    0.10
   7   0  -3   65.01    1.57
   7   0  -3   59.36    1.66
  -7   0   3   58.33    1.71
   6   0  -3    0.23    0.06
  -6   0   3    0.52    0.12
  -6   0   3    0.28    0.08
  -5   0   3  425.00   11.68
   5   0  -3  492.37   11.51
   5   0  -3  437.95   11.56
  -5   0   3  471.91   11.67
   4   0  -3    0.28    0.07
  -4   0   3    0.25    0.06
   4   0  -3    0.25    0.05
  -3   0   3    1.56    0.09
   3   0  -3    1.12    0.09
   3   0  -3    1.36    0.08
  -3   0   3    1.60    0.13
   2   0  -3    0.50    0.05
  -2   0   3    0.43    0.06
   2   0  -3    0.65    0.06
  -2   0   3    0.51    0.07
  -2   0   3    0.60    0.05
  -1   0   3   32.46    0.87
   1   0  -3   30.77    0.84
   1   0  -3   29.87    0.86
  -1   0   3   33.46    0.83
  -1   0   3   32.56    0.85
  -1   0   3   32.65    0.83
   1   0  -3   32.06    0.83
   1   0  -3   34.25    0.85
   0   0   3    0.79    0.06
   0   0  -3    0.79    0.06
   0   0  -3    0.78    0.05
   0   0  -3    0.74    0.06
   0   0   3    0.87    0.05
   0   0   3    0.67    0.07
   0   0  -3    0.80    0.05
  -1   0  -3   25.62    0.66
  -1   0  -3   25.66    0.68
   1   0   3   23.88    0.67
   1   0   3   23.81    0.69
  -1   0  -3   24.69    0.69
   1   0   3   25.24    0.66
   1   0   3   24.54    0.66
  -1   0  -3   26.08    0.66
   2   0   3    0.70    0.06
   2   0   3    0.78    0.06
  -2   0  -3    0.69    0.05
  -2   0  -3    0.89    0.09
  -3   0  -3   46.44    1.31
   3   0   3   44.47    1.26
   3   0   3   49.80    1.22
  -3   0  -3   48.76    1.30
  -3   0  -3   48.21    1.22
  -4   0  -3    0.43    0.10
  -4   0  -3    0.34    0.08
   4   0   3    0.31    0.06
  -5   0  -3   20.20    0.64
  -5   0  -3   18.99    0.66
   5   0   3   19.30    0.59
  -6   0  -3    0.31    0.10
  -6   0  -3    0.02    0.10
   6   0   3    0.15    0.08
   7   0   3  301.93    7.59
  -7   0  -3  307.81    7.65
  -7   0  -3  288.60    7.66
  -8   0  -3    0.30    0.14
   8   0   3    0.48    0.10
  -8   0  -3    0.19    0.11
  -9   0  -3   70.80    2.03
   9   0   3   70.93    1.93
  -9   0  -3   71.67    1.99
  10   0   3    0.16    0.10
 -10   0  -3    0.37    0.17
 -10   0  -3    0.15    0.14
 -11   0  -3    0.67    0.17
  11   0   3    0.44    0.12
 -11   0  -3    0.27    0.19
 -12   0  -3    0.27    0.22
  12   0   3    0.18    0.13
 -12   0  -3    0.19    0.16
 -12  -1   3    0.01    0.15
  12  -1  -3    0.07    0.12
 -12   1   3    0.20    0.18
 -12   1   3    0.10    0.14
  12   1  -3    0.40    0.13
 -11  -1   3   20.67    0.74
  11  -1  -3   20.72    0.69
 -11   1   3   19.53    0.94
  11   1  -3   21.51    0.70
 -11   1   3   20.81    0.70
  10  -1  -3    0.65    0.13
 -10  -1   3    0.84    0.16
 -10  -1   3    0.60    0.16
 -10   1   3    0.54    0.14
  10   1  -3    0.56    0.13
 -10   1   3    0.55    0.17
  -9  -1   3   48.46    1.41
  -9  -1   3   48.13    1.40
   9  -1  -3   49.34    1.37
  -9   1   3   48.71    1.46
  -9   1   3   48.46    1.37
   9   1  -3   48.23    1.37
   8  -1  -3    5.86    0.29
  -8  -1   3    5.62    0.31
  -8  -1   3    6.08    0.31
  -8   1   3    5.75    0.35
   8   1  -3    6.04    0.22
   8   1  -3    5.66    0.28
  -7  -1   3    0.74    0.13
  -7  -1   3    0.87    0.15
   7  -1  -3    0.65    0.12
  -7   1   3    0.88    0.13
  -7   1   3    0.59    0.15
   7   1  -3    0.87    0.10
   6  -1  -3    4.42    0.16
  -6  -1   3    4.35    0.24
  -6  -1   3    4.20    0.25
   6  -1  -3    4.49    0.22
   6   1  -3    4.54    0.19
  -6   1   3    4.36    0.18
  -6   1   3    4.52    0.22
  -5  -1   3    0.23    0.08
   5  -1  -3    0.40    0.08
  -5  -1   3    0.33    0.09
  -5   1   3    0.29    0.10
   5   1  -3    0.20    0.06
  -5   1   3    0.45    0.08
   5   1  -3    0.30    0.07
  -4  -1   3   59.96    1.63
   4  -1  -3   60.50    1.62
   4  -1  -3   60.71    1.57
  -4  -1   3   61.72    1.64
   4   1  -3   63.53    1.59
   4   1  -3   59.30    1.61
  -4   1   3   61.03    1.59
   3  -1  -3   48.05    1.26
  -3  -1   3   49.10    1.30
  -3  -1   3   47.76    1.30
   3  -1  -3   50.57    1.27
   3  -1  -3   47.75    1.29
   3   1  -3   48.89    1.28
  -3   1   3   50.22    1.26
   3   1  -3   47.01    1.28
  -3   1   3   47.00    1.34
   2  -1  -3    0.37    0.06
   2  -1  -3    0.47    0.06
  -2  -1   3    0.50    0.07
  -2  -1   3    0.36    0.06
   2  -1  -3    0.55    0.05
   2   1  -3    0.60    0.08
  -2   1   3    0.55    0.09
   2   1  -3    0.47    0.05
  -2   1   3    0.48    0.04
   1  -1  -3    4.76    0.18
  -1  -1   3    5.47    0.19
  -1  -1   3    5.08    0.19
   1  -1  -3    5.67    0.19
   1   1  -3    4.63    0.19
   1   1  -3    5.09    0.18
   0  -1   3  265.03    6.29
   0  -1  -3  264.23    6.38
   0  -1   3  252.72    6.49
   0  -1  -3  236.14    6.37
   0  -1   3  241.29    6.29
   0  -1  -3  242.64    6.39
   0   1  -3  248.37    6.34
   0   1  -3  248.79    6.43
   0   1   3  257.20    6.34
   0   1   3  247.34    6.46
  -1  -1  -3  874.15   22.19
  -1  -1  -3  892.23   22.24
  -1  -1  -3  899.89   22.16
   1  -1   3  878.83   21.95
   1  -1   3  927.28   22.33
  -1  -1  -3  851.46   22.21
   1  -1   3  826.02   22.02
  -1   1  -3  919.75   22.13
   1   1   3  810.52   22.07
   1   1   3  896.05   22.13
  -1   1  -3  885.12   21.97
   2  -1   3  117.45    2.90
  -2  -1  -3  119.08    2.92
   2  -1   3  110.43    2.89
  -2  -1  -3  118.11    2.95
   2  -1   3  115.79    2.95
  -2  -1  -3  114.57    2.95
  -2   1  -3  107.51    2.90
  -2   1  -3  121.53    2.90
   2   1   3  110.44    2.92
  -2   1  -3  117.12    3.00
   2   1   3  111.18    2.92
   3  -1   3   38.91    1.04
  -3  -1  -3   41.34    1.10
   3  -1   3   40.66    1.08
  -3  -1  -3   40.99    1.11
  -3  -1  -3   41.04    1.14
  -3   1  -3   40.06    1.18
   3   1   3   40.30    1.08
  -3   1  -3   42.75    1.05
  -3   1  -3   40.38    1.12
   4  -1   3   12.51    0.40
  -4  -1  -3   12.63    0.42
  -4  -1  -3   12.18    0.44
   4   1   3   12.41    0.38
   4   1   3   11.93    0.41
  -4   1  -3   12.38    0.43
   5  -1   3    5.38    0.23
  -5  -1  -3    5.59    0.27
  -5  -1  -3    5.73    0.28
  -5   1  -3    5.55    0.27
   5   1   3    5.58    0.25
   5   1   3    5.59    0.20
  -5   1  -3    5.24    0.32
  -6  -1  -3   21.48    0.73
  -6  -1  -3   22.28    0.71
   6   1   3   22.56    0.60
   6   1   3   21.12    0.68
  -6   1  -3   21.42    0.77
  -6   1  -3   22.21    0.71
  -7  -1  -3   15.25    0.55
   7  -1   3   14.79    0.49
  -7   1  -3   14.64    0.54
  -7   1  -3   14.75    0.61
   7   1   3   14.37    0.51
  -8  -1  -3    5.19    0.31
  -8  -1  -3    5.14    0.31
   8  -1   3    4.82    0.25
  -8   1  -3    5.31    0.30
  -8   1  -3    4.93    0.36
   8   1   3    5.17    0.27
  -9  -1  -3    7.65    0.40
  -9  -1  -3    7.98    0.41
   9  -1   3    7.94    0.34
   9   1   3    7.94    0.35
  -9   1  -3    8.18    0.39
  -9   1  -3    8.11    0.46
 -10  -1  -3    0.29    0.16
 -10  -1  -3    0.32    0.25
  10  -1   3    0.28    0.11
 -10   1  -3    0.29    0.18
  10   1   3    0.46    0.12
 -10   1  -3    0.33    0.14
 -11  -1  -3    4.63    0.37
  11  -1   3    4.86    0.28
 -11  -1  -3    4.66    0.34
 -11   1  -3    4.90    0.41
 -11   1  -3    5.45    0.34
  11   1   3    4.93    0.29
  12  -1   3    1.41    0.21
 -12  -1  -3    1.34    0.22
 -12   1  -3    0.94    0.20
  12   1   3    1.09    0.17
  12  -2  -3   33.69    1.04
  12  -2  -3   34.86    1.05
 -12  -2   3   34.09    1.10
 -12   2   3   35.29    1.16
  12   2  -3   35.33    1.06
 -11  -2   3    1.29    0.21
  11  -2  -3    1.53    0.20
  11   2  -3    2.10    0.22
 -11   2   3    1.47    0.23
 -10  -2   3    4.60    0.31
  10  -2  -3    4.55    0.27
 -10  -2   3    4.90    0.31
 -10   2   3    4.42    0.35
  10   2  -3    4.58    0.28
 -10   2   3    4.67    0.28
   9  -2  -3   42.62    1.22
  -9  -2   3   42.60    1.27
  -9   2   3   42.41    1.32
   9   2  -3   43.29    1.23
  -9   2   3   40.41    1.20
   8  -2  -3   13.84    0.49
  -8  -2   3   12.94    0.52
  -8  -2   3   13.10    0.52
   8   2  -3   13.94    0.43
  -8   2   3   13.84    0.57
   8   2  -3   12.92    0.49
  -7  -2   3   26.91    0.81
   7  -2  -3   26.73    0.81
  -7  -2   3   27.16    0.85
   7   2  -3   25.83    0.81
  -7   2   3   26.40    0.89
   7   2  -3   27.12    0.76
  -6  -2   3   21.06    0.64
  -6  -2   3   19.92    0.68
   6  -2  -3   21.26    0.68
   6   2  -3   19.98    0.65
  -6   2   3   20.81    0.62
   6   2  -3   20.39    0.61
  -6   2   3   20.91    0.58
   5  -2  -3  104.50    2.70
   5  -2  -3  103.22    2.66
  -5  -2   3  107.72    2.74
  -5  -2   3  103.14    2.68
  -5   2   3   99.35    2.78
   5   2  -3   99.18    2.69
   5   2  -3  104.77    2.67
  -5   2   3  104.12    2.64
  -4  -2   3   99.93    2.56
  -4  -2   3   95.00    2.50
   4  -2  -3   96.95    2.49
   4  -2  -3   97.81    2.52
  -4   2   3   95.22    2.59
  -4   2   3   96.45    2.48
   4   2  -3   96.81    2.52
   4   2  -3   97.34    2.51
   3  -2  -3   79.86    2.02
  -3  -2   3   79.88    2.03
  -3  -2   3   77.74    2.08
   3  -2  -3   79.92    2.06
   3   2  -3   78.61    2.05
   3   2  -3   76.06    2.05
  -3   2   3   77.77    2.04
  -3   2   3   79.53    2.11
  -2  -2   3    0.48    0.07
  -2  -2   3    0.55    0.09
   2   2  -3    0.59    0.08
   2   2  -3    0.67    0.08
  -2   2   3    0.85    0.08
  -2   2   3    0.72    0.07
  -1  -2   3   79.53    2.06
  -1  -2   3   81.71    2.01
   1  -2  -3   79.49    2.01
  -1   2   3   79.64    2.06
  -1   2   3   77.98    2.05
   1   2  -3   76.42    2.05
   1   2  -3   82.77    2.04
  -1   2   3   73.54    2.01
   1   2  -3   79.42    2.01
   0  -2  -3   25.65    0.75
   0  -2   3   27.71    0.79
   0  -2   3   28.17    0.74
   0  -2  -3   28.98    0.79
   0  -2  -3   28.46    0.76
   0   2  -3   28.06    0.79
   0   2   3   28.21    0.78
   0   2  -3   29.91    0.73
   0   2   3   27.60    0.76
   0   2  -3   27.21    0.77
   0   2   3   25.31    0.74
  -1  -2  -3   34.30    0.93
  -1  -2  -3   34.78    0.94
   1  -2   3   33.08    0.94
   1  -2   3   34.87    0.88
  -1   2  -3   33.82    0.96
   1   2   3   35.14    0.89
   1   2   3   32.34    0.93
   1   2   3   31.67    0.89
  -1   2  -3   33.16    0.91
  -1   2  -3   32.65    0.87
   2  -2   3    5.48    0.19
  -2  -2  -3    5.66    0.24
   2   2   3    5.63    0.19
  -2   2  -3    6.79    0.29
   2   2   3    5.47    0.23
  -2   2  -3    5.76    0.21
   2   2   3    5.30    0.19
   3  -2   3  176.51    4.53
   3  -2   3  176.40    4.47
  -3  -2  -3  175.33    4.54
  -3  -2  -3  176.38    4.56
  -3  -2  -3  186.56    4.46
   3   2   3  173.26    4.46
   3   2   3  176.68    4.51
  -3   2  -3  178.25    4.61
  -3   2  -3  177.44    4.47
   4  -2   3   90.30    2.31
   4  -2   3   87.96    2.36
  -4  -2  -3   92.37    2.37
  -4  -2  -3   92.87    2.30
  -4  -2  -3   91.33    2.41
   4  -2   3   87.94    2.31
   4   2   3   85.85    2.33
  -4   2  -3   88.69    2.45
  -4   2  -3   89.20    2.27
  -5  -2  -3    8.03    0.37
  -5  -2  -3    8.93    0.31
   5  -2   3    8.37    0.31
   5   2   3    8.46    0.31
  -5   2  -3    8.44    0.42
   5   2   3    8.43    0.34
   6  -2   3   75.27    2.27
  -6  -2  -3   90.43    2.21
  -6  -2  -3   85.06    2.31
   6   2   3   85.45    2.25
   6   2   3   87.13    2.18
  -6   2  -3   81.20    2.35
  -7  -2  -3   81.54    2.25
  -7  -2  -3   83.51    2.16
   7  -2   3   82.69    2.21
   7  -2   3   83.03    2.16
  -7   2  -3   77.37    2.30
   7   2   3   81.94    2.11
   7   2   3   80.88    2.20
   8  -2   3    1.44    0.18
  -8  -2  -3    1.88    0.24
   8  -2   3    1.57    0.16
  -8  -2  -3    1.75    0.21
  -8   2  -3    1.44    0.23
   8   2   3    1.57    0.18
   9  -2   3   10.77    0.45
  -9  -2  -3   11.36    0.47
   9  -2   3   10.87    0.42
  -9  -2  -3   10.62    0.50
  -9   2  -3   10.64    0.55
   9   2   3   11.36    0.45
  10  -2   3    7.62    0.45
  10  -2   3    7.88    0.34
 -10  -2  -3    7.55    0.42
  10   2   3    7.46    0.36
 -11  -2  -3   22.17    0.82
  11  -2   3   23.14    0.73
  11  -2   3   23.96    0.78
  11   2   3   21.76    0.75
 -11   2  -3   23.17    0.89
  11  -3  -3   15.39    0.56
  11  -3  -3   15.04    0.56
 -11  -3   3   14.81    0.61
 -11   3   3   14.78    0.66
  11   3  -3   15.13    0.57
  10  -3  -3    6.27    0.33
 -10  -3   3    5.81    0.37
  10  -3  -3    6.25    0.32
 -10   3   3    6.39    0.42
  10   3  -3    6.30    0.33
   9  -3  -3   28.52    0.87
  -9  -3   3   28.73    0.93
   9  -3  -3   27.65    0.85
   9   3  -3   27.58    0.87
  -9   3   3   28.44    0.99
   9   3  -3   27.52    0.81
   8  -3  -3    0.29    0.10
   8  -3  -3    0.34    0.11
  -8  -3   3    0.32    0.11
  -8   3   3    0.24    0.14
   8   3  -3    0.31    0.11
  -7  -3   3   26.83    0.76
  -7  -3   3   24.84    0.84
   7  -3  -3   25.60    0.80
   7   3  -3   25.60    0.80
  -7   3   3   26.50    0.72
   7   3  -3   25.73    0.76
  -7   3   3   25.66    0.89
   6  -3  -3    7.50    0.30
  -6  -3   3    7.18    0.35
  -6  -3   3    7.19    0.29
   6  -3  -3    7.25    0.31
  -6   3   3    7.65    0.28
  -6   3   3    6.94    0.38
   6   3  -3    7.33    0.31
   6   3  -3    7.34    0.35
   5  -3  -3    6.67    0.28
   5  -3  -3    6.41    0.26
  -5  -3   3    6.45    0.25
  -5   3   3    6.64    0.34
  -5   3   3    6.66    0.26
   5   3  -3    6.31    0.31
   5   3  -3    6.51    0.29
  -4  -3   3    7.04    0.25
   4  -3  -3    6.84    0.29
   4  -3  -3    6.87    0.26
  -4   3   3    7.96    0.35
  -4   3   3    6.98    0.28
   4   3  -3    6.62    0.30
   4   3  -3    7.67    0.30
   3  -3  -3  206.46    5.03
   3  -3  -3  195.18    4.98
  -3  -3   3  199.23    5.05
  -3  -3   3  209.71    5.00
  -3  -3   3  184.44    4.95
   3   3  -3  201.27    5.01
   3   3  -3  196.04    5.04
  -3   3   3  195.16    5.01
  -3   3   3  186.76    5.05
  -2  -3   3   75.14    1.98
   2  -3  -3   75.95    1.97
  -2  -3   3   73.88    1.93
  -2  -3   3   73.45    1.91
   2  -3  -3   72.85    1.92
   2   3  -3   74.43    1.98
  -2   3   3   74.93    1.96
  -2   3   3   72.92    1.98
  -1  -3   3   82.86    2.22
   1  -3  -3   83.51    2.18
   1  -3  -3   87.54    2.22
  -1  -3   3   85.82    2.17
  -1   3   3   81.71    2.21
  -1   3   3   84.68    2.20
   1   3  -3   82.85    2.22
   1   3  -3   85.39    2.18
   0  -3  -3  120.53    3.08
   0  -3   3  119.88    3.02
   0  -3   3  117.92    3.08
   0  -3  -3  117.98    3.05
   0   3  -3  116.87    3.08
   0   3   3  116.43    3.08
   0   3   3  121.16    3.03
   0   3  -3  120.35    3.07
  -1  -3  -3   13.46    0.40
  -1  -3  -3   14.86    0.48
   1  -3   3   14.43    0.48
   1  -3   3   14.82    0.43
   1   3   3   14.60    0.41
  -1   3  -3   13.92    0.49
  -1   3  -3   14.46    0.47
   1   3   3   14.26    0.48
  -2  -3  -3   81.97    2.18
  -2  -3  -3   79.25    2.16
   2  -3   3   84.31    2.10
   2  -3   3   81.61    2.16
  -2   3  -3   82.05    2.13
  -2   3  -3   82.01    2.21
   2   3   3   78.94    2.15
  -3  -3  -3   41.14    1.18
   3  -3   3   41.14    1.16
   3  -3   3   42.89    1.11
  -3  -3  -3   41.19    1.20
   3   3   3   40.56    1.16
  -3   3  -3   41.04    1.23
  -3   3  -3   41.06    1.12
   4  -3   3    5.15    0.21
  -4  -3  -3    4.93    0.25
   4   3   3    4.73    0.24
  -4   3  -3    4.97    0.21
  -4   3  -3    4.86    0.31
  -5  -3  -3  137.92    3.74
   5  -3   3  142.22    3.67
  -5  -3  -3  134.61    3.62
   5  -3   3  143.37    3.57
  -5   3  -3  136.64    3.72
   5   3   3  142.59    3.59
   5   3   3  137.97    3.63
  -5   3  -3  139.59    3.52
   6  -3   3   42.47    1.17
   6  -3   3   43.09    1.22
  -6  -3  -3   40.89    1.27
   6   3   3   43.79    1.23
   6   3   3   43.93    1.21
  -6   3  -3   39.89    1.31
   7  -3   3    3.34    0.20
   7  -3   3    3.15    0.23
  -7  -3  -3    3.56    0.27
   7   3   3    3.26    0.21
   7   3   3    3.31    0.23
  -7   3  -3    3.49    0.31
   8  -3   3    0.58    0.14
   8  -3   3    0.86    0.13
  -8  -3  -3    0.53    0.15
  -8   3  -3    0.78    0.19
   8   3   3    0.62    0.13
   8   3   3    0.77    0.11
  -9  -3  -3   17.18    0.70
   9  -3   3   18.10    0.63
   9  -3   3   17.39    0.58
   9   3   3   16.82    0.64
  -9   3  -3   18.71    0.76
 -10  -3  -3    7.10    0.42
  10  -3   3    7.42    0.38
  10   3   3    7.29    0.36
 -10   3  -3    7.72    0.49
  11  -3   3   13.34    0.53
  11  -3   3   12.35    0.47
 -11  -3  -3   12.47    0.58
 -11   3  -3   12.83    0.65
  11   3   3   12.46    0.50
 -11  -4   3    0.53    0.19
  11  -4  -3    0.63    0.16
  11   4  -3    0.68    0.16
 -10  -4   3    0.85    0.19
  10  -4  -3    0.80    0.15
 -10   4   3    1.01    0.22
  10   4  -3    1.14    0.18
  -9  -4   3   54.13    1.64
   9  -4  -3   56.80    1.55
   9   4  -3   57.95    1.60
  -9   4   3   57.53    1.71
   9   4  -3   55.74    1.53
   8  -4  -3   34.82    1.06
  -8  -4   3   36.40    1.13
   8  -4  -3   36.09    1.04
   8   4  -3   36.36    1.04
   8   4  -3   36.84    1.08
  -8   4   3   36.86    1.18
  -7  -4   3    5.21    0.32
   7  -4  -3    4.85    0.26
   7  -4  -3    4.92    0.27
   7   4  -3    5.12    0.28
  -7   4   3    5.04    0.27
   7   4  -3    4.74    0.27
  -7   4   3    5.32    0.35
   6  -4  -3    2.79    0.20
   6  -4  -3    2.35    0.18
  -6  -4   3    2.19    0.22
   6   4  -3    2.62    0.20
   6   4  -3    2.38    0.20
  -6   4   3    2.30    0.24
  -5  -4   3   15.47    0.58
   5  -4  -3   15.84    0.50
   5  -4  -3   15.14    0.53
  -5   4   3   15.34    0.59
  -5   4   3   16.67    0.52
   5   4  -3   15.97    0.54
   4  -4  -3    0.53    0.11
   4  -4  -3    0.57    0.10
  -4  -4   3    1.01    0.15
  -4   4   3    0.62    0.13
   4   4  -3    0.74    0.13
   4   4  -3    0.60    0.12
  -4   4   3    0.54    0.11
   3  -4  -3  109.87    2.81
   3  -4  -3  104.18    2.85
  -3  -4   3  104.50    2.83
  -3   4   3  114.97    2.86
  -3   4   3  108.31    2.88
   3   4  -3  113.15    2.93
   2  -4  -3  104.61    2.71
  -2  -4   3  102.27    2.71
  -2  -4   3  103.55    2.77
  -2   4   3  105.78    2.75
   2   4  -3  105.74    2.77
   2   4  -3  106.26    2.68
  -2   4   3  105.09    2.75
   1  -4  -3   30.44    0.90
   1  -4  -3   29.12    0.85
  -1  -4   3   30.30    0.85
   1   4  -3   30.31    0.84
  -1   4   3   30.50    0.86
   1   4  -3   29.52    0.92
   0  -4   3    3.98    0.19
   0  -4  -3    4.22    0.23
   0  -4  -3    3.93    0.21
   0   4   3    3.82    0.19
   0   4  -3    3.77    0.28
   0   4  -3    4.46    0.22
   1   4   3    0.85    0.12
  -2  -4  -3   22.53    0.72
   2  -4   3   23.04    0.66
  -2  -4  -3   24.13    0.73
   2  -4   3   21.85    0.71
  -2   4  -3   22.80    0.75
  -2   4  -3   22.96    0.70
   2   4   3   21.93    0.71
  -3  -4  -3    6.86    0.34
   3  -4   3    7.76    0.28
   3  -4   3    6.75    0.31
  -3   4  -3    7.66    0.31
  -3   4  -3    7.12    0.36
   3   4   3    7.62    0.35
   4  -4   3  118.91    2.96
  -4  -4  -3  109.53    3.02
   4  -4   3  118.03    3.02
  -4  -4  -3  116.07    3.07
   4   4   3  112.10    3.02
  -4   4  -3  117.50    2.97
  -4   4  -3  112.00    3.09
   5  -4   3   91.04    2.34
   5  -4   3   90.58    2.40
  -5  -4  -3   88.05    2.45
  -5  -4  -3   90.00    2.41
  -5   4  -3   90.21    2.50
   5   4   3   87.22    2.37
  -5   4  -3   90.29    2.32
   6  -4   3    0.21    0.10
  -6  -4  -3    0.43    0.14
  -6   4  -3    0.39    0.08
  -6   4  -3    0.15    0.14
   6   4   3    0.19    0.09
   6   4   3    0.86    0.14
   7  -4   3    9.25    0.36
   7  -4   3    9.73    0.40
  -7  -4  -3    9.29    0.46
   7   4   3    9.30    0.36
   7   4   3    9.28    0.40
  -7   4  -3    8.90    0.49
   8  -4   3    0.89    0.15
  -8  -4  -3    0.95    0.19
   8  -4   3    0.71    0.12
   8   4   3    0.72    0.12
  -8   4  -3    0.50    0.20
   8   4   3    0.69    0.13
   9  -4   3    0.57    0.13
   9  -4   3    0.66    0.25
  -9  -4  -3    0.70    0.18
   9   4   3    0.45    0.13
  -9   4  -3    0.60    0.20
  10  -4   3   18.36    0.65
 -10  -4  -3   17.53    0.71
  10  -4   3   17.87    0.61
 -10   4  -3   17.89    0.77
  10   4   3   17.94    0.64
 -10  -5   3    4.03    0.34
  10  -5  -3    4.32    0.30
 -10   5   3    4.38    0.39
  10   5  -3    4.04    0.31
  -9  -5   3    1.73    0.24
   9  -5  -3    1.80    0.22
  -9   5   3    1.92    0.29
   9   5  -3    1.65    0.21
   9   5  -3    1.50    0.20
  -8  -5   3    8.44    0.44
   8   5  -3    8.87    0.38
  -8   5   3    8.71    0.47
   8   5  -3    8.62    0.39
   7  -5  -3    0.31    0.12
  -7  -5   3    0.33    0.14
   7  -5  -3    0.17    0.10
   7   5  -3    0.11    0.12
   7   5  -3    0.28    0.11
  -7   5   3    0.41    0.15
   6  -5  -3   14.80    0.53
  -6  -5   3   15.49    0.60
   6   5  -3   15.35    0.55
  -6   5   3   15.27    0.60
   6   5  -3   15.82    0.55
  -5  -5   3    8.48    0.40
   5  -5  -3    8.05    0.35
   5  -5  -3    8.56    0.34
   5   5  -3    8.53    0.36
  -5   5   3    7.94    0.39
   5   5  -3    8.91    0.38
  -5   5   3    8.73    0.35
   4  -5  -3   12.11    0.46
   4  -5  -3   12.47    0.43
  -4   5   3   12.84    0.46
   4   5  -3   13.08    0.49
  -4   5   3   12.26    0.49
   4   5  -3   12.49    0.45
   3  -5  -3    9.44    0.38
  -3  -5   3    9.18    0.35
  -3  -5   3    8.97    0.40
   3  -5  -3    9.20    0.35
  -3   5   3    9.04    0.37
   3   5  -3    9.40    0.39
  -3   5   3    8.56    0.38
   2  -5  -3   94.09    2.46
   2  -5  -3   92.42    2.50
  -2  -5   3   92.65    2.51
  -2  -5   3   94.67    2.46
   2   5  -3   96.03    2.53
  -2   5   3   92.12    2.49
  -2   5   3   95.98    2.48
   1  -5  -3   95.86    2.49
  -1  -5   3   94.56    2.52
  -1  -5   3   96.39    2.47
   1  -5  -3   92.79    2.51
  -1   5   3   95.57    2.47
  -1   5   3   90.07    2.51
   1   5  -3   96.66    2.45
   1   5  -3   95.04    2.54
   0  -5  -3    3.41    0.23
   0  -5   3    4.20    0.24
   0  -5  -3    3.36    0.22
   0  -5   3    3.55    0.20
   0   5   3    2.86    0.21
   0   5   3    3.70    0.20
   0   5  -3    3.06    0.23
   0   5  -3    3.60    0.21
   1  -5   3    1.49    0.17
  -1  -5  -3    1.67    0.18
  -1  -5  -3    1.56    0.18
   1  -5   3    1.65    0.15
   1   5   3    1.41    0.16
  -1   5  -3    1.66    0.19
  -1   5  -3    1.34    0.18
   2  -5   3    0.42    0.09
  -2  -5  -3    0.26    0.11
  -2  -5  -3    0.80    0.16
   2  -5   3    0.33    0.10
  -2   5  -3    0.59    0.13
  -2   5  -3    0.42    0.11
   3  -5   3   64.91    1.69
   3  -5   3   65.05    1.75
  -3  -5  -3   62.48    1.76
  -3  -5  -3   63.97    1.78
  -3   5  -3   63.38    1.79
   3   5   3   63.12    1.74
  -3   5  -3   61.06    1.76
   4  -5   3   66.24    1.79
   4  -5   3   67.16    1.73
  -4  -5  -3   63.14    1.79
  -4  -5  -3   65.25    1.83
  -4   5  -3   65.38    1.79
   4   5   3   62.15    1.77
  -4   5  -3   65.09    1.86
   5  -5   3   17.86    0.61
  -5  -5  -3   17.82    0.62
  -5  -5  -3   17.09    0.66
   5  -5   3   17.51    0.56
  -5   5  -3   18.09    0.56
  -5   5  -3   17.74    0.68
   5   5   3   17.79    0.60
  -6  -5  -3    0.57    0.16
   6  -5   3    0.72    0.14
   6  -5   3    0.68    0.12
  -6   5  -3    0.64    0.17
   6   5   3    0.78    0.15
  -7  -5  -3    6.84    0.40
   7  -5   3    6.69    0.34
   7  -5   3    6.85    0.30
  -7   5  -3    6.61    0.42
   7   5   3    6.85    0.34
   7   5   3    6.70    0.31
   8  -5   3    0.38    0.16
  -8  -5  -3    0.34    0.17
   8  -5   3    0.33    0.11
   8   5   3    0.26    0.12
  -8   5  -3    0.73    0.20
   8   5   3    0.35    0.11
   9  -5   3    0.46    0.16
  -9  -5  -3    0.48    0.20
   9   5   3    0.50    0.15
  -9   5  -3    0.50    0.23
   8  -6  -3   43.72    1.29
  -8  -6   3   44.16    1.36
  -8   6   3   44.12    1.38
   8   6  -3   44.65    1.28
   8   6  -3   46.17    1.29
   7  -6  -3   13.55    0.51
  -7  -6   3   13.66    0.57
  -7   6   3   13.64    0.58
   7   6  -3   13.85    0.52
   7   6  -3   13.69    0.52
  -6  -6   3    1.73    0.25
   6  -6  -3    2.03    0.21
  -6   6   3    1.85    0.22
   6   6  -3    2.07    0.22
  -6   6   3    2.40    0.27
   6   6  -3    1.84    0.22
  -5  -6   3   27.64    0.90
   5  -6  -3   27.67    0.81
   5  -6  -3   25.58    0.84
  -5   6   3   27.39    0.83
   5   6  -3   27.07    0.86
  -5   6   3   27.06    0.89
   5   6  -3   27.60    0.84
  -4  -6   3    4.97    0.31
   4  -6  -3    5.44    0.29
   4  -6  -3    5.41    0.27
  -4   6   3    5.45    0.29
   4   6  -3    5.29    0.29
  -4   6   3    5.00    0.31
   4   6  -3    5.25    0.31
   3  -6  -3   43.59    1.27
   3  -6  -3   44.63    1.24
  -3  -6   3   44.44    1.31
  -3  -6   3   43.32    1.24
  -3   6   3   44.73    1.27
  -3   6   3   43.39    1.27
   3   6  -3   46.34    1.30
   2  -6  -3    0.92    0.14
  -2  -6   3    1.01    0.14
   2  -6  -3    0.84    0.15
  -2  -6   3    0.93    0.15
  -2   6   3    0.98    0.15
   2   6  -3    1.02    0.16
  -2   6   3    1.15    0.17
   1  -6  -3    8.09    0.38
  -1  -6   3    8.81    0.37
   1  -6  -3    8.92    0.37
  -1  -6   3    8.97    0.39
  -1   6   3    8.60    0.37
   1   6  -3    9.15    0.40
  -1   6   3    8.79    0.35
   0  -6   3   26.70    0.83
   0  -6  -3   26.56    0.84
   0  -6  -3   26.14    0.82
   0  -6   3   26.12    0.79
   0   6   3   26.88    0.83
   0   6  -3   27.93    0.79
   0   6  -3   26.26    0.85
  -1  -6  -3    3.21    0.24
  -1  -6  -3    3.10    0.23
   1  -6   3    2.27    0.21
   1  -6   3    2.53    0.19
  -1   6  -3    2.66    0.22
   1   6   3    2.28    0.21
  -1   6  -3    2.78    0.22
  -2  -6  -3    5.05    0.31
   2  -6   3    4.71    0.27
  -2  -6  -3    4.58    0.29
   2  -6   3    5.03    0.27
  -2   6  -3    5.25    0.29
  -2   6  -3    5.20    0.30
   2   6   3    4.92    0.28
  -3  -6  -3   31.54    0.97
   3  -6   3   30.91    0.90
   3  -6   3   31.73    0.95
  -3  -6  -3   30.96    0.99
   3   6   3   31.23    0.95
  -3   6  -3   30.98    0.98
  -3   6  -3   31.27    0.94
  -4  -6  -3    7.60    0.37
   4  -6   3    7.70    0.32
  -4  -6  -3    7.38    0.40
   4  -6   3    8.21    0.36
  -4   6  -3    7.46    0.34
   4   6   3    7.78    0.36
  -4   6  -3    7.87    0.40
   5  -6   3   29.28    0.85
   5  -6   3   29.14    0.90
  -5  -6  -3   29.36    0.96
  -5  -6  -3   29.25    0.92
  -5   6  -3   28.28    0.96
   5   6   3   28.87    0.89
  -5   6  -3   28.43    0.86
   6  -6   3    0.55    0.13
   6  -6   3    0.75    0.14
  -6   6  -3    0.43    0.27
   6   6   3    0.76    0.14
   6   6   3    0.68    0.14
  -7  -6  -3   17.41    0.68
   7  -6   3   16.60    0.58
   7  -6   3   17.56    0.62
  -7   6  -3   17.55    0.71
   7   6   3   17.67    0.63
   7   6   3   16.92    0.59
  -8  -6  -3    6.69    0.43
   8  -6   3    6.16    0.35
   8   6   3    6.13    0.35
  -8   6  -3    5.97    0.43
   8   6   3    6.33    0.32
   6  -7  -3   47.42    1.39
  -6  -7   3   49.19    1.45
  -6   7   3   48.19    1.43
   6   7  -3   48.85    1.40
   6   7  -3   48.70    1.38
   5  -7  -3    5.33    0.32
  -5  -7   3    5.43    0.37
  -5   7   3    5.35    0.32
   5   7  -3    5.43    0.31
   5   7  -3    5.91    0.33
  -5   7   3    5.29    0.34
   4  -7  -3    1.14    0.19
  -4  -7   3    1.38    0.21
   4   7  -3    1.28    0.17
  -4   7   3    1.53    0.22
  -4   7   3    1.19    0.18
   4   7  -3    1.12    0.17
   3  -7  -3   14.59    0.52
  -3  -7   3   14.26    0.59
   3  -7  -3   14.30    0.54
  -3  -7   3   13.66    0.51
  -3   7   3   15.13    0.54
   3   7  -3   15.31    0.56
   2  -7  -3    5.28    0.30
  -2  -7   3    5.25    0.32
  -2  -7   3    5.22    0.28
   2  -7  -3    4.79    0.31
  -2   7   3    5.00    0.30
   2   7  -3    5.15    0.33
  -1  -7   3   31.21    0.93
   1  -7  -3   31.09    0.95
   1  -7  -3   31.49    0.97
  -1  -7   3   32.59    0.98
   1   7  -3   31.97    1.08
  -1   7   3   30.74    0.95
   0  -7  -3    1.48    0.22
   0  -7   3    1.67    0.20
   0  -7   3    1.76    0.22
   0   7   3    1.76    0.22
   0   7  -3    1.51    0.19
  -1  -7  -3   12.12    0.50
   1  -7   3   12.29    0.48
   1  -7   3   12.16    0.45
  -1  -7  -3   12.94    0.50
  -1   7  -3   12.82    0.51
   2  -7   3    2.66    0.23
  -2  -7  -3    2.46    0.24
  -2  -7  -3    2.57    0.27
  -2   7  -3    2.50    0.25
   2   7   3    2.68    0.24
  -2   7  -3    2.53    0.24
   3  -7   3   31.81    0.95
  -3  -7  -3   31.25    1.16
  -3  -7  -3   30.43    0.99
  -3   7  -3   31.63    0.95
   3   7   3   30.76    0.95
  -3   7  -3   30.09    0.97
  -4  -7  -3    1.99    0.24
  -4   7  -3    1.56    0.26
  -4   7  -3    1.62    0.23
   4   7   3    2.41    0.24
  -5  -7  -3    1.03    0.21
   5  -7   3    1.17    0.17
  -5  -7  -3    1.48    0.23
   5   7   3    1.04    0.16
  -5   7  -3    1.19    0.21
  -6  -7  -3    0.68    0.20
   6  -7   3    0.86    0.17
  -6   7  -3    0.49    0.19
   6   7   3    0.62    0.16
   6   7   3    0.42    0.14
   3  -8  -3    2.06    0.26
  -3  -8   3    2.41    0.29
   3   8  -3    2.82    0.27
  -3   8   3    1.97    0.25
  -2  -8   3    4.87    0.32
   2  -8  -3    4.29    0.32
   2   8  -3    4.85    0.32
  -2   8   3    4.42    0.30
  -1  -8   3   10.59    0.47
   1  -8  -3   10.63    0.46
  -1   8   3   10.99    0.45
   1   8  -3   10.41    0.46
   0  -8  -3   25.06    0.87
   0  -8  -3   24.44    0.82
   0  -8   3   25.63    0.82
   0   8   3   24.78    0.81
   0   8  -3   25.33    0.82
  -1  -8  -3    0.93    0.22
  -1  -8  -3    1.22    0.19
   1  -8   3    1.07    0.18
   1   8   3    1.49    0.22
  -1   8  -3    1.29    0.18
  -2  -8  -3   42.70    1.30
  -2  -8  -3   43.29    1.28
   2  -8   3   43.69    1.27
  -2   8  -3   44.92    1.28
   2   8   3   43.07    1.27
  -3  -8  -3    0.19    0.18
   3  -8   3    0.31    0.15
  -3  -8  -3    0.44    0.16
   3   8   3    0.27    0.14
  -3   8  -3    0.38    0.16
 -12   0   4   37.40    1.15
 -12   0   4   34.92    1.09
  12   0  -4   35.42    1.08
 -11   0   4   -0.08    0.15
  11   0  -4    0.39    0.12
 -11   0   4    0.31    0.14
 -10   0   4   33.88    1.07
 -10   0   4   33.37    1.02
  10   0  -4   33.81    1.01
  -9   0   4    0.27    0.14
   9   0  -4    0.35    0.11
   8   0  -4   25.33    0.67
  -8   0   4   23.84    0.77
   8   0  -4   24.17    0.76
  -8   0   4   24.63    0.82
  -7   0   4    0.53    0.11
  -7   0   4    0.58    0.12
  -6   0   4   10.27    0.42
   6   0  -4   10.45    0.33
  -6   0   4    9.99    0.38
  -5   0   4    0.68    0.12
   4   0  -4  868.00   20.67
  -4   0   4  754.23   20.92
   4   0  -4  804.39   20.75
  -4   0   4  844.81   20.80
   3   0  -4    0.26    0.05
  -3   0   4    0.42    0.06
   3   0  -4    0.23    0.05
  -3   0   4    0.25    0.07
  -2   0   4  337.17    8.34
   2   0  -4  303.29    8.25
   2   0  -4  340.50    8.40
  -2   0   4  326.66    8.50
   2   0  -4  331.90    8.41
  -1   0   4    0.57    0.07
   1   0  -4    0.62    0.05
  -1   0   4    0.56    0.05
   1   0  -4    0.48    0.06
  -1   0   4    0.49    0.05
   0   0   4  105.61    2.65
   0   0  -4  107.66    2.68
   0   0   4   97.72    2.66
   0   0   4  109.48    2.66
   0   0  -4  105.69    2.70
  -1   0  -4    0.50    0.06
   1   0   4    0.63    0.06
  -1   0  -4    0.50    0.06
   1   0   4    0.50    0.07
  -2   0  -4   36.23    0.98
  -2   0  -4   35.83    1.00
  -2   0  -4   35.82    0.94
   2   0   4   34.53    0.93
   2   0   4   35.15    0.95
   3   0   4    0.53    0.07
  -3   0  -4    0.84    0.12
   3   0   4    0.57    0.07
   4   0   4   71.86    1.92
  -4   0  -4   72.44    1.99
   4   0   4   72.48    1.86
  -4   0  -4   76.88    1.98
  -5   0  -4    0.68    0.13
   5   0   4    0.54    0.09
  -6   0  -4   92.63    2.52
   6   0   4   89.32    2.43
  -6   0  -4   96.32    2.74
   7   0   4    0.28    0.08
  -7   0  -4    0.23    0.11
  -7   0  -4    0.07    0.13
  -8   0  -4    0.22    0.14
   8   0   4    0.28    0.09
  -8   0  -4    0.25    0.11
  -9   0  -4    0.04    0.12
  -9   0  -4    0.03    0.15
   9   0   4    0.19    0.09
  10   0   4   80.85    2.19
 -10   0  -4   81.76    2.29
 -11   0  -4    0.20    0.22
  11   0   4    0.15    0.11
 -11   0  -4    0.06    0.14
 -12  -1   4    5.77    0.49
  12  -1  -4    6.14    0.33
 -12  -1   4    6.71    0.39
  12   1  -4    6.51    0.35
 -12   1   4    6.78    0.43
 -12   1   4    6.72    0.36
 -11  -1   4    5.88    0.37
 -11  -1   4    5.65    0.35
  11  -1  -4    5.94    0.31
 -11   1   4    5.89    0.33
 -11   1   4    5.19    0.43
  11   1  -4    5.88    0.31
 -10  -1   4   97.74    2.65
  10  -1  -4   97.96    2.61
 -10  -1   4   96.09    2.64
  10   1  -4   99.06    2.62
 -10   1   4  101.07    2.71
 -10   1   4   96.31    2.61
  -9  -1   4   13.73    0.53
  -9  -1   4   14.06    0.54
   9  -1  -4   14.73    0.52
  -9   1   4   14.02    0.51
  -9   1   4   14.04    0.58
   9   1  -4   14.15    0.51
  -8  -1   4   10.39    0.43
   8  -1  -4   10.03    0.41
  -8   1   4   10.56    0.47
   8   1  -4   10.18    0.33
   8   1  -4   10.05    0.40
  -8   1   4   10.08    0.39
   7  -1  -4    2.18    0.13
  -7  -1   4    2.40    0.23
   7  -1  -4    2.34    0.19
  -7  -1   4    2.12    0.19
   7   1  -4    2.34    0.18
  -7   1   4    2.28    0.23
  -7   1   4    2.33    0.17
   7   1  -4    2.26    0.15
   6  -1  -4  190.21    4.94
  -6  -1   4  195.58    4.97
  -6  -1   4  199.80    4.96
   6  -1  -4  192.02    4.86
  -6   1   4  180.42    5.00
  -6   1   4  196.74    4.92
   6   1  -4  197.89    4.88
  -5  -1   4   10.68    0.39
   5  -1  -4   10.42    0.37
  -5  -1   4   10.19    0.38
   5  -1  -4    9.96    0.32
   5   1  -4   10.14    0.36
  -5   1   4    9.96    0.34
   5   1  -4   10.36    0.34
   4  -1  -4   12.43    0.42
   4  -1  -4   12.81    0.39
  -4  -1   4   12.73    0.44
  -4  -1   4   12.84    0.43
  -4   1   4   12.29    0.47
  -4   1   4   12.99    0.39
   4   1  -4   13.15    0.40
   4   1  -4   12.33    0.41
   3  -1  -4   55.69    1.42
  -3  -1   4   55.49    1.47
  -3  -1   4   54.53    1.48
   3  -1  -4   56.49    1.45
   3   1  -4   56.46    1.46
  -3   1   4   54.92    1.52
   3   1  -4   50.89    1.44
  -3   1   4   57.49    1.42
  -2  -1   4    0.71    0.07
   2  -1  -4    0.60    0.07
   2  -1  -4    0.74    0.07
  -2  -1   4    0.53    0.08
  -2   1   4    0.60    0.10
   2   1  -4    0.68    0.08
   2   1  -4    0.71    0.06
   1  -1  -4   66.60    1.71
   1  -1  -4   66.62    1.71
  -1  -1   4   63.92    1.71
  -1  -1   4   65.68    1.66
   1   1  -4   65.09    1.66
  -1   1   4   63.90    1.73
   1   1  -4   67.15    1.73
   1   1  -4   67.81    1.71
   0  -1   4   20.50    0.61
   0  -1  -4   22.24    0.62
   0  -1  -4   21.90    0.58
   0  -1  -4   21.66    0.62
   0   1  -4   22.15    0.64
   0   1   4   22.54    0.58
   0   1   4   21.31    0.61
   0   1  -4   21.20    0.61
  -1  -1  -4   10.27    0.33
  -1  -1  -4   10.71    0.33
   1  -1   4   10.85    0.29
  -1  -1  -4   11.21    0.33
   1  -1   4    9.97    0.28
   1  -1   4   10.39    0.34
   1   1   4    9.36    0.32
  -1   1  -4   10.54    0.32
   1   1   4    9.94    0.33
  -2  -1  -4   77.87    1.98
  -2  -1  -4   77.50    1.98
  -2  -1  -4   78.48    1.96
   2  -1   4   74.14    1.92
   2  -1   4   72.56    1.97
  -2  -1  -4   75.36    1.95
  -2   1  -4   78.75    1.93
  -2   1  -4   69.54    1.93
  -2   1  -4   75.78    2.03
   3  -1   4   34.92    0.93
   3  -1   4   32.02    0.89
   3  -1   4   33.40    0.97
  -3  -1  -4   35.57    0.96
  -3  -1  -4   35.35    0.96
  -3  -1  -4   35.78    0.99
  -3   1  -4   32.80    1.02
  -3   1  -4   35.18    0.90
   3   1   4   34.57    0.93
   4  -1   4  393.27    9.95
  -4  -1  -4  389.55    9.93
  -4  -1  -4  382.70    9.82
  -4   1  -4  371.52    9.86
  -4   1  -4  400.14    9.77
  -4   1  -4  386.14    9.90
   4   1   4  395.69    9.75
   4   1   4  392.54   10.00
  -5  -1  -4   18.68    0.60
   5  -1   4   19.04    0.56
  -5  -1  -4   16.81    0.64
  -5   1  -4   17.19    0.63
   5   1   4   19.05    0.53
  -5   1  -4   18.15    0.66
   5   1   4   17.91    0.57
  -6  -1  -4   61.76    1.69
  -6  -1  -4   53.89    1.75
  -6   1  -4   69.73    2.15
   6   1   4   60.22    1.58
   7  -1   4   12.30    0.43
  -7  -1  -4   11.67    0.48
  -7  -1  -4   12.13    0.52
   7   1   4   11.86    0.44
   7   1   4   12.29    0.36
  -7   1  -4   11.94    0.54
  -7   1  -4   12.52    0.48
  -8  -1  -4    9.71    0.44
   8  -1   4    8.94    0.36
  -8   1  -4    9.29    0.48
   8   1   4    9.08    0.38
  -8   1  -4    9.05    0.41
  -9  -1  -4   40.47    1.20
   9  -1   4   39.21    1.13
  -9  -1  -4   40.19    1.22
  -9   1  -4   39.33    1.27
  -9   1  -4   39.22    1.20
   9   1   4   39.76    1.15
  10  -1   4   24.96    0.77
 -10  -1  -4   23.44    0.86
 -10  -1  -4   24.52    0.83
 -10   1  -4   24.29    0.90
 -11  -1  -4    0.13    0.15
 -11  -1  -4    0.42    0.18
  11   1   4    0.20    0.11
 -11   1  -4    0.34    0.14
 -11   1  -4   -0.13    0.19
  12  -2  -4   34.41    1.06
 -12  -2   4   34.54    1.10
 -12   2   4   35.49    1.17
  12   2  -4   35.75    1.07
 -11  -2   4   11.76    0.51
  11  -2  -4   12.48    0.48
  11   2  -4   11.88    0.48
 -11   2   4   11.91    0.48
 -11   2   4   12.62    0.57
 -10  -2   4    0.27    0.13
  10  -2  -4    0.07    0.12
 -10  -2   4    0.33    0.14
  10   2  -4    0.40    0.12
 -10   2   4    0.33    0.16
 -10   2   4    0.07    0.11
  -9  -2   4   85.10    2.30
  -9  -2   4   85.20    2.34
   9  -2  -4   86.47    2.30
   9   2  -4   91.23    2.25
  -9   2   4   84.64    2.39
   9   2  -4   86.33    2.31
  -9   2   4   80.03    2.26
   8  -2  -4    1.00    0.15
  -8  -2   4    1.06    0.17
  -8   2   4    0.97    0.17
   8   2  -4    1.17    0.14
  -8   2   4    1.01    0.15
   8   2  -4    1.14    0.16
  -7  -2   4   12.89    0.49
  -7  -2   4   13.14    0.47
   7  -2  -4   12.32    0.46
  -7   2   4   13.09    0.39
   7   2  -4   13.05    0.42
   7   2  -4   12.10    0.45
  -7   2   4   12.07    0.52
  -7   2   4   12.12    0.43
  -6  -2   4   70.92    1.83
   6  -2  -4   66.08    1.89
  -6  -2   4   67.65    1.91
  -6   2   4   63.27    1.98
   6   2  -4   69.68    1.84
   6   2  -4   68.79    1.80
  -6   2   4   70.24    1.80
  -6   2   4   67.80    1.76
  -5  -2   4   70.71    1.91
  -5  -2   4   70.76    1.87
   5  -2  -4   69.88    1.83
  -5   2   4   72.68    1.83
   5   2  -4   68.14    1.85
   5   2  -4   69.42    1.87
   4  -2  -4   84.06    2.17
  -4  -2   4   83.70    2.24
   4  -2  -4   82.94    2.22
  -4  -2   4   86.04    2.21
   4   2  -4   84.33    2.21
  -4   2   4   85.70    2.19
   4   2  -4   84.93    2.21
  -3  -2   4   30.72    0.87
   3  -2  -4   30.03    0.84
   3  -2  -4   31.26    0.80
   3  -2  -4   29.71    0.80
   3  -2  -4   29.66    0.86
  -3  -2   4   29.96    0.84
   3   2  -4   30.47    0.84
  -3   2   4   30.48    0.91
   3   2  -4   29.39    0.85
  -2  -2   4   41.21    1.16
  -2  -2   4   42.90    1.14
   2   2  -4   43.38    1.12
  -2   2   4   41.76    1.19
  -2   2   4   42.14    1.15
   2   2  -4   43.25    1.16
   1   2  -4   12.75    0.35
  -1   2   4   11.80    0.40
  -1   2   4   12.10    0.40
   1   2  -4   12.58    0.35
   1   2  -4   12.00    0.40
   1   2  -4   12.51    0.40
  -1   2   4   12.19    0.34
   0  -2   4  141.22    3.56
   0  -2  -4  140.91    3.56
   0  -2  -4  141.92    3.52
   0   2   4  129.26    3.50
   0   2  -4  135.37    3.56
   0   2   4  140.77    3.55
   0   2   4  142.32    3.53
   0   2  -4  139.98    3.55
   1  -2   4   30.26    0.85
  -1  -2  -4   30.30    0.84
   1   2   4   29.56    0.81
  -1   2  -4   28.92    0.77
  -1   2  -4   29.79    0.82
   1   2   4   29.62    0.80
   1   2   4   29.22    0.84
  -1   2  -4   30.02    0.88
   2  -2   4   39.77    0.99
  -2  -2  -4   39.65    1.07
  -2  -2  -4   39.53    1.07
   2   2   4   38.87    1.00
  -2   2  -4   38.44    1.02
  -2   2  -4   35.42    1.00
  -2   2  -4   37.67    1.11
   2   2   4   36.96    1.05
   2   2   4   36.00    1.00
  -3  -2  -4   71.18    2.01
  -3  -2  -4   79.74    1.94
   3  -2   4   73.25    1.93
   3  -2   4   73.08    2.00
  -3   2  -4   74.51    1.93
  -3   2  -4   75.59    2.08
   3   2   4   75.06    1.97
   3   2   4   78.44    1.96
  -4  -2  -4    8.01    0.33
  -4  -2  -4    8.59    0.29
   4  -2   4    8.08    0.33
   4  -2   4    8.10    0.28
  -4  -2  -4    7.91    0.35
   4   2   4    8.23    0.30
  -4   2  -4    8.78    0.26
  -4   2  -4    8.01    0.40
   5  -2   4    4.48    0.24
  -5  -2  -4    4.47    0.27
   5  -2   4    4.49    0.20
  -5  -2  -4    5.04    0.22
  -5   2  -4    4.67    0.31
   5   2   4    4.59    0.21
   5   2   4    4.73    0.25
  -6  -2  -4   84.98    2.39
   6  -2   4   87.57    2.35
  -6  -2  -4   91.85    2.31
   6   2   4   88.50    2.34
   6   2   4   88.93    2.27
  -6   2  -4   84.28    2.45
   7  -2   4   27.07    0.86
   7  -2   4   27.30    0.81
  -7  -2  -4   28.44    0.82
  -7  -2  -4   27.88    0.91
  -7   2  -4   26.65    0.96
   7   2   4   27.01    0.84
   7   2   4   27.76    0.77
   8  -2   4    9.29    0.36
  -8  -2  -4    8.86    0.41
  -8  -2  -4    9.15    0.44
   8  -2   4    9.23    0.40
  -8   2  -4    8.86    0.49
   8   2   4    9.15    0.38
  -9  -2  -4   20.04    0.75
   9  -2   4   21.32    0.66
   9  -2   4   20.58    0.71
  -9   2  -4   20.62    0.81
   9   2   4   20.59    0.68
 -10  -2  -4   21.57    0.79
  10  -2   4   21.99    0.70
  10  -2   4   22.30    0.75
  10   2   4   21.85    0.73
 -10   2  -4   22.34    0.86
 -11  -2  -4    0.37    0.17
  11  -2   4    0.37    0.13
  11  -2   4    0.37    0.15
 -11   2  -4    0.70    0.23
  11   2   4    0.38    0.14
  11  -3  -4    0.13    0.12
 -11  -3   4    0.24    0.15
 -11   3   4    0.33    0.19
  11   3  -4    0.39    0.14
 -10  -3   4    8.83    0.44
  10  -3  -4    9.14    0.39
  10  -3  -4    9.16    0.40
  10   3  -4    8.66    0.43
 -10   3   4    8.78    0.49
   9  -3  -4   24.60    0.77
   9  -3  -4   23.47    0.74
  -9  -3   4   24.40    0.82
   9   3  -4   24.32    0.78
  -9   3   4   23.33    0.87
   9   3  -4   23.96    0.72
   8  -3  -4    7.05    0.34
   8  -3  -4    7.11    0.31
  -8  -3   4    7.16    0.37
  -8  -3   4    7.29    0.32
   8   3  -4    7.28    0.31
  -8   3   4    7.17    0.41
   8   3  -4    7.56    0.34
  -7  -3   4   44.47    1.22
  -7  -3   4   44.19    1.30
   7  -3  -4   43.25    1.25
   7  -3  -4   45.47    1.22
  -7   3   4   46.03    1.18
  -7   3   4   41.00    1.33
   7   3  -4   43.97    1.26
   6  -3  -4   74.83    2.05
   6  -3  -4   78.44    2.01
  -6  -3   4   75.09    2.10
  -6  -3   4   77.68    2.01
  -6   3   4   79.14    2.00
   6   3  -4   75.42    2.03
  -6   3   4   75.79    2.14
   5  -3  -4    5.65    0.23
  -5  -3   4    5.29    0.23
  -5   3   4    5.57    0.24
   5   3  -4    5.34    0.25
   4  -3  -4   21.73    0.75
  -4  -3   4   24.66    0.69
   4  -3  -4   24.88    0.68
  -4  -3   4   24.45    0.76
  -4   3   4   23.54    0.80
   4   3  -4   25.28    0.72
  -4   3   4   24.87    0.71
   4   3  -4   23.00    0.73
  -3  -3   4   32.89    0.98
   3  -3  -4   33.86    0.91
   3  -3  -4   34.79    0.97
  -3  -3   4   33.89    0.92
  -3   3   4   34.01    1.01
   3   3  -4   33.78    0.94
   3   3  -4   33.40    0.98
  -3   3   4   33.44    0.95
  -2  -3   4    0.32    0.07
   2  -3  -4    0.42    0.07
  -2  -3   4    0.52    0.08
   2  -3  -4    0.22    0.07
  -2   3   4    0.52    0.10
   2   3  -4    0.36    0.08
  -2   3   4    0.42    0.09
  -1  -3   4   23.93    0.73
   1  -3  -4   25.40    0.69
   1  -3  -4   24.94    0.74
  -1  -3   4   24.95    0.68
  -1   3   4   23.88    0.73
   1   3  -4   23.92    0.73
  -1   3   4   24.04    0.72
   1   3  -4   24.47    0.71
   0  -3  -4  271.23    6.76
   0  -3   4  272.87    6.73
   0  -3   4  270.30    6.76
   0  -3  -4  265.36    6.72
   0   3   4  257.20    6.70
   0   3   4  271.70    6.76
   0   3  -4  256.58    6.75
   0   3  -4  268.34    6.75
   1  -3   4   10.26    0.38
  -1  -3  -4    9.64    0.38
  -1  -3  -4   10.44    0.37
   1  -3   4   10.17    0.31
  -1   3  -4    9.90    0.36
  -1   3  -4    9.93    0.40
   1   3   4   10.38    0.32
   2  -3   4   50.03    1.24
  -2  -3  -4   46.00    1.33
   2  -3   4   46.98    1.32
   2   3   4   47.28    1.31
  -2   3  -4   47.62    1.29
  -2   3  -4   46.96    1.36
   3  -3   4   34.27    0.90
  -3  -3  -4   32.35    0.99
   3  -3   4   32.96    0.97
  -3   3  -4   33.51    1.04
  -3   3  -4   33.23    0.92
   3   3   4   32.69    0.95
   4  -3   4    1.81    0.12
   4  -3   4    1.62    0.15
  -4  -3  -4    2.21    0.22
  -4   3  -4    1.78    0.13
   4   3   4    2.05    0.16
  -4   3  -4    1.87    0.22
   5  -3   4    8.56    0.36
  -5  -3  -4    8.90    0.37
  -5  -3  -4    8.40    0.40
   5  -3   4    9.27    0.32
  -5   3  -4    8.97    0.29
   5   3   4    8.77    0.34
  -5   3  -4    8.50    0.44
   6  -3   4   65.84    1.71
  -6  -3  -4   64.99    1.84
   6  -3   4   65.42    1.78
   6   3   4   63.39    1.77
  -6   3  -4   62.70    1.88
  -7  -3  -4    0.74    0.17
   7  -3   4    0.67    0.13
   7  -3   4    0.55    0.10
   7   3   4    0.53    0.11
  -7   3  -4    0.67    0.18
   7   3   4    0.47    0.12
  -8  -3  -4   41.63    1.27
   8  -3   4   40.99    1.15
   8  -3   4   40.18    1.20
  -8   3  -4   39.37    1.31
   8   3   4   41.16    1.19
   8   3   4   39.87    1.10
   9  -3   4   48.23    1.40
   9  -3   4   47.76    1.34
  10  -3   4    0.56    0.16
 -10  -3  -4    0.85    0.19
  10   3   4    0.76    0.15
 -10   3  -4    0.48    0.22
  11  -3   4    4.30    0.27
  11  -3   4    4.57    0.33
 -11  -3  -4    4.62    0.38
  11   3   4    4.41    0.30
 -11   3  -4    4.15    0.44
  10  -4  -4   19.39    0.65
 -10  -4   4   18.20    0.70
 -10   4   4   18.56    0.75
  10   4  -4   18.56    0.65
  -9  -4   4    8.31    0.43
   9  -4  -4    7.78    0.42
   9   4  -4    8.64    0.36
  -9   4   4    8.64    0.48
   9   4  -4    8.89    0.39
  -8  -4   4   15.82    0.61
   8  -4  -4   15.95    0.52
   8  -4  -4   15.38    0.56
   8   4  -4   15.45    0.53
  -8   4   4   16.63    0.65
   8   4  -4   15.57    0.57
  -7  -4   4    3.75    0.28
   7  -4  -4    3.68    0.24
   7  -4  -4    3.60    0.25
  -7   4   4    4.08    0.23
   7   4  -4    3.73    0.24
  -7   4   4    4.05    0.31
   7   4  -4    4.35    0.26
  -6  -4   4   81.40    2.26
   6  -4  -4   80.43    2.21
   6  -4  -4   81.30    2.16
  -6   4   4   80.18    2.28
  -6   4   4   86.57    2.17
   6   4  -4   82.87    2.21
   6   4  -4   84.59    2.21
  -5  -4   4    5.70    0.31
   5  -4  -4    5.93    0.25
   5  -4  -4    5.56    0.28
   5   4  -4    6.00    0.29
   5   4  -4    6.10    0.28
  -5   4   4    6.00    0.27
  -5   4   4    6.14    0.33
   4  -4  -4    1.15    0.13
  -4  -4   4    0.94    0.14
   4  -4  -4    0.86    0.14
  -4   4   4    0.91    0.14
   4   4  -4    0.73    0.13
   4   4  -4    0.83    0.12
  -3  -4   4   15.88    0.57
   3  -4  -4   16.49    0.50
  -3  -4   4   16.26    0.49
   3  -4  -4   17.60    0.62
   3   4  -4   16.36    0.65
   3   4  -4   17.39    0.53
  -3   4   4   16.13    0.57
  -2  -4   4   12.07    0.39
   2  -4  -4   11.44    0.39
   2  -4  -4   11.45    0.43
  -2  -4   4   11.28    0.44
  -2   4   4   12.18    0.43
   2   4  -4   12.36    0.45
   2   4  -4   11.92    0.39
   1  -4  -4   59.38    1.60
   1  -4  -4   57.80    1.55
  -1  -4   4   57.04    1.59
  -1  -4   4   57.35    1.53
   1   4  -4   58.60    1.60
  -1   4   4   57.30    1.58
  -1   4   4   56.91    1.55
   1   4  -4   58.76    1.55
   0  -4   4  183.34    4.45
   0  -4  -4  172.27    4.53
   0  -4  -4  178.60    4.49
   0  -4   4  179.21    4.52
   0   4   4  175.79    4.45
   0   4   4  171.84    4.52
   0   4  -4  169.30    4.57
   0   4  -4  175.68    4.50
   1  -4   4    0.89    0.10
   1  -4   4    0.54    0.10
  -1   4  -4    0.96    0.14
  -1   4  -4    0.80    0.14
   2  -4   4    3.30    0.16
   2  -4   4    2.93    0.20
  -2   4  -4    2.94    0.20
  -2   4  -4    2.88    0.23
   2   4   4    2.96    0.20
  -3  -4  -4   21.79    0.72
   3  -4   4   22.68    0.63
   3  -4   4   19.88    0.73
  -3   4  -4   22.11    0.66
  -3   4  -4   21.69    0.75
  -4  -4  -4    0.35    0.11
   4  -4   4    0.29    0.07
   4  -4   4    0.33    0.10
  -4  -4  -4    0.12    0.11
  -4   4  -4    0.33    0.10
   4   4   4    0.29    0.10
  -4   4  -4    0.51    0.14
  -5  -4  -4   14.10    0.52
   5  -4   4   14.06    0.51
  -5  -4  -4   13.86    0.55
   5   4   4   14.16    0.49
  -5   4  -4   14.07    0.59
  -5   4  -4   13.89    0.45
   6  -4   4    3.87    0.21
  -6  -4  -4    3.96    0.30
   6  -4   4    4.19    0.25
   6   4   4    4.05    0.23
   6   4   4    3.72    0.25
  -6   4  -4    3.94    0.33
   7  -4   4   55.89    1.54
   7  -4   4   57.68    1.61
  -7  -4  -4   57.47    1.68
   7   4   4   57.38    1.61
   7   4   4   56.32    1.54
  -7   4  -4   57.92    1.73
   8  -4   4   41.94    1.16
  -8  -4  -4   41.85    1.31
   8  -4   4   42.82    1.23
   8   4   4   40.88    1.14
  -8   4  -4   40.80    1.61
   8   4   4   39.78    1.41
   9  -4   4    0.09    0.13
  -9  -4  -4    0.36    0.18
   9  -4   4    0.44    0.13
  -9   4  -4   -0.06    0.19
   9   4   4    0.09    0.11
  10  -4   4    6.83    0.38
  10  -4   4    6.71    0.33
 -10  -4  -4    6.16    0.44
 -10   4  -4    7.07    0.49
  10   4   4    6.64    0.36
 -10  -5   4    3.66    0.34
  10  -5  -4    4.11    0.30
  10   5  -4    4.57    0.31
  -9  -5   4    4.91    0.36
   9  -5  -4    5.15    0.30
   9   5  -4    5.07    0.31
  -9   5   4    4.88    0.39
   9   5  -4    5.27    0.29
  -8  -5   4   77.76    2.15
   8  -5  -4   72.67    2.10
  -8   5   4   79.76    2.19
   8   5  -4   77.24    2.08
   8   5  -4   75.33    2.06
  -7  -5   4   47.96    1.42
   7  -5  -4   47.54    1.37
   7   5  -4   48.76    1.36
   7   5  -4   47.12    1.36
  -7   5   4   48.44    1.45
  -6  -5   4    0.41    0.13
   6  -5  -4    0.23    0.11
   6  -5  -4    0.27    0.11
  -6   5   4    0.20    0.13
  -6   5   4    0.32    0.11
   6   5  -4    0.40    0.12
  -5  -5   4    0.24    0.12
   5  -5  -4    0.28    0.10
   5  -5  -4    0.37    0.10
   5   5  -4    0.33    0.12
   5   5  -4    0.35    0.11
  -5   5   4    0.60    0.13
  -5   5   4    0.21    0.10
   4  -5  -4    0.48    0.11
   4  -5  -4    0.42    0.12
  -4  -5   4    0.60    0.13
   4   5  -4    0.64    0.13
  -4   5   4    0.41    0.13
   3  -5  -4   16.75    0.58
  -3  -5   4   16.34    0.59
   3  -5  -4   17.70    0.54
   3   5  -4   17.74    0.61
  -3   5   4   16.87    0.59
  -3   5   4   17.88    0.58
  -2  -5   4    7.08    0.34
   2  -5  -4    7.35    0.31
  -2  -5   4    7.82    0.31
   2  -5  -4    7.57    0.34
  -2   5   4    8.28    0.34
  -2   5   4    7.57    0.33
   2   5  -4    7.47    0.29
   2   5  -4    7.51    0.36
  -1  -5   4    8.25    0.31
   1  -5  -4    9.74    0.34
  -1  -5   4    8.02    0.35
  -1   5   4    7.45    0.34
   1   5  -4    8.17    0.32
   1   5  -4    8.14    0.38
  -1   5   4    7.67    0.32
   0  -5  -4   10.96    0.44
   0  -5   4   11.60    0.39
   0  -5   4   11.75    0.44
   0  -5  -4   11.34    0.42
   0   5  -4   11.47    0.42
   0   5   4   11.10    0.43
   0   5   4   11.84    0.38
   0   5  -4   11.16    0.45
  -1  -5  -4   53.54    1.53
   1  -5   4   54.13    1.52
   1  -5   4   56.64    1.46
  -1  -5  -4   53.96    1.52
  -1   5  -4   54.60    1.53
   1   5   4   54.84    1.53
  -1   5  -4   55.06    1.57
   2  -5   4   68.07    1.71
  -2  -5  -4   63.19    1.78
   2  -5   4   63.59    1.76
  -2   5  -4   65.82    1.85
  -2   5  -4   64.25    1.76
   2   5   4   61.13    1.76
  -3  -5  -4   13.23    0.51
   3  -5   4   13.75    0.51
   3  -5   4   14.27    0.45
  -3  -5  -4   14.25    0.54
  -3   5  -4   13.90    0.55
   3   5   4   14.04    0.50
  -3   5  -4   13.49    0.49
   4  -5   4   11.65    0.45
  -4  -5  -4   11.17    0.49
  -4  -5  -4   11.54    0.46
   4   5   4   12.00    0.44
  -4   5  -4   11.48    0.51
   5  -5   4   31.40    0.94
  -5  -5  -4   31.42    1.00
  -5  -5  -4   30.12    0.95
   5   5   4   30.81    0.92
  -5   5  -4   30.22    0.88
  -5   5  -4   30.62    1.02
   6  -5   4   24.19    0.77
  -6  -5  -4   23.74    0.79
   6  -5   4   24.61    0.72
  -6  -5  -4   23.55    0.83
   6   5   4   24.18    0.75
   6   5   4   24.36    0.78
  -6   5  -4   23.52    0.87
  -7  -5  -4    3.18    0.33
   7  -5   4    3.44    0.22
   7  -5   4    3.47    0.26
   7   5   4    3.08    0.23
   8  -5   4   14.57    0.50
   8  -5   4   14.69    0.55
  -8  -5  -4   15.31    0.63
   8   5   4   14.27    0.50
   8   5   4   15.05    0.56
  -8   5  -4   14.24    0.66
  -9  -5  -4    5.96    0.41
   9  -5   4    6.11    0.36
  -9   5  -4    5.52    0.45
   9   5   4    5.97    0.35
   8  -6  -4    0.16    0.13
  -8  -6   4    0.24    0.17
  -8   6   4    0.18    0.16
   8   6  -4    0.09    0.13
   8   6  -4    0.15    0.14
   7  -6  -4    1.09    0.16
  -7  -6   4    0.95    0.18
  -7   6   4    0.96    0.19
   7   6  -4    1.10    0.17
   7   6  -4    1.14    0.18
  -6  -6   4    2.64    0.26
   6  -6  -4    2.11    0.22
  -6   6   4    2.66    0.27
  -6   6   4    2.57    0.23
   6   6  -4    2.66    0.23
  -5  -6   4   36.17    1.10
   5  -6  -4   33.91    1.05
   5   6  -4   36.40    1.08
  -5   6   4   35.57    1.03
  -5   6   4   34.92    1.09
   5   6  -4   35.27    1.03
  -4  -6   4   12.64    0.51
   4  -6  -4   12.04    0.48
   4   6  -4   12.17    0.46
  -4   6   4   12.09    0.46
  -4   6   4   12.22    0.49
   4   6  -4   12.83    0.49
  -3  -6   4    0.30    0.11
  -3  -6   4    0.50    0.14
   3  -6  -4    0.18    0.11
  -3   6   4    0.29    0.12
   3   6  -4    0.41    0.13
  -3   6   4    0.33    0.12
   2  -6  -4  106.25    2.83
   2  -6  -4  107.43    2.83
  -2  -6   4  105.74    2.81
  -2  -6   4  105.06    2.84
  -2   6   4  107.26    2.79
   2   6  -4  108.01    2.86
  -2   6   4  106.85    2.82
  -1  -6   4   33.77    1.03
  -1  -6   4   34.19    0.97
   1  -6  -4   33.90    1.03
  -1   6   4   33.48    1.02
  -1   6   4   34.73    0.97
   1   6  -4   34.75    1.05
   0  -6  -4    5.14    0.29
   0  -6   4    5.48    0.29
   0  -6  -4    5.53    0.31
   0   6   4    5.60    0.29
   0   6  -4    5.51    0.28
   0   6  -4    5.37    0.30
  -1  -6  -4    3.91    0.26
   1  -6   4    4.23    0.25
  -1  -6  -4    4.57    0.28
   1   6   4    3.84    0.25
  -1   6  -4    4.14    0.27
  -2  -6  -4    0.52    0.14
   2  -6   4    0.16    0.10
  -2  -6  -4    0.06    0.12
   2  -6   4    0.34    0.11
  -2   6  -4    0.45    0.14
  -2   6  -4    0.39    0.12
   2   6   4    0.36    0.11
   3  -6   4   34.04    0.97
   3  -6   4   35.07    1.03
  -3  -6  -4   33.41    1.05
  -3  -6  -4   33.33    1.03
  -3   6  -4   34.67    1.02
   3   6   4   33.44    1.01
  -3   6  -4   33.38    1.05
  -4  -6  -4    4.83    0.34
   4  -6   4    5.06    0.26
   4  -6   4    5.02    0.29
  -4  -6  -4    5.01    0.31
  -4   6  -4    5.45    0.35
   4   6   4    5.09    0.29
  -4   6  -4    5.06    0.28
  -5  -6  -4    3.12    0.27
   5  -6   4    2.94    0.25
  -5  -6  -4    3.09    0.30
   5  -6   4    2.70    0.24
  -5   6  -4    3.51    0.32
   5   6   4    3.04    0.24
  -5   6  -4    3.11    0.23
  -6  -6  -4   15.91    0.70
  -6  -6  -4   16.45    0.60
  -6   6  -4   16.07    0.69
  -7  -6  -4    3.87    0.36
   7  -6   4    3.94    0.29
  -7   6  -4    4.12    0.36
   7   6   4    3.95    0.26
   7   6   4    3.98    0.29
   8  -6   4   23.29    0.77
  -8  -6  -4   22.83    0.85
   8   6   4   22.07    0.76
  -8   6  -4   23.29    0.87
   8   6   4   22.46    0.71
  -6  -7   4    1.45    0.22
   6  -7  -4    1.28    0.19
  -6   7   4    1.78    0.27
   6   7  -4    1.28    0.19
  -5  -7   4    1.98    0.26
   5  -7  -4    1.74    0.24
  -5   7   4    2.41    0.27
   5   7  -4    2.01    0.24
  -5   7   4    1.96    0.24
   5   7  -4    2.45    0.24
   4  -7  -4    2.85    0.29
  -4  -7   4    3.08    0.28
  -4   7   4    3.53    0.28
   4   7  -4    3.00    0.25
   4   7  -4    3.13    0.27
  -4   7   4    3.08    0.25
  -3  -7   4   73.48    2.02
   3  -7  -4   71.15    1.99
  -3  -7   4   72.17    2.01
   3   7  -4   73.48    2.01
  -3   7   4   72.72    1.98
   2  -7  -4    2.85    0.24
   2  -7  -4    2.80    0.25
   2   7  -4    3.02    0.25
  -2   7   4    2.48    0.23
   1  -7  -4    0.52    0.15
  -1  -7   4    0.33    0.13
   1  -7  -4    0.50    0.15
  -1   7   4    0.61    0.16
   0  -7  -4    3.42    0.28
   0  -7   4    3.84    0.27
   0  -7  -4    3.57    0.28
   0   7  -4    4.05    0.29
  -1  -7  -4    2.85    0.26
   1  -7   4    3.29    0.26
  -1  -7  -4    2.73    0.27
  -1   7  -4    3.01    0.25
   1   7   4    2.86    0.24
  -2  -7  -4   19.94    0.72
  -2  -7  -4   20.00    0.74
   2  -7   4   21.39    0.71
  -2   7  -4   21.39    0.71
   2   7   4   20.34    0.69
  -2   7  -4   20.18    0.69
  -3  -7  -4    4.29    0.30
  -3  -7  -4    4.22    0.33
   3   7   4    4.05    0.28
  -3   7  -4    3.78    0.32
  -3   7  -4    4.42    0.29
  -4  -7  -4   33.29    1.02
   4  -7   4   33.69    1.00
  -4   7  -4   32.55    1.05
   4   7   4   32.60    1.00
  -4   7  -4   32.61    0.99
  -5  -7  -4    5.23    0.33
   5  -7   4    5.07    0.32
  -5  -7  -4    4.93    0.37
  -5   7  -4    5.01    0.36
   5   7   4    5.16    0.31
   6  -7   4    2.64    0.26
  -6  -7  -4    2.74    0.34
   6   7   4    2.93    0.27
   6   7   4    2.86    0.24
  -6   7  -4    2.62    0.33
   3  -8  -4    1.18    0.19
  -3  -8   4    0.89    0.19
   3   8  -4    1.29    0.18
  -3   8   4    1.20    0.17
  -2  -8   4   10.37    0.47
   2  -8  -4   10.32    0.46
  -2   8   4   10.12    0.45
   2   8  -4   10.25    0.46
  -1  -8   4    0.49    0.15
   1  -8  -4    0.30    0.16
   1   8  -4    0.13    0.14
  -1   8   4    0.09    0.13
   0  -8  -4    1.60    0.21
   0  -8   4    1.35    0.19
   0   8   4    1.38    0.19
   0   8  -4    1.14    0.19
   1  -8   4    0.43    0.15
  -1  -8  -4    0.50    0.15
   1   8   4    0.63    0.15
  -1   8  -4    0.65    0.16
  -2  -8  -4   27.96    0.89
   2  -8   4   27.66    0.88
  -2  -8  -4   27.16    0.91
  -2   8  -4   27.94    0.89
   2   8   4   27.27    0.87
 -12   0   5    0.02    0.17
  12   0  -5    0.02    0.12
 -12   0   5    0.08    0.14
 -11   0   5   19.77    0.69
 -11   0   5   21.88    0.77
  11   0  -5   21.30    0.70
 -10   0   5    0.24    0.12
  10   0  -5    0.17    0.10
 -10   0   5    0.22    0.14
   9   0  -5   16.49    0.58
  -9   0   5   17.70    0.59
  -9   0   5   16.95    0.63
   8   0  -5    0.25    0.09
   8   0  -5    0.16    0.07
  -8   0   5    0.30    0.13
   7   0  -5   17.78    0.51
  -7   0   5   17.48    0.57
  -7   0   5   17.29    0.66
   7   0  -5   16.86    0.57
   6   0  -5    0.64    0.11
  -6   0   5    0.52    0.10
  -6   0   5    0.45    0.12
   6   0  -5    0.47    0.08
   5   0  -5    2.76    0.16
  -5   0   5    2.59    0.20
   5   0  -5    2.64    0.15
  -5   0   5    2.91    0.16
   4   0  -5    0.48    0.08
  -4   0   5    0.48    0.08
  -4   0   5    0.54    0.11
   4   0  -5    0.66    0.09
   3   0  -5   17.58    0.51
  -3   0   5   17.36    0.49
  -3   0   5   17.12    0.55
   3   0  -5   16.53    0.50
   1   0  -5  796.82   20.07
  -1   0   5  794.32   20.03
  -1   0   5  776.09   20.22
  -1   0   5  750.44   20.03
   1   0  -5  894.37   20.30
   1   0  -5  767.86   20.03
   0   0   5    0.30    0.05
   0   0  -5    0.36    0.05
   0   0   5    0.35    0.05
   0   0  -5    0.26    0.06
   1   0   5   81.46    2.22
  -1   0  -5   88.41    2.23
  -1   0  -5   91.35    2.22
  -2   0  -5    0.55    0.07
  -2   0  -5    0.42    0.08
  -2   0  -5    0.38    0.09
  -2   0  -5    0.59    0.07
  -3   0  -5   27.63    0.79
  -3   0  -5   26.64    0.82
  -3   0  -5   27.72    0.73
   3   0   5   25.17    0.74
  -4   0  -5    0.50    0.07
   4   0   5    0.51    0.08
  -4   0  -5    0.63    0.12
   5   0   5    0.31    0.07
  -5   0  -5    0.16    0.10
   6   0   5    0.31    0.09
  -6   0  -5    0.70    0.17
  -6   0  -5    0.31    0.10
  -7   0  -5    0.22    0.12
   7   0   5    0.45    0.10
  -7   0  -5    0.41    0.13
   8   0   5    0.15    0.09
  -8   0  -5    0.17    0.12
  -8   0  -5    0.35    0.15
  -9   0  -5    4.07    0.30
   9   0   5    4.35    0.25
  -9   0  -5    4.52    0.33
  10   0   5    0.13    0.10
 -10   0  -5    0.17    0.17
 -10   0  -5    0.12    0.13
  11   0   5    9.51    0.39
 -11   0  -5    9.10    0.46
 -11   0  -5    7.96    0.54
 -12  -1   5    9.18    0.45
  12  -1  -5    8.69    0.40
 -12  -1   5    9.15    0.44
 -12   1   5    8.74    0.45
 -12   1   5    9.04    0.49
  12   1  -5    9.17    0.41
  11  -1  -5    0.26    0.12
 -11  -1   5    0.35    0.15
 -11  -1   5    0.19    0.15
 -11   1   5    0.10    0.15
  11   1  -5    0.71    0.14
 -11   1   5    0.32    0.14
  10  -1  -5    3.22    0.24
 -10  -1   5    3.09    0.28
 -10  -1   5    3.18    0.25
 -10   1   5    2.99    0.24
  10   1  -5    3.06    0.23
 -10   1   5    3.45    0.30
  -9  -1   5    9.38    0.42
  -9  -1   5    9.44    0.41
   9  -1  -5    9.27    0.39
  -9   1   5    9.54    0.45
   9   1  -5    9.31    0.39
   8  -1  -5   10.57    0.42
  -8  -1   5   11.55    0.45
   8  -1  -5   11.56    0.34
  -8  -1   5   11.23    0.44
   8   1  -5   10.83    0.36
   8   1  -5   10.55    0.42
  -8   1   5   10.77    0.48
  -8   1   5   10.97    0.41
  -7  -1   5  277.09    7.19
   7  -1  -5  280.50    7.16
   7  -1  -5  284.33    7.07
  -7  -1   5  279.47    7.17
   7   1  -5  283.10    7.16
  -7   1   5  287.60    7.13
   7   1  -5  288.81    7.09
  -7   1   5  274.75    7.23
  -6  -1   5   22.18    0.74
  -6  -1   5   23.92    0.73
   6  -1  -5   23.62    0.66
   6  -1  -5   23.23    0.72
  -6   1   5   22.71    0.77
  -6   1   5   23.44    0.69
   6   1  -5   24.99    0.68
  -5  -1   5    7.16    0.29
   5  -1  -5    7.27    0.29
  -5  -1   5    6.95    0.31
  -5   1   5    6.89    0.33
   5   1  -5    6.80    0.28
   5   1  -5    7.36    0.27
  -5   1   5    7.09    0.26
  -4  -1   5    1.50    0.13
  -4  -1   5    1.82    0.15
   4  -1  -5    1.37    0.12
   4  -1  -5    1.61    0.11
   4   1  -5    2.02    0.13
  -4   1   5    1.65    0.10
   4   1  -5    1.68    0.12
  -4   1   5    1.67    0.16
   3  -1  -5  156.45    3.94
  -3  -1   5  152.42    3.95
   3  -1  -5  155.74    3.93
   3  -1  -5  154.86    3.88
  -3  -1   5  153.66    3.93
   3   1  -5  157.50    3.93
  -3   1   5  149.48    3.99
   3   1  -5  155.54    3.91
   2  -1  -5    3.74    0.16
  -2  -1   5    3.73    0.16
  -2  -1   5    3.25    0.17
   2  -1  -5    3.26    0.16
  -2  -1   5    2.83    0.13
   2   1  -5    3.36    0.13
  -2   1   5    3.26    0.18
  -1  -1   5    0.51    0.04
   1  -1  -5    0.47    0.07
  -1  -1   5    0.51    0.07
   1  -1  -5    0.65    0.08
   1   1  -5    0.41    0.04
   1   1  -5    0.27    0.06
   1   1  -5    0.62    0.08
  -1   1   5    0.34    0.06
   0  -1   5   18.77    0.56
   0  -1  -5   19.69    0.57
   0  -1  -5   20.28    0.53
   0  -1  -5   19.30    0.57
   0   1  -5   19.56    0.56
   0   1  -5   19.03    0.59
   0   1   5   18.75    0.57
   0   1   5   19.69    0.52
  -1  -1  -5  110.48    2.84
   1  -1   5  109.81    2.85
  -1  -1  -5  107.66    2.85
  -1  -1  -5  111.44    2.85
  -1  -1  -5  111.73    2.83
  -1   1  -5  115.66    2.84
  -1   1  -5  110.03    2.89
  -2  -1  -5   13.37    0.43
   2  -1   5   12.56    0.39
  -2  -1  -5   13.81    0.44
   2  -1   5   13.41    0.38
  -2  -1  -5   14.06    0.43
  -2   1  -5   13.51    0.40
  -2   1  -5   13.23    0.48
   3  -1   5    5.00    0.19
  -3  -1  -5    4.81    0.22
  -3  -1  -5    5.02    0.23
   3  -1   5    4.68    0.23
  -3  -1  -5    5.04    0.22
   3   1   5    4.68    0.19
  -3   1  -5    4.73    0.18
  -4  -1  -5   59.30    1.65
   4  -1   5   59.19    1.58
  -4  -1  -5   62.30    1.64
   4   1   5   60.90    1.58
  -4   1  -5   61.42    1.65
  -4   1  -5   58.46    1.70
  -4   1  -5   60.15    1.54
   4   1   5   60.05    1.62
   5  -1   5  138.25    3.56
  -5  -1  -5  140.36    3.64
  -5  -1  -5  143.51    3.61
   5   1   5  132.67    3.62
  -5   1  -5  138.50    3.62
   5   1   5  141.03    3.53
  -6  -1  -5    4.85    0.29
  -6  -1  -5    4.87    0.28
   6   1   5    5.25    0.20
  -6   1  -5    4.85    0.28
   7  -1   5   68.42    1.82
  -7  -1  -5   66.29    1.90
  -7  -1  -5   67.91    1.87
   7   1   5   68.58    1.74
  -7   1  -5   67.83    1.88
  -7   1  -5   67.87    1.96
   7   1   5   67.49    1.84
  -8  -1  -5   17.77    0.63
   8  -1   5   18.01    0.58
  -8  -1  -5   17.13    0.65
  -8   1  -5   18.07    0.71
   8   1   5   17.32    0.59
  -8   1  -5   17.81    0.64
  -9  -1  -5   32.36    1.01
   9  -1   5   31.65    0.94
  -9  -1  -5   31.51    1.02
  -9   1  -5   32.02    1.00
  -9   1  -5   32.61    1.08
   9   1   5   30.81    0.95
 -10  -1  -5    2.79    0.30
 -10  -1  -5    2.67    0.28
  10  -1   5    2.91    0.22
 -10   1  -5    2.92    0.35
 -10   1  -5    2.75    0.27
  10   1   5    3.20    0.26
 -11  -1  -5    4.89    0.37
  11  -1   5    5.45    0.29
 -11   1  -5    5.23    0.44
  11   1   5    5.20    0.30
 -11   1  -5    5.02    0.35
  12  -2  -5    0.30    0.14
 -12  -2   5    0.45    0.19
 -12   2   5    0.39    0.19
  12   2  -5    0.56    0.16
 -11  -2   5   12.18    0.52
  11  -2  -5   12.66    0.50
  11   2  -5   12.92    0.50
 -11   2   5   12.61    0.66
 -11   2   5   13.49    0.59
 -10  -2   5    0.33    0.14
 -10  -2   5    0.14    0.12
  10   2  -5    0.32    0.12
 -10   2   5    0.29    0.12
 -10   2   5    0.27    0.16
  -9  -2   5   34.51    1.07
   9  -2  -5   36.10    1.05
  -9  -2   5   35.51    1.04
   9   2  -5   35.39    0.97
  -9   2   5   34.88    1.12
   9   2  -5   34.61    1.04
  -9   2   5   33.20    1.00
   8  -2  -5    0.68    0.13
  -8  -2   5    0.72    0.14
  -8  -2   5    0.78    0.14
  -8   2   5    0.52    0.15
  -8   2   5    0.54    0.12
   8   2  -5    1.05    0.16
  -7  -2   5    7.23    0.34
   7  -2  -5    7.40    0.32
  -7  -2   5    7.50    0.33
   7   2  -5    7.10    0.32
  -7   2   5    6.83    0.37
  -7   2   5    6.72    0.28
   7   2  -5    7.38    0.29
  -7   2   5    7.12    0.26
  -6  -2   5   58.12    1.63
  -6  -2   5   60.47    1.61
   6  -2  -5   56.27    1.60
   6   2  -5   57.84    1.60
  -6   2   5   61.32    1.56
  -6   2   5   59.20    1.69
   6   2  -5   58.33    1.57
   5  -2  -5   54.83    1.49
  -5  -2   5   55.69    1.51
   5  -2  -5   55.02    1.44
   5  -2  -5   55.35    1.42
  -5  -2   5   54.71    1.48
  -5   2   5   50.81    1.54
   5   2  -5   53.73    1.46
   5   2  -5   54.09    1.47
   4  -2  -5   39.92    1.13
   4  -2  -5   40.16    1.10
   4  -2  -5   38.79    1.06
  -4  -2   5   40.87    1.12
   4  -2  -5   43.33    1.08
  -4  -2   5   41.72    1.14
   4   2  -5   39.85    1.11
   4   2  -5   39.43    1.12
   3  -2  -5   12.80    0.41
  -3  -2   5   12.43    0.43
  -3  -2   5   12.51    0.41
   3  -2  -5   12.76    0.42
   3   2  -5   12.51    0.39
   3   2  -5   12.33    0.41
  -3   2   5   12.16    0.45
  -2  -2   5  299.36    7.84
  -2  -2   5  295.32    7.69
   2  -2  -5  319.84    7.74
   2  -2  -5  306.08    7.74
   2   2  -5  312.34    7.74
   2   2  -5  304.44    7.75
  -2   2   5  299.61    7.72
  -1  -2   5  396.80   10.37
   1  -2  -5  408.41   10.22
   1  -2  -5  401.10   10.27
  -1   2   5  392.84   10.20
   1   2  -5  398.82   10.29
   1   2  -5  402.40   10.30
   0  -2   5   62.39    1.65
   0  -2  -5   61.98    1.66
   0  -2  -5   64.58    1.60
   0   2   5   60.62    1.63
   0   2  -5   61.93    1.64
   0   2  -5   62.09    1.67
   0   2   5   58.15    1.58
   0   2   5   62.72    1.64
  -1  -2  -5   11.72    0.38
  -1  -2  -5   12.17    0.41
  -1   2  -5   11.72    0.43
   1   2   5   11.46    0.39
  -1   2  -5   11.71    0.38
   1   2   5   11.67    0.37
  -2  -2  -5    7.03    0.29
  -2  -2  -5    7.00    0.28
   2  -2   5    7.14    0.21
   2  -2   5    6.88    0.28
  -2   2  -5    6.49    0.22
  -2   2  -5    7.22    0.26
   2   2   5    6.63    0.24
   2   2   5    6.83    0.27
   3  -2   5  137.92    3.47
  -3  -2  -5  141.68    3.50
   3  -2   5  136.00    3.56
  -3  -2  -5  138.99    3.57
  -3  -2  -5  138.61    3.56
  -3   2  -5  128.86    3.62
   3   2   5  137.01    3.53
  -3   2  -5  140.47    3.49
  -4  -2  -5    4.63    0.26
  -4  -2  -5    5.36    0.22
  -4  -2  -5    4.53    0.26
   4  -2   5    4.67    0.19
   4   2   5    4.87    0.22
  -4   2  -5    5.55    0.19
   5  -2   5   10.13    0.34
   5  -2   5   11.82    0.58
  -5  -2  -5   10.60    0.37
  -5  -2  -5    9.64    0.43
   5   2   5    9.76    0.42
   5   2   5    9.88    0.35
  -6  -2  -5   14.68    0.57
  -6  -2  -5   16.17    0.51
   6  -2   5   14.96    0.54
   6   2   5   15.60    0.48
   6   2   5   14.95    0.52
  -6   2  -5   14.78    0.63
   7  -2   5    0.48    0.10
  -7  -2  -5    0.37    0.13
  -7  -2  -5    0.52    0.12
   7  -2   5    0.32    0.10
   7   2   5    0.50    0.09
   7   2   5    0.65    0.12
  -7   2  -5    0.34    0.15
   8  -2   5    1.72    0.16
  -8  -2  -5    1.60    0.22
  -8  -2  -5    1.73    0.24
   8  -2   5    1.42    0.19
   8   2   5    1.64    0.18
  -8   2  -5    1.50    0.24
   9  -2   5   22.95    0.70
   9  -2   5   22.85    0.76
  -9  -2  -5   22.47    0.81
  -9   2  -5   21.65    0.86
   9   2   5   22.70    0.73
  10  -2   5    0.23    0.14
  10  -2   5    0.24    0.12
 -10  -2  -5    0.10    0.15
 -10   2  -5    0.02    0.18
  10   2   5    0.12    0.11
  11  -2   5   17.62    0.60
  11  -2   5   18.04    0.66
 -11  -2  -5   17.15    0.70
 -11   2  -5   17.87    0.77
  11   2   5   16.95    0.62
  11  -3  -5   41.78    1.23
 -11  -3   5   41.25    1.27
 -11   3   5   40.41    1.32
  11   3  -5   41.69    1.22
  10  -3  -5    3.51    0.26
 -10  -3   5    3.24    0.28
  10   3  -5    3.08    0.28
 -10   3   5    3.49    0.33
   9  -3  -5    7.25    0.32
   9  -3  -5    7.15    0.35
  -9  -3   5    7.40    0.38
   9   3  -5    7.25    0.35
   9   3  -5    7.15    0.31
  -9   3   5    8.03    0.44
  -8  -3   5    3.98    0.25
  -8  -3   5    4.12    0.28
   8  -3  -5    4.27    0.25
   8  -3  -5    4.06    0.23
   8   3  -5    4.24    0.26
  -8   3   5    3.93    0.31
   8   3  -5    4.28    0.24
   7  -3  -5   13.00    0.48
  -7  -3   5   13.14    0.52
   7  -3  -5   13.77    0.45
  -7  -3   5   13.41    0.46
   7   3  -5   13.26    0.48
  -7   3   5   14.15    0.44
  -7   3   5   13.00    0.55
   7   3  -5   13.30    0.46
   6  -3  -5   59.95    1.58
   6  -3  -5   58.40    1.64
  -6  -3   5   59.93    1.60
  -6  -3   5   59.43    1.68
   6   3  -5   60.91    1.66
  -6   3   5   57.02    1.71
   6   3  -5   61.87    1.68
  -6   3   5   61.63    1.60
  -5  -3   5   36.91    1.18
   5  -3  -5   40.09    1.04
   5  -3  -5   37.35    1.10
  -5  -3   5   39.76    1.08
  -5   3   5   35.25    1.21
  -5   3   5   40.97    1.08
   5   3  -5   40.72    1.10
   5   3  -5   38.93    1.10
  -4  -3   5  102.38    2.57
  -4  -3   5   96.22    2.63
   4  -3  -5   94.32    2.53
   4  -3  -5  101.45    2.61
  -4   3   5   99.78    2.59
   4   3  -5  102.31    2.59
   3  -3  -5  124.02    3.28
  -3  -3   5  130.27    3.38
   3  -3  -5  132.38    3.39
  -3  -3   5  130.24    3.33
   3   3  -5  131.54    3.32
  -3   3   5  130.64    3.35
   3   3  -5  127.42    3.37
  -3   3   5  133.40    3.40
  -2  -3   5    1.17    0.12
  -2  -3   5    1.58    0.14
   2  -3  -5    1.47    0.10
   2   3  -5    1.21    0.10
  -2   3   5    1.29    0.14
  -2   3   5    1.35    0.13
  -2   3   5    1.22    0.10
   2   3  -5    1.11    0.14
  -1  -3   5   31.74    0.94
  -1  -3   5   33.16    0.87
   1  -3  -5   31.66    0.89
   1  -3  -5   32.97    0.95
   1   3  -5   35.23    0.91
  -1   3   5   32.69    0.94
  -1   3   5   32.50    0.93
   1   3  -5   31.55    0.94
   1   3  -5   32.61    0.93
   0  -3   5    0.63    0.11
   0  -3   5    0.76    0.07
   0  -3  -5    0.69    0.11
   0  -3  -5    0.94    0.13
   0   3  -5    0.79    0.13
   0   3  -5    0.72    0.11
   0   3  -5    0.62    0.07
   0   3   5    0.69    0.11
   1  -3   5    6.77    0.29
  -1  -3  -5    7.45    0.29
   1  -3   5    7.26    0.22
  -1   3  -5    6.65    0.31
   1   3   5    6.37    0.28
  -1   3  -5    6.05    0.21
  -1   3  -5    6.79    0.28
   1   3   5    6.65    0.24
  -2  -3  -5  100.11    2.70
   2  -3   5  107.16    2.60
   2  -3   5  102.24    2.69
  -2  -3  -5  104.43    2.70
   2   3   5   99.63    2.68
   2   3   5  104.11    2.60
  -2   3  -5  102.59    2.66
  -2   3  -5  103.25    2.74
   2   3   5   97.66    2.60
  -3  -3  -5  121.61    3.17
  -3  -3  -5  116.27    3.15
   3  -3   5  124.57    3.06
   3  -3   5  119.14    3.15
   3   3   5  121.73    3.13
  -3   3  -5  120.18    3.09
   4  -3   5   14.86    0.44
  -4  -3  -5   14.63    0.55
  -4   3  -5   14.50    0.45
   4   3   5   14.81    0.49
   5  -3   5   67.92    1.73
   5  -3   5   64.44    1.80
  -5  -3  -5   65.10    1.85
  -5  -3  -5   66.16    1.81
  -5   3  -5   62.07    1.90
  -5   3  -5   68.56    1.71
   6  -3   5    0.20    0.10
  -6  -3  -5    0.43    0.09
  -6  -3  -5    0.32    0.13
   6  -3   5    0.28    0.08
  -6   3  -5    0.38    0.15
   6   3   5    0.40    0.11
   7  -3   5    0.43    0.10
  -7  -3  -5    0.45    0.16
   7   3   5    0.51    0.10
   7   3   5    0.56    0.12
  -7   3  -5    0.48    0.17
  -8  -3  -5    1.16    0.21
   8  -3   5    1.13    0.17
   8  -3   5    0.98    0.16
   8   3   5    1.69    0.20
   8   3   5    1.18    0.15
  -8   3  -5    1.05    0.21
   9  -3   5   44.18    1.24
  -9  -3  -5   44.39    1.38
  -9   3  -5   44.98    1.44
   9   3   5   43.80    1.28
  10  -3   5    2.31    0.25
 -10  -3  -5    2.23    0.30
  10   3   5    2.02    0.23
 -10   3  -5    2.88    0.37
  10  -4  -5   12.28    0.49
 -10  -4   5   11.80    0.53
 -10   4   5   12.72    0.59
  10   4  -5   12.28    0.49
   9  -4  -5    7.81    0.37
  -9  -4   5    8.01    0.42
  -9   4   5    8.52    0.45
   9   4  -5    8.39    0.36
   9   4  -5    7.65    0.37
  -8  -4   5    0.35    0.14
   8  -4  -5    0.41    0.12
  -8   4   5    0.39    0.15
   8   4  -5    0.29    0.11
   8   4  -5    0.36    0.13
  -7  -4   5   24.13    0.82
   7  -4  -5   25.09    0.72
   7  -4  -5   24.21    0.78
  -7   4   5   25.02    0.75
  -7   4   5   24.37    0.85
   7   4  -5   24.78    0.78
   7   4  -5   24.56    0.77
   6  -4  -5    0.46    0.10
   6  -4  -5    0.52    0.11
  -6  -4   5    0.42    0.12
   6   4  -5    0.65    0.13
  -6   4   5    0.42    0.14
   6   4  -5    0.49    0.12
  -5  -4   5   19.86    0.69
   5  -4  -5   19.89    0.66
  -5  -4   5   20.18    0.60
   5  -4  -5   20.82    0.60
  -5   4   5   20.37    0.71
   5   4  -5   20.56    0.65
  -5   4   5   21.23    0.64
   5   4  -5   21.20    0.67
  -4  -4   5   70.89    1.84
   4  -4  -5   69.12    1.83
  -4  -4   5   69.86    1.93
   4  -4  -5   67.42    1.90
   4   4  -5   73.76    1.88
   4   4  -5   70.71    1.92
  -4   4   5   71.21    1.89
  -3  -4   5  126.55    3.39
   3  -4  -5  129.74    3.30
   3  -4  -5  128.96    3.38
  -3  -4   5  130.15    3.31
  -3   4   5  131.64    3.36
   3   4  -5  132.96    3.33
   3   4  -5  127.18    3.39
   2  -4  -5    0.82    0.14
  -2  -4   5    0.67    0.10
   2  -4  -5    0.68    0.11
   2   4  -5    0.72    0.11
  -2   4   5    0.72    0.12
  -2   4   5    0.86    0.13
  -1  -4   5    1.05    0.14
   1  -4  -5    0.95    0.14
   1  -4  -5    1.56    0.14
  -1  -4   5    1.47    0.12
   1   4  -5    1.37    0.15
  -1   4   5    1.19    0.14
   1   4  -5    1.19    0.15
  -1   4   5    1.02    0.14
   0  -4  -5   40.92    1.23
   0  -4   5   42.54    1.22
   0  -4   5   45.80    1.15
   0  -4  -5   42.85    1.19
   0   4   5   44.55    1.17
   0   4  -5   42.17    1.22
   0   4  -5   43.90    1.22
   0   4   5   41.63    1.22
  -1  -4  -5   45.21    1.28
   1  -4   5   47.09    1.20
  -1  -4  -5   45.25    1.33
   1  -4   5   45.94    1.30
  -1   4  -5   46.54    1.30
   1   4   5   45.44    1.32
   1   4   5   45.30    1.19
  -1   4  -5   42.27    1.30
   2  -4   5   97.80    2.80
   2  -4   5  110.03    2.67
  -2  -4  -5  102.75    2.77
  -2  -4  -5  106.32    2.77
  -2   4  -5  108.32    2.82
  -2   4  -5  102.84    2.77
   2   4   5  101.44    2.79
  -3  -4  -5  100.73    2.74
   3  -4   5  111.13    2.65
  -3  -4  -5  102.53    2.76
   3  -4   5  102.72    2.74
  -3   4  -5  105.60    2.70
  -3   4  -5   99.38    2.87
   3   4   5  101.39    2.72
  -4  -4  -5    6.72    0.35
   4  -4   5    6.93    0.25
  -4  -4  -5    6.52    0.32
  -4   4  -5    6.73    0.38
   4   4   5    7.06    0.31
  -4   4  -5    6.88    0.28
  -5  -4  -5    3.09    0.23
   5  -4   5    3.11    0.22
  -5  -4  -5    3.06    0.27
   5  -4   5    3.24    0.17
  -5   4  -5    2.92    0.18
   5   4   5    2.74    0.20
  -5   4  -5    3.07    0.29
   6  -4   5    0.55    0.12
  -6  -4  -5    0.66    0.16
   6   4   5    0.61    0.13
   6   4   5    0.63    0.11
  -6   4  -5    0.66    0.17
  -7  -4  -5    1.39    0.22
   7  -4   5    1.35    0.19
   7  -4   5    1.40    0.15
  -7   4  -5    1.40    0.24
   7   4   5    1.15    0.15
   7   4   5    1.33    0.19
   8  -4   5    0.26    0.12
   8  -4   5    0.05    0.10
  -8   4  -5    0.13    0.17
   8   4   5    0.36    0.11
   8   4   5    0.55    0.14
   9  -4   5    5.68    0.29
   9  -4   5    5.94    0.34
  -9  -4  -5    5.76    0.42
  -9   4  -5    6.21    0.45
   9   4   5    6.18    0.33
  10  -4   5   10.16    0.41
 -10  -4  -5   10.28    0.54
  10  -4   5   10.66    0.47
  10   4   5   10.54    0.45
 -10   4  -5    9.91    0.59
   9  -5  -5    4.13    0.28
  -9  -5   5    4.28    0.33
   9   5  -5    3.79    0.41
   9   5  -5    4.14    0.29
  -9   5   5    4.16    0.35
   8  -5  -5    2.54    0.23
  -8  -5   5    2.57    0.28
   8   5  -5    2.40    0.24
  -8   5   5    2.34    0.30
   8   5  -5    2.57    0.24
  -7  -5   5    9.67    0.45
   7  -5  -5    9.10    0.40
  -7   5   5    9.84    0.46
   7   5  -5    9.75    0.41
   7   5  -5    9.89    0.41
  -6  -5   5    2.31    0.25
   6  -5  -5    2.19    0.21
  -6   5   5    2.49    0.21
   6   5  -5    2.44    0.23
   6   5  -5    3.04    0.23
  -6   5   5    2.23    0.25
   5  -5  -5   96.21    2.58
   5  -5  -5  100.01    2.51
  -5  -5   5   96.35    2.62
  -5   5   5   94.85    2.61
  -5   5   5   96.47    2.55
   5   5  -5   96.86    2.55
   5   5  -5   96.19    2.59
   4  -5  -5   44.69    1.19
   4  -5  -5   43.53    1.26
  -4  -5   5   42.52    1.28
   4   5  -5   43.74    1.27
   4   5  -5   44.52    1.22
  -4   5   5   44.55    1.24
  -4   5   5   43.03    1.27
  -3  -5   5    0.43    0.09
   3  -5  -5    0.41    0.10
   3  -5  -5    0.53    0.12
  -3  -5   5    0.50    0.13
   3   5  -5    0.41    0.12
   3   5  -5    0.47    0.11
  -3   5   5    0.41    0.10
  -2  -5   5    4.07    0.26
   2  -5  -5    4.39    0.26
  -2  -5   5    4.09    0.21
   2  -5  -5    4.31    0.22
  -2   5   5    4.28    0.24
   2   5  -5    4.36    0.22
   2   5  -5    4.49    0.27
  -2   5   5    4.08    0.24
   1  -5  -5    0.24    0.10
  -1  -5   5    0.25    0.10
   1  -5  -5    0.46    0.11
   1   5  -5    0.10    0.10
   1   5  -5    0.12    0.09
  -1   5   5    0.11    0.08
  -1   5   5    0.26    0.09
   0  -5   5    1.93    0.15
   0  -5  -5    1.68    0.18
   0  -5  -5    2.02    0.19
   0  -5   5    1.75    0.17
   0   5   5    1.70    0.18
   0   5  -5    1.99    0.20
   0   5   5    2.21    0.16
   0   5  -5    2.09    0.19
   1  -5   5   11.37    0.44
  -1  -5  -5   11.27    0.45
   1  -5   5   11.85    0.38
  -1   5  -5   11.42    0.45
   1   5   5   11.79    0.44
  -1   5  -5   11.51    0.45
   2  -5   5   18.06    0.53
   2  -5   5   17.24    0.60
  -2  -5  -5   16.62    0.61
   2   5   5   17.21    0.59
  -2   5  -5   17.41    0.63
  -2   5  -5   17.95    0.59
   3  -5   5   34.22    1.04
  -3  -5  -5   34.95    1.06
   3  -5   5   35.43    0.96
  -3  -5  -5   35.31    1.07
  -3   5  -5   34.30    1.09
  -3   5  -5   35.75    1.02
   3   5   5   34.61    1.03
   4  -5   5   11.59    0.38
  -4  -5  -5   10.81    0.46
   4  -5   5   11.12    0.45
  -4  -5  -5   11.06    0.48
  -4   5  -5   10.84    0.41
  -4   5  -5   11.08    0.50
   4   5   5   11.43    0.43
  -5  -5  -5   26.66    0.86
   5  -5   5   27.12    0.84
   5  -5   5   27.32    0.77
  -5  -5  -5   25.67    0.89
   5   5   5   27.04    0.82
  -5   5  -5   26.07    0.92
  -5   5  -5   26.68    0.81
  -6  -5  -5   16.22    0.66
   6  -5   5   16.62    0.52
   6  -5   5   17.09    0.59
  -6  -5  -5   16.07    0.60
  -6   5  -5   16.58    0.68
   6   5   5   15.83    0.55
   7  -5   5    7.36    0.39
   7  -5   5    7.22    0.31
   7   5   5    7.28    0.33
  -7   5  -5    7.16    0.45
   7   5   5    7.65    0.36
   8  -5   5   46.64    1.33
  -8  -5  -5   45.91    1.41
  -8   5  -5   44.51    1.43
   8   5   5   43.18    1.25
   8   5   5   45.35    1.32
   9  -5   5   10.96    0.48
  -9  -5  -5   11.32    0.56
   9   5   5   10.86    0.47
  -9   5  -5   11.33    0.60
  -8  -6   5   16.38    0.65
   8  -6  -5   15.67    0.59
   8   6  -5   16.57    0.59
   8   6  -5   16.06    0.58
  -8   6   5   16.01    0.65
   7  -6  -5   -0.02    0.12
   7   6  -5    0.25    0.14
   7   6  -5   -0.02    0.14
  -7   6   5    0.25    0.16
   6  -6  -5    0.38    0.17
  -6  -6   5    0.10    0.13
   6   6  -5    0.72    0.22
  -6   6   5    0.26    0.12
   6   6  -5    0.20    0.13
  -6   6   5    0.12    0.13
   5  -6  -5    1.75    0.20
  -5  -6   5    1.64    0.25
  -5   6   5    2.11    0.21
   5   6  -5    1.82    0.23
   5   6  -5    2.20    0.22
   4  -6  -5   21.62    0.74
  -4  -6   5   22.24    0.76
  -4   6   5   23.26    0.72
  -4   6   5   21.76    0.74
   4   6  -5   23.39    0.76
   4   6  -5   23.14    0.71
  -3  -6   5   20.48    0.70
   3  -6  -5   19.94    0.69
   3  -6  -5   19.89    0.67
   3   6  -5   19.26    0.68
  -3   6   5   22.72    0.69
   3   6  -5   21.43    0.72
  -3   6   5   20.40    0.67
  -2  -6   5    8.45    0.33
  -2  -6   5    8.59    0.39
   2  -6  -5    8.28    0.35
   2  -6  -5    7.75    0.37
  -2   6   5    8.63    0.35
  -2   6   5    8.43    0.37
   2   6  -5    8.81    0.41
  -1  -6   5    3.33    0.24
   1  -6  -5    2.50    0.22
  -1  -6   5    3.50    0.21
   1  -6  -5    2.85    0.24
  -1   6   5    2.45    0.21
   1   6  -5    3.14    0.22
  -1   6   5    2.85    0.21
   1   6  -5    2.72    0.25
   0  -6  -5    2.06    0.22
   0  -6   5    2.16    0.20
   0  -6   5    1.69    0.17
   0  -6  -5    1.44    0.21
   0   6  -5    1.79    0.19
   0   6  -5    1.77    0.21
   0   6   5    1.48    0.18
   1  -6   5   86.59    2.29
   1  -6   5   87.54    2.23
  -1  -6  -5   81.48    2.28
  -1  -6  -5   85.89    2.31
  -1   6  -5   83.34    2.30
   1   6   5   85.49    2.29
  -1   6  -5   83.12    2.27
   2  -6   5   35.87    1.07
  -2  -6  -5   35.30    1.09
  -2  -6  -5   36.11    1.09
   2   6   5   35.21    1.06
  -2   6  -5   36.42    1.07
  -2   6  -5   36.34    1.09
  -3  -6  -5    3.20    0.25
   3  -6   5    3.44    0.25
  -3   6  -5    3.41    0.26
  -3   6  -5    3.08    0.27
   3   6   5    3.63    0.24
   4  -6   5    0.54    0.12
  -4  -6  -5    0.66    0.14
  -4   6  -5    0.39    0.13
  -4   6  -5    0.61    0.16
   4   6   5    0.62    0.13
  -5  -6  -5    2.55    0.28
   5  -6   5    3.08    0.24
  -5  -6  -5    2.99    0.30
  -5   6  -5    2.75    0.23
   5   6   5    2.58    0.22
  -5   6  -5    2.60    0.30
  -6  -6  -5   18.90    0.73
   6  -6   5   19.75    0.68
  -6  -6  -5   19.79    0.69
  -6   6  -5   19.58    0.75
   6   6   5   18.75    0.69
   7  -6   5    0.16    0.13
  -7  -6  -5    0.76    0.20
   7   6   5    0.31    0.14
  -7   6  -5    0.13    0.17
   7   6   5    0.56    0.14
  -6  -7   5    0.19    0.15
   6  -7  -5    0.32    0.14
  -6   7   5    0.39    0.17
   6   7  -5    0.52    0.16
  -5  -7   5   30.19    0.99
   5  -7  -5   29.86    0.95
  -5   7   5   29.93    0.96
   5   7  -5   32.30    0.98
  -4  -7   5    3.09    0.28
   4  -7  -5    2.55    0.25
   4   7  -5    3.47    0.28
  -4   7   5    2.96    0.26
   3  -7  -5    1.48    0.24
  -3  -7   5    2.01    0.25
   3   7  -5    2.18    0.24
   2  -7  -5   11.19    0.66
  -2  -7   5   11.58    0.49
   2   7  -5   12.34    0.50
   1  -7  -5    0.50    0.15
  -1   7   5    0.43    0.15
   1   7  -5    0.66    0.14
   0  -7  -5   58.39    1.65
   0  -7  -5   57.87    1.68
   0   7   5   60.80    1.66
  -1  -7  -5    2.27    0.27
  -1   7  -5    2.85    0.26
   1   7   5    2.65    0.23
  -2  -7  -5    0.41    0.14
   2  -7   5    0.49    0.14
  -2  -7  -5    0.46    0.16
  -2   7  -5    0.43    0.15
   2   7   5    0.40    0.12
  -2   7  -5    0.35    0.15
  -3  -7  -5    2.87    0.31
   3  -7   5    2.90    0.24
  -3  -7  -5    2.53    0.25
  -3   7  -5    2.58    0.27
  -3   7  -5    2.61    0.27
   3   7   5    2.54    0.24
   4  -7   5    0.82    0.16
  -4  -7  -5    0.90    0.18
  -4   7  -5    0.63    0.16
  -4   7  -5    0.58    0.19
   4   7   5    0.53    0.14
   5  -7   5    1.64    0.23
  -5  -7  -5    2.04    0.25
  -5  -7  -5    1.71    0.25
   5   7   5    2.63    0.23
  -5   7  -5    2.28    0.31
   3  -8  -5    8.15    0.42
  -3  -8   5    8.44    0.43
   3   8  -5    8.55    0.43
  -3   8   5    9.10    0.41
  -2  -8   5    1.31    0.19
   2  -8  -5    1.22    0.20
  -2   8   5    1.32    0.19
   2   8  -5    1.42    0.21
   1  -8  -5    1.16    0.19
  -1  -8   5    1.19    0.19
   1   8  -5    1.91    0.26
  -1   8   5    1.44    0.19
   0  -8  -5    2.62    0.27
   0  -8   5    2.83    0.27
   0   8  -5    2.80    0.29
   0   8   5    2.12    0.25
  -1  -8  -5   20.15    0.72
   1  -8   5   20.82    0.71
   1   8   5   20.80    0.70
  -1   8  -5   20.44    0.72
   2  -8   5    0.26    0.14
  -2  -8  -5    0.55    0.16
  -2   8  -5    0.05    0.16
   2   8   5    0.11    0.14
 -12   0   6   30.23    0.97
 -12   0   6   28.36    0.91
  12   0  -6   28.59    0.91
  11   0  -6    0.09    0.12
 -11   0   6    0.23    0.17
 -11   0   6   -0.01    0.13
 -10   0   6   22.03    0.77
 -10   0   6   22.53    0.72
  10   0  -6   22.16    0.73
  -9   0   6    0.16    0.11
   9   0  -6    0.16    0.10
  -9   0   6    0.28    0.14
  -8   0   6  145.91    3.89
  -8   0   6  148.67    3.96
   8   0  -6  156.22    3.82
   8   0  -6  151.04    3.90
  -7   0   6    0.25    0.10
   7   0  -6    0.21    0.09
  -7   0   6    0.39    0.09
   7   0  -6    0.31    0.08
  -6   0   6    3.99    0.21
   6   0  -6    3.94    0.22
   6   0  -6    4.34    0.20
  -6   0   6    3.85    0.26
   5   0  -6    0.91    0.11
   5   0  -6    0.66    0.10
  -5   0   6    0.50    0.09
  -4   0   6    0.80    0.09
  -4   0   6    0.56    0.11
   4   0  -6    0.49    0.08
   3   0  -6    0.67    0.09
  -3   0   6    0.71    0.11
   3   0  -6    0.66    0.08
   2   0  -6    2.17    0.11
   2   0  -6    1.88    0.11
   2   0  -6    2.01    0.13
  -2   0   6    2.24    0.15
  -2   0   6    2.24    0.10
  -1   0   6    0.22    0.06
   1   0  -6    0.37    0.07
  -1   0   6    0.40    0.05
   1   0  -6    0.41    0.06
   1   0  -6    0.30    0.05
   0   0   6   15.79    0.47
   0   0  -6   18.28    0.48
   0   0   6   16.73    0.48
  -1   0  -6    0.18    0.06
   1   0   6    0.40    0.06
  -1   0  -6    0.34    0.05
  -1   0  -6    0.22    0.05
  -2   0  -6  996.42   24.83
  -2   0  -6  974.56   24.95
  -2   0  -6 1000.00   24.88
  -2   0  -6  962.79   25.13
  -3   0  -6    0.55    0.10
  -3   0  -6    0.34    0.10
  -3   0  -6    0.59    0.08
   3   0   6    0.35    0.07
   4   0   6  111.04    2.99
  -4   0  -6  115.80    3.08
  -4   0  -6  117.56    2.95
  -4   0  -6  120.38    3.05
   5   0   6    0.34    0.06
  -5   0  -6    0.36    0.12
   5   0   6    0.49    0.09
  -6   0  -6   14.15    0.55
   6   0   6   13.63    0.47
  -6   0  -6   14.50    0.53
  -7   0  -6    0.47    0.13
  -7   0  -6    0.14    0.13
   7   0   6    0.34    0.09
   8   0   6   25.33    0.78
  -8   0  -6   24.88    0.84
  -8   0  -6   25.78    0.87
  -9   0  -6    0.16    0.16
   9   0   6    0.38    0.10
  -9   0  -6    0.18    0.13
 -10   0  -6    2.94    0.33
 -10   0  -6    2.83    0.28
 -11   0  -6    0.15    0.19
 -11   0  -6   -0.03    0.15
  11   0   6    0.23    0.12
 -12  -1   6   10.41    0.47
  12  -1  -6   10.39    0.45
 -12  -1   6   10.75    0.49
 -12   1   6   11.44    0.53
  12   1  -6   10.25    0.45
 -11  -1   6   20.86    0.72
  11  -1  -6   20.57    0.69
 -11  -1   6   19.81    0.70
 -11   1   6   20.56    0.75
  11   1  -6   20.06    0.68
 -11   1   6   19.87    0.67
 -10  -1   6    6.60    0.36
  10  -1  -6    6.36    0.32
 -10  -1   6    6.65    0.34
 -10   1   6    6.66    0.32
 -10   1   6    7.02    0.39
  10   1  -6    6.80    0.33
   9  -1  -6    4.73    0.27
  -9  -1   6    5.35    0.31
  -9  -1   6    5.12    0.29
  -9   1   6    5.30    0.34
  -9   1   6    5.21    0.27
   9   1  -6    5.29    0.27
   9   1  -6    5.12    0.27
  -8  -1   6    1.24    0.17
   8  -1  -6    1.44    0.13
  -8  -1   6    1.20    0.18
   8  -1  -6    1.11    0.16
   8   1  -6    1.02    0.14
   8   1  -6    1.15    0.16
  -8   1   6    1.21    0.19
   7  -1  -6   12.82    0.40
  -7  -1   6   12.38    0.48
   7  -1  -6   12.59    0.46
  -7  -1   6   12.00    0.45
   7   1  -6   13.09    0.42
   7   1  -6   12.03    0.44
  -7   1   6   12.31    0.50
  -7   1   6   12.89    0.43
   6  -1  -6   60.30    1.68
  -6  -1   6   61.89    1.70
   6  -1  -6   63.09    1.63
  -6  -1   6   63.51    1.68
  -6   1   6   61.88    1.78
  -6   1   6   62.36    1.63
   6   1  -6   61.48    1.63
   6   1  -6   58.92    1.70
   5  -1  -6    3.40    0.19
  -5  -1   6    3.49    0.22
  -5  -1   6    3.69    0.20
   5  -1  -6    3.57    0.18
   5   1  -6    3.90    0.19
  -5   1   6    3.65    0.17
   5   1  -6    3.80    0.19
  -5   1   6    3.37    0.24
   4  -1  -6  261.27    6.60
  -4  -1   6  248.07    6.62
   4  -1  -6  265.70    6.58
   4  -1  -6  241.28    6.53
  -4  -1   6  267.13    6.59
   4   1  -6  271.86    6.60
   4   1  -6  263.05    6.58
  -4   1   6  270.72    6.53
  -4   1   6  259.44    6.66
  -3  -1   6   37.10    1.01
  -3  -1   6   37.44    1.05
   3  -1  -6   36.83    1.02
   3  -1  -6   36.12    1.02
  -3   1   6   37.76    1.08
   3   1  -6   37.33    1.03
   3   1  -6   37.11    1.00
   2  -1  -6  108.96    2.76
  -2  -1   6  105.09    2.75
  -2  -1   6  103.55    2.72
  -2  -1   6  105.75    2.78
   2  -1  -6  105.17    2.76
   2   1  -6  108.88    2.71
   2   1  -6  112.86    2.77
  -1  -1   6    3.01    0.15
   1  -1  -6    2.93    0.16
  -1  -1   6    3.45    0.11
   1  -1  -6    3.32    0.16
  -1   1   6    2.98    0.17
   1   1  -6    3.48    0.17
   1   1  -6    3.00    0.11
   0  -1  -6   30.88    0.88
   0  -1  -6   32.86    0.89
   0  -1  -6   33.23    0.84
   0  -1   6   30.22    0.88
   0   1   6   32.66    0.84
   0   1  -6   30.98    0.92
   0   1  -6   32.46    0.89
   0   1   6   30.91    0.89
  -1  -1  -6   14.27    0.44
  -1  -1  -6   14.19    0.43
  -1  -1  -6   14.54    0.46
  -1  -1  -6   14.27    0.45
   1  -1   6   13.03    0.44
  -1   1  -6   13.67    0.43
   2  -1   6   46.93    1.23
  -2  -1  -6   47.33    1.29
  -2  -1  -6   49.65    1.30
  -2  -1  -6   47.88    1.29
   2  -1   6   46.05    1.29
   2  -1   6   47.63    1.25
  -2  -1  -6   45.23    1.27
  -2   1  -6   48.66    1.26
  -2   1  -6   47.15    1.35
   3  -1   6    6.55    0.29
   3  -1   6    6.77    0.24
  -3  -1  -6    6.94    0.29
  -3  -1  -6    7.13    0.28
  -3  -1  -6    7.13    0.29
  -3  -1  -6    6.91    0.26
  -3   1  -6    6.80    0.34
  -3   1  -6    6.95    0.24
  -4  -1  -6  121.99    3.06
   4  -1   6  118.75    2.99
   4  -1   6  116.48    3.06
  -4  -1  -6  116.93    3.07
  -4   1  -6  112.03    3.12
   4   1   6  114.88    2.99
  -4   1  -6  119.24    2.96
   4   1   6  115.22    3.03
  -5  -1  -6   48.41    1.31
  -5  -1  -6   46.61    1.33
   5  -1   6   47.80    1.26
   5   1   6   42.84    1.31
   5   1   6   45.80    1.23
  -5   1  -6   45.73    1.38
  -5   1  -6   45.68    1.32
  -5   1  -6   47.00    1.20
  -6  -1  -6    5.37    0.29
   6  -1   6    5.09    0.25
  -6  -1  -6    4.97    0.30
   6   1   6    5.06    0.21
  -6   1  -6    5.22    0.29
   6   1   6    5.27    0.26
  -6   1  -6    4.60    0.32
   7  -1   6   25.38    0.77
  -7  -1  -6   26.75    0.83
  -7  -1  -6   26.15    0.85
   7   1   6   26.46    0.71
   7   1   6   26.21    0.79
  -7   1  -6   24.66    0.83
  -7   1  -6   25.06    0.90
  -8  -1  -6   98.98    2.73
  -8  -1  -6  101.17    2.70
   8  -1   6  102.08    2.64
  -8   1  -6  100.37    2.79
   8   1   6   99.99    2.66
  -8   1  -6  101.72    2.72
   9  -1   6    1.60    0.18
  -9  -1  -6    1.60    0.24
  -9  -1  -6    1.88    0.25
   9   1   6    1.94    0.20
  -9   1  -6    1.78    0.24
  -9   1  -6    1.84    0.30
  10  -1   6   45.46    1.28
 -10  -1  -6   44.68    1.38
 -10  -1  -6   45.04    1.35
 -10   1  -6   45.14    1.36
  10   1   6   45.97    1.30
  11  -1   6    8.44    0.37
  11  -1   6    8.16    0.42
 -11  -1  -6    8.27    0.45
 -11   1  -6    8.45    0.52
  11   1   6    8.98    0.39
 -11   1  -6    8.08    0.44
  11  -2  -6    3.54    0.27
 -11  -2   6    3.43    0.29
 -11   2   6    4.02    0.35
  11   2  -6    3.77    0.28
  10  -2  -6    5.36    0.30
 -10  -2   6    5.20    0.33
 -10  -2   6    5.63    0.33
 -10   2   6    5.72    0.31
  10   2  -6    5.65    0.30
  -9  -2   6    2.32    0.24
   9  -2  -6    2.43    0.21
  -9  -2   6    2.55    0.23
   9   2  -6    2.05    0.21
  -9   2   6    2.47    0.22
   9   2  -6    2.19    0.19
  -9   2   6    2.50    0.27
  -8  -2   6   54.55    1.57
   8  -2  -6   55.13    1.55
  -8   2   6   56.85    1.47
  -8   2   6   55.87    1.50
   8   2  -6   54.86    1.54
   8   2  -6   55.35    1.50
  -8   2   6   57.63    1.64
   7  -2  -6   15.69    0.48
  -7  -2   6   15.58    0.56
   7  -2  -6   15.82    0.54
   7   2  -6   15.03    0.54
  -7   2   6   16.22    0.49
  -7   2   6   15.73    0.60
   7   2  -6   16.02    0.54
  -6  -2   6   19.89    0.66
   6  -2  -6   20.13    0.59
  -6  -2   6   19.42    0.64
   6  -2  -6   20.31    0.65
  -6   2   6   19.95    0.70
   6   2  -6   20.20    0.62
   6   2  -6   20.38    0.63
  -5  -2   6   15.00    0.52
   5  -2  -6   14.74    0.44
   5  -2  -6   14.96    0.48
  -5  -2   6   15.99    0.52
   5  -2  -6   15.12    0.51
   5   2  -6   15.56    0.50
   5   2  -6   15.79    0.50
  -4  -2   6   20.95    0.64
  -4  -2   6   20.64    0.64
   4  -2  -6   20.71    0.64
   4  -2  -6   19.31    0.61
  -4   2   6   21.31    0.69
   4   2  -6   21.07    0.63
   4   2  -6   20.67    0.61
   3  -2  -6   85.03    2.31
   3  -2  -6   90.02    2.33
  -3  -2   6   87.09    2.32
  -3  -2   6   89.46    2.32
  -3   2   6   91.02    2.37
   3   2  -6   90.16    2.33
   3   2  -6   87.76    2.28
   2  -2  -6  147.11    3.78
  -2  -2   6  145.65    3.77
   2  -2  -6  145.05    3.77
  -2  -2   6  146.94    3.77
  -2   2   6  149.19    3.81
   2   2  -6  149.97    3.71
   2   2  -6  148.19    3.78
   2   2  -6  145.20    3.71
   1  -2  -6   33.50    0.93
  -1  -2   6   32.30    0.92
   1  -2  -6   32.62    0.92
   1   2  -6   32.29    0.92
   1   2  -6   32.58    0.94
  -1   2   6   32.37    0.93
   0  -2  -6   37.73    0.95
   0  -2  -6   35.50    1.01
   0  -2   6   34.80    1.01
   0  -2  -6   36.46    1.02
   0   2   6   33.80    0.94
   0   2  -6   35.65    1.00
   0   2   6   36.41    0.99
   0   2  -6   35.98    1.03
  -1  -2  -6  238.53    6.02
   1  -2   6  236.51    6.02
  -1  -2  -6  240.67    5.98
   1   2   6  236.91    6.01
  -1   2  -6  242.68    6.00
  -1   2  -6  236.03    6.06
   1   2   6  228.67    6.00
  -2  -2  -6  137.62    3.57
  -2  -2  -6  139.91    3.55
   2  -2   6  140.51    3.46
   2  -2   6  129.99    3.56
  -2   2  -6  142.62    3.53
   2   2   6  136.81    3.51
  -2   2  -6  137.04    3.63
   2   2   6  139.11    3.54
  -3  -2  -6   57.84    1.58
   3  -2   6   56.39    1.58
  -3  -2  -6   59.55    1.54
  -3  -2  -6   56.40    1.58
   3  -2   6   57.40    1.49
  -3   2  -6   59.23    1.52
   3   2   6   57.47    1.55
   4  -2   6   39.89    1.09
  -4  -2  -6   43.37    1.13
  -4  -2  -6   39.65    1.17
   4  -2   6   40.98    1.18
  -4  -2  -6   39.25    1.19
   4   2   6   43.02    1.14
  -4   2  -6   40.47    1.26
  -4   2  -6   41.92    1.09
  -5  -2  -6   26.30    0.74
   5  -2   6   24.64    0.70
   5  -2   6   23.78    0.77
  -5   2  -6   24.39    0.86
  -5   2  -6   24.37    0.66
   5   2   6   24.32    0.71
   5   2   6   23.77    0.76
   6  -2   6   27.07    0.84
  -6  -2  -6   26.11    0.87
  -6  -2  -6   28.70    0.81
   6   2   6   25.87    0.82
   6   2   6   27.02    0.77
  -6   2  -6   25.59    0.92
  -7  -2  -6   45.61    1.39
   7  -2   6   45.71    1.27
  -7  -2  -6   49.91    1.31
   7  -2   6   45.40    1.35
   7   2   6   46.60    1.25
  -7   2  -6   45.48    1.44
   7   2   6   47.87    1.33
   8  -2   6   15.83    0.52
  -8  -2  -6   16.35    0.55
   8  -2   6   16.33    0.59
  -8  -2  -6   15.94    0.63
  -8   2  -6   15.95    0.68
   8   2   6   15.70    0.56
   9  -2   6    1.49    0.17
   9  -2   6    1.37    0.23
  -9   2  -6    1.62    0.26
   9   2   6    1.19    0.17
  10  -2   6   15.92    0.60
  10  -2   6   15.12    0.54
 -10  -2  -6   15.17    0.64
 -10   2  -6   14.98    0.69
  10   2   6   15.30    0.56
 -11  -2  -6    3.32    0.35
  11  -2   6    3.89    0.31
  11  -2   6    3.89    0.26
 -11   2  -6    3.82    0.42
  11   2   6    3.67    0.27
  11  -3  -6   22.01    0.74
 -11  -3   6   21.52    0.77
  11   3  -6   22.25    0.74
 -11   3   6   21.83    0.82
 -10  -3   6    1.24    0.20
  10  -3  -6    1.28    0.20
 -10   3   6    0.98    0.21
  10   3  -6    1.22    0.20
  -9  -3   6    2.60    0.26
   9  -3  -6    2.82    0.23
   9   3  -6    2.53    0.21
  -9   3   6    2.62    0.28
   9   3  -6    2.67    0.23
   8  -3  -6   78.31    2.04
  -8  -3   6   76.03    2.14
  -8  -3   6   79.52    2.08
   8  -3  -6   76.37    2.11
   8   3  -6   77.63    2.07
   8   3  -6   78.17    2.10
  -8   3   6   77.62    2.19
   7  -3  -6    0.52    0.10
  -7  -3   6    0.26    0.11
   7  -3  -6    0.32    0.10
  -7  -3   6    0.36    0.11
  -7   3   6    0.35    0.13
   7   3  -6    0.43    0.10
   7   3  -6    0.26    0.11
  -6  -3   6   22.34    0.74
   6  -3  -6   22.66    0.72
  -6  -3   6   23.06    0.69
   6  -3  -6   23.68    0.64
   6   3  -6   22.00    0.70
   6   3  -6   21.78    0.70
  -6   3   6   22.61    0.67
  -6   3   6   21.52    0.76
  -5  -3   6    1.84    0.16
  -5  -3   6    1.36    0.17
   5  -3  -6    1.51    0.11
   5  -3  -6    1.61    0.15
  -5   3   6    1.67    0.19
   5   3  -6    1.68    0.15
   5   3  -6    1.59    0.17
  -5   3   6    1.40    0.14
  -4  -3   6   12.96    0.44
   4  -3  -6   13.58    0.50
  -4  -3   6   13.32    0.48
   4   3  -6   13.02    0.47
   4   3  -6   13.71    0.44
   3  -3  -6    8.47    0.35
  -3  -3   6    9.45    0.34
   3   3  -6    9.61    0.31
  -3   3   6    9.03    0.34
  -3   3   6    9.01    0.38
  -2  -3   6   99.04    2.57
   2  -3  -6   99.44    2.60
  -2  -3   6   99.47    2.60
   2   3  -6   98.53    2.60
   2   3  -6  101.40    2.52
  -2   3   6   94.88    2.58
  -2   3   6   98.27    2.60
   1  -3  -6   15.90    0.53
  -1  -3   6   15.76    0.52
   1  -3  -6   15.77    0.46
   1   3  -6   15.72    0.52
   1   3  -6   15.53    0.52
  -1   3   6   15.40    0.51
  -1   3   6   15.29    0.51
   0  -3  -6   43.46    1.24
   0  -3   6   44.27    1.23
   0  -3  -6   45.33    1.18
   0   3   6   43.37    1.19
   0   3  -6   43.32    1.22
   0   3  -6   42.18    1.24
   0   3   6   44.26    1.22
  -1  -3  -6   46.94    1.25
  -1  -3  -6   46.57    1.29
   1  -3   6   43.30    1.27
  -1   3  -6   44.70    1.30
  -1   3  -6   45.08    1.25
   1   3   6   45.48    1.21
  -2  -3  -6   19.31    0.73
   2  -3   6   21.20    0.55
  -2  -3  -6   20.26    0.64
   2  -3   6   17.69    0.67
   2   3   6   20.29    0.63
   2   3   6   19.94    0.57
  -2   3  -6   20.72    0.62
  -2   3  -6   20.19    0.69
  -2   3  -6   20.25    0.56
  -3  -3  -6   12.31    0.46
  -3  -3  -6   12.98    0.47
   3  -3   6   12.48    0.46
   3  -3   6   13.23    0.37
  -3   3  -6   12.92    0.42
  -3   3  -6   11.75    0.51
   3   3   6   12.81    0.38
   4  -3   6   55.62    1.42
  -4  -3  -6   52.18    1.54
   4  -3   6   53.64    1.52
  -4  -3  -6   53.71    1.52
  -4   3  -6   53.62    1.61
   4   3   6   54.19    1.41
   4   3   6   55.06    1.48
  -4   3  -6   57.05    1.45
  -5  -3  -6  100.76    2.67
   5  -3   6   96.21    2.66
  -5  -3  -6   98.38    2.70
   5  -3   6  103.22    2.57
  -5   3  -6   97.35    2.76
  -5   3  -6  102.96    2.56
   5   3   6  100.40    2.61
   6  -3   6   45.15    1.20
  -6  -3  -6   48.24    1.19
   6  -3   6   43.87    1.28
  -6  -3  -6   42.51    1.33
  -6   3  -6   43.80    1.39
   6   3   6   43.12    1.27
   6   3   6   42.91    1.22
   7  -3   6   17.10    0.54
  -7  -3  -6   16.26    0.65
   7  -3   6   17.01    0.61
   7   3   6   17.18    0.59
  -7   3  -6   17.52    0.71
   8  -3   6   12.07    0.49
   8  -3   6   11.47    0.41
  -8  -3  -6   11.60    0.53
  -8   3  -6   11.62    0.57
   8   3   6   11.03    0.46
  -9  -3  -6    0.41    0.18
   9  -3   6    0.17    0.11
   9  -3   6    0.03    0.13
   9   3   6    0.28    0.12
  -9   3  -6    0.23    0.19
 -10  -3  -6    0.25    0.18
  10  -3   6    0.15    0.15
  10   3   6    0.03    0.12
 -10   3  -6    0.29    0.21
 -10  -4   6   21.83    0.78
  10  -4  -6   21.86    0.75
  10   4  -6   22.91    0.75
 -10   4   6   22.73    0.83
   9  -4  -6   18.92    0.67
  -9  -4   6   19.31    0.71
   9   4  -6   19.30    0.66
  -9   4   6   21.14    0.76
   9   4  -6   18.79    0.64
  -8  -4   6    8.60    0.43
   8  -4  -6    8.31    0.39
   8   4  -6    8.36    0.38
  -8   4   6    9.77    0.47
   8   4  -6    8.94    0.37
  -7  -4   6    0.35    0.13
   7  -4  -6    0.60    0.13
  -7   4   6    0.47    0.14
  -7   4   6    0.53    0.11
   7   4  -6    0.52    0.13
   7   4  -6    0.75    0.15
   6  -4  -6   12.53    0.41
  -6  -4   6   11.89    0.41
  -6  -4   6   11.82    0.48
   6  -4  -6   11.82    0.45
   6   4  -6   11.24    0.45
  -6   4   6   12.10    0.42
  -6   4   6   11.62    0.50
   6   4  -6   11.62    0.44
  -5  -4   6   11.83    0.48
   5  -4  -6   12.79    0.39
   5  -4  -6   11.87    0.46
  -5  -4   6   12.87    0.42
   5   4  -6   12.75    0.45
   5   4  -6   12.12    0.46
  -5   4   6   12.73    0.51
  -5   4   6   12.26    0.44
   4  -4  -6   26.83    0.87
   4  -4  -6   28.36    0.78
  -4  -4   6   28.87    0.89
  -4  -4   6   29.23    0.82
   4   4  -6   29.56    0.83
   4   4  -6   28.86    0.88
  -4   4   6   28.81    0.85
  -4   4   6   28.44    0.89
   3  -4  -6    6.56    0.24
  -3  -4   6    6.77    0.29
   3  -4  -6    6.43    0.30
  -3  -4   6    6.38    0.31
  -3   4   6    6.46    0.31
  -3   4   6    6.66    0.30
   3   4  -6    6.88    0.29
   3   4  -6    6.41    0.31
  -2  -4   6   73.86    2.03
   2  -4  -6   74.23    2.03
   2  -4  -6   73.25    1.95
   2   4  -6   75.44    1.99
  -2   4   6   77.52    2.06
  -2   4   6   75.35    2.01
   2   4  -6   73.68    2.03
   2   4  -6   77.32    1.95
  -1  -4   6   96.54    2.75
   1  -4  -6   95.88    2.78
  -1  -4   6  105.32    2.62
   1  -4  -6  107.19    2.66
   1   4  -6  104.28    2.70
  -1   4   6  107.68    2.69
   0  -4   6  109.09    3.12
   0  -4  -6  122.90    3.04
   0  -4  -6  108.73    3.14
   0  -4   6  121.22    2.97
   0   4  -6  121.58    3.08
   0   4   6  121.38    3.02
   0   4  -6  115.74    3.10
   1  -4   6    0.73    0.09
  -1  -4  -6    0.48    0.11
   1   4   6    0.64    0.12
  -1   4  -6    0.82    0.16
   1   4   6    0.52    0.09
  -1   4  -6    1.07    0.15
  -2  -4  -6    0.53    0.12
  -2  -4  -6    0.46    0.12
   2  -4   6    0.74    0.10
   2  -4   6    0.67    0.12
  -2   4  -6    0.51    0.10
   2   4   6    0.34    0.09
  -2   4  -6    0.51    0.14
  -3  -4  -6    1.17    0.16
   3  -4   6    1.38    0.12
   3   4   6    1.58    0.16
  -3   4  -6    1.18    0.19
   4  -4   6   27.87    0.74
  -4  -4  -6   26.00    0.87
  -4  -4  -6   26.06    0.84
   4   4   6   26.27    0.81
  -4   4  -6   26.11    0.77
  -4   4  -6   26.83    0.91
  -5  -4  -6   20.69    0.70
   5  -4   6   21.00    0.60
  -5  -4  -6   19.73    0.73
   5  -4   6   20.89    0.70
   5   4   6   21.21    0.66
  -5   4  -6   19.93    0.77
  -5   4  -6   21.28    0.62
   6  -4   6   66.08    1.72
  -6  -4  -6   63.71    1.88
   6  -4   6   65.83    1.81
  -6   4  -6   63.53    1.91
   6   4   6   65.47    1.76
   6   4   6   66.96    1.81
  -7  -4  -6   21.96    0.81
   7  -4   6   23.42    0.77
   7  -4   6   22.91    0.68
   7   4   6   23.90    0.76
   7   4   6   22.75    0.70
  -7   4  -6   23.00    0.87
  -8  -4  -6    0.30    0.17
   8  -4   6    0.22    0.11
   8  -4   6    0.21    0.14
  -8   4  -6    0.18    0.19
   8   4   6    0.33    0.11
   8   4   6    0.04    0.11
  -9  -4  -6    8.95    0.50
   9  -4   6    9.85    0.44
   9  -4   6    9.21    0.38
   9   4   6    9.64    0.43
  -9   4  -6    9.18    0.54
   9  -5  -6    2.89    0.26
  -9  -5   6    2.67    0.30
  -9   5   6    2.21    0.32
   9   5  -6    2.86    0.27
   9   5  -6    2.84    0.29
  -8  -5   6   12.16    0.52
   8  -5  -6   12.48    0.49
   8   5  -6   12.32    0.48
  -8   5   6   11.96    0.54
   8   5  -6   12.03    0.48
   7  -5  -6   52.15    1.51
  -7  -5   6   52.23    1.66
   7   5  -6   52.70    1.51
  -7   5   6   54.98    1.47
   7   5  -6   55.21    1.50
  -7   5   6   53.92    1.58
   6  -5  -6    3.21    0.24
  -6  -5   6    3.68    0.28
  -6   5   6    3.85    0.23
  -6   5   6    3.47    0.28
   6   5  -6    3.72    0.25
   6   5  -6    3.37    0.26
   5  -5  -6    6.86    0.33
  -5  -5   6    6.81    0.35
   5   5  -6    7.49    0.33
  -5   5   6    7.12    0.36
  -5   5   6    7.01    0.32
   5   5  -6    7.24    0.35
   4  -5  -6   35.16    0.99
  -4  -5   6   33.54    1.04
   4  -5  -6   32.23    1.01
  -4   5   6   33.47    0.99
   4   5  -6   33.08    1.00
   4   5  -6   34.69    1.03
  -4   5   6   33.79    1.02
  -3  -5   6   12.39    0.49
   3  -5  -6   12.70    0.49
   3  -5  -6   11.87    0.41
  -3  -5   6   12.95    0.42
   3   5  -6   13.35    0.43
   3   5  -6   12.98    0.50
  -3   5   6   11.96    0.47
  -3   5   6   12.34    0.46
   2  -5  -6   75.04    2.07
  -2  -5   6   74.50    2.06
   2  -5  -6   75.57    1.99
   2   5  -6   78.44    1.99
  -2   5   6   76.24    2.05
   2   5  -6   75.39    2.08
  -1  -5   6   18.60    0.62
  -1  -5   6   18.14    0.54
   1  -5  -6   17.97    0.58
   1  -5  -6   17.75    0.62
   1   5  -6   18.09    0.59
  -1   5   6   17.48    0.60
  -1   5   6   17.76    0.57
   1   5  -6   18.67    0.63
   0  -5   6    0.91    0.14
   0  -5  -6    0.57    0.13
   0  -5   6    0.76    0.10
   0  -5  -6    0.70    0.13
   0   5   6    0.73    0.11
   0   5   6    0.81    0.13
   0   5  -6    0.65    0.14
  -1  -5  -6   34.78    1.05
   1  -5   6   36.12    0.95
   1  -5   6   33.80    1.03
   1   5   6   35.58    0.94
  -1   5  -6   34.85    1.04
   1   5   6   33.83    1.03
  -2  -5  -6    2.75    0.23
   2  -5   6    2.76    0.16
  -2  -5  -6    2.28    0.24
   2  -5   6    2.57    0.21
   2   5   6    2.58    0.21
  -2   5  -6    2.77    0.24
  -2   5  -6    2.76    0.22
   3  -5   6   10.89    0.35
   3  -5   6   10.54    0.43
  -3  -5  -6   10.52    0.44
  -3  -5  -6   10.64    0.46
  -3   5  -6   10.35    0.48
  -3   5  -6   10.78    0.41
   3   5   6   10.36    0.42
   4  -5   6   19.42    0.65
   4  -5   6   19.45    0.58
  -4  -5  -6   19.46    0.67
  -4  -5  -6   18.48    0.68
   4   5   6   19.48    0.64
  -4   5  -6   18.63    0.61
  -4   5  -6   19.03    0.72
  -5  -5  -6   19.31    0.73
  -5  -5  -6   19.37    0.69
   5  -5   6   20.50    0.68
  -5   5  -6   20.13    0.68
   5   5   6   20.14    0.65
  -5   5  -6   19.51    0.75
  -6  -5  -6   40.12    1.26
  -6  -5  -6   38.04    1.21
   6  -5   6   41.04    1.19
   6   5   6   40.52    1.15
  -6   5  -6   40.81    1.29
  -7  -5  -6    1.15    0.26
   7  -5   6    1.51    0.21
   7   5   6    1.62    0.22
   7   5   6    1.34    0.19
  -7   5  -6    2.13    0.31
   8  -5   6   17.92    0.64
  -8  -5  -6   17.62    0.71
  -8   5  -6   17.32    0.75
   8   5   6   18.10    0.63
   8   5   6   17.11    0.57
  -8  -6   6    1.94    0.28
   8  -6  -6    1.57    0.23
   8   6  -6    2.27    0.26
   8   6  -6    1.60    0.25
  -8   6   6    1.43    0.23
  -7  -6   6    1.52    0.22
   7  -6  -6    1.10    0.18
  -7   6   6    1.00    0.20
   7   6  -6    1.09    0.17
   7   6  -6    1.11    0.18
   6  -6  -6    0.48    0.13
  -6  -6   6    0.50    0.15
   6   6  -6    0.56    0.15
   6   6  -6    0.42    0.14
  -6   6   6    0.09    0.14
  -6   6   6    0.24    0.13
   5  -6  -6   46.02    1.37
   5   6  -6   46.40    1.44
   5   6  -6   49.78    1.34
  -5   6   6   49.05    1.35
  -5   6   6   47.05    1.38
  -4  -6   6    1.94    0.22
   4  -6  -6    1.27    0.20
   4   6  -6    1.40    0.20
   4   6  -6    1.58    0.24
  -4   6   6    1.55    0.21
  -4   6   6    1.34    0.19
  -3  -6   6    4.25    0.28
   3  -6  -6    3.99    0.28
   3   6  -6    4.60    0.25
   3   6  -6    3.63    0.29
  -3   6   6    3.75    0.26
  -3   6   6    3.74    0.25
   2  -6  -6   11.26    0.50
   2  -6  -6   10.44    0.44
  -2  -6   6   10.49    0.45
  -2   6   6   10.87    0.43
   2   6  -6   10.81    0.47
  -1  -6   6   29.78    0.93
   1  -6  -6   29.71    0.90
   1  -6  -6   30.05    0.95
   1   6  -6   30.54    0.95
  -1   6   6   30.85    0.93
   0  -6  -6   32.12    0.99
   0  -6   6   31.90    0.97
   0   6  -6   31.62    0.99
   0   6   6   31.06    0.96
  -1  -6  -6   12.16    0.49
   1  -6   6   12.27    0.48
  -1  -6  -6   11.75    0.48
  -1   6  -6   12.30    0.49
  -1   6  -6   11.90    0.48
   1   6   6   12.12    0.47
  -2  -6  -6   15.41    0.58
   2  -6   6   16.31    0.57
  -2  -6  -6   14.98    0.58
  -2   6  -6   15.00    0.58
   2   6   6   15.49    0.56
  -2   6  -6   15.34    0.56
  -3  -6  -6    6.04    0.33
  -3  -6  -6    5.12    0.34
   3  -6   6    5.60    0.31
   3   6   6    5.05    0.29
  -3   6  -6    5.43    0.34
  -3   6  -6    5.69    0.31
   4  -6   6   41.44    1.20
  -4  -6  -6   38.80    1.23
  -4  -6  -6   40.74    1.27
  -4   6  -6   40.16    1.25
  -4   6  -6   40.22    1.16
   4   6   6   40.84    1.18
   5  -6   6   16.03    0.63
  -5  -6  -6   16.51    0.65
  -5  -6  -6   15.77    0.60
  -5   6  -6   16.46    0.67
  -6  -6  -6    4.21    0.35
   6  -6   6    4.21    0.30
  -6  -6  -6    4.05    0.30
  -6   6  -6    4.35    0.35
   6   6   6    3.61    0.26
  -7  -6  -6    0.62    0.21
   7  -6   6    0.57    0.16
  -7   6  -6    0.68    0.21
   7   6   6    0.52    0.14
   7   6   6    0.49    0.15
  -6  -7   6   13.04    0.55
   6  -7  -6   12.24    0.52
   6   7  -6   12.81    0.53
  -6   7   6   13.64    0.50
  -6   7   6   12.73    0.54
   5  -7  -6    0.96    0.18
  -5  -7   6    1.03    0.19
  -5   7   6    0.97    0.16
  -5   7   6    1.35    0.20
   5   7  -6    1.06    0.18
  -4  -7   6   17.51    0.65
   4  -7  -6   16.76    0.63
   4   7  -6   17.80    0.65
  -4   7   6   17.54    0.63
  -4   7   6   18.04    0.61
   3  -7  -6    2.24    0.24
  -3  -7   6    2.13    0.25
   3   7  -6    2.47    0.27
  -3   7   6    2.51    0.23
  -2  -7   6    8.30    0.39
   2  -7  -6    7.32    0.38
   2   7  -6    8.05    0.41
  -2   7   6    7.76    0.37
   1  -7  -6    7.87    0.45
  -1  -7   6    8.80    0.40
  -1   7   6    8.62    0.39
   1   7  -6    8.46    0.42
   0  -7  -6    2.76    0.30
   0  -7   6    2.97    0.26
   0   7  -6    2.61    0.28
   0   7   6    3.09    0.25
   1  -7   6   32.66    1.00
  -1  -7  -6   32.85    1.02
  -1  -7  -6   31.35    1.00
   1   7   6   33.32    0.99
   2  -7   6    5.11    0.30
  -2  -7  -6    4.74    0.31
  -2  -7  -6    4.28    0.34
   2   7   6    4.48    0.28
  -2   7  -6    4.37    0.31
  -2   7  -6    4.80    0.35
  -3  -7  -6   32.47    1.01
   3  -7   6   33.11    0.99
  -3  -7  -6   31.41    1.02
  -3   7  -6   31.83    0.98
   3   7   6   32.09    0.98
  -3   7  -6   31.20    1.01
  -4  -7  -6   10.94    0.48
   4  -7   6   11.29    0.46
  -4   7  -6    9.79    0.55
   4   7   6   11.04    0.45
  -4   7  -6   11.04    0.46
  -5  -7  -6    0.93    0.23
   5  -7   6    1.14    0.18
  -5  -7  -6    1.08    0.18
  -5   7  -6    1.14    0.22
   5   7   6    0.96    0.16
   2  -8  -6    2.77    0.29
  -2  -8   6    3.16    0.29
   2   8  -6    3.00    0.30
  -2   8   6    3.06    0.27
   1  -8  -6    0.74    0.18
  -1  -8   6    1.31    0.19
   1   8  -6    0.92    0.19
  -1   8   6    0.92    0.16
   0  -8  -6    5.32    0.35
   0  -8   6    5.84    0.34
   0   8   6    5.91    0.33
   0   8  -6    5.36    0.36
  -1  -8  -6    0.29    0.16
   1  -8   6    0.40    0.15
   1   8   6    0.40    0.14
  -1   8  -6    0.63    0.17
 -12   0   7    0.07    0.16
  12   0  -7    0.21    0.13
 -11   0   7    0.14    0.21
  11   0  -7    0.36    0.13
 -11   0   7    0.24    0.14
 -10   0   7    0.12    0.14
  10   0  -7    0.39    0.12
 -10   0   7    0.30    0.13
  -9   0   7  175.08    4.49
  -9   0   7  172.86    4.56
   9   0  -7  175.71    4.51
  -8   0   7    0.18    0.09
   8   0  -7    0.09    0.10
  -8   0   7    0.13    0.11
   8   0  -7    0.15    0.08
  -7   0   7    2.38    0.21
   7   0  -7    1.96    0.17
  -7   0   7    2.33    0.18
  -6   0   7    0.28    0.10
  -6   0   7    0.40    0.09
   6   0  -7    0.29    0.08
   6   0  -7    0.57    0.11
  -5   0   7  186.85    4.90
  -5   0   7  188.60    4.80
   5   0  -7  193.56    4.83
   5   0  -7  189.65    4.84
  -4   0   7    0.66    0.12
   4   0  -7    0.42    0.07
  -4   0   7    0.36    0.07
   4   0  -7    0.39    0.08
  -3   0   7    3.45    0.20
   3   0  -7    3.22    0.17
   3   0  -7    3.31    0.16
  -3   0   7    3.63    0.15
   2   0  -7    0.44    0.07
  -2   0   7    0.58    0.06
   2   0  -7    0.42    0.07
  -2   0   7    0.71    0.11
   2   0  -7    0.49    0.08
  -1   0   7    1.71    0.14
   1   0  -7    1.65    0.10
  -1   0   7    1.76    0.10
   0   0  -7    0.56    0.08
   0   0   7    0.57    0.07
  -1   0  -7    0.64    0.11
   1   0   7    0.66    0.08
  -1   0  -7    0.60    0.09
  -1   0  -7    0.59    0.08
  -2   0  -7    0.17    0.07
  -2   0  -7    0.24    0.06
  -2   0  -7    0.38    0.09
   3   0   7   73.80    1.96
  -3   0  -7   75.31    2.01
  -3   0  -7   71.97    2.04
  -3   0  -7   79.38    1.95
  -4   0  -7    0.51    0.08
  -4   0  -7    0.97    0.16
   5   0   7  272.58    7.20
  -5   0  -7  297.88    7.15
  -6   0  -7    1.11    0.17
   6   0   7    0.64    0.09
  -7   0  -7   72.01    2.06
   7   0   7   73.63    1.96
  -7   0  -7   74.42    2.04
   8   0   7    0.45    0.11
  -8   0  -7    0.34    0.15
  -8   0  -7    0.17    0.12
  -9   0  -7   29.30    0.97
  -9   0  -7   29.35    0.95
   9   0   7   27.77    0.86
 -10   0  -7    0.18    0.15
  10   0   7    0.24    0.12
 -10   0  -7    0.62    0.19
 -11   0  -7   15.02    0.62
 -11   0  -7   15.37    0.66
  11   0   7   15.26    0.54
 -12  -1   7    0.45    0.17
  12  -1  -7    0.39    0.14
 -12  -1   7    0.41    0.17
  12   1  -7    0.60    0.15
 -12   1   7    0.48    0.18
 -11  -1   7   38.72    1.17
  11  -1  -7   38.34    1.14
 -11  -1   7   36.45    1.14
 -11   1   7   38.92    1.21
  11   1  -7   39.68    1.15
 -10  -1   7   11.83    0.47
  10  -1  -7   11.40    0.53
 -10  -1   7   11.98    0.49
 -10   1   7   11.58    0.44
  10   1  -7   12.56    0.47
 -10   1   7   12.20    0.53
   9  -1  -7   11.30    0.44
  -9  -1   7   10.78    0.44
  -9  -1   7   11.34    0.47
   9   1  -7   10.94    0.43
  -9   1   7   10.85    0.49
  -9   1   7   10.76    0.41
  -8  -1   7   36.26    1.07
   8  -1  -7   34.81    1.04
   8  -1  -7   37.66    0.97
  -8  -1   7   34.61    1.04
   8   1  -7   36.06    1.04
   8   1  -7   33.93    1.01
  -8   1   7   35.05    1.00
  -8   1   7   34.64    1.10
   7  -1  -7    0.71    0.10
   7  -1  -7    0.61    0.11
   7   1  -7    0.70    0.10
  -7   1   7    0.34    0.12
  -7   1   7    0.53    0.10
  -6  -1   7   24.04    0.83
  -6  -1   7   25.34    0.75
   6  -1  -7   25.41    0.72
   6   1  -7   25.27    0.73
   6   1  -7   24.30    0.74
  -6   1   7   24.48    0.81
  -6   1   7   24.36    0.70
   5  -1  -7   15.08    0.48
  -5  -1   7   15.10    0.49
  -5  -1   7   14.86    0.53
   5   1  -7   15.02    0.48
   5   1  -7   15.13    0.49
  -5   1   7   14.89    0.55
  -5   1   7   14.63    0.44
  -4  -1   7   91.09    2.36
  -4  -1   7   89.74    2.41
   4  -1  -7   82.58    2.30
   4  -1  -7   92.26    2.37
   4  -1  -7   90.79    2.37
   4   1  -7   93.09    2.35
   4   1  -7   92.64    2.37
  -4   1   7   91.90    2.44
  -4   1   7   92.27    2.30
   3  -1  -7  399.77   10.21
  -3  -1   7  392.26   10.04
   3  -1  -7  409.38   10.14
  -3  -1   7  392.60   10.04
   3   1  -7  395.17    9.97
  -3   1   7  386.35   10.07
   3   1  -7  401.06   10.16
  -2  -1   7    0.21    0.07
  -2  -1   7    0.14    0.05
   2  -1  -7    0.22    0.07
   2  -1  -7    0.31    0.07
   2   1  -7    0.31    0.05
   2   1  -7    0.42    0.08
  -2   1   7    0.29    0.08
   1  -1  -7  126.85    3.30
   1  -1  -7  126.45    3.28
  -1  -1   7  125.91    3.28
  -1  -1   7  130.69    3.33
  -1   1   7  126.03    3.31
   1   1  -7  133.82    3.30
   0  -1   7   23.27    0.68
   0  -1  -7   23.82    0.69
   0   1  -7   24.00    0.69
   0   1   7   23.82    0.71
   0   1  -7   23.87    0.74
   0   1   7   23.40    0.65
   1  -1   7  140.88    3.64
  -1  -1  -7  144.67    3.62
  -1  -1  -7  139.16    3.64
  -1  -1  -7  142.43    3.64
  -1   1  -7  146.69    3.64
  -1   1  -7  143.36    3.70
   1   1   7  138.38    3.65
  -2  -1  -7    4.65    0.23
  -2  -1  -7    4.44    0.21
  -2  -1  -7    4.58    0.21
   2  -1   7    4.89    0.23
  -2  -1  -7    4.55    0.21
   2  -1   7    4.60    0.16
  -2   1  -7    4.58    0.20
  -2   1  -7    5.20    0.27
  -3  -1  -7    0.31    0.08
   3  -1   7    0.40    0.06
  -3  -1  -7    0.45    0.10
  -3   1  -7    0.34    0.10
  -3   1  -7    0.32    0.06
   4  -1   7   35.27    1.14
  -4  -1  -7   40.78    1.13
   4  -1   7   39.34    1.05
  -4  -1  -7   40.31    1.13
   4   1   7   38.28    1.05
  -4   1  -7   38.15    1.03
   4   1   7   39.25    1.09
   5  -1   7   14.39    0.45
   5  -1   7   13.63    0.51
  -5  -1  -7   14.32    0.51
  -5   1  -7   14.34    0.41
   5   1   7   13.62    0.47
   5   1   7   13.96    0.43
   6  -1   7    0.43    0.09
  -6  -1  -7    0.57    0.14
  -6   1  -7    0.68    0.16
   6   1   7    0.41    0.08
  -6   1  -7    0.37    0.11
   6   1   7    0.50    0.10
   7  -1   7   35.99    1.01
  -7  -1  -7   35.69    1.13
  -7  -1  -7   35.15    1.10
  -7   1  -7   35.40    1.09
   7   1   7   36.31    0.96
  -7   1  -7   34.80    1.15
   7   1   7   35.56    1.04
  -8  -1  -7    2.25    0.24
   8  -1   7    1.94    0.18
  -8  -1  -7    1.89    0.24
  -8   1  -7    1.96    0.23
  -8   1  -7    2.29    0.29
   8   1   7    2.54    0.20
  -9  -1  -7    2.60    0.27
  -9  -1  -7    2.48    0.33
   9  -1   7    2.51    0.20
  -9   1  -7    2.80    0.32
  -9   1  -7    2.55    0.41
   9   1   7    2.71    0.22
 -10  -1  -7    9.50    0.45
 -10  -1  -7    8.80    0.46
  10  -1   7    9.30    0.45
 -10   1  -7    9.02    0.51
  10   1   7    9.19    0.40
  11  -1   7   20.78    0.74
 -11  -1  -7   19.62    0.77
  11  -1   7   22.00    0.68
 -11   1  -7   20.21    0.82
  11   1   7   21.04    0.69
  11  -2  -7    6.91    0.37
 -11  -2   7    7.40    0.40
  11   2  -7    7.99    0.38
 -11   2   7    8.07    0.44
 -10  -2   7   19.76    0.70
 -10  -2   7   19.98    0.69
  10  -2  -7   20.22    0.69
 -10   2   7   21.37    0.77
  10   2  -7   20.04    0.68
  -9  -2   7   51.64    1.44
   9  -2  -7   51.80    1.44
  -9  -2   7   50.51    1.45
  -9   2   7   51.38    1.51
   9   2  -7   49.37    1.42
   9   2  -7   48.44    1.37
   8  -2  -7   26.44    0.83
  -8  -2   7   26.44    0.84
  -8  -2   7   26.49    0.83
  -8   2   7   27.51    0.91
   8   2  -7   27.13    0.82
   8   2  -7   25.63    0.82
  -8   2   7   27.56    0.77
  -7  -2   7    4.97    0.28
  -7  -2   7    4.90    0.27
   7  -2  -7    4.81    0.23
   7  -2  -7    4.86    0.26
   7   2  -7    5.21    0.25
  -7   2   7    5.21    0.23
  -7   2   7    4.76    0.30
   7   2  -7    5.53    0.27
   6  -2  -7    6.61    0.26
   6  -2  -7    6.05    0.28
   6  -2  -7    6.11    0.23
  -6  -2   7    6.13    0.30
  -6  -2   7    5.81    0.30
   6   2  -7    5.51    0.27
   6   2  -7    6.12    0.27
  -5  -2   7  149.67    3.86
   5  -2  -7  148.63    3.82
   5  -2  -7  150.75    3.90
  -5  -2   7  148.79    3.90
   5   2  -7  148.30    3.82
  -4  -2   7   24.40    0.75
  -4  -2   7   24.87    0.75
   4  -2  -7   24.66    0.73
   4   2  -7   24.79    0.74
   4   2  -7   24.51    0.71
  -3  -2   7   23.09    0.70
   3  -2  -7   22.15    0.68
   3  -2  -7   22.90    0.69
  -3  -2   7   22.45    0.69
   3   2  -7   22.44    0.63
  -3   2   7   23.70    0.73
   3   2  -7   22.10    0.69
  -2  -2   7   27.77    0.84
   2  -2  -7   28.79    0.83
   2  -2  -7   28.26    0.83
  -2  -2   7   27.87    0.83
   2   2  -7   28.67    0.84
   2   2  -7   29.21    0.76
   2   2  -7   28.85    0.76
  -2   2   7   28.70    0.86
   1  -2  -7    2.72    0.16
  -1  -2   7    2.04    0.15
   1  -2  -7    2.16    0.16
  -1   2   7    2.21    0.16
   1   2  -7    1.95    0.16
   1   2  -7    2.18    0.15
   0  -2   7  121.44    3.15
   0  -2  -7  114.34    3.14
   0  -2  -7  115.74    3.15
   0  -2  -7  126.27    3.08
   0   2   7  122.08    3.13
   0   2  -7  122.85    3.14
   0   2   7  126.32    3.09
   0   2  -7  122.93    3.19
  -1  -2  -7   46.74    1.24
  -1  -2  -7   45.42    1.26
  -1  -2  -7   45.11    1.27
   1   2   7   45.28    1.24
  -1   2  -7   46.70    1.26
   2  -2   7    5.68    0.26
  -2  -2  -7    6.30    0.26
  -2  -2  -7    5.85    0.27
   2   2   7    5.83    0.25
  -2   2  -7    5.67    0.31
  -2   2  -7    5.61    0.24
   2   2   7    5.67    0.24
   3  -2   7   84.77    2.23
  -3  -2  -7   85.35    2.33
  -3  -2  -7   91.85    2.30
  -3  -2  -7   90.55    2.34
  -3   2  -7   91.99    2.28
  -3   2  -7   84.67    2.53
   3   2   7   84.98    2.29
  -4  -2  -7   36.34    0.98
   4  -2   7   32.85    0.92
  -4  -2  -7   34.05    1.02
   4   2   7   34.73    0.97
  -4   2  -7   33.37    0.93
  -5  -2  -7   28.76    0.82
   5  -2   7   26.43    0.85
  -5  -2  -7   27.10    0.87
  -5   2  -7   27.28    0.75
   5   2   7   28.45    0.80
   5   2   7   27.54    0.84
  -5   2  -7   26.17    0.93
   6  -2   7    4.57    0.27
  -6  -2  -7    4.31    0.29
  -6  -2  -7    4.75    0.26
   6   2   7    4.88    0.22
   6   2   7    4.46    0.25
  -6   2  -7    4.55    0.34
   7  -2   7   54.51    1.57
  -7  -2  -7   53.88    1.60
   7  -2   7   55.33    1.48
   7   2   7   56.78    1.47
  -7   2  -7   55.93    1.68
   7   2   7   54.31    1.54
   8  -2   7   13.00    0.51
  -8  -2  -7   12.91    0.55
  -8  -2  -7   12.53    0.54
   8  -2   7   12.71    0.44
  -8   2  -7   12.66    0.60
   8   2   7   12.85    0.48
  -9  -2  -7    2.37    0.29
   9  -2   7    2.40    0.20
   9  -2   7    2.59    0.25
  10  -2   7   39.55    1.19
 -10  -2  -7   38.50    1.24
  10   2   7   40.08    1.16
 -10   2  -7   37.68    1.29
  11  -3  -7   21.50    0.73
 -11  -3   7   20.43    0.75
 -11   3   7   21.42    0.81
  11   3  -7   21.53    0.72
 -10  -3   7    8.09    0.42
  10  -3  -7    8.42    0.40
 -10   3   7    8.79    0.46
  10   3  -7    8.35    0.43
   9  -3  -7   26.14    0.92
  -9  -3   7   25.23    0.85
   9   3  -7   25.92    0.82
  -9   3   7   26.98    1.01
   9   3  -7   26.25    0.79
   8  -3  -7   20.17    0.67
  -8  -3   7   19.71    0.69
  -8  -3   7   20.42    0.68
  -8   3   7   20.52    0.74
   8   3  -7   19.57    0.64
   8   3  -7   20.26    0.66
  -7  -3   7    6.00    0.32
   7  -3  -7    6.02    0.31
   7   3  -7    6.31    0.30
   7   3  -7    6.60    0.30
  -7   3   7    6.54    0.28
  -7   3   7    6.48    0.36
  -6  -3   7   28.39    0.88
  -6  -3   7   29.69    0.85
   6  -3  -7   27.36    0.86
  -6   3   7   28.21    0.85
  -6   3   7   28.49    0.92
   6   3  -7   29.09    0.84
   6   3  -7   27.42    0.85
   5  -3  -7  103.84    2.76
  -5  -3   7  106.90    2.74
  -5  -3   7  101.99    2.77
  -5   3   7  104.65    2.76
  -5   3   7  103.17    2.81
   5   3  -7  109.30    2.73
   5   3  -7  103.90    2.76
   4  -3  -7   28.24    0.87
  -4  -3   7   27.91    0.87
  -4  -3   7   29.20    0.85
   4   3  -7   31.57    1.08
  -4   3   7   28.75    0.90
  -4   3   7   28.14    0.87
   4   3  -7   29.34    0.82
  -3  -3   7   26.85    0.82
  -3  -3   7   27.59    0.80
   3  -3  -7   26.67    0.82
  -3   3   7   26.61    0.83
   3   3  -7   26.67    0.82
  -3   3   7   27.49    0.85
   3   3  -7   28.01    0.75
   2  -3  -7   53.37    1.52
  -2  -3   7   56.00    1.50
   2   3  -7   55.83    1.42
   2   3  -7   53.58    1.51
  -2   3   7   56.21    1.52
  -2   3   7   54.14    1.53
  -1  -3   7    3.52    0.20
   1   3  -7    3.41    0.21
   1   3  -7    2.56    0.22
  -1   3   7    2.88    0.20
  -1   3   7    3.73    0.21
  -1   3   7    3.36    0.14
   0  -3   7    4.06    0.24
   0  -3  -7    4.29    0.19
   0   3   7    4.31    0.22
   0   3  -7    4.22    0.22
   0   3  -7    4.12    0.24
  -1  -3  -7  182.60    4.53
  -1  -3  -7  167.89    4.63
   1   3   7  179.89    4.51
  -1   3  -7  176.40    4.54
  -1   3  -7  180.57    4.61
   2  -3   7    6.71    0.31
  -2  -3  -7    6.93    0.32
  -2  -3  -7    7.40    0.31
   2   3   7    7.17    0.30
   2   3   7    7.22    0.26
  -2   3  -7    6.80    0.35
  -2   3  -7    7.08    0.29
  -3  -3  -7   39.47    1.12
  -3  -3  -7   33.51    1.14
   3  -3   7   36.78    1.10
   3  -3   7   39.70    0.99
   3   3   7   37.92    1.08
   3   3   7   38.23    1.02
  -3   3  -7   39.17    1.06
   4  -3   7   30.55    0.81
  -4  -3  -7   29.94    0.93
  -4  -3  -7   29.06    0.91
   4  -3   7   28.48    0.90
   4   3   7   30.34    0.87
  -4   3  -7   30.58    0.84
   4   3   7   29.29    0.82
  -4   3  -7   29.53    0.99
  -5  -3  -7    4.19    0.29
  -5  -3  -7    4.39    0.26
   5  -3   7    4.39    0.19
   5  -3   7    4.34    0.25
  -5   3  -7    4.48    0.20
   5   3   7    4.72    0.26
  -5   3  -7    4.05    0.32
  -6  -3  -7    1.63    0.23
   6  -3   7    1.56    0.19
  -6  -3  -7    1.95    0.19
   6   3   7    1.91    0.19
   6   3   7    1.91    0.19
  -6   3  -7    1.71    0.27
   7  -3   7   30.33    0.95
  -7  -3  -7   29.73    0.99
   7  -3   7   29.96    0.86
   7   3   7   30.08    0.86
  -7   3  -7   29.61    1.05
   7   3   7   30.72    0.93
   8  -3   7   19.52    0.68
  -8  -3  -7   18.38    0.73
   8  -3   7   19.12    0.60
  -8   3  -7   18.71    0.79
   8   3   7   19.54    0.66
   9  -3   7   28.88    0.85
   9  -3   7   29.64    0.93
  -9  -3  -7   28.01    0.98
   9   3   7   29.31    0.90
  -9   3  -7   27.53    1.04
  10  -3   7    0.73    0.17
  10  -3   7    0.76    0.19
 -10  -3  -7    0.91    0.22
  10   3   7    1.24    0.18
 -10   3  -7    0.80    0.25
  10  -4  -7    2.26    0.26
 -10  -4   7    2.38    0.28
 -10   4   7    2.55    0.31
  10   4  -7    2.28    0.26
  -9  -4   7    4.89    0.33
   9  -4  -7    5.02    0.31
   9   4  -7    4.66    0.29
   9   4  -7    4.99    0.30
  -9   4   7    4.72    0.35
   8  -4  -7   35.16    1.08
  -8  -4   7   34.91    1.09
   8   4  -7   35.55    1.04
   8   4  -7   34.74    1.04
  -8   4   7   35.71    1.13
   7  -4  -7   37.09    1.11
  -7  -4   7   36.91    1.14
   7   4  -7   37.31    1.08
  -7   4   7   38.03    1.09
  -7   4   7   38.03    1.17
   7   4  -7   37.05    1.10
   6  -4  -7   77.10    2.11
  -6  -4   7   75.92    2.13
  -6  -4   7   78.34    2.04
  -6   4   7   78.53    2.06
   6   4  -7   77.68    2.11
  -6   4   7   76.96    2.15
   6   4  -7   78.77    2.07
  -5  -4   7   25.78    0.74
   5  -4  -7   24.17    0.78
  -5  -4   7   24.96    0.80
  -5   4   7   24.58    0.82
  -5   4   7   24.45    0.75
   5   4  -7   24.83    0.79
   4  -4  -7    0.56    0.12
  -4  -4   7    0.43    0.11
  -4  -4   7    0.60    0.13
  -4   4   7    0.57    0.10
   4   4  -7    0.66    0.12
   4   4  -7    0.59    0.10
  -4   4   7    0.38    0.11
   3  -4  -7   10.00    0.41
  -3  -4   7   10.47    0.38
  -3  -4   7    9.99    0.41
  -3   4   7   10.32    0.39
  -3   4   7   10.00    0.41
   3   4  -7   10.23    0.41
   3   4  -7   10.62    0.35
  -2  -4   7    3.86    0.24
  -2  -4   7    4.17    0.23
   2  -4  -7    3.84    0.24
  -2   4   7    3.71    0.23
  -2   4   7    4.05    0.23
   2   4  -7    4.19    0.25
   2   4  -7    3.87    0.18
   1  -4  -7    9.79    0.33
   1  -4  -7    9.41    0.40
  -1  -4   7    9.33    0.38
   1   4  -7    9.52    0.38
   1   4  -7    9.52    0.39
  -1   4   7    9.24    0.36
  -1   4   7    8.82    0.37
   0  -4   7    4.07    0.24
   0  -4  -7    4.36    0.23
   0  -4  -7    4.11    0.25
   0   4   7    3.69    0.23
   0   4   7    4.30    0.22
   0   4  -7    3.95    0.27
   0   4  -7    4.53    0.26
  -1  -4  -7   85.29    2.30
  -1  -4  -7   86.81    2.26
   1  -4   7   86.10    2.29
  -1   4  -7   85.24    2.32
  -1   4  -7   82.17    2.30
   1   4   7   84.73    2.20
   2  -4   7   29.73    0.91
  -2  -4  -7   30.76    0.91
  -2  -4  -7   28.65    0.92
   2   4   7   29.53    0.89
   2   4   7   29.47    0.81
  -2   4  -7   29.61    0.95
  -2   4  -7   29.37    0.88
   3  -4   7   48.08    1.38
   3  -4   7   51.54    1.27
  -3  -4  -7   47.30    1.39
  -3  -4  -7   48.10    1.40
  -3   4  -7   49.18    1.46
   3   4   7   47.67    1.36
  -3   4  -7   48.94    1.35
  -4  -4  -7    6.47    0.33
   4  -4   7    6.99    0.33
  -4  -4  -7    7.25    0.37
   4  -4   7    7.45    0.25
  -4   4  -7    6.86    0.40
   4   4   7    6.85    0.31
  -5  -4  -7    0.54    0.13
   5  -4   7    0.25    0.08
  -5  -4  -7    0.09    0.13
   5  -4   7    0.32    0.11
   5   4   7    0.36    0.11
  -5   4  -7    0.18    0.14
  -5   4  -7    0.15    0.09
   6  -4   7   13.51    0.43
  -6  -4  -7   13.78    0.52
   6  -4   7   13.41    0.52
  -6  -4  -7   13.31    0.57
  -6   4  -7   13.36    0.61
   6   4   7   13.42    0.47
   7  -4   7   29.22    0.90
   7  -4   7   27.32    0.81
  -7  -4  -7   27.80    0.95
  -7   4  -7   27.59    1.03
   7   4   7   27.14    0.82
   7   4   7   28.39    0.89
  -8  -4  -7    0.48    0.19
   8  -4   7    0.35    0.13
   8   4   7    0.23    0.12
  -8   4  -7    0.31    0.18
   9  -4   7   31.81    0.98
  -9  -4  -7   29.95    1.04
  -9   4  -7   29.47    1.09
   9   4   7   30.39    0.95
   9  -5  -7   10.90    0.47
  -9  -5   7   10.86    0.51
   9   5  -7   11.37    0.47
  -9   5   7   11.75    0.54
   9   5  -7   11.45    0.47
  -8  -5   7    0.32    0.15
   8  -5  -7    0.17    0.12
   8   5  -7    0.45    0.14
   8   5  -7    0.47    0.22
  -8   5   7    0.18    0.14
  -7   5   7    0.76    0.14
   7   5  -7    0.75    0.15
   7   5  -7    0.77    0.15
  -7   5   7    0.61    0.16
   6  -5  -7    2.63    0.23
  -6  -5   7    2.59    0.26
   6   5  -7    3.29    0.25
   6   5  -7    3.02    0.23
  -6   5   7    2.82    0.26
  -6   5   7    3.13    0.22
  -5  -5   7   35.56    1.11
   5  -5  -7   36.10    1.10
  -5   5   7   37.37    1.06
  -5   5   7   37.59    1.12
   5   5  -7   37.34    1.11
   4  -5  -7   26.05    0.84
  -4  -5   7   28.14    0.80
  -4  -5   7   26.16    0.86
  -4   5   7   26.88    0.85
   4   5  -7   28.50    0.80
   4   5  -7   26.53    0.86
  -4   5   7   27.01    0.82
  -3  -5   7    1.70    0.19
   3  -5  -7    1.86    0.20
  -3  -5   7    1.93    0.17
   3   5  -7    2.08    0.17
  -3   5   7    1.94    0.18
   3   5  -7    1.75    0.21
  -3   5   7    1.80    0.19
  -2  -5   7   40.97    1.14
   2  -5  -7   40.71    1.21
  -2  -5   7   39.67    1.19
   2  -5  -7   41.65    1.12
  -2   5   7   39.67    1.16
   2   5  -7   40.29    1.21
   2   5  -7   43.74    1.11
  -2   5   7   40.46    1.18
   1  -5  -7   49.64    1.44
   1  -5  -7   52.75    1.38
  -1  -5   7   50.05    1.43
  -1   5   7   50.63    1.38
   1   5  -7   48.08    1.44
   1   5  -7   53.21    1.33
  -1   5   7   48.78    1.42
   0  -5  -7   75.94    2.11
   0  -5   7   77.94    2.10
   0  -5  -7   77.96    2.06
   0   5   7   76.08    2.09
   0   5   7   80.88    2.03
   0   5  -7   74.79    2.08
   0   5  -7   77.24    2.11
   1  -5   7   45.57    1.29
  -1  -5  -7   43.32    1.30
  -1  -5  -7   44.78    1.28
   1   5   7   44.10    1.28
  -1   5  -7   44.90    1.31
  -1   5  -7   44.05    1.28
   1   5   7   45.38    1.24
  -2  -5  -7    0.81    0.15
  -2  -5  -7    1.09    0.18
   2  -5   7    0.97    0.15
   2   5   7    0.96    0.15
  -2   5  -7    0.97    0.15
  -2   5  -7    1.40    0.21
   3  -5   7    0.18    0.09
  -3  -5  -7    0.45    0.13
  -3  -5  -7    0.64    0.15
  -3   5  -7    0.41    0.13
  -3   5  -7    0.44    0.11
   3   5   7    0.16    0.10
  -4  -5  -7   22.19    0.74
   4  -5   7   21.98    0.72
  -4  -5  -7   21.54    0.76
  -4   5  -7   20.45    0.67
   4   5   7   21.63    0.70
  -4   5  -7   20.78    0.78
   5  -5   7    1.53    0.20
  -5  -5  -7    1.44    0.19
  -5  -5  -7    1.45    0.23
  -5   5  -7    1.33    0.19
  -5   5  -7    1.73    0.28
   5   5   7    1.43    0.18
  -6  -5  -7    1.72    0.25
  -6  -5  -7    1.70    0.25
   6  -5   7    1.59    0.27
   6   5   7    1.30    0.18
  -6   5  -7    1.88    0.37
  -7  -5  -7    6.16    0.41
   7  -5   7    6.00    0.34
   7   5   7    5.66    0.29
   7   5   7    6.00    0.34
  -7   5  -7    6.44    0.44
  -8  -5  -7   12.60    0.59
   8  -5   7   12.67    0.51
   8   5   7   12.02    0.49
  -8   5  -7   12.01    0.61
   8   5   7   11.87    0.45
  -8  -6   7    0.64    0.18
   8  -6  -7    0.73    0.17
  -8   6   7    0.56    0.18
   8   6  -7    0.60    0.16
   7  -6  -7   79.85    2.20
  -7  -6   7   79.58    2.23
  -7   6   7   80.72    2.23
   7   6  -7   81.25    2.20
  -6  -6   7    4.55    0.32
   6  -6  -7    4.22    0.29
  -6   6   7    3.71    0.31
   6   6  -7    4.47    0.31
  -6   6   7    4.16    0.27
  -5  -6   7    2.54    0.25
   5  -6  -7    2.83    0.32
   5   6  -7    2.77    0.30
  -5   6   7    2.84    0.26
  -5   6   7    2.85    0.23
  -4  -6   7    1.10    0.18
   4  -6  -7    0.62    0.15
   4   6  -7    0.57    0.15
  -4   6   7    0.56    0.13
  -4   6   7    0.56    0.14
  -3  -6   7    0.33    0.12
   3  -6  -7    0.42    0.14
  -3   6   7    0.36    0.11
  -3   6   7    0.47    0.13
   3   6  -7    0.43    0.14
  -2  -6   7   40.56    1.18
   2  -6  -7   38.97    1.17
   2   6  -7   39.08    1.18
  -2   6   7   39.68    1.15
  -2   6   7   37.88    1.11
   1  -6  -7    2.22    0.23
  -1  -6   7    2.70    0.22
   1   6  -7    2.26    0.24
  -1   6   7    1.90    0.20
   1   6  -7    2.29    0.22
   0  -6   7    0.29    0.12
   0  -6  -7    0.49    0.14
   0  -6  -7    0.63    0.15
   0   6  -7    0.22    0.13
   0   6   7    0.58    0.13
   0   6  -7    0.30    0.12
  -1  -6  -7    0.47    0.14
   1  -6   7    0.26    0.10
  -1  -6  -7    0.33    0.14
   1   6   7    0.34    0.12
  -1   6  -7    0.18    0.13
  -1   6  -7    0.21    0.13
   2  -6   7    7.32    0.35
  -2  -6  -7    6.57    0.37
  -2  -6  -7    7.32    0.37
   2   6   7    6.66    0.33
  -2   6  -7    6.77    0.37
  -2   6  -7    6.26    0.34
  -3  -6  -7   16.42    0.64
  -3  -6  -7   16.94    0.63
   3  -6   7   17.68    0.61
  -3   6  -7   16.73    0.59
  -3   6  -7   16.58    0.65
   3   6   7   18.97    0.61
  -4  -6  -7   19.77    0.74
  -4  -6  -7   20.98    0.73
  -4   6  -7   20.63    0.76
   4   6   7   21.12    0.85
  -4   6  -7   20.40    0.67
   5  -6   7   29.21    0.90
  -5  -6  -7   26.81    0.94
  -5  -6  -7   28.53    0.91
   5   6   7   28.62    0.87
  -5   6  -7   27.56    0.98
  -6  -6  -7   18.89    0.73
  -6  -6  -7   19.48    0.69
   6  -6   7   19.48    0.68
   6   6   7   19.14    0.64
  -6   6  -7   18.75    0.76
  -7  -6  -7    5.32    0.41
   7  -6   7    5.81    0.34
   7   6   7    5.31    0.33
  -7   6  -7    5.64    0.43
   7   6   7    5.27    0.30
  -6  -7   7    5.07    0.36
   6  -7  -7    4.96    0.33
   6   7  -7    5.08    0.34
  -6   7   7    5.27    0.31
  -6   7   7    5.12    0.36
   5  -7  -7    0.80    0.17
  -5  -7   7    1.20    0.20
   5   7  -7    1.18    0.19
  -5   7   7    0.90    0.16
  -4  -7   7    7.59    0.40
   4  -7  -7    7.27    0.39
  -4   7   7    7.63    0.36
   4   7  -7    8.15    0.42
   3  -7  -7    2.74    0.26
  -3  -7   7    2.87    0.26
  -3   7   7    2.81    0.25
   3   7  -7    3.38    0.29
  -2  -7   7    1.81    0.23
   2  -7  -7    1.29    0.19
  -2   7   7    1.31    0.17
   2   7  -7    1.21    0.19
   1  -7  -7   66.59    1.85
  -1  -7   7   66.33    1.84
   1   7  -7   64.64    1.85
  -1   7   7   65.27    1.82
   0  -7   7    4.91    0.30
   0  -7  -7    4.81    0.32
   0   7   7    4.43    0.29
   0   7  -7    5.26    0.33
   1  -7   7    0.46    0.14
  -1  -7  -7    0.29    0.14
   1   7   7    0.67    0.14
  -1   7  -7    0.39    0.15
  -2  -7  -7    6.64    0.37
  -2  -7  -7    7.06    0.41
   2  -7   7    6.69    0.35
  -2   7  -7    6.41    0.41
   2   7   7    6.67    0.34
  -2   7  -7    6.63    0.37
  -3  -7  -7    2.64    0.31
  -3  -7  -7    2.57    0.27
   3  -7   7    2.43    0.24
  -3   7  -7    2.82    0.30
   3   7   7    2.21    0.23
  -4  -7  -7   28.13    1.15
  -4  -7  -7   32.75    1.01
   4  -7   7   33.68    0.99
  -4   7  -7   31.57    1.06
  -4   7  -7   32.00    1.04
   4   7   7   32.55    0.97
  -5  -7  -7    2.05    0.26
   5  -7   7    1.73    0.24
  -5  -7  -7    1.97    0.33
   5   7   7    1.76    0.22
  -5   7  -7    1.70    0.24
  12   0  -8    2.88    0.26
 -12   0   8    2.87    0.31
  11   0  -8    0.18    0.13
 -11   0   8    0.23    0.14
 -11   0   8    0.39    0.15
 -10   0   8    1.81    0.21
  10   0  -8    1.89    0.21
 -10   0   8    2.05    0.24
  -9   0   8    0.12    0.12
   9   0  -8    0.19    0.11
   8   0  -8    5.38    0.25
  -8   0   8    5.10    0.30
  -8   0   8    5.43    0.27
   8   0  -8    4.96    0.27
   7   0  -8    0.07    0.08
  -7   0   8    0.33    0.11
   7   0  -8    0.16    0.08
  -7   0   8    0.22    0.08
  -6   0   8  326.12    7.89
   6   0  -8  324.87    7.91
  -6   0   8  291.27    8.04
   6   0  -8  310.54    7.92
   5   0  -8    0.27    0.07
  -5   0   8    0.32    0.11
   5   0  -8    0.13    0.07
  -5   0   8    0.28    0.07
  -4   0   8   68.60    1.72
   4   0  -8   63.82    1.76
  -4   0   8   64.92    1.81
   4   0  -8   66.51    1.75
   3   0  -8    0.39    0.08
   3   0  -8    0.43    0.07
  -3   0   8    0.21    0.07
  -2   0   8   65.60    1.68
   2   0  -8   66.11    1.74
   2   0  -8   64.69    1.69
  -2   0   8   63.63    1.76
   1   0  -8    0.65    0.08
   1   0  -8    0.53    0.09
  -1   0   8    0.47    0.10
   0   0  -8   26.68    0.72
   0   0   8   26.19    0.79
   0   0   8   24.96    0.72
   0   0  -8   25.96    0.75
   1   0   8    0.59    0.09
  -1   0  -8    0.53    0.10
  -1   0  -8    0.51    0.07
  -1   0  -8    0.45    0.07
   2   0   8  121.55    3.15
  -2   0  -8  125.01    3.21
  -2   0  -8  125.91    3.11
  -2   0  -8  114.90    3.12
  -3   0  -8    1.09    0.11
  -3   0  -8    1.32    0.16
  -3   0  -8    1.26    0.14
  -4   0  -8   63.74    1.65
  -4   0  -8   60.92    1.77
   4   0   8   63.16    1.66
  -4   0  -8   62.75    1.73
   5   0   8    0.08    0.06
  -5   0  -8    0.20    0.07
  -5   0  -8    0.14    0.10
  -5   0  -8    0.15    0.11
  -6   0  -8  112.37    3.09
   6   0   8  115.94    2.93
  -6   0  -8  117.99    3.08
   7   0   8    0.17    0.09
  -7   0  -8    0.11    0.11
  -7   0  -8    0.21    0.13
  -8   0  -8  101.22    2.77
   8   0   8   99.62    2.66
  -8   0  -8  103.34    2.75
   9   0   8    0.31    0.11
  -9   0  -8    0.32    0.17
  -9   0  -8    0.20    0.15
 -10   0  -8   21.36    0.77
  10   0   8   21.73    0.70
  11  -1  -8    0.01    0.11
 -11  -1   8    0.19    0.16
 -11  -1   8    0.10    0.14
 -11   1   8    0.20    0.16
  11   1  -8    0.11    0.13
 -10  -1   8   40.54    1.20
 -10  -1   8   40.81    1.23
 -10   1   8   42.93    1.30
  10   1  -8   41.16    1.20
   9  -1  -8    6.96    0.33
  -9  -1   8    6.74    0.33
  -9  -1   8    6.88    0.35
   9   1  -8    7.01    0.33
   9   1  -8    6.70    0.31
  -9   1   8    6.54    0.33
  -9   1   8    7.01    0.38
   8  -1  -8   13.99    0.44
   8  -1  -8   13.54    0.49
  -8  -1   8   12.93    0.51
  -8  -1   8   13.02    0.49
  -8   1   8   13.35    0.45
  -8   1   8   14.72    0.55
   8   1  -8   12.71    0.45
   8   1  -8   13.15    0.48
  -7  -1   8    0.48    0.12
   7  -1  -8    0.48    0.11
   7  -1  -8    0.52    0.11
  -7  -1   8    0.60    0.11
  -7   1   8    0.41    0.09
   7   1  -8    0.47    0.11
   7   1  -8    0.45    0.10
  -7   1   8    0.45    0.13
  -6  -1   8    0.46    0.11
  -6  -1   8    0.55    0.11
  -6   1   8    0.53    0.08
  -6   1   8    0.59    0.12
   6   1  -8    0.37    0.09
   5  -1  -8   29.15    0.84
   5  -1  -8   28.47    0.86
  -5  -1   8   28.94    0.84
  -5  -1   8   27.18    0.92
   5   1  -8   29.38    0.85
  -5   1   8   29.72    0.78
   5   1  -8   29.89    0.84
  -5   1   8   28.40    0.91
  -4  -1   8   13.28    0.48
   4  -1  -8   13.06    0.45
  -4  -1   8   13.49    0.44
   4  -1  -8   13.35    0.45
   4   1  -8   13.66    0.46
  -4   1   8   12.40    0.53
   4   1  -8   13.93    0.43
  -3  -1   8   30.60    0.86
   3  -1  -8   29.43    0.87
  -3  -1   8   30.75    0.91
   3  -1  -8   31.33    0.89
   3   1  -8   31.25    0.89
   3   1  -8   30.87    0.84
  -2  -1   8   31.88    0.91
  -2  -1   8   32.50    0.97
   2  -1  -8   32.85    0.93
   2  -1  -8   33.07    0.95
  -2   1   8   33.59    0.97
   2   1  -8   33.62    0.95
   2   1  -8   34.70    0.88
   1  -1  -8   81.03    2.08
  -1  -1   8   76.06    2.00
  -1  -1   8   78.64    2.07
  -1  -1   8   80.58    2.12
  -1   1   8   78.39    2.11
   1   1  -8   80.83    2.10
   0  -1  -8  563.29   14.66
   0  -1  -8  562.92   14.59
   0  -1   8  579.45   14.58
   0   1  -8  603.51   14.62
   0   1   8  559.59   14.48
   0   1  -8  571.82   14.81
   0   1   8  566.05   14.53
   1  -1   8   13.76    0.38
  -1  -1  -8   15.16    0.46
   1  -1   8   13.72    0.38
  -1  -1  -8   13.67    0.45
  -1  -1  -8   14.08    0.44
   1  -1   8   13.34    0.45
   1   1   8   13.77    0.47
  -1   1  -8   13.91    0.45
  -1   1  -8   13.91    0.51
   2  -1   8   93.22    2.47
   2  -1   8   92.03    2.38
  -2  -1  -8   92.68    2.45
  -2  -1  -8   94.88    2.48
  -2  -1  -8   92.73    2.45
  -2  -1  -8   95.12    2.45
  -2   1  -8   93.65    2.54
  -2   1  -8   96.53    2.44
  -3  -1  -8   15.52    0.50
  -3  -1  -8   15.36    0.53
   3  -1   8   15.62    0.52
   3  -1   8   15.58    0.45
  -3  -1  -8   15.16    0.52
  -3  -1  -8   15.10    0.48
  -3   1  -8   15.44    0.47
  -3   1  -8   13.72    0.60
   4  -1   8   29.86    0.81
  -4  -1  -8   28.87    0.82
  -4  -1  -8   29.08    0.88
   4  -1   8   27.98    0.88
  -4   1  -8   29.75    0.80
  -4   1  -8   27.54    0.93
   5  -1   8   10.02    0.41
  -5  -1  -8   10.24    0.43
   5  -1   8   10.12    0.35
  -5  -1  -8   10.46    0.43
   5   1   8   10.31    0.35
   5   1   8   10.23    0.38
  -5   1  -8   10.20    0.47
  -5   1  -8   10.26    0.33
  -6  -1  -8   10.82    0.44
   6  -1   8   11.06    0.44
   6  -1   8   10.71    0.38
  -6  -1  -8   10.48    0.45
   6   1   8   11.21    0.36
  -6   1  -8   10.98    0.51
   6   1   8   10.51    0.40
  -6   1  -8   11.36    0.33
   7  -1   8    2.68    0.23
   7  -1   8    2.68    0.18
  -7  -1  -8    2.45    0.24
  -7  -1  -8    2.60    0.26
   7   1   8    2.75    0.20
  -7   1  -8    2.68    0.29
   8  -1   8    1.97    0.22
   8  -1   8    1.50    0.17
  -8  -1  -8    1.97    0.23
  -8  -1  -8    1.43    0.24
  -8   1  -8    2.02    0.28
   8   1   8    1.37    0.18
   9  -1   8    3.99    0.24
   9  -1   8    3.84    0.29
  -9  -1  -8    4.39    0.32
  -9  -1  -8    4.18    0.32
  -9   1  -8    4.37    0.38
   9   1   8    3.67    0.25
  10  -1   8    3.20    0.25
 -10  -1  -8    3.64    0.32
  10  -1   8    3.16    0.28
 -10  -1  -8    3.64    0.32
  10   1   8    3.52    0.25
 -10   1  -8    3.81    0.38
 -11  -2   8   13.18    0.57
  11  -2  -8   11.65    0.49
 -11  -2   8   11.26    0.50
 -11   2   8   12.13    0.55
  11   2  -8   12.66    0.49
 -10  -2   8   21.14    0.72
 -10  -2   8   21.16    0.71
  10  -2  -8   20.87    0.71
 -10   2   8   21.22    0.77
  10   2  -8   20.86    0.70
  -9  -2   8    0.09    0.11
  -9  -2   8    0.22    0.12
   9  -2  -8    0.09    0.10
  -9   2   8    0.33    0.14
   9   2  -8    0.23    0.11
   9   2  -8    0.19    0.10
   8  -2  -8   10.81    0.44
   8  -2  -8   10.80    0.37
  -8  -2   8   11.12    0.44
  -8  -2   8   10.98    0.44
  -8   2   8   10.56    0.48
   8   2  -8   10.28    0.41
   8   2  -8   10.50    0.39
   7  -2  -8   13.40    0.49
   7  -2  -8   13.80    0.42
   7  -2  -8   13.81    0.44
  -7  -2   8   12.79    0.53
  -7  -2   8   13.05    0.49
   7   2  -8   12.85    0.46
   7   2  -8   13.97    0.48
  -7   2   8   12.85    0.53
   6  -2  -8   77.26    2.14
   6  -2  -8   79.99    2.11
  -6  -2   8   80.74    2.16
  -6  -2   8   81.57    2.35
   6   2  -8   80.75    2.12
  -6   2   8   79.95    2.21
  -5  -2   8   45.91    1.31
   5  -2  -8   45.20    1.30
   5  -2  -8   47.29    1.28
   5   2  -8   48.12    1.27
  -5   2   8   45.12    1.35
   5   2  -8   47.37    1.30
   4  -2  -8    7.12    0.30
  -4  -2   8    6.85    0.31
  -4  -2   8    8.29    0.31
   4  -2  -8    7.42    0.31
   4   2  -8    7.45    0.27
   4   2  -8    6.48    0.33
  -4   2   8    7.33    0.35
   3  -2  -8   10.94    0.39
  -3  -2   8   10.84    0.39
  -3  -2   8   10.58    0.40
   3  -2  -8   10.85    0.39
   3   2  -8   10.54    0.34
  -3   2   8   10.97    0.43
  -2  -2   8  124.86    3.26
  -2  -2   8  125.42    3.29
   2  -2  -8  127.49    3.28
   2  -2  -8  128.74    3.28
  -2   2   8  125.39    3.30
   1  -2  -8    2.95    0.19
  -1  -2   8    2.56    0.17
   1   2  -8    2.59    0.19
  -1   2   8    2.58    0.17
   1   2  -8    3.43    0.19
   0  -2  -8   55.00    1.49
   0  -2  -8   53.79    1.50
   0  -2   8   53.05    1.49
   0  -2  -8   56.99    1.43
   0   2  -8   55.95    1.50
   0   2   8   53.84    1.49
   0   2  -8   55.83    1.55
  -1  -2  -8    0.87    0.12
   1  -2   8    0.56    0.09
  -1  -2  -8    0.49    0.09
  -1  -2  -8    0.54    0.08
  -1   2  -8    0.51    0.09
   1   2   8    0.56    0.10
  -1   2  -8    0.46    0.11
  -2  -2  -8   30.32    0.89
   2  -2   8   29.51    0.89
  -2  -2  -8   30.38    0.87
  -2   2  -8   29.73    0.85
   2   2   8   29.60    0.85
  -3  -2  -8  145.82    3.75
  -3  -2  -8  153.58    3.73
   3  -2   8  143.11    3.76
   3  -2   8  141.37    3.64
  -3  -2  -8  137.05    3.79
  -3   2  -8  141.93    3.83
  -3   2  -8  149.08    3.70
   3   2   8  146.14    3.72
  -4  -2  -8   18.29    0.55
   4  -2   8   16.09    0.48
  -4  -2  -8   16.33    0.58
   4  -2   8   16.28    0.58
  -4   2  -8   17.52    0.51
   4   2   8   16.91    0.53
  -4   2  -8   16.28    0.65
  -5  -2  -8   28.19    0.83
  -5  -2  -8   26.68    0.87
   5  -2   8   25.89    0.85
   5  -2   8   27.98    0.77
   5   2   8   27.25    0.83
  -5   2  -8   28.15    0.76
  -5   2  -8   26.88    0.94
   5   2   8   28.08    0.80
  -6  -2  -8   71.98    1.83
   6  -2   8   68.01    1.87
  -6  -2  -8   66.64    1.89
  -6   2  -8   65.78    1.96
   6   2   8   66.82    1.81
   6   2   8   65.22    1.84
  -7  -2  -8    6.44    0.36
   7  -2   8    6.35    0.27
  -7  -2  -8    6.90    0.31
   7  -2   8    6.51    0.34
   7   2   8    6.32    0.31
   7   2   8    6.13    0.28
  -7   2  -8    5.74    0.40
  -8  -2  -8    7.03    0.41
   8  -2   8    7.36    0.30
   8  -2   8    7.24    0.37
  -8  -2  -8    7.54    0.36
  -8   2  -8    7.27    0.46
   8   2   8    7.35    0.35
   9  -2   8    4.51    0.25
  -9  -2  -8    3.97    0.33
   9  -2   8    4.09    0.30
  -9   2  -8    3.87    0.38
   9   2   8    3.86    0.26
  10  -2   8   24.74    0.84
 -10  -2  -8   24.32    0.88
 -10   2  -8   24.46    0.94
  10   2   8   24.36    0.79
  11  -3  -8    0.43    0.15
 -11  -3   8    0.31    0.16
  11   3  -8    0.60    0.16
 -11   3   8    0.68    0.19
 -10  -3   8    7.20    0.39
  10  -3  -8    8.42    0.39
  10   3  -8    7.54    0.41
 -10   3   8    7.35    0.43
  -9  -3   8    0.79    0.16
  -9  -3   8    0.82    0.16
   9  -3  -8    0.87    0.17
   9   3  -8    0.85    0.14
  -9   3   8    0.87    0.20
   9   3  -8    0.92    0.15
  -8  -3   8   21.62    0.74
   8  -3  -8   22.00    0.73
  -8  -3   8   22.03    0.70
   8   3  -8   21.91    0.70
  -8   3   8   22.64    0.66
  -8   3   8   22.17    0.78
   8   3  -8   21.20    0.69
   7  -3  -8    0.40    0.11
  -7  -3   8    0.37    0.11
  -7  -3   8    0.23    0.12
  -7   3   8    0.41    0.13
  -7   3   8    0.41    0.09
   7   3  -8    0.32    0.10
   7   3  -8    0.42    0.12
  -6  -3   8   44.75    1.29
   6  -3  -8   43.76    1.28
  -6   3   8   45.44    1.33
  -6   3   8   44.85    1.23
   6   3  -8   44.20    1.27
   6   3  -8   45.19    1.24
  -5  -3   8    7.83    0.32
   5  -3  -8    7.26    0.33
  -5  -3   8    7.15    0.33
  -5   3   8    7.27    0.30
   5   3  -8    7.49    0.30
   5   3  -8    7.25    0.33
  -4  -3   8   73.52    1.87
   4  -3  -8   67.73    1.86
   4  -3  -8   67.03    1.87
  -4   3   8   68.68    1.93
   4   3  -8   69.02    1.88
  -4   3   8   69.71    1.85
  -3  -3   8   83.90    2.33
  -3  -3   8   88.66    2.29
   3  -3  -8   85.07    2.28
  -3   3   8   84.34    2.27
  -3   3   8   87.62    2.32
   3   3  -8   87.42    2.21
   2  -3  -8   82.83    2.24
  -2  -3   8   82.48    2.23
  -2  -3   8   85.99    2.23
  -2   3   8   85.10    2.22
  -2   3   8   86.91    2.24
   2   3  -8   78.34    2.23
  -1  -3   8   84.86    2.21
   1  -3  -8   82.13    2.22
   1   3  -8   82.77    2.22
  -1   3   8   86.68    2.21
  -1   3   8   80.29    2.20
   1   3  -8   79.86    2.20
   0  -3  -8   13.40    0.48
   0  -3  -8   13.27    0.40
   0  -3   8   13.13    0.46
   0   3  -8   12.51    0.49
   0   3   8   12.65    0.44
   0   3  -8   13.00    0.49
   0   3   8   12.23    0.45
  -1  -3  -8   58.76    1.66
  -1  -3  -8   64.23    1.61
   1  -3   8   56.27    1.65
  -1   3  -8   61.28    1.68
  -1   3  -8   58.19    1.70
   1   3   8   62.73    1.61
   1   3   8   60.20    1.64
  -2  -3  -8    4.48    0.24
  -2   3  -8    4.20    0.23
   2   3   8    4.33    0.20
  -2   3  -8    4.48    0.31
   3  -3   8    3.41    0.22
  -3  -3  -8    3.32    0.23
  -3  -3  -8    3.99    0.24
   3   3   8    3.81    0.19
  -3   3  -8    3.33    0.27
  -3   3  -8    3.42    0.20
  -4  -3  -8   95.53    2.63
   4  -3   8   98.29    2.64
   4  -3   8  101.65    2.51
  -4   3  -8   98.62    2.56
   4   3   8   97.23    2.64
   4   3   8  101.94    2.55
  -4   3  -8   98.32    2.73
  -5  -3  -8   18.38    0.63
   5  -3   8   17.64    0.63
  -5  -3  -8   18.01    0.66
   5  -3   8   18.85    0.54
  -5   3  -8   17.94    0.72
   5   3   8   18.72    0.59
  -5   3  -8   18.64    0.55
   5   3   8   19.30    0.56
  -6  -3  -8   19.30    0.71
   6  -3   8   19.61    0.68
   6   3   8   19.57    0.61
  -6   3  -8   19.33    0.77
   6   3   8   20.01    0.66
   7  -3   8    2.35    0.17
   7  -3   8    1.80    0.22
  -7  -3  -8    2.01    0.26
   7   3   8    2.34    0.22
   7   3   8    1.97    0.18
  -7   3  -8    2.41    0.31
   8  -3   8    1.58    0.23
   8  -3   8    1.91    0.18
  -8   3  -8    1.99    0.31
   9  -3   8    1.34    0.20
  -9  -3  -8    1.44    0.24
   9   3   8    1.41    0.21
  -9   3  -8    1.32    0.25
  10  -3   8    7.57    0.42
 -10  -3  -8    7.44    0.48
 -10   3  -8    7.14    0.52
  10   3   8    7.54    0.37
  10  -4  -8   29.33    0.93
 -10  -4   8   28.01    0.95
 -10   4   8   29.52    0.99
  10   4  -8   29.48    0.91
  -9  -4   8   14.62    0.58
   9  -4  -8   15.08    0.56
  -9   4   8   14.85    0.61
   9   4  -8   13.63    0.53
   9   4  -8   14.53    0.54
  -8  -4   8    8.54    0.41
   8  -4  -8    8.03    0.44
   8   4  -8    8.58    0.38
   8   4  -8    8.41    0.37
  -7  -4   8    0.58    0.14
   7  -4  -8    0.50    0.14
   7   4  -8    0.50    0.13
  -7   4   8    0.47    0.12
  -7   4   8    0.61    0.15
   7   4  -8    0.87    0.14
  -6  -4   8    3.40    0.23
  -6  -4   8    3.76    0.26
   6  -4  -8    3.62    0.25
   6   4  -8    3.75    0.23
  -6   4   8    3.33    0.22
  -6   4   8    3.16    0.26
   6   4  -8    3.14    0.25
  -5  -4   8   12.22    0.43
  -5  -4   8   12.01    0.48
   5  -4  -8   11.69    0.47
   5   4  -8   13.10    0.43
   5   4  -8   12.19    0.48
  -5   4   8   12.43    0.50
  -5   4   8   12.57    0.45
   4  -4  -8   66.71    1.91
  -4  -4   8   69.94    1.92
  -4  -4   8   71.89    1.87
  -4   4   8   68.60    1.88
   4   4  -8   72.68    1.84
  -4   4   8   70.02    1.93
   4   4  -8   68.97    1.92
  -3  -4   8   34.10    1.02
   3  -4  -8   34.30    1.02
  -3  -4   8   35.39    0.99
  -3   4   8   33.87    1.00
   3   4  -8   33.41    1.03
   3   4  -8   34.70    0.93
  -2  -4   8   11.60    0.45
   2  -4  -8   12.19    0.47
  -2  -4   8   11.58    0.43
   2   4  -8   11.15    0.45
  -2   4   8   12.16    0.44
  -1  -4   8   14.98    0.53
   1  -4  -8   15.42    0.46
  -1   4   8   15.20    0.53
   1   4  -8   15.31    0.54
  -1   4   8   15.14    0.51
   0  -4  -8   14.09    0.45
   0  -4  -8   13.03    0.50
   0  -4   8   13.88    0.50
   0   4   8   13.25    0.48
   0   4  -8   13.01    0.49
   0   4  -8   13.30    0.50
   0   4   8   13.37    0.45
  -1  -4  -8   10.82    0.44
   1  -4   8   11.24    0.43
  -1  -4  -8   11.51    0.41
  -1   4  -8   10.64    0.42
  -1   4  -8   10.42    0.50
   1   4   8   10.29    0.41
   1   4   8   11.18    0.38
  -2  -4  -8    3.51    0.24
   2  -4   8    3.16    0.23
  -2  -4  -8    3.35    0.24
   2   4   8    3.43    0.22
  -2   4  -8    3.32    0.27
  -2   4  -8    3.31    0.25
   2   4   8    3.36    0.18
   3  -4   8   48.39    1.43
  -3  -4  -8   51.79    1.45
  -3  -4  -8   49.31    1.44
   3   4   8   50.38    1.41
  -3   4  -8   49.30    1.50
   3   4   8   51.86    1.33
  -3   4  -8   52.61    1.43
  -4  -4  -8   54.53    1.61
  -4  -4  -8   56.59    1.61
   4  -4   8   56.66    1.60
  -4   4  -8   57.36    1.69
  -4   4  -8   57.83    1.54
   4   4   8   57.00    1.56
  -5  -4  -8    0.40    0.15
  -5  -4  -8    0.22    0.12
   5  -4   8    0.16    0.11
   5   4   8    0.22    0.10
  -5   4  -8    0.19    0.16
  -6  -4  -8   33.82    1.11
  -6  -4  -8   35.93    1.07
   6  -4   8   35.67    1.07
   6   4   8   35.02    1.01
  -6   4  -8   35.06    1.18
  -7  -4  -8    8.92    0.47
   7   4   8    8.56    0.46
   7   4   8    8.94    0.35
  -7   4  -8    9.11    0.52
  -8  -4  -8    0.21    0.18
   8  -4   8    0.06    0.13
   8   4   8    0.19    0.13
  -8   4  -8    0.33    0.19
   9  -4   8   15.44    0.59
  -9  -4  -8   14.21    0.65
  -9   4  -8   13.96    0.70
   9   4   8   15.28    0.57
  -9  -5   8    7.63    0.42
   9  -5  -8    7.75    0.39
  -9   5   8    7.86    0.44
   9   5  -8    7.76    0.39
   9   5  -8    8.11    0.39
  -8  -5   8    0.62    0.16
   8  -5  -8    0.53    0.15
   8   5  -8    0.28    0.15
   8   5  -8    0.26    0.15
  -8   5   8    0.32    0.16
   7  -5  -8   15.25    0.57
  -7  -5   8   15.47    0.60
   7   5  -8   14.68    0.57
  -7   5   8   16.14    0.53
   7   5  -8   15.99    0.55
   6  -5  -8    4.12    0.27
  -6  -5   8    4.27    0.29
   6   5  -8    4.36    0.26
   6   5  -8    4.38    0.30
  -6   5   8    4.54    0.31
  -6   5   8    4.43    0.25
   5  -5  -8   14.88    0.56
  -5  -5   8   15.55    0.58
  -5   5   8   16.10    0.54
  -5   5   8   15.34    0.58
   5   5  -8   15.79    0.58
   5   5  -8   16.16    0.53
  -4  -5   8    0.39    0.12
  -4  -5   8    0.47    0.11
   4  -5  -8    0.28    0.12
  -4   5   8    0.33    0.11
   4   5  -8    0.40    0.11
  -4   5   8    0.54    0.13
   4   5  -8    0.42    0.12
   3  -5  -8   37.06    1.12
  -3  -5   8   37.61    1.05
  -3  -5   8   36.41    1.11
  -3   5   8   36.55    1.09
  -3   5   8   37.77    1.09
   3   5  -8   37.25    1.12
   2  -5  -8   53.59    1.54
  -2  -5   8   53.89    1.48
  -2  -5   8   53.29    1.52
   2   5  -8   53.62    1.54
  -2   5   8   55.37    1.53
  -2   5   8   54.01    1.51
   1  -5  -8    8.86    0.38
   1  -5  -8    8.54    0.33
  -1  -5   8    7.82    0.37
  -1   5   8    8.07    0.36
   1   5  -8    7.72    0.35
   1   5  -8    7.99    0.38
  -1   5   8    8.26    0.34
   0  -5  -8    1.91    0.21
   0  -5  -8    1.99    0.20
   0  -5   8    1.85    0.19
   0   5  -8    1.62    0.20
   0   5   8    1.94    0.17
   0   5   8    1.96    0.18
   0   5  -8    2.05    0.22
  -1  -5  -8   12.06    0.48
  -1  -5  -8   11.99    0.45
   1  -5   8   11.98    0.47
   1   5   8   11.35    0.44
  -1   5  -8   11.39    0.46
  -1   5  -8   11.16    0.47
   2  -5   8   53.36    1.53
  -2  -5  -8   56.26    1.58
  -2  -5  -8   54.33    1.55
   2   5   8   53.54    1.51
  -2   5  -8   53.13    1.51
  -2   5  -8   53.50    1.57
   3  -5   8   40.62    1.19
  -3  -5  -8   41.17    1.21
  -3  -5  -8   40.00    1.20
  -3   5  -8   39.37    1.24
  -3   5  -8   40.34    1.16
   3   5   8   39.95    1.17
   4  -5   8   33.67    1.00
  -4  -5  -8   32.83    1.02
  -4  -5  -8   32.30    1.03
  -4   5  -8   32.00    1.07
  -4   5  -8   31.24    0.95
   4   5   8   32.37    0.97
  -5  -5  -8    4.75    0.30
   5  -5   8    4.67    0.29
  -5  -5  -8    4.54    0.35
  -5   5  -8    4.95    0.27
   5   5   8    4.77    0.27
  -5   5  -8    5.16    0.38
  -6  -5  -8    1.98    0.24
  -6  -5  -8    2.56    0.31
   6  -5   8    2.02    0.23
  -6   5  -8    1.98    0.31
   6   5   8    2.22    0.20
   7  -5   8    0.39    0.15
  -7  -5  -8    0.73    0.21
   7   5   8    0.37    0.14
  -7   5  -8    0.76    0.22
   7   5   8    0.36    0.12
   8  -5   8    0.66    0.17
  -8  -5  -8    0.76    0.23
  -8   5  -8    0.80    0.23
   8   5   8    0.72    0.16
   7  -6  -8    0.11    0.14
  -7  -6   8    0.44    0.16
  -7   6   8   -0.01    0.15
   7   6  -8    0.10    0.14
  -6  -6   8   16.25    0.63
   6  -6  -8   15.88    0.60
  -6   6   8   16.33    0.56
   6   6  -8   17.28    0.63
  -5  -6   8    0.28    0.14
   5  -6  -8    0.63    0.16
  -5   6   8    0.32    0.13
  -5   6   8    0.47    0.14
   5   6  -8    0.55    0.15
  -4   6   8   74.61    2.06
  -4   6   8   77.10    2.06
  -3  -6   8    1.14    0.17
   3  -6  -8    0.78    0.17
   3   6  -8    0.70    0.16
  -3   6   8    0.72    0.14
  -3   6   8    0.68    0.13
  -2  -6   8    0.33    0.12
   2  -6  -8    0.14    0.12
  -2   6   8    0.25    0.12
   2   6  -8    0.31    0.13
  -2   6   8    0.11    0.11
  -1  -6   8   10.76    0.45
   1  -6  -8   10.96    0.47
   1   6  -8   10.79    0.47
   1   6  -8   10.50    0.42
  -1   6   8   10.82    0.44
   0  -6   8   13.33    0.51
   0  -6  -8   13.59    0.53
   0   6  -8   13.32    0.52
   0   6  -8   12.85    0.50
   0   6   8   13.28    0.50
  -1  -6  -8   12.47    0.51
  -1  -6  -8   12.56    0.50
   1  -6   8   12.51    0.49
  -1   6  -8   12.11    0.50
   1   6   8   12.47    0.48
  -1   6  -8   13.13    0.51
  -2  -6  -8   17.83    0.64
  -2  -6  -8   17.32    0.64
   2  -6   8   17.55    0.62
  -2   6  -8   17.40    0.62
  -2   6  -8   17.42    0.66
   2   6   8   18.07    0.62
  -3  -6  -8    3.84    0.38
  -3  -6  -8    4.24    0.33
  -3   6  -8    4.21    0.32
  -3   6  -8    4.43    0.30
   4  -6   8    5.28    0.31
  -4  -6  -8    5.27    0.37
  -4  -6  -8    4.90    0.33
  -4   6  -8    4.89    0.37
   4   6   8    5.25    0.29
  -4   6  -8    4.95    0.31
   5  -6   8    0.96    0.17
  -5  -6  -8    0.78    0.21
  -5  -6  -8    0.78    0.16
  -5   6  -8    1.01    0.22
   5   6   8    1.15    0.16
   6  -6   8    4.52    0.32
  -6  -6  -8    4.18    0.31
  -6  -6  -8    4.58    0.38
   6   6   8    4.57    0.28
  -6   6  -8    4.44    0.40
  -5  -7   8    4.37    0.33
   5  -7  -8    3.80    0.30
   5   7  -8    4.75    0.33
  -5   7   8    3.72    0.33
  -5   7   8    4.10    0.28
  -4  -7   8    7.71    0.40
   4  -7  -8    7.14    0.40
  -4   7   8    7.81    0.37
   4   7  -8    8.17    0.42
  -3  -7   8    8.21    0.40
   3  -7  -8    8.02    0.40
   3   7  -8    8.47    0.42
  -3   7   8    8.37    0.39
  -2  -7   8   13.45    0.54
   2  -7  -8   13.12    0.55
   2   7  -8   14.04    0.56
  -2   7   8   13.98    0.52
   1  -7  -8    4.61    0.33
  -1  -7   8    5.73    0.32
   1   7  -8    5.32    0.34
  -1   7   8    4.77    0.30
   0  -7  -8    4.10    0.32
   0  -7   8    3.97    0.28
   0   7   8    3.94    0.28
   0   7  -8    4.33    0.32
   1  -7   8    0.14    0.14
  -1  -7  -8    0.36    0.15
   1   7   8    0.20    0.12
  -2  -7  -8   42.67    1.27
   2  -7   8   42.17    1.25
   2   7   8   42.69    1.24
  -2   7  -8   42.19    1.27
  -2   7  -8   42.72    1.26
  -3  -7  -8    3.81    0.31
   3  -7   8    3.62    0.27
   3   7   8    4.11    0.27
  -3   7  -8    3.76    0.31
  -3   7  -8    3.28    0.38
   4  -7   8    0.25    0.13
  -4  -7  -8    0.23    0.22
  -4  -7  -8    0.08    0.15
  -4   7  -8    0.23    0.18
   4   7   8    0.21    0.13
  -4   7  -8    0.34    0.17
 -11   0   9   23.05    0.80
  11   0  -9   23.29    0.77
 -10   0   9    0.30    0.13
 -10   0   9    0.55    0.16
   9   0  -9    1.56    0.19
   9   0  -9    1.91    0.18
  -9   0   9    1.66    0.20
  -9   0   9    1.60    0.22
  -8   0   9    0.26    0.12
   8   0  -9    0.20    0.11
  -8   0   9    0.42    0.11
   8   0  -9    0.31    0.10
   7   0  -9    6.57    0.28
   7   0  -9    6.35    0.30
  -7   0   9    6.76    0.28
  -7   0   9    6.51    0.34
  -6   0   9    0.35    0.11
   6   0  -9    0.29    0.14
  -6   0   9    0.43    0.09
   5   0  -9   80.39    2.08
   5   0  -9   76.73    2.08
  -5   0   9   81.17    2.04
  -5   0   9   75.21    2.14
  -4   0   9    0.09    0.06
   4   0  -9    0.26    0.08
   4   0  -9    0.07    0.07
  -4   0   9    0.03    0.08
   3   0  -9  228.52    5.85
  -3   0   9  231.53    5.93
  -3   0   9  230.33    5.83
   3   0  -9  236.73    5.90
  -2   0   9    0.35    0.06
  -2   0   9    0.34    0.09
   2   0  -9    0.30    0.08
  -1   0   9   97.07    2.46
   1   0  -9   97.07    2.46
  -1   0   9   93.47    2.54
   0   0  -9    0.37    0.07
   0   0   9    0.39    0.07
   0   0  -9    0.33    0.08
  -1   0  -9    0.57    0.12
  -1   0  -9    0.82    0.10
  -1   0  -9    0.57    0.09
  -2   0  -9    0.43    0.08
  -2   0  -9    0.34    0.11
   2   0   9    0.37    0.08
  -3   0  -9   27.23    0.91
   3   0   9   27.07    0.78
  -3   0  -9   28.19    0.79
   3   0   9   27.35    0.83
   4   0   9    0.52    0.09
  -4   0  -9    0.41    0.08
  -4   0  -9    0.36    0.12
  -4   0  -9    0.45    0.10
  -5   0  -9   55.64    1.42
  -5   0  -9   52.18    1.51
  -5   0  -9   52.76    1.55
  -6   0  -9    0.31    0.13
  -6   0  -9    0.13    0.11
   6   0   9    0.30    0.08
  -7   0  -9   12.78    0.52
  -7   0  -9   12.56    0.54
   7   0   9   12.46    0.44
   8   0   9    0.16    0.09
  -8   0  -9    0.13    0.12
  -8   0  -9    0.00    0.14
  -9   0  -9   50.78    1.48
  -9   0  -9   48.61    1.49
   9   0   9   50.11    1.39
  10   0   9    0.12    0.11
 -10   0  -9    0.30    0.19
 -10   0  -9    0.36    0.16
 -11  -1   9   52.24    1.72
 -11  -1   9   47.95    1.41
  11  -1  -9   48.67    1.43
 -11   1   9   50.35    1.49
  11   1  -9   50.73    1.43
 -10  -1   9    0.59    0.14
 -10  -1   9    0.41    0.15
  10  -1  -9    0.37    0.12
  10   1  -9    0.53    0.14
 -10   1   9    0.35    0.21
  -9  -1   9    8.57    0.37
  -9  -1   9    7.96    0.40
   9  -1  -9    9.01    0.38
   9   1  -9    7.81    0.37
  -9   1   9    8.59    0.42
   9   1  -9    8.35    0.33
   8  -1  -9    2.23    0.18
   8  -1  -9    2.26    0.20
  -8  -1   9    2.13    0.19
  -8   1   9    2.13    0.22
  -8   1   9    2.38    0.18
   8   1  -9    1.98    0.20
   8   1  -9    2.39    0.18
  -7  -1   9  134.58    3.47
   7  -1  -9  128.90    3.48
  -7  -1   9  133.02    3.52
   7  -1  -9  131.93    3.49
   7   1  -9  138.32    3.48
  -7   1   9  131.87    3.55
  -7   1   9  138.95    3.42
  -6  -1   9    8.13    0.32
  -6  -1   9    7.54    0.36
   6  -1  -9    7.96    0.34
  -6   1   9    8.07    0.28
   6   1  -9    7.80    0.32
   6   1  -9    8.18    0.33
  -6   1   9    7.89    0.37
   5  -1  -9    0.29    0.09
   5  -1  -9    0.28    0.10
  -5  -1   9    0.24    0.08
  -5  -1   9    0.06    0.10
   5   1  -9    0.36    0.09
   5   1  -9    0.16    0.07
  -5   1   9    0.04    0.09
  -4  -1   9    1.44    0.19
   4  -1  -9    1.88    0.15
   4  -1  -9    1.92    0.15
  -4  -1   9    2.00    0.14
   4   1  -9    1.82    0.13
  -4   1   9    2.00    0.19
   3  -1  -9    0.39    0.08
   3  -1  -9    0.46    0.09
  -3  -1   9    0.34    0.07
  -3   1   9    0.78    0.13
   3   1  -9    0.39    0.09
  -2  -1   9   32.53    0.93
  -2  -1   9   33.63    0.99
   2  -1  -9   33.53    0.97
   2  -1  -9   34.16    0.95
   2   1  -9   33.73    0.90
   2   1  -9   34.68    0.98
  -2   1   9   33.64    0.99
   1  -1  -9   18.33    0.56
  -1  -1   9   16.95    0.48
   1  -1  -9   17.82    0.57
  -1  -1   9   18.23    0.55
  -1  -1   9   18.50    0.60
   1   1  -9   17.45    0.49
  -1   1   9   18.42    0.59
  -1   1   9   18.05    0.50
  -1   1   9   17.92    0.49
   0  -1  -9    1.76    0.14
   0  -1  -9    2.14    0.15
   0  -1   9    2.24    0.14
   0   1   9    1.86    0.11
   0   1   9    1.63    0.16
   1  -1   9    1.29    0.13
  -1  -1  -9    1.19    0.13
   1  -1   9    1.70    0.08
  -1  -1  -9    1.34    0.14
  -1   1  -9    1.91    0.14
   1   1   9    1.28    0.14
  -1   1  -9    1.97    0.18
  -2  -1  -9  103.71    2.67
   2  -1   9   98.05    2.59
  -2  -1  -9  103.84    2.70
  -2  -1  -9  103.82    2.66
   2  -1   9  102.81    2.68
  -2  -1  -9  101.29    2.66
  -2   1  -9  101.66    2.65
  -3  -1  -9  210.62    5.32
   3  -1   9  198.95    5.38
  -3  -1  -9  211.71    5.34
   3  -1   9  213.11    5.26
  -3  -1  -9  217.91    5.37
  -3  -1  -9  205.14    5.31
  -3   1  -9  212.05    5.29
  -3   1  -9  202.73    5.42
  -4  -1  -9    7.51    0.29
  -4  -1  -9    6.71    0.32
   4  -1   9    7.38    0.27
   4  -1   9    7.84    0.33
  -4  -1  -9    7.13    0.34
  -4   1  -9    7.42    0.27
  -4   1  -9    6.80    0.37
  -5  -1  -9  107.38    2.86
  -5  -1  -9  108.09    2.85
   5  -1   9  107.23    2.85
   5  -1   9  107.90    2.76
  -5   1  -9  111.43    2.75
   5   1   9  110.23    2.76
   5   1   9  100.63    2.84
  -5   1  -9  104.59    2.92
   6  -1   9   23.96    0.80
  -6  -1  -9   25.19    0.81
   6  -1   9   24.56    0.72
  -6  -1  -9   23.58    0.81
  -6   1  -9   23.96    0.86
   6   1   9   25.51    0.71
   6   1   9   24.20    0.75
  -6   1  -9   26.24    0.68
  -7  -1  -9    1.32    0.19
   7  -1   9    0.83    0.12
  -7  -1  -9    0.71    0.16
   7  -1   9    0.95    0.16
   7   1   9    1.03    0.16
  -7   1  -9    0.83    0.20
  -8  -1  -9    7.65    0.39
  -8  -1  -9    7.69    0.41
   8  -1   9    7.29    0.32
   8  -1   9    8.24    0.39
   8   1   9    7.34    0.34
  -8   1  -9    7.61    0.45
  -9  -1  -9   20.91    0.76
   9  -1   9   20.66    0.65
  -9  -1  -9   20.87    0.73
   9  -1   9   20.98    0.73
   9   1   9   19.88    0.75
  10  -1   9    1.55    0.19
 -10  -1  -9    1.50    0.24
 -10  -1  -9    1.23    0.32
  10  -1   9    1.29    0.20
  10   1   9    1.47    0.21
 -10   1  -9    1.55    0.25
  11  -2  -9    1.75    0.25
 -11  -2   9    2.41    0.26
 -11  -2   9    2.39    0.26
  11   2  -9    2.82    0.27
 -11   2   9    2.89    0.31
 -10  -2   9   27.56    0.87
 -10  -2   9   25.89    0.87
  10  -2  -9   28.37    0.88
 -10   2   9   27.75    0.93
  10   2  -9   28.35    1.06
   9  -2  -9    2.04    0.21
  -9  -2   9    2.18    0.22
  -9  -2   9    2.56    0.24
   9   2  -9    1.94    0.20
  -9   2   9    2.54    0.25
   9   2  -9    2.44    0.22
  -8  -2   9   29.79    0.92
   8  -2  -9   29.15    0.85
  -8  -2   9   29.70    0.91
   8  -2  -9   29.93    0.92
   8   2  -9   28.95    0.87
   8   2  -9   30.22    0.89
  -8   2   9   30.25    0.97
   7  -2  -9   16.78    0.59
  -7  -2   9   16.89    0.59
  -7  -2   9   16.76    0.58
   7  -2  -9   16.97    0.54
  -7   2   9   16.78    0.63
   7   2  -9   17.02    0.56
   7   2  -9   17.09    0.56
   6  -2  -9   23.26    0.72
   6  -2  -9   24.12    0.75
   6   2  -9   23.13    0.71
   6   2  -9   23.96    0.74
  -6   2   9   24.33    0.80
   5  -2  -9   71.28    1.99
  -5  -2   9   75.82    1.98
  -5  -2   9   72.92    2.00
   5  -2  -9   73.20    1.97
  -5   2   9   74.46    2.04
   5   2  -9   72.14    2.03
   5   2  -9   76.94    1.95
   4  -2  -9    6.26    0.32
  -4  -2   9    6.31    0.27
  -4  -2   9    6.47    0.33
   4   2  -9    6.75    0.25
  -3  -2   9   25.75    0.77
  -3  -2   9   25.57    0.79
   3   2  -9   25.97    0.71
  -3   2   9   25.84    0.82
   2  -2  -9    8.27    0.34
  -2  -2   9    9.54    0.36
  -2  -2   9    8.27    0.33
  -2   2   9    8.23    0.35
   2   2  -9    9.10    0.39
  -1  -2   9  111.62    2.86
   1  -2  -9  110.46    2.88
   1   2  -9  109.55    2.92
  -1   2   9  107.79    2.88
   1   2  -9  110.47    2.91
   0  -2  -9   12.04    0.35
   0  -2   9   11.46    0.42
   0  -2  -9   11.26    0.42
   0   2   9   11.18    0.41
   0   2  -9   11.90    0.42
   0   2  -9   11.26    0.45
  -1  -2  -9   21.36    0.61
   1  -2   9   20.78    0.65
  -1  -2  -9   19.95    0.65
  -1   2  -9   21.03    0.64
  -1   2  -9   19.15    0.78
   1   2   9   20.13    0.63
  -2  -2  -9   29.26    0.82
   2  -2   9   26.98    0.83
  -2   2  -9   27.78    0.81
   2   2   9   26.96    0.81
  -3  -2  -9   66.47    1.72
   3  -2   9   63.20    1.61
  -3  -2  -9   65.07    1.73
   3  -2   9   58.94    1.77
   3   2   9   61.06    1.72
  -3   2  -9   65.52    1.68
  -3   2  -9   60.94    1.81
   4  -2   9    0.30    0.07
  -4  -2  -9    0.63    0.13
   4  -2   9    0.30    0.10
  -4  -2  -9    0.41    0.11
   4   2   9    0.35    0.08
  -4   2  -9    0.20    0.12
  -4   2  -9    0.35    0.09
   5  -2   9   46.50    1.24
  -5  -2  -9   44.57    1.34
   5  -2   9   46.36    1.34
  -5  -2  -9   49.71    1.32
   5   2   9   46.35    1.27
   5   2   9   45.07    1.31
  -5   2  -9   45.03    1.43
  -5   2  -9   48.13    1.24
  -6  -2  -9   45.64    1.37
  -6  -2  -9   47.88    1.31
   6  -2   9   46.52    1.35
  -6   2  -9   46.67    1.45
   6   2   9   46.33    1.26
   6   2   9   45.37    1.32
   7  -2   9    8.01    0.31
  -7  -2  -9    8.92    0.38
   7  -2   9    8.52    0.39
  -7  -2  -9    7.71    0.41
   7   2   9    8.60    0.37
  -7   2  -9    8.21    0.49
   7   2   9    8.06    0.31
  -8  -2  -9   21.29    0.69
   8  -2   9   19.57    0.62
  -8  -2  -9   19.32    0.73
   8   2   9   20.73    0.68
  -8   2  -9   19.64    0.81
   9  -2   9   23.36    0.79
   9  -2   9   22.79    0.69
  -9  -2  -9   21.92    0.81
   9   2   9   22.32    0.74
  -9   2  -9   22.73    0.89
  10  -2   9    4.04    0.26
 -10  -2  -9    3.89    0.36
  10  -2   9    4.14    0.32
 -10   2  -9    3.70    0.42
  10   2   9    3.79    0.28
  11  -3  -9    7.79    0.40
 -11  -3   9    7.41    0.41
  11   3  -9    8.21    0.40
 -10  -3   9   21.36    0.76
  10  -3  -9   22.02    0.75
  10   3  -9   23.17    0.74
 -10   3   9   22.62    0.81
  -9  -3   9    7.02    0.34
  -9  -3   9    6.69    0.36
   9  -3  -9    6.49    0.35
   9   3  -9    7.01    0.34
  -9   3   9    7.77    0.41
   9   3  -9    6.58    0.32
  -8  -3   9   27.54    0.89
  -8  -3   9   28.07    0.86
   8  -3  -9   28.42    0.89
   8   3  -9   27.36    0.85
  -8   3   9   28.77    0.94
   8   3  -9   28.82    0.86
  -8   3   9   28.01    0.81
  -7  -3   9   33.85    0.99
   7  -3  -9   32.95    1.00
  -7  -3   9   33.38    1.01
   7   3  -9   32.42    0.99
   7   3  -9   33.11    0.96
  -7   3   9   33.29    1.05
  -7   3   9   32.97    0.95
  -6  -3   9    3.78    0.25
   6  -3  -9    3.57    0.24
  -6  -3   9    3.89    0.24
   6   3  -9    3.45    0.24
  -6   3   9    3.65    0.22
  -6   3   9    3.82    0.26
   6   3  -9    3.85    0.22
   5  -3  -9   26.75    0.82
  -5  -3   9   26.07    0.81
   5  -3  -9   24.84    0.78
  -5  -3   9   26.48    0.80
   5   3  -9   26.99    0.76
  -5   3   9   26.75    0.85
   5   3  -9   24.85    0.81
   4  -3  -9    7.03    0.35
   4  -3  -9    7.43    0.33
  -4  -3   9    7.81    0.34
  -4   3   9    7.63    0.36
   4   3  -9    7.61    0.28
   4   3  -9    7.97    0.35
  -3  -3   9   63.86    1.68
   3  -3  -9   59.51    1.68
   3  -3  -9   59.92    1.76
   3   3  -9   60.90    1.57
  -3   3   9   62.25    1.70
   3   3  -9   59.30    1.68
  -2  -3   9    5.20    0.26
  -2  -3   9    5.26    0.29
   2  -3  -9    4.88    0.30
   2   3  -9    5.58    0.27
   1  -3  -9   69.79    1.90
  -1  -3   9   64.89    1.83
  -1   3   9   68.61    1.84
   0  -3  -9   40.16    1.18
   0  -3  -9   39.78    1.04
   0  -3   9   38.28    1.13
   0   3   9   37.99    1.16
   0   3   9   39.69    1.10
   0   3  -9   38.01    1.16
  -1  -3  -9  103.16    2.61
   1  -3   9   99.69    2.71
  -1   3  -9   99.47    2.78
  -1   3  -9  101.48    2.65
   1   3   9   97.12    2.64
   1   3   9  102.36    2.62
  -2  -3  -9   16.82    0.60
  -2  -3  -9   18.73    0.58
  -2   3  -9   17.95    0.67
   2   3   9   17.68    0.55
   2   3   9   17.47    0.58
  -2   3  -9   17.93    0.58
  -3  -3  -9   12.30    0.47
   3  -3   9   12.46    0.47
  -3   3  -9   11.92    0.53
   3   3   9   12.83    0.42
   3   3   9   12.35    0.44
   4  -3   9    2.10    0.11
   4  -3   9    1.93    0.18
  -4  -3  -9    1.83    0.19
  -4  -3  -9    2.00    0.21
   4   3   9    2.08    0.18
  -4   3  -9    2.06    0.17
  -4   3  -9    2.04    0.26
   4   3   9    1.68    0.15
  -5  -3  -9   18.97    0.68
   5  -3   9   18.62    0.65
   5  -3   9   19.27    0.54
  -5  -3  -9   18.52    0.64
  -5   3  -9   19.49    0.57
   5   3   9   19.45    0.58
   5   3   9   18.63    0.60
  -5   3  -9   18.91    0.75
   6  -3   9    6.25    0.26
   6  -3   9    6.30    0.33
  -6  -3  -9    6.02    0.36
   6   3   9    6.39    0.28
   6   3   9    6.07    0.31
  -6   3  -9    6.10    0.42
   7  -3   9   36.52    1.11
  -7  -3  -9   34.51    1.14
  -7   3  -9   36.53    1.23
   7   3   9   36.42    1.02
   7   3   9   37.28    1.09
   8  -3   9   41.92    1.23
  -8  -3  -9   39.45    1.27
   8   3   9   41.16    1.20
  -8   3  -9   40.21    1.35
   9  -3   9   11.07    0.49
  -9  -3  -9    9.97    0.53
   9   3   9   10.80    0.46
  -9   3  -9   11.44    0.61
  10  -4  -9    9.77    0.45
 -10  -4   9   10.02    0.46
 -10   4   9    9.72    0.50
  10   4  -9    9.52    0.43
  -9  -4   9    1.85    0.25
   9  -4  -9    2.03    0.24
   9   4  -9    1.88    0.24
  -9   4   9    1.86    0.27
   9   4  -9    2.07    0.23
  -8  -4   9    0.54    0.15
   8  -4  -9    0.25    0.13
  -8   4   9    0.42    0.15
   8   4  -9    0.27    0.13
   8   4  -9    0.30    0.14
  -7  -4   9   55.00    1.57
   7  -4  -9   56.36    1.57
  -7   4   9   55.66    1.51
  -7   4   9   53.96    1.60
   7   4  -9   54.48    1.55
   7   4  -9   55.93    1.52
   6  -4  -9    8.21    0.38
  -6  -4   9    8.35    0.35
  -6  -4   9    8.52    0.39
  -6   4   9    8.39    0.40
  -6   4   9    8.57    0.35
   6   4  -9    8.79    0.39
  -5  -4   9    7.99    0.37
  -5  -4   9    8.20    0.34
   5  -4  -9    8.31    0.37
  -5   4   9    8.28    0.34
   5   4  -9    8.21    0.38
  -5   4   9    8.28    0.39
   5   4  -9    8.61    0.32
  -4  -4   9   30.87    0.94
   4  -4  -9   29.46    0.93
  -4  -4   9   31.20    0.94
   4   4  -9   29.81    0.94
   4   4  -9   31.42    0.85
  -4   4   9   29.99    0.91
  -4   4   9   31.28    0.95
  -3  -4   9    9.64    0.40
  -3  -4   9   10.17    0.39
   3  -4  -9    9.95    0.41
   3   4  -9   10.08    0.42
  -3   4   9   10.02    0.39
  -3   4   9    9.83    0.41
   3   4  -9   10.39    0.32
  -2  -4   9    5.55    0.28
  -2  -4   9    5.45    0.29
   2  -4  -9    5.59    0.31
  -2   4   9    6.31    0.29
   2   4  -9    6.51    0.32
  -2   4   9    5.74    0.28
  -1  -4   9   68.09    1.86
   1  -4  -9   68.10    1.88
   1   4  -9   67.36    1.87
   1   4  -9   67.21    1.87
  -1   4   9   69.84    1.84
   0  -4  -9   13.86    0.43
   0  -4  -9   12.37    0.49
   0  -4   9   12.61    0.48
   0   4  -9   12.35    0.49
   0   4   9   12.62    0.44
   0   4   9   12.66    0.46
   0   4  -9   12.33    0.48
   1  -4   9   25.36    0.84
  -1  -4  -9   28.38    0.81
   1   4   9   28.47    0.80
   1   4   9   26.75    0.83
  -1   4  -9   27.07    0.84
  -1   4  -9   27.25    0.88
  -2  -4  -9   32.59    1.00
   2  -4   9   32.89    0.99
  -2  -4  -9   33.30    0.97
   2   4   9   32.53    0.90
  -2   4  -9   32.19    0.96
  -2   4  -9   32.67    1.05
   2   4   9   31.18    0.96
  -3  -4  -9    4.00    0.26
   3  -4   9    3.94    0.25
  -3  -4  -9    4.50    0.31
  -3   4  -9    4.18    0.25
   3   4   9    4.23    0.24
   3   4   9    4.30    0.21
  -3   4  -9    4.31    0.32
  -4  -4  -9   24.91    0.82
  -4  -4  -9   24.77    0.81
   4  -4   9   25.50    0.81
  -4   4  -9   24.87    0.89
   4   4   9   24.59    0.77
  -5  -4  -9    0.17    0.15
   5  -4   9    0.11    0.10
  -5  -4  -9    0.06    0.11
  -5   4  -9    0.58    0.18
   5   4   9    0.26    0.10
  -5   4  -9    0.14    0.09
  -6  -4  -9   47.36    1.38
   6  -4   9   49.22    1.39
  -6  -4  -9   45.60    1.42
  -6   4  -9   47.06    1.49
   6   4   9   47.00    1.32
   7  -4   9   42.17    1.23
  -7  -4  -9   38.91    1.32
   7   4   9   39.91    1.14
  -7   4  -9   40.68    1.35
   7   4   9   41.72    1.21
   8  -4   9    1.62    0.24
  -8  -4  -9    2.30    0.32
  -8   4  -9    1.81    0.29
   8   4   9    1.69    0.23
   9  -4   9   11.04    0.50
   9   4   9   11.08    0.47
   9  -5  -9   47.88    1.42
  -9  -5   9   50.02    1.46
  -9   5   9   49.62    1.47
   9   5  -9   48.22    1.41
   8  -5  -9    7.94    0.40
  -8  -5   9    8.14    0.42
  -8   5   9    8.51    0.44
   8   5  -9    8.31    0.41
   7  -5  -9    3.49    0.27
  -7  -5   9    3.49    0.29
  -7   5   9    3.81    0.24
  -7   5   9    3.60    0.30
  -6  -5   9    1.11    0.18
  -6   5   9    1.04    0.15
   6   5  -9    1.00    0.18
  -6   5   9    1.00    0.17
  -5  -5   9    1.34    0.20
   5  -5  -9    1.17    0.17
   5   5  -9    1.90    0.24
  -5   5   9    1.28    0.18
  -5   5   9    1.26    0.19
  -4  -5   9   29.22    0.85
   4  -5  -9   28.60    0.91
  -4  -5   9   28.75    0.91
   4   5  -9   29.66    0.93
  -4   5   9   29.16    0.89
  -4   5   9   28.19    0.90
  -3  -5   9    5.51    0.31
  -3  -5   9    5.43    0.27
   3  -5  -9    5.35    0.31
   3   5  -9    5.22    0.32
  -3   5   9    5.11    0.29
  -3   5   9    5.58    0.29
  -2  -5   9    9.59    0.41
   2  -5  -9    8.64    0.41
  -2   5   9    9.26    0.39
   2   5  -9    9.89    0.43
  -2   5   9    9.28    0.38
   1  -5  -9    1.62    0.20
  -1  -5   9    1.35    0.18
   1   5  -9    1.51    0.19
   1   5  -9    1.53    0.21
  -1   5   9    1.46    0.18
  -1   5   9    1.34    0.17
   0  -5  -9   38.76    1.04
   0  -5  -9   35.60    1.10
   0  -5   9   34.87    1.07
   0   5   9   37.08    1.08
   0   5   9   35.89    1.01
   0   5  -9   34.39    1.08
   0   5  -9   35.85    1.09
   1  -5   9   51.31    1.44
  -1  -5  -9   51.39    1.40
  -1  -5  -9   50.27    1.46
   1   5   9   50.10    1.42
  -1   5  -9   48.09    1.42
  -1   5  -9   49.65    1.46
   2  -5   9   29.32    0.91
  -2  -5  -9   28.33    0.92
  -2  -5  -9   30.92    0.96
  -2   5  -9   28.30    0.89
  -2   5  -9   28.47    0.95
   2   5   9   28.59    0.89
   3  -5   9    2.08    0.21
  -3  -5  -9    2.17    0.27
  -3  -5  -9    2.39    0.23
  -3   5  -9    2.02    0.22
  -3   5  -9    2.75    0.29
   3   5   9    2.82    0.21
  -4  -5  -9    0.90    0.19
   4  -5   9    0.97    0.15
  -4  -5  -9    0.99    0.18
   4   5   9    0.92    0.15
  -4   5  -9    1.05    0.16
  -4   5  -9    0.94    0.20
   5  -5   9   20.68    0.85
  -5  -5  -9   22.06    0.78
  -5  -5  -9   20.94    0.75
   5   5   9   21.48    0.69
  -5   5  -9   20.82    0.86
  -6  -5  -9   14.84    0.58
  -6  -5  -9   14.23    0.61
   6  -5   9   15.24    0.57
  -6   5  -9   14.21    0.65
   6   5   9   14.23    0.51
   7  -5   9   25.44    0.82
  -7  -5  -9   23.64    0.87
   7   5   9   24.31    0.80
  -7   5  -9   24.02    0.92
  -7  -6   9    0.18    0.15
   7  -6  -9    0.00    0.12
   7   6  -9    0.58    0.17
  -7   6   9    0.25    0.16
  -6  -6   9   24.49    0.81
   6  -6  -9   22.15    0.77
   6   6  -9   24.03    0.80
  -6   6   9   23.25    0.80
  -6   6   9   23.74    0.75
  -5  -6   9    1.45    0.23
   5  -6  -9    1.48    0.22
  -5   6   9    1.43    0.23
  -5   6   9    1.37    0.20
   5   6  -9    1.12    0.19
  -4  -6   9    5.14    0.32
   4  -6  -9    5.08    0.32
  -4   6   9    4.82    0.30
   4   6  -9    5.26    0.35
  -4   6   9    5.23    0.29
  -3   6   9   44.78    1.29
  -3   6   9   46.08    1.31
  -2  -6   9   12.37    0.51
  -2  -6   9   12.70    0.50
   2  -6  -9   12.32    0.51
  -2   6   9   12.58    0.49
   2   6  -9   12.65    0.52
  -2   6   9   12.49    0.46
   1  -6  -9   32.55    1.03
  -1  -6   9   34.91    1.03
  -1   6   9   33.90    1.01
   1   6  -9   33.00    1.04
   1   6  -9   32.43    0.99
   0  -6  -9    2.54    0.25
   0  -6   9    3.03    0.24
   0   6   9    2.90    0.23
   0   6  -9    2.40    0.25
   0   6  -9    3.43    0.28
  -1  -6  -9    0.46    0.16
   1  -6   9    0.24    0.12
  -1   6  -9    0.16    0.14
   1   6   9    0.24    0.11
  -1   6  -9    0.23    0.14
   2  -6   9   29.77    1.09
  -2  -6  -9   32.45    1.04
  -2  -6  -9   27.43    1.05
  -2   6  -9   32.08    1.00
  -2   6  -9   31.76    0.96
  -3  -6  -9   12.19    0.53
  -3  -6  -9   12.46    0.51
   3  -6   9   12.63    0.50
   3   6   9   12.48    0.48
  -3   6  -9   11.82    0.49
  -3   6  -9   12.21    0.55
   4  -6   9    3.90    0.28
  -4  -6  -9    3.54    0.30
  -4  -6  -9    3.77    0.35
  -4   6  -9    3.95    0.34
  -4   6  -9    4.00    0.29
   4   6   9    3.91    0.26
  -5  -6  -9   17.43    0.65
   5  -6   9   18.17    0.64
  -5  -6  -9   16.98    0.73
  -5   6  -9   18.13    0.72
   5   6   9   17.51    0.60
   6  -6   9    3.52    0.30
  -6  -6  -9    3.03    0.37
  -6  -6  -9    3.31    0.30
  -6   6  -9    3.24    0.37
   6   6   9    3.15    0.25
  -5  -7   9    2.76    0.29
   5  -7  -9    2.84    0.29
  -5   7   9    3.15    0.27
   5   7  -9    3.46    0.33
  -5   7   9    3.59    0.41
  -4  -7   9   49.41    1.43
   4  -7  -9   47.90    1.43
   4   7  -9   47.89    1.44
  -4   7   9   49.05    1.39
  -3  -7   9    9.68    0.44
   3  -7  -9    9.30    0.45
  -3   7   9    9.87    0.42
   3   7  -9    9.87    0.46
   2  -7  -9    2.82    0.28
  -2  -7   9    3.01    0.26
   2   7  -9    3.01    0.29
  -2   7   9    2.62    0.24
   1  -7  -9    4.45    0.33
  -1  -7   9    4.79    0.30
   1   7  -9    4.75    0.34
  -1   7   9    4.38    0.33
   0  -7  -9    2.98    0.29
   0  -7   9    2.88    0.27
   0   7  -9    3.48    0.30
   0   7   9    3.05    0.25
   1  -7   9    2.68    0.26
  -1  -7  -9    2.97    0.29
  -1   7  -9    3.02    0.31
   1   7   9    2.67    0.26
  -1   7  -9    2.94    0.33
   2  -7   9    3.74    0.28
  -2  -7  -9    3.63    0.30
  -2   7  -9    3.79    0.32
   2   7   9    3.87    0.28
  -2   7  -9    3.33    0.33
   3  -7   9   16.38    0.61
  -3  -7  -9   16.45    0.63
   3   7   9   16.37    0.59
  -3   7  -9   16.82    0.62
  -3   7  -9   16.03    0.65
  11   0 -10   -0.13    0.13
 -11   0  10    0.23    0.15
  10   0 -10   39.12    1.28
   9   0 -10    0.01    0.10
  -9   0  10    0.15    0.11
  -9   0  10    0.18    0.13
   9   0 -10    0.13    0.11
   8   0 -10   11.59    0.45
  -8   0  10   12.12    0.46
   8   0 -10   12.34    0.43
  -8   0  10   12.00    0.49
  -7   0  10    0.53    0.13
  -7   0  10    0.34    0.09
   7   0 -10    0.28    0.11
   7   0 -10    0.22    0.10
   6   0 -10    4.85    0.28
  -6   0  10    5.06    0.22
  -6   0  10    5.53    0.30
   6   0 -10    5.49    0.29
  -5   0  10    0.42    0.12
   5   0 -10    0.25    0.09
   4   0 -10  112.46    2.85
  -4   0  10  108.68    2.77
   4   0 -10  107.09    2.81
  -4   0  10  105.86    2.88
   3   0 -10    0.47    0.09
  -3   0  10    0.38    0.07
  -3   0  10    0.18    0.09
  -2   0  10  368.71    9.48
  -2   0  10  356.83    9.56
   2   0 -10  401.42    9.53
   2   0 -10  379.86    9.53
  -1   0  10    0.34    0.07
   1   0 -10    0.24    0.07
   0   0  10  118.87    3.14
   0   0  10  120.59    3.22
   0   0 -10  124.07    3.19
   0   0 -10  127.97    3.14
   1   0  10    1.04    0.12
  -1   0 -10    0.87    0.14
  -1   0 -10    0.78    0.11
   2   0  10   75.66    2.02
  -2   0 -10   76.90    1.98
  -2   0 -10   75.53    2.01
  -3   0 -10    0.36    0.09
  -3   0 -10    0.31    0.10
   3   0  10    0.64    0.10
  -4   0 -10    1.76    0.14
  -4   0 -10    1.52    0.20
   4   0  10    1.62    0.13
   4   0  10    1.46    0.17
  -5   0 -10    0.30    0.08
   5   0  10    0.45    0.10
  -5   0 -10    0.26    0.13
  -5   0 -10    0.40    0.12
  -6   0 -10   10.12    0.47
   6   0  10    9.97    0.37
  -6   0 -10   10.29    0.44
  -7   0 -10    0.38    0.14
  -7   0 -10    0.33    0.16
   7   0  10    0.19    0.10
   8   0  10    5.20    0.27
  -8   0 -10    5.82    0.38
  -8   0 -10    5.56    0.37
   9   0  10    0.05    0.11
  -9   0 -10    0.59    0.16
  -9   0 -10    0.30    0.17
 -10   0 -10    3.53    0.34
 -10   0 -10    3.81    0.37
  10   0  10    3.36    0.25
 -11  -1  10    0.99    0.19
  11  -1 -10    1.01    0.17
 -11   1  10    1.31    0.21
  11   1 -10    0.91    0.18
 -10  -1  10    0.36    0.14
  10  -1 -10    0.05    0.12
 -10  -1  10    0.33    0.14
 -10   1  10    0.39    0.15
  -9  -1  10   13.38    0.53
  -9  -1  10   13.72    0.50
   9  -1 -10   13.98    0.52
   9   1 -10   13.35    0.47
  -9   1  10   14.01    0.56
   9   1 -10   13.26    0.50
  -8  -1  10  129.23    3.50
  -8  -1  10  134.53    3.44
   8  -1 -10  132.89    3.42
   8  -1 -10  134.60    3.47
  -8   1  10  129.85    3.52
   8   1 -10  132.19    3.43
   8   1 -10  134.54    3.46
  -7  -1  10    7.03    0.31
   7  -1 -10    6.84    0.33
  -7  -1  10    7.42    0.36
   7   1 -10    6.92    0.31
   7   1 -10    7.03    0.31
  -7   1  10    6.98    0.37
  -7   1  10    7.48    0.29
   6  -1 -10   10.98    0.42
  -6  -1  10   11.55    0.41
   6  -1 -10   11.07    0.41
  -6  -1  10   10.95    0.46
   6   1 -10   11.25    0.42
  -6   1  10   11.02    0.47
  -6   1  10   11.56    0.35
   6   1 -10   11.57    0.41
  -5  -1  10    0.39    0.11
   5  -1 -10    0.33    0.10
   5  -1 -10    0.26    0.10
  -5  -1  10    0.43    0.09
  -5   1  10    0.31    0.10
   5   1 -10    0.43    0.09
  -4  -1  10  155.42    3.92
   4  -1 -10  153.84    3.97
  -4  -1  10  153.30    4.03
   4   1 -10  153.71    3.97
   4   1 -10  152.31    3.92
   3  -1 -10   13.05    0.44
  -3  -1  10   12.47    0.49
  -3  -1  10   13.08    0.42
  -3   1  10   12.34    0.48
   3   1 -10   13.31    0.40
   3   1 -10   13.27    0.47
  -2  -1  10    5.05    0.22
   2  -1 -10    5.08    0.24
   2   1 -10    5.33    0.20
  -1  -1  10    2.82    0.22
  -1  -1  10    3.13    0.17
  -1  -1  10    2.75    0.12
   1  -1 -10    3.21    0.19
   1   1 -10    3.39    0.14
  -1   1  10    3.34    0.13
  -1   1  10    3.42    0.21
   1   1 -10    2.94    0.21
   0  -1  10   15.64    0.50
   0  -1 -10   14.92    0.54
   0  -1 -10   15.80    0.51
   0   1  10   15.77    0.47
   0   1 -10   16.36    0.53
   0   1  10   15.78    0.54
   1  -1  10   81.50    2.12
  -1  -1 -10   84.70    2.21
  -1  -1 -10   81.64    2.23
   1  -1  10   80.83    2.21
   1   1  10   86.05    2.25
   1   1  10   85.22    2.19
  -1   1 -10   87.42    2.23
  -1   1 -10   84.13    2.30
   2  -1  10    9.44    0.37
   2  -1  10    9.20    0.29
  -2  -1 -10    9.39    0.35
  -2  -1 -10    9.27    0.38
  -2  -1 -10    9.71    0.36
  -2  -1 -10    9.09    0.36
  -2   1 -10    9.83    0.35
  -2   1 -10    8.79    0.41
  -3  -1 -10    2.26    0.18
  -3  -1 -10    2.31    0.17
  -3  -1 -10    2.14    0.18
   3  -1  10    2.19    0.13
   3  -1  10    2.20    0.18
  -3   1 -10    2.20    0.22
  -3   1 -10    2.41    0.16
   4  -1  10   46.01    1.19
   4  -1  10   42.90    1.27
  -4  -1 -10   43.58    1.28
  -4  -1 -10   43.99    1.25
  -4   1 -10   43.84    1.35
  -4   1 -10   45.38    1.20
   5  -1  10   15.69    0.57
  -5  -1 -10   15.86    0.58
   5  -1  10   15.83    0.49
  -5  -1 -10   15.74    0.59
   5   1  10   16.47    0.50
   5   1  10   15.36    0.53
  -5   1 -10   15.72    0.63
  -5   1 -10   15.92    0.49
  -6  -1 -10   80.10    2.22
   6  -1  10   79.82    2.12
   6  -1  10   79.06    2.21
  -6  -1 -10   80.80    2.22
  -6   1 -10   78.00    2.28
   6   1  10   83.57    2.11
  -6   1 -10   85.52    2.09
   6   1  10   81.61    2.16
  -7  -1 -10    1.90    0.23
  -7  -1 -10    1.85    0.24
   7  -1  10    1.84    0.22
   7  -1  10    1.79    0.17
   7   1  10    1.73    0.18
  -7   1 -10    1.94    0.28
   8  -1  10   64.59    1.73
  -8  -1 -10   63.77    1.90
  -8  -1 -10   64.59    1.83
   8   1  10   66.45    1.77
  -8   1 -10   63.32    1.89
  -9  -1 -10   10.12    0.47
  -9  -1 -10    9.79    0.48
   9  -1  10   10.06    0.46
   9  -1  10    9.81    0.38
  -9   1 -10    9.70    0.53
   9   1  10    9.89    0.41
 -10  -1 -10    3.52    0.35
  10  -1  10    4.16    0.32
  10  -1  10    3.68    0.25
  10   1  10    3.87    0.27
 -10   1 -10    3.82    0.40
 -11  -2  10    0.45    0.17
 -11  -2  10    0.13    0.15
  11  -2 -10    0.03    0.13
 -11   2  10    0.18    0.16
  11   2 -10    0.23    0.15
  10  -2 -10   31.06    0.96
 -10  -2  10   28.61    0.92
 -10  -2  10   29.86    0.94
 -10   2  10   30.95    1.00
  -9  -2  10   10.42    0.43
  -9  -2  10   10.67    0.45
   9  -2 -10   11.15    0.61
   9   2 -10   10.62    0.41
   9   2 -10   11.14    0.44
  -8  -2  10   12.60    0.48
   8  -2 -10   11.95    0.43
   8  -2 -10   12.33    0.48
  -8  -2  10   13.14    0.49
   8   2 -10   12.69    0.46
   8   2 -10   11.67    0.45
  -8   2  10   12.54    0.52
  -7  -2  10   34.61    1.01
  -7  -2  10   33.97    1.03
   7  -2 -10   33.61    1.02
   7  -2 -10   34.09    0.98
   7   2 -10   34.74    0.99
   7   2 -10   34.50    1.00
  -7   2  10   33.89    1.07
   6  -2 -10    6.01    0.30
   6  -2 -10    5.98    0.28
  -6  -2  10    6.01    0.31
  -6  -2  10    5.46    0.28
   6   2 -10    5.64    0.27
   6   2 -10    5.44    0.28
  -6   2  10    5.48    0.32
  -5  -2  10   72.07    1.92
   5  -2 -10   70.03    1.94
  -5   2  10   71.95    2.00
   5   2 -10   74.35    1.89
   5   2 -10   70.00    1.94
  -4  -2  10   11.62    0.44
   4  -2 -10   11.10    0.45
   4  -2 -10   11.13    0.45
  -4   2  10   10.93    0.45
   4   2 -10   11.14    0.43
   4   2 -10   11.44    0.37
  -3  -2  10  118.48    3.08
   3  -2 -10  115.39    3.06
   3  -2 -10  113.37    3.05
  -3  -2  10  119.65    3.04
  -3   2  10  116.76    3.10
   3   2 -10  120.49    2.97
   3   2 -10  113.95    3.12
   2  -2 -10  142.84    3.71
  -2  -2  10  144.43    3.74
  -2  -2  10  144.67    3.69
  -2   2  10  141.16    3.73
  -1  -2  10   12.13    0.43
   1  -2 -10   12.05    0.45
   1  -2 -10   12.53    0.46
   1   2 -10   12.64    0.45
  -1   2  10   12.91    0.46
   1   2 -10   12.49    0.48
   0  -2 -10    8.64    0.35
   0  -2  10    8.26    0.34
   0  -2 -10    8.35    0.34
   0   2 -10    8.62    0.38
   0   2 -10    8.80    0.35
   0   2  10    8.72    0.35
  -1  -2 -10   10.40    0.39
   1  -2  10   10.30    0.39
  -1  -2 -10   10.98    0.36
  -1   2 -10   10.95    0.49
   1   2  10   10.17    0.39
  -2  -2 -10   87.15    2.32
  -2  -2 -10   89.02    2.34
  -2  -2 -10   90.93    2.31
   2  -2  10   84.90    2.41
  -2   2 -10   82.33    2.40
   2   2  10   88.96    2.32
  -2   2 -10   90.04    2.35
   3  -2  10    1.10    0.14
  -3  -2 -10    1.23    0.16
   3   2  10    1.25    0.15
  -3   2 -10    1.20    0.14
   4  -2  10   18.22    0.63
  -4  -2 -10   17.42    0.64
  -4  -2 -10   17.84    0.67
   4  -2  10   18.75    0.52
  -4  -2 -10   19.37    0.62
  -4   2 -10   19.37    0.57
  -4   2 -10   18.19    0.71
   4   2  10   19.04    0.61
  -5  -2 -10   15.16    0.53
   5  -2  10   15.03    0.55
   5  -2  10   14.85    0.45
  -5  -2 -10   14.72    0.56
  -5   2 -10   14.71    0.62
  -5   2 -10   15.30    0.47
  -6  -2 -10    4.78    0.31
   6  -2  10    4.41    0.29
  -6  -2 -10    4.42    0.30
   6  -2  10    4.27    0.24
  -6   2 -10    4.90    0.37
   6   2  10    4.69    0.27
   6   2  10    4.48    0.26
   7  -2  10    2.80    0.18
  -7  -2 -10    2.93    0.25
  -7  -2 -10    2.75    0.27
   7  -2  10    2.72    0.24
   7   2  10    2.76    0.22
  -7   2 -10    2.70    0.31
   8  -2  10   14.25    0.55
  -8  -2 -10   11.60    0.63
   8  -2  10   13.81    0.45
   8   2  10   12.98    0.51
  -8   2 -10   12.71    0.63
  -9  -2 -10    9.08    0.48
   9  -2  10    8.97    0.43
  -9   2 -10    8.87    0.53
   9   2  10    9.37    0.41
  10  -3 -10   15.19    0.59
 -10  -3  10   15.50    0.59
  10   3 -10   16.15    0.58
 -10   3  10   16.66    0.66
  -9  -3  10    3.66    0.27
   9  -3 -10    3.35    0.27
  -9  -3  10    3.35    0.28
  -9   3  10    3.39    0.30
   9   3 -10    3.73    0.27
   9   3 -10    3.35    0.24
  -8  -3  10   24.54    0.80
  -8  -3  10   25.16    0.79
   8  -3 -10   24.86    0.81
   8   3 -10   25.02    0.77
  -8   3  10   25.01    0.74
  -8   3  10   25.75    0.86
   8   3 -10   23.79    0.78
  -7  -3  10   35.34    1.04
   7  -3 -10   34.04    1.05
  -7  -3  10   34.61    1.04
  -7   3  10   35.48    1.00
   7   3 -10   33.75    1.03
   7   3 -10   35.65    1.00
  -7   3  10   34.88    1.09
  -6  -3  10    7.48    0.34
   6  -3 -10    7.48    0.35
  -6  -3  10    7.16    0.35
   6  -3 -10    7.50    0.32
   6   3 -10    6.94    0.34
   6   3 -10    7.65    0.31
  -6   3  10    8.13    0.38
  -5  -3  10   32.30    0.97
   5  -3 -10   32.79    0.96
   5  -3 -10   32.91    0.99
  -5   3  10   32.89    1.02
   5   3 -10   32.78    0.99
   5   3 -10   32.73    0.91
  -4  -3  10   38.87    1.12
  -4  -3  10   37.85    1.11
   4  -3 -10   37.28    1.10
   4  -3 -10   38.49    1.12
   4   3 -10   39.36    1.03
   4   3 -10   37.57    1.12
  -4   3  10   38.73    1.15
  -3  -3  10    0.53    0.11
   3  -3 -10    0.42    0.11
   3  -3 -10    0.38    0.11
  -3  -3  10    0.32    0.10
  -3   3  10    0.44    0.11
   3   3 -10    0.45    0.11
   2  -3 -10   43.97    1.25
   2  -3 -10   42.83    1.25
  -2  -3  10   41.37    1.28
  -2  -3  10   45.74    1.26
  -2   3  10   44.35    1.26
   2   3 -10   43.66    1.26
   1  -3 -10    0.48    0.11
  -1  -3  10    0.68    0.13
   1  -3 -10    0.40    0.10
   1   3 -10    0.47    0.11
   1   3 -10    0.56    0.12
   0  -3 -10    2.15    0.14
   0  -3 -10    1.94    0.19
   0  -3  10    1.86    0.17
   0   3 -10    1.97    0.19
   0   3  10    2.27    0.18
   0   3 -10    1.74    0.22
   0   3  10    2.56    0.18
  -1  -3 -10   58.95    1.50
   1  -3  10   52.97    1.55
  -1  -3 -10   55.36    1.57
  -1   3 -10   53.18    1.61
   1   3  10   57.95    1.53
  -1   3 -10   58.81    1.67
   1   3  10   55.77    1.54
  -2  -3 -10   70.33    1.93
   2  -3  10   70.73    1.93
  -2  -3 -10   72.86    1.89
  -2   3 -10   68.49    1.99
   2   3  10   66.21    1.89
  -2   3 -10   72.62    1.94
   2   3  10   72.20    1.87
  -3  -3 -10    0.60    0.13
  -3  -3 -10    0.25    0.10
   3  -3  10    0.23    0.10
  -3   3 -10    0.18    0.09
   3   3  10    0.20    0.08
   3   3  10    0.45    0.10
  -3   3 -10    0.26    0.13
  -4  -3 -10   59.93    1.71
   4  -3  10   59.88    1.71
  -4  -3 -10   61.27    1.71
   4   3  10   61.86    1.67
   4   3  10   63.66    1.65
  -4   3 -10   60.68    1.81
  -4   3 -10   62.45    1.65
  -5  -3 -10    0.39    0.13
  -5  -3 -10    0.37    0.12
   5  -3  10    0.30    0.11
  -5   3 -10    0.25    0.10
   5   3  10    0.15    0.10
  -5   3 -10    0.19    0.15
   6  -3  10    1.94    0.21
  -6  -3 -10    1.66    0.25
   6   3  10    2.04    0.18
  -6   3 -10    1.99    0.29
   6   3  10    1.96    0.21
  -7  -3 -10    0.65    0.17
   7  -3  10    0.52    0.17
   7   3  10    0.82    0.13
   7   3  10    0.72    0.14
  -7   3 -10    0.59    0.23
   8  -3  10   20.76    0.73
  -8  -3 -10   20.67    0.77
  -8   3 -10   19.95    0.83
   8   3  10   21.01    0.70
   9  -3  10    4.43    0.33
  -9  -3 -10    4.33    0.38
  -9   3 -10    4.36    0.42
   9   3  10    4.50    0.30
   9  -4 -10    1.06    0.18
  -9  -4  10    1.03    0.19
  -9   4  10    1.43    0.22
   9   4 -10    0.94    0.23
   9   4 -10    1.37    0.19
   8  -4 -10   36.35    1.11
  -8   4  10   37.42    1.15
   8   4 -10   35.15    1.09
   8   4 -10   37.05    1.06
  -7  -4  10    0.49    0.14
  -7  -4  10    0.30    0.13
   7  -4 -10    0.32    0.14
   7   4 -10    0.36    0.13
  -7   4  10    0.41    0.13
   7   4 -10    0.32    0.13
  -7   4  10    0.23    0.11
   6  -4 -10    1.13    0.17
  -6  -4  10    1.26    0.19
  -6  -4  10    1.08    0.17
  -6   4  10    0.99    0.17
   6   4 -10    1.50    0.18
   6   4 -10    1.37    0.20
  -6   4  10    1.24    0.17
   5  -4 -10   24.60    0.81
  -5  -4  10   25.08    0.81
  -5  -4  10   24.75    0.80
   5   4 -10   24.65    0.81
   5   4 -10   25.54    0.73
  -5   4  10   25.66    0.77
  -5   4  10   25.44    0.83
   4  -4 -10   85.66    2.31
  -4  -4  10   83.82    2.29
  -4   4  10   85.77    2.31
   4   4 -10   86.28    2.32
  -4   4  10   84.69    2.27
   3  -4 -10    1.30    0.19
  -3  -4  10    1.28    0.17
   3   4 -10    0.85    0.15
  -3   4  10    1.12    0.17
  -3   4  10    1.39    0.16
   2  -4 -10    6.66    0.34
  -2  -4  10    7.05    0.32
  -2  -4  10    6.75    0.32
  -2   4  10    6.65    0.31
   2   4 -10    6.32    0.33
  -2   4  10    6.64    0.32
  -1  -4  10   49.83    1.41
   1  -4 -10   49.39    1.43
   1   4 -10   49.39    1.42
   1   4 -10   49.27    1.42
  -1   4  10   50.06    1.39
  -1   4  10   50.21    1.40
   0  -4 -10    8.20    0.29
   0  -4  10    7.65    0.35
   0  -4 -10    8.49    0.38
   0   4  10    7.81    0.34
   0   4 -10    7.71    0.38
   0   4  10    8.25    0.34
   0   4 -10    7.49    0.36
   1  -4  10   31.58    0.94
  -1  -4 -10   31.32    0.89
  -1  -4 -10   30.35    0.95
  -1   4 -10   30.53    0.98
  -1   4 -10   30.78    0.94
   1   4  10   31.41    0.89
   1   4  10   28.98    0.92
   2  -4  10   71.54    1.99
  -2  -4 -10   72.53    2.01
  -2  -4 -10   76.06    1.96
  -2   4 -10   68.88    2.04
   2   4  10   74.88    1.91
   2   4  10   71.68    1.97
  -2   4 -10   72.58    1.97
  -3  -4 -10    7.51    0.36
   3  -4  10    7.21    0.34
  -3   4 -10    7.45    0.33
  -3   4 -10    6.74    0.40
   3   4  10    7.26    0.33
   4  -4  10    5.81    0.31
  -4  -4 -10    5.71    0.32
  -4  -4 -10    5.79    0.34
  -4   4 -10    5.87    0.40
   4   4  10    5.78    0.29
  -4   4 -10    6.01    0.28
  -5  -4 -10    6.56    0.39
  -5  -4 -10    6.87    0.36
   5  -4  10    7.30    0.36
  -5   4 -10    7.08    0.44
   5   4  10    6.87    0.31
  -5   4 -10    6.61    0.29
   6  -4  10    0.16    0.13
  -6  -4 -10    0.35    0.16
  -6   4 -10    0.25    0.18
   6   4  10    0.28    0.11
   7  -4  10    1.40    0.22
  -7  -4 -10    1.30    0.26
   7   4  10    1.86    0.23
   7   4  10    1.59    0.19
  -7   4 -10    1.55    0.27
   8  -4  10    0.53    0.16
  -8  -4 -10    0.46    0.20
  -8   4 -10    0.41    0.22
   8   4  10    0.70    0.15
  -8  -5  10    1.27    0.20
   8  -5 -10    1.14    0.20
   8   5 -10    1.34    0.20
  -8   5  10    1.59    0.26
  -7  -5  10   17.51    0.64
   7  -5 -10   17.11    0.63
   7   5 -10   17.24    0.63
  -7   5  10   16.95    0.58
  -7   5  10   17.41    0.65
   6  -5 -10   78.62    2.17
  -6   5  10   80.49    2.13
  -6   5  10   78.25    2.18
   5  -5 -10   35.19    1.07
  -5  -5  10   35.09    1.07
  -5   5  10   34.76    1.03
  -5   5  10   34.70    1.07
   5   5 -10   35.34    1.08
   4  -5 -10    5.20    0.31
  -4  -5  10    5.12    0.27
  -4  -5  10    5.12    0.31
  -4   5  10    5.09    0.29
   4   5 -10    5.64    0.33
  -4   5  10    4.49    0.29
  -3  -5  10   10.82    0.42
   3  -5 -10   11.86    0.48
  -3  -5  10   11.68    0.47
  -3   5  10   11.28    0.45
   3   5 -10   11.39    0.49
  -3   5  10   11.44    0.45
  -2  -5  10    0.27    0.12
   2  -5 -10    0.22    0.13
  -2  -5  10    0.52    0.13
   2   5 -10    0.23    0.12
  -2   5  10    0.32    0.11
  -2   5  10    0.13    0.10
   1  -5 -10    3.03    0.25
  -1  -5  10    2.95    0.23
   1   5 -10    2.90    0.24
  -1   5  10    2.87    0.23
   1   5 -10    3.18    0.26
   0  -5  10   16.10    0.57
   0  -5 -10   16.16    0.60
   0   5  10   15.77    0.56
   0   5 -10   15.42    0.58
   0   5 -10   15.59    0.59
  -1  -5 -10    0.46    0.14
   1  -5  10    0.32    0.12
  -1   5 -10    0.56    0.15
  -1   5 -10    0.45    0.14
   1   5  10    0.43    0.12
   2  -5  10    9.56    0.41
  -2  -5 -10    9.36    0.43
  -2  -5 -10    9.72    0.45
  -2   5 -10    9.88    0.47
   2   5  10    9.24    0.39
  -2   5 -10    9.44    0.41
  -3  -5 -10    4.46    0.29
   3  -5  10    3.77    0.26
  -3  -5 -10    3.99    0.30
   3   5  10    4.08    0.25
  -3   5 -10    3.45    0.26
  -3   5 -10    3.56    0.33
  -4  -5 -10   22.02    0.77
  -4   5 -10   22.80    0.83
   4   5  10   22.35    0.71
  -4   5 -10   21.24    0.70
  -5  -5 -10   36.51    1.17
  -5  -5 -10   37.07    1.14
   5  -5  10   39.04    1.15
  -5   5 -10   36.62    1.23
   5   5  10   38.22    1.09
   6  -5  10    9.10    0.42
  -6  -5 -10    8.99    0.43
  -6  -5 -10    8.26    0.71
  -6   5 -10    9.28    0.52
  -7  -5 -10   17.17    0.71
   7  -5  10   17.30    0.64
   7   5  10   17.29    0.58
  -7   5 -10   16.65    0.74
   7   5  10   17.19    0.63
   7  -6 -10    0.62    0.15
  -7  -6  10    0.58    0.17
  -7   6  10    0.42    0.16
   7   6 -10    0.43    0.18
   6  -6 -10    2.25    0.25
  -6  -6  10    2.09    0.26
   6   6 -10    2.24    0.29
  -6   6  10    2.52    0.24
  -6   6  10    1.72    0.26
   5  -6 -10    5.08    0.33
  -5  -6  10    6.11    0.34
  -5   6  10    5.06    0.32
   5   6 -10    5.07    0.36
  -5   6  10    5.05    0.36
  -4  -6  10    5.96    0.34
   4  -6 -10    6.46    0.36
   4   6 -10    6.66    0.38
  -4   6  10    5.82    0.33
  -3  -6  10   13.77    0.53
   3  -6 -10   13.81    0.55
   3   6 -10   13.69    0.56
  -3   6  10   13.65    0.51
  -2  -6  10    0.27    0.11
  -2  -6  10    0.24    0.13
   2  -6 -10    0.29    0.14
   2   6 -10    0.15    0.16
  -2   6  10    0.27    0.13
  -1  -6  10    6.44    0.45
   1  -6 -10    6.08    0.46
   1   6 -10    7.04    0.34
   1   6 -10    7.22    0.46
   0  -6 -10   73.61    2.14
   0  -6  10   69.77    2.14
   0   6 -10   76.04    2.04
   0   6  10   71.55    2.12
   0   6 -10   73.86    2.01
  -1  -6 -10   33.04    1.01
   1  -6  10   31.04    0.98
   1   6  10   31.99    0.97
  -1   6 -10   30.39    0.99
  -1   6 -10   31.83    0.99
   2  -6  10   12.25    0.49
  -2  -6 -10   12.31    0.52
  -2   6 -10   12.12    0.51
   2   6  10   12.75    0.48
  -2   6 -10   12.67    0.54
   3  -6  10    1.91    0.23
  -3  -6 -10    2.20    0.26
   3   6  10    1.92    0.21
  -3   6 -10    1.70    0.25
  -3   6 -10    2.17    0.39
   4  -6  10    0.21    0.13
  -4  -6 -10    0.04    0.13
  -4  -6 -10    0.30    0.19
  -4   6 -10    0.29    0.18
   4   6  10    0.24    0.12
  -4   6 -10    0.18    0.16
  -5  -6 -10   13.06    0.54
   5  -6  10   12.77    0.52
  -5   6 -10   13.03    0.61
   5   6  10   12.92    0.49
   4  -7 -10    0.58    0.17
  -4  -7  10    0.60    0.16
  -4   7  10    0.58    0.15
   4   7 -10    0.59    0.19
   3  -7 -10    0.44    0.16
  -3  -7  10    0.30    0.14
   3   7 -10    0.46    0.18
  -3   7  10    0.39    0.14
   2  -7 -10    0.73    0.17
  -2  -7  10    0.65    0.15
  -2   7  10    0.30    0.13
   2   7 -10    0.45    0.18
   1  -7 -10   43.84    1.32
  -1  -7  10   44.66    1.31
  -1   7  10   44.13    1.29
   1   7 -10   44.19    1.34
   0  -7  10    0.23    0.13
   0  -7 -10    0.01    0.15
   0   7  10    0.13    0.11
  -1  -7 -10    6.63    0.39
   1  -7  10    6.85    0.37
  -1   7 -10    6.83    0.40
   1   7  10    6.69    0.35
  -1   7 -10    6.61    0.45
  -2  -7 -10    0.22    0.15
   2  -7  10    0.29    0.14
  -2   7 -10    0.29    0.17
  -2   7 -10    0.42    0.18
   2   7  10    0.12    0.12
   3  -7  10    0.30    0.14
  -3  -7 -10    0.47    0.17
   3   7  10    0.31    0.13
  -3   7 -10    0.24    0.18
  -3   7 -10    0.51    0.18
 -11   0  11   13.10    0.55
  11   0 -11   12.52    0.51
 -10   0  11    0.08    0.13
  10   0 -11    0.22    0.14
   9   0 -11   84.58    2.27
   9   0 -11   83.06    2.21
  -9   0  11   84.35    2.31
  -8   0  11    0.36    0.13
   8   0 -11    0.21    0.11
   8   0 -11    0.37    0.13
   7   0 -11    6.65    0.31
  -7   0  11    7.52    0.29
  -7   0  11    6.55    0.35
   7   0 -11    7.04    0.32
  -6   0  11    0.10    0.10
   6   0 -11    0.24    0.10
   6   0 -11    0.26    0.09
  -6   0  11    0.35    0.08
   5   0 -11    0.94    0.14
  -5   0  11    0.99    0.16
  -5   0  11    1.07    0.12
   5   0 -11    1.18    0.15
   4   0 -11    0.29    0.08
  -4   0  11    0.49    0.11
  -4   0  11    0.49    0.08
   3   0 -11   26.03    0.74
  -3   0  11   25.75    0.70
   3   0 -11   23.98    0.77
   2   0 -11    0.44    0.08
  -2   0  11    0.22    0.06
  -2   0  11    0.38    0.10
   2   0 -11    0.25    0.08
   1   0 -11   59.17    1.61
  -1   0  11   58.98    1.55
   1   0 -11   60.14    1.56
  -1   0  11   56.83    1.63
   0   0 -11    0.19    0.08
   0   0 -11    0.23    0.07
   0   0  11    0.20    0.07
   0   0  11    0.07    0.08
  -1   0 -11  350.92    9.06
   1   0  11  355.68    9.04
  -1   0 -11  372.42    9.01
  -1   0 -11  358.46    9.13
  -2   0 -11    0.39    0.08
  -2   0 -11    0.16    0.11
   2   0  11    0.20    0.08
  -2   0 -11    0.08    0.09
  -3   0 -11  118.41    3.21
   3   0  11  120.77    3.14
   3   0  11  121.18    3.08
  -4   0 -11    0.54    0.14
   4   0  11    0.75    0.13
   5   0  11    2.06    0.17
  -5   0 -11    2.67    0.18
  -5   0 -11    2.28    0.24
   5   0  11    1.99    0.20
  -6   0 -11    0.31    0.09
   6   0  11    0.31    0.12
  -6   0 -11    0.29    0.14
   6   0  11    0.18    0.09
  -7   0 -11    7.78    0.42
   7   0  11    7.67    0.38
   7   0  11    7.27    0.32
   8   0  11    0.08    0.13
   8   0  11    0.16    0.10
  -8   0 -11   -0.01    0.16
   9   0  11    4.41    0.32
   9   0  11    5.08    0.34
  -9   0 -11    4.86    0.40
 -11  -1  11    4.23    0.32
  11  -1 -11    3.58    0.29
 -11   1  11    4.38    0.34
  11   1 -11    3.76    0.29
  10  -1 -11   13.11    0.51
  10   1 -11   12.07    0.54
 -10   1  11   13.25    0.55
   9  -1 -11    0.17    0.12
   9  -1 -11    0.38    0.13
  -9  -1  11    0.73    0.16
  -9  -1  11    0.40    0.13
   9   1 -11    0.12    0.12
   9   1 -11    0.30    0.12
  -9   1  11    0.18    0.14
  -8  -1  11    0.59    0.15
   8  -1 -11    0.17    0.10
   8  -1 -11    0.57    0.13
  -8  -1  11    0.41    0.11
   8   1 -11    0.49    0.12
   8   1 -11    0.23    0.10
  -8   1  11    0.39    0.12
   7  -1 -11    8.36    0.35
   7  -1 -11    8.67    0.38
  -7  -1  11    8.32    0.34
  -7  -1  11    8.17    0.39
   7   1 -11    8.42    0.36
   7   1 -11    9.11    0.36
  -7   1  11    8.89    0.41
   6  -1 -11   17.11    0.58
  -6  -1  11   18.16    0.56
  -6  -1  11   16.46    0.61
   6  -1 -11   17.38    0.58
  -6   1  11   17.48    0.64
   6   1 -11   17.54    0.59
   6   1 -11   17.29    0.58
  -5  -1  11  168.03    4.15
  -5  -1  11  159.31    4.23
   5  -1 -11  165.30    4.19
   5  -1 -11  160.53    4.18
  -5   1  11  160.92    4.25
   5   1 -11  160.83    4.15
   5   1 -11  161.42    4.19
   4  -1 -11    4.81    0.24
  -4  -1  11    5.19    0.23
  -4  -1  11    5.20    0.28
   4  -1 -11    4.50    0.28
   4   1 -11    5.34    0.23
  -4   1  11    4.48    0.27
   4   1 -11    4.88    0.26
   3  -1 -11   58.33    1.55
  -3  -1  11   57.25    1.51
   3   1 -11   58.53    1.50
  -3   1  11   53.29    1.65
   2  -1 -11    3.80    0.20
  -2  -1  11    3.14    0.17
  -2  -1  11    3.11    0.22
   2   1 -11    3.55    0.23
  -2   1  11    2.94    0.21
   2   1 -11    3.21    0.15
   1  -1 -11   25.46    0.75
  -1  -1  11   25.31    0.74
   1  -1 -11   24.79    0.77
  -1  -1  11   24.32    0.79
   1   1 -11   26.08    0.78
  -1   1  11   24.29    0.78
  -1   1  11   24.93    0.68
   0  -1  11    2.90    0.17
   0  -1 -11    3.06    0.19
   0  -1 -11    2.85    0.18
   0   1 -11    2.75    0.18
   0   1  11    2.81    0.22
   0   1 -11    2.70    0.21
   0   1  11    2.90    0.15
  -1  -1 -11   45.87    1.23
   1  -1  11   44.49    1.23
  -1  -1 -11   41.29    1.29
  -1   1 -11   44.21    1.24
   1   1  11   43.96    1.20
   1   1  11   45.09    1.28
  -2  -1 -11    0.50    0.10
  -2  -1 -11    0.23    0.10
   2  -1  11    0.45    0.06
  -2  -1 -11    0.40    0.10
   2  -1  11    0.39    0.09
   2   1  11    0.35    0.09
  -2   1 -11    0.37    0.10
  -2   1 -11    0.43    0.12
   3  -1  11   63.40    1.76
  -3  -1 -11   65.82    1.79
  -3  -1 -11   62.75    1.74
   3  -1  11   64.65    1.66
  -3  -1 -11   65.69    1.73
  -3   1 -11   62.20    1.83
  -4  -1 -11   39.63    1.10
   4  -1  11   39.89    1.16
  -4  -1 -11   38.36    1.15
   4  -1  11   40.62    1.07
  -4  -1 -11   39.64    1.18
  -4   1 -11   40.40    1.10
  -4   1 -11   38.04    1.23
   5  -1  11    9.47    0.41
  -5  -1 -11    9.47    0.42
  -5  -1 -11    9.14    0.42
   5  -1  11    9.92    0.34
   5   1  11    9.21    0.37
  -5   1 -11    8.87    0.47
  -5   1 -11   10.13    0.34
  -6  -1 -11   12.91    0.53
  -6  -1 -11   13.86    0.54
   6  -1  11   13.19    0.52
   6   1  11   13.87    0.48
  -6   1 -11   13.23    0.59
   6   1  11   13.60    0.44
  -7  -1 -11   37.32    1.18
   7  -1  11   39.27    1.08
  -7  -1 -11   39.98    1.18
   7  -1  11   38.42    1.17
  -7   1 -11   38.50    1.25
   7   1  11   39.00    1.12
  -8  -1 -11    3.69    0.30
   8  -1  11    3.34    0.27
   8  -1  11    3.30    0.22
  -8  -1 -11    3.86    0.31
   8   1  11    3.37    0.24
  -9  -1 -11   38.45    1.18
   9  -1  11   37.82    1.08
  -9  -1 -11   37.83    1.20
   9  -1  11   37.86    1.18
   9   1  11   39.14    1.12
  -9   1 -11   38.40    1.25
 -11  -2  11    7.36    0.39
  11  -2 -11    6.88    0.38
  11   2 -11    7.09    0.38
 -11   2  11    6.95    0.42
 -10  -2  11    2.50    0.26
  10  -2 -11    2.01    0.23
 -10  -2  11    2.20    0.25
 -10   2  11    2.64    0.28
  10   2 -11    1.79    0.27
  -9  -2  11   33.45    1.01
   9  -2 -11   32.19    1.01
  -9  -2  11   32.65    0.99
   9   2 -11   31.13    0.96
   9   2 -11   32.31    0.98
  -9   2  11   35.18    1.07
  -8  -2  11    9.21    0.39
   8  -2 -11    8.73    0.36
   8  -2 -11    8.78    0.40
  -8  -2  11    9.02    0.40
   8   2 -11    8.90    0.38
   8   2 -11    8.98    0.38
  -8   2  11    9.41    0.43
  -7  -2  11   21.33    0.68
   7  -2 -11   20.71    0.70
   7  -2 -11   20.79    0.66
  -7  -2  11   20.91    0.71
   7   2 -11   20.64    0.68
  -7   2  11   21.60    0.74
   7   2 -11   21.38    0.67
  -6  -2  11    0.77    0.13
   6  -2 -11    0.80    0.14
  -6  -2  11    0.41    0.12
   6  -2 -11    0.36    0.11
   6   2 -11    0.40    0.11
  -6   2  11    0.46    0.13
   6   2 -11    0.51    0.12
  -5  -2  11   26.46    0.84
   5  -2 -11   26.09    0.81
   5  -2 -11   26.43    0.82
  -5  -2  11   26.73    0.80
  -5   2  11   26.10    0.86
   5   2 -11   25.76    0.81
   5   2 -11   27.24    0.77
   4  -2 -11   29.07    0.88
   4  -2 -11   29.26    0.89
  -4  -2  11   29.36    0.86
  -4  -2  11   29.61    0.90
  -4   2  11   28.72    0.92
   4   2 -11   29.60    0.82
   4   2 -11   29.71    0.90
  -3  -2  11   28.86    0.98
   3  -2 -11   31.28    0.91
  -3   2  11   29.86    0.94
   3   2 -11   31.58    0.81
   3   2 -11   29.90    0.92
   2  -2 -11   86.63    2.31
   2  -2 -11   85.18    2.31
  -2  -2  11   86.30    2.32
   2   2 -11   86.93    2.32
  -2   2  11   88.58    2.39
   1  -2 -11    9.71    0.39
   1  -2 -11    9.61    0.38
  -1   2  11   10.03    0.39
   1   2 -11    9.65    0.39
   0  -2 -11  111.87    2.91
   0  -2  11  110.04    2.90
   0  -2 -11  110.42    2.91
   0   2  11  109.66    2.96
   0   2  11  111.05    2.82
   0   2 -11  112.20    2.98
  -1  -2 -11   96.58    2.46
  -1  -2 -11   93.70    2.50
   1  -2  11   92.48    2.51
  -1  -2 -11   93.83    2.51
  -1   2 -11   96.45    2.60
  -1   2 -11   96.05    2.52
  -2  -2 -11    1.35    0.15
  -2  -2 -11    0.98    0.15
  -2  -2 -11    0.85    0.14
   2  -2  11    1.16    0.16
  -2   2 -11    1.20    0.20
  -2   2 -11    1.25    0.15
   3  -2  11   23.46    0.75
  -3  -2 -11   23.84    0.74
  -3  -2 -11   24.12    0.74
  -3  -2 -11   23.21    0.72
  -3   2 -11   24.06    0.71
   3   2  11   22.99    0.72
  -3   2 -11   22.54    0.82
   4  -2  11   13.47    0.51
  -4  -2 -11   13.86    0.51
  -4  -2 -11   13.65    0.49
  -4  -2 -11   13.36    0.49
   4  -2  11   13.25    0.40
  -4   2 -11   13.00    0.48
   4   2  11   13.81    0.46
  -4   2 -11   13.46    0.59
  -5  -2 -11   20.14    0.69
   5  -2  11   20.01    0.69
   5  -2  11   20.34    0.58
  -5  -2 -11   19.95    0.66
   5   2  11   21.04    0.67
  -5   2 -11   19.87    0.62
  -5   2 -11   19.92    0.77
   5   2  11   20.54    0.63
  -6  -2 -11   10.46    0.42
  -6  -2 -11    9.65    0.45
   6  -2  11    9.98    0.44
   6   2  11   10.23    0.41
  -6   2 -11    9.87    0.51
   6   2  11    9.62    0.37
  -7  -2 -11   32.22    0.95
   7  -2  11   29.43    1.06
  -7  -2 -11   29.40    0.98
  -7   2 -11   30.32    1.07
   7   2  11   31.17    0.93
  -8  -2 -11    0.50    0.18
   8  -2  11    0.35    0.14
   8   2  11    0.27    0.15
  -8   2 -11    0.37    0.19
  -9  -2 -11    0.71    0.20
   9  -2  11    0.55    0.16
  -9   2 -11    0.77    0.23
   9   2  11    0.56    0.15
  10  -3 -11    2.96    0.28
 -10  -3  11    3.32    0.28
 -10   3  11    3.68    0.33
  10   3 -11    3.20    0.28
  -9  -3  11   34.50    1.06
  -9  -3  11   35.58    1.05
   9  -3 -11   35.99    1.08
  -9   3  11   35.73    1.12
   9   3 -11   34.99    1.04
   9   3 -11   33.43    1.03
  -8  -3  11    2.20    0.23
  -8  -3  11    2.71    0.24
   8   3 -11    1.94    0.22
  -8   3  11    2.07    0.20
  -8   3  11    1.88    0.32
   8   3 -11    1.93    0.22
   7  -3 -11   16.03    0.55
   7  -3 -11   16.68    0.60
  -7  -3  11   16.54    0.58
  -7  -3  11   16.74    0.59
  -7   3  11   16.32    0.62
   7   3 -11   16.84    0.59
   7   3 -11   16.82    0.55
   6  -3 -11    0.35    0.11
   6  -3 -11    0.05    0.10
  -6  -3  11    0.11    0.11
  -6  -3  11    0.07    0.11
   6   3 -11    0.23    0.11
   6   3 -11    0.23    0.12
  -6   3  11    0.17    0.12
   5  -3 -11    9.54    0.39
   5  -3 -11    9.64    0.41
  -5  -3  11    9.77    0.39
  -5  -3  11   10.20    0.41
   5   3 -11    9.44    0.40
  -5   3  11    9.43    0.42
   5   3 -11   10.26    0.35
  -4  -3  11   15.26    0.53
   4  -3 -11   15.08    0.53
  -4  -3  11   14.97    0.54
   4  -3 -11   14.85    0.54
  -4   3  11   15.37    0.57
   4   3 -11   16.12    0.46
   4   3 -11   15.22    0.55
   3  -3 -11   34.18    1.04
  -3  -3  11   36.27    1.05
  -3  -3  11   35.59    1.03
   3  -3 -11   35.73    1.04
   3   3 -11   34.81    1.05
  -3   3  11   35.45    1.07
  -2  -3  11    9.63    0.38
  -2  -3  11   10.30    0.41
   2  -3 -11    9.38    0.39
   2  -3 -11   10.14    0.41
   2   3 -11    9.72    0.41
  -2   3  11    9.76    0.40
  -1  -3  11   44.21    1.24
   1  -3 -11   43.32    1.25
   1  -3 -11   44.53    1.26
  -1   3  11   44.05    1.25
   1   3 -11   43.80    1.26
   1   3 -11   42.17    1.28
   0  -3 -11   24.19    0.76
   0  -3  11   22.82    0.74
   0  -3 -11   22.68    0.74
   0  -3 -11   24.55    0.65
   0   3  11   24.18    0.73
   0   3 -11   22.43    0.78
   0   3 -11   23.40    0.75
  -1  -3 -11   43.87    1.29
   1  -3  11   43.44    1.27
  -1  -3 -11   46.94    1.22
   1   3  11   44.54    1.26
  -1   3 -11   44.00    1.34
  -1   3 -11   44.64    1.27
  -2  -3 -11   13.19    0.45
  -2  -3 -11   12.07    0.48
   2  -3  11   12.47    0.47
  -2   3 -11   12.47    0.54
   2   3  11   12.84    0.44
  -2   3 -11   12.17    0.45
   2   3  11   12.20    0.45
  -3  -3 -11    1.75    0.20
  -3  -3 -11    1.94    0.21
   3  -3  11    1.58    0.19
   3   3  11    1.53    0.16
  -3   3 -11    1.84    0.17
  -3   3 -11    1.33    0.21
   4  -3  11   67.73    1.84
  -4  -3 -11   65.65    1.83
  -4  -3 -11   67.05    1.84
  -4   3 -11   66.64    1.95
   4   3  11   64.14    1.79
  -5  -3 -11   26.49    0.85
  -5  -3 -11   26.71    0.87
   5  -3  11   27.29    0.86
  -5   3 -11   27.11    0.78
   5   3  11   26.70    0.81
  -5   3 -11   27.14    0.97
   5   3  11   26.39    0.79
  -6  -3 -11    2.84    0.28
   6  -3  11    2.44    0.24
   6   3  11    2.28    0.22
   6   3  11    2.51    0.19
  -6   3 -11    2.38    0.33
  -7  -3 -11   32.42    1.07
   7  -3  11   34.60    1.04
   7   3  11   31.13    1.06
   7   3  11   33.51    0.97
  -7   3 -11   33.61    1.15
   8  -3  11    0.45    0.15
  -8  -3 -11    0.76    0.20
   8   3  11    0.61    0.15
  -8   3 -11    0.65    0.24
  -9  -4  11    8.30    0.43
   9  -4 -11    8.20    0.42
   9   4 -11    8.86    0.42
  -9   4  11    8.87    0.45
   8  -4 -11    3.11    0.27
  -8  -4  11    2.69    0.28
  -8   4  11    3.20    0.27
  -8   4  11    3.18    0.29
   7  -4 -11    5.22    0.32
  -7  -4  11    5.09    0.31
  -7  -4  11    5.43    0.30
  -7   4  11    5.45    0.28
   7   4 -11    5.48    0.33
   6  -4 -11   19.41    0.66
  -6  -4  11   18.41    0.65
  -6  -4  11   18.91    0.63
  -6   4  11   18.99    0.62
  -6   4  11   18.50    0.67
   6   4 -11   18.61    0.67
  -5  -4  11   37.95    1.09
   5  -4 -11   36.45    1.12
  -5  -4  11   38.40    1.12
  -5   4  11   36.36    1.08
  -5   4  11   37.44    1.13
   5   4 -11   37.13    1.13
  -4  -4  11    7.16    0.34
   4  -4 -11    7.07    0.35
  -4  -4  11    6.94    0.33
  -4   4  11    7.37    0.35
  -4   4  11    7.21    0.32
   4   4 -11    7.15    0.36
   3  -4 -11    7.99    0.37
  -3  -4  11    7.64    0.35
  -3  -4  11    8.18    0.35
  -3   4  11    7.74    0.36
   3   4 -11    7.88    0.38
  -3   4  11    7.92    0.34
  -2  -4  11   42.82    1.23
   2  -4 -11   43.28    1.26
  -2  -4  11   44.40    1.25
  -2   4  11   41.46    1.22
   2   4 -11   41.85    1.25
  -2   4  11   42.52    1.23
   1  -4 -11   70.21    1.97
  -1  -4  11   76.35    1.97
  -1   4  11   68.89    2.14
  -1   4  11   73.03    1.95
   1   4 -11   70.22    1.98
   1   4 -11   71.65    1.97
   0  -4 -11    0.61    0.14
   0  -4  11    0.49    0.12
   0   4 -11    0.48    0.13
   0   4  11    0.90    0.13
   0   4  11    0.58    0.12
   0   4 -11    0.44    0.13
  -1  -4 -11    2.58    0.24
  -1  -4 -11    2.85    0.20
   1  -4  11    2.10    0.20
  -1   4 -11    2.60    0.23
  -1   4 -11    2.30    0.24
   1   4  11    2.40    0.19
   2  -4  11   20.81    0.70
  -2  -4 -11   21.05    0.70
  -2  -4 -11   21.01    0.71
  -2   4 -11   20.31    0.68
  -2   4 -11   20.65    0.75
   2   4  11   20.37    0.67
   2   4  11   21.25    0.64
  -3  -4 -11    7.49    0.36
   3  -4  11    7.24    0.35
  -3  -4 -11    7.47    0.35
  -3   4 -11    6.47    0.42
   3   4  11    7.21    0.33
  -3   4 -11    6.77    0.33
  -4  -4 -11    7.54    0.38
  -4  -4 -11    7.40    0.37
   4  -4  11    7.32    0.36
  -4   4 -11    7.29    0.32
   4   4  11    7.26    0.33
  -4   4 -11    7.04    0.43
   5  -4  11   51.85    1.58
  -5  -4 -11   49.69    1.49
  -5  -4 -11   50.70    1.47
  -5   4 -11   50.82    1.61
   5   4  11   50.61    1.42
  -5   4 -11   52.55    1.54
   6  -4  11   22.21    0.75
  -6  -4 -11   20.49    0.72
  -6  -4 -11   20.96    0.77
   6   4  11   20.50    0.67
  -6   4 -11   22.20    0.86
  -7  -4 -11    4.63    0.36
   7  -4  11    4.52    0.32
   7   4  11    4.98    0.30
   7   4  11    4.49    0.26
  -7   4 -11    4.52    0.42
   8  -4  11    1.45    0.21
  -8  -4 -11    0.94    0.24
  -8   4 -11    1.37    0.29
   8   4  11    1.20    0.18
   8  -5 -11   24.36    0.83
  -8  -5  11   24.32    0.83
  -8   5  11   25.02    0.85
   8   5 -11   24.85    0.83
   7  -5 -11    4.12    0.30
  -7  -5  11    3.79    0.30
  -7   5  11    3.89    0.31
  -7   5  11    4.12    0.27
   7   5 -11    3.91    0.32
   6  -5 -11   12.18    0.50
  -6  -5  11   12.26    0.50
  -6   5  11   11.68    0.46
   6   5 -11   12.71    0.52
  -5  -5  11    6.82    0.36
   5  -5 -11    6.43    0.38
  -5   5  11    6.88    0.34
  -5   5  11    6.86    0.36
   4  -5 -11    0.79    0.16
  -4  -5  11    0.21    0.12
  -4  -5  11    0.47    0.13
  -4   5  11    0.26    0.12
   4   5 -11    0.50    0.15
  -4   5  11    0.65    0.15
   3  -5 -11   66.31    1.88
  -3  -5  11   66.54    1.82
  -3  -5  11   69.01    1.86
  -3   5  11   65.15    1.84
  -3   5  11   67.95    1.85
   3   5 -11   67.21    1.89
   2  -5 -11    8.13    0.39
  -2  -5  11    8.12    0.37
  -2  -5  11    7.84    0.36
  -2   5  11    7.41    0.35
   2   5 -11    7.65    0.40
  -2   5  11    8.53    0.37
   1  -5 -11    5.10    0.31
  -1  -5  11    4.86    0.28
  -1   5  11    5.17    0.28
   1   5 -11    4.33    0.31
  -1   5  11    4.63    0.26
   1   5 -11    4.82    0.30
   0  -5 -11   32.20    1.00
   0  -5  11   31.29    0.96
   0   5 -11   31.17    0.98
   0   5 -11   31.20    0.99
   0   5  11   30.84    0.91
   0   5  11   31.32    0.96
   1  -5  11    2.01    0.22
  -1  -5 -11    2.13    0.24
   1   5  11    2.03    0.20
  -1   5 -11    2.25    0.24
  -1   5 -11    2.44    0.25
  -2  -5 -11    3.85    0.29
   2  -5  11    3.78    0.26
  -2   5 -11    4.02    0.32
   2   5  11    3.86    0.25
  -2   5 -11    3.67    0.28
   3  -5  11   16.35    0.75
  -3  -5 -11   15.51    0.64
  -3  -5 -11   17.29    0.61
  -3   5 -11   15.48    0.57
  -3   5 -11   16.16    0.66
   3   5  11   16.22    0.57
  -4  -5 -11   12.26    0.53
   4  -5  11   12.37    0.50
  -4  -5 -11   11.86    0.51
   4   5  11   12.19    0.48
  -4   5 -11   12.51    0.48
  -5  -5 -11   12.69    0.56
   5  -5  11   12.96    0.52
  -5  -5 -11   13.26    0.53
   5   5  11   12.11    0.52
  -5   5 -11   13.13    0.62
  -6  -5 -11    0.71    0.16
  -6  -5 -11    1.20    0.24
   6  -5  11    0.71    0.15
   6   5  11    0.87    0.15
  -6   5 -11    0.90    0.24
   6  -6 -11   31.75    1.02
  -6  -6  11   32.47    1.03
   6   6 -11   32.67    1.04
  -6   6  11   33.06    1.02
  -6   6  11   32.23    0.97
  -5  -6  11    2.29    0.25
   5  -6 -11    1.83    0.26
  -5   6  11    2.20    0.22
   5   6 -11    2.13    0.26
   4  -6 -11    0.64    0.16
  -4  -6  11    0.80    0.16
  -4   6  11    0.85    0.17
   4   6 -11    0.84    0.20
  -4   6  11    0.72    0.14
  -3  -6  11    8.80    0.41
   3  -6 -11    9.02    0.42
   3   6 -11    8.85    0.45
  -3   6  11    8.21    0.38
  -3   6  11    9.20    0.39
  -2  -6  11   11.89    0.46
   2  -6 -11   11.65    0.50
  -2  -6  11   11.66    0.48
  -2   6  11   11.86    0.47
   2   6 -11   11.87    0.52
   1  -6 -11   13.57    0.55
  -1  -6  11   13.21    0.52
  -1   6  11   13.29    0.51
   1   6 -11   12.84    0.51
   1   6 -11   13.46    0.56
   0  -6  11   10.07    0.43
   0  -6 -11   10.04    0.46
   0   6  11   10.20    0.42
   0   6 -11    9.84    0.44
   1  -6  11    2.31    0.23
  -1  -6 -11    2.61    0.27
  -1   6 -11    2.27    0.27
   1   6  11    2.64    0.24
  -2  -6 -11    0.60    0.16
   2  -6  11    0.71    0.15
  -2   6 -11    0.55    0.17
   2   6  11    0.53    0.13
  -2   6 -11    0.66    0.18
  -3  -6 -11   43.11    1.29
   3  -6  11   43.14    1.26
  -3   6 -11   41.13    1.25
  -3   6 -11   43.10    1.32
   3   6  11   42.30    1.23
  -4  -6 -11    7.10    0.39
   4  -6  11    7.26    0.37
  -4   6 -11    6.66    0.37
  -4   6 -11    6.92    0.44
   4   6  11    6.86    0.35
   5  -6  11   13.03    0.53
  -5  -6 -11   12.70    0.54
  -5   6 -11   12.98    0.63
   5   6  11   13.50    0.50
   3  -7 -11   14.45    0.59
  -3  -7  11   15.16    0.58
   3   7 -11   14.30    0.61
  -3   7  11   14.50    0.55
   2  -7 -11    6.32    0.38
  -2  -7  11    6.62    0.37
  -2   7  11    6.33    0.34
   2   7 -11    6.66    0.41
  -1  -7  11    5.40    0.33
   1  -7 -11    5.04    0.36
   1   7 -11    5.88    0.40
  -1   7  11    5.48    0.32
   0  -7  11    5.08    0.32
   0  -7 -11    4.98    0.35
   0   7  11    4.75    0.30
   0   7 -11    4.73    0.37
  -1  -7 -11    4.80    0.35
   1  -7  11    5.16    0.32
  -1   7 -11    4.39    0.36
  -1   7 -11    4.54    0.37
   1   7  11    5.20    0.31
   2  -7  11   30.39    0.94
   2   7  11   29.48    0.92
  -2   7 -11   27.82    0.94
  11   0 -12    0.17    0.15
 -11   0  12    0.60    0.17
  10   0 -12   53.58    1.53
 -10   0  12   54.81    1.58
   9   0 -12    0.09    0.11
  -9   0  12    0.40    0.15
   9   0 -12    0.23    0.12
   8   0 -12   11.50    0.43
  -8   0  12   11.70    0.49
   8   0 -12   11.67    0.46
   7   0 -12    0.29    0.10
  -6   0  12  191.92    4.74
  -6   0  12  184.29    4.89
   6   0 -12  191.60    4.83
   6   0 -12  182.78    4.81
  -5   0  12    0.32    0.12
  -5   0  12    0.25    0.08
   5   0 -12    0.23    0.09
   5   0 -12    0.15    0.09
   4   0 -12    3.47    0.20
  -4   0  12    3.74    0.17
  -4   0  12    3.52    0.24
   4   0 -12    3.33    0.22
  -3   0  12    0.40    0.07
  -3   0  12    0.44    0.11
   3   0 -12    0.31    0.10
   3   0 -12    0.56    0.10
  -2   0  12   17.25    0.51
   2   0 -12   16.93    0.58
   2   0 -12   18.03    0.54
  -2   0  12   17.10    0.60
  -1   0  12    0.43    0.12
  -1   0  12    0.54    0.08
   1   0 -12    0.38    0.10
   1   0 -12    0.73    0.10
   0   0  12    3.56    0.18
   0   0  12    2.77    0.23
   0   0 -12    3.28    0.18
  -1   0 -12    0.18    0.08
   1   0  12    0.18    0.08
  -1   0 -12    0.25    0.10
  -2   0 -12    0.68    0.14
  -2   0 -12    1.25    0.13
  -2   0 -12    0.99    0.20
   3   0  12    0.40    0.08
  -3   0 -12    0.23    0.11
  -3   0 -12    0.18    0.09
   3   0  12    0.43    0.12
  -4   0 -12  139.12    3.52
   4   0  12  135.46    3.53
   4   0  12  138.49    3.57
  -4   0 -12  132.85    3.63
  -5   0 -12    0.21    0.09
  -5   0 -12    0.42    0.14
   5   0  12    0.25    0.11
  -6   0 -12  127.57    3.56
   6   0  12  135.01    3.53
  -6   0 -12  139.15    3.42
   6   0  12  131.84    3.44
   7   0  12    0.18    0.11
   7   0  12    0.12    0.13
  -7   0 -12    0.29    0.14
   8   0  12    7.37    0.32
  -8   0 -12    7.24    0.43
   8   0  12    6.92    0.38
   9   0  12    0.08    0.13
  -9   0 -12    0.23    0.18
   9   0  12    0.21    0.16
  11  -1 -12   10.01    0.45
 -11  -1  12   10.11    0.48
  11   1 -12   10.52    0.45
 -11   1  12   10.24    0.49
 -10  -1  12    1.17    0.20
  10  -1 -12    0.90    0.17
  10   1 -12    1.02    0.18
 -10   1  12    0.89    0.18
   9  -1 -12    5.04    0.32
  -9  -1  12    4.98    0.32
   9  -1 -12    4.67    0.27
  -9   1  12    5.10    0.33
   9   1 -12    4.90    0.28
   9   1 -12    4.88    0.29
   8  -1 -12    0.30    0.11
  -8  -1  12    0.62    0.14
   8  -1 -12    0.64    0.14
  -8  -1  12    0.52    0.12
   8   1 -12    0.49    0.13
  -8   1  12    0.63    0.15
   8   1 -12    0.42    0.12
   7  -1 -12   26.80    0.86
  -7  -1  12   27.41    0.90
  -7  -1  12   27.90    0.82
   7  -1 -12   27.98    0.84
   7   1 -12   28.89    0.85
  -7   1  12   28.46    0.91
   7   1 -12   27.68    0.85
   6  -1 -12   10.71    0.43
  -6  -1  12   11.08    0.46
   6  -1 -12   10.59    0.42
  -6  -1  12   10.84    0.41
  -6   1  12   10.92    0.47
   6   1 -12   10.16    0.41
  -5  -1  12    7.45    0.36
   5  -1 -12    7.35    0.33
  -5  -1  12    7.46    0.30
   5  -1 -12    6.96    0.32
   5   1 -12    7.50    0.33
   5   1 -12    7.33    0.30
   4  -1 -12   90.87    2.44
   4  -1 -12   90.38    2.41
  -4  -1  12   92.63    2.38
  -4  -1  12   91.29    2.47
   4   1 -12   91.98    2.37
  -4   1  12   91.11    2.48
   4   1 -12   91.75    2.44
  -3  -1  12    0.30    0.11
   3  -1 -12    0.33    0.10
  -3  -1  12    0.47    0.09
   3   1 -12    0.29    0.10
   2  -1 -12   78.23    2.17
  -2  -1  12   82.26    2.20
   2  -1 -12   81.47    2.14
  -2  -1  12   81.05    2.11
   2   1 -12   80.31    2.07
   2   1 -12   83.33    2.18
  -2   1  12   78.62    2.19
   1  -1 -12    1.56    0.16
  -1  -1  12    1.35    0.13
  -1  -1  12    1.24    0.16
   1  -1 -12    1.22    0.15
  -1   1  12    1.37    0.22
   1   1 -12    1.17    0.14
  -1   1  12    1.49    0.11
   0  -1 -12  125.59    3.34
   0  -1  12  133.63    3.32
   0  -1 -12  133.63    3.32
   0  -1  12  124.15    3.38
   0   1 -12  122.39    3.34
   0   1 -12  128.23    3.42
   0   1  12  130.17    3.27
  -1  -1 -12    1.34    0.15
  -1  -1 -12    1.03    0.14
   1  -1  12    1.19    0.19
  -1   1 -12    1.34    0.18
   1   1  12    1.41    0.14
  -2  -1 -12    3.28    0.21
  -2  -1 -12    3.29    0.20
   2  -1  12    3.12    0.14
   2   1  12    3.42    0.20
   2   1  12    3.37    0.23
  -2   1 -12    2.70    0.25
  -3  -1 -12    1.74    0.16
  -3  -1 -12    1.46    0.18
   3  -1  12    1.67    0.18
  -3  -1 -12    1.51    0.16
   3  -1  12    1.30    0.11
   3   1  12    1.50    0.16
  -3   1 -12    1.50    0.15
  -3   1 -12    1.29    0.19
  -4  -1 -12   19.56    0.69
  -4  -1 -12   20.43    0.68
   4  -1  12   20.51    0.58
   4  -1  12   20.21    0.68
  -4  -1 -12   20.58    0.63
  -4   1 -12   20.49    0.63
  -4   1 -12   19.16    0.74
   5  -1  12    1.31    0.19
  -5  -1 -12    1.40    0.21
  -5  -1 -12    1.45    0.20
   5  -1  12    1.50    0.14
  -5  -1 -12    1.62    0.17
   5   1  12    1.28    0.16
  -5   1 -12    1.30    0.15
  -5   1 -12    1.40    0.24
   6  -1  12   26.04    0.85
   6  -1  12   25.94    0.76
  -6  -1 -12   26.56    0.87
  -6  -1 -12   26.17    0.86
   6   1  12   26.33    0.80
  -6   1 -12   26.20    0.93
   6   1  12   27.25    0.77
  -7  -1 -12   11.40    0.49
  -7  -1 -12   11.52    0.49
   7  -1  12   10.62    0.39
   7  -1  12   10.29    0.51
   7   1  12   10.96    0.42
  -7   1 -12   11.04    0.55
  -8  -1 -12    0.86    0.19
   8  -1  12    0.35    0.14
   8   1  12    0.44    0.13
  -8   1 -12    0.31    0.20
  -9  -1 -12    2.97    0.36
   9  -1  12    2.59    0.28
  -9  -1 -12    3.00    0.32
  -9   1 -12    2.46    0.38
   9   1  12    2.76    0.24
 -10  -2  12   36.71    1.15
 -10  -2  12   36.43    1.15
  10  -2 -12   37.09    1.13
  10   2 -12   38.65    1.12
 -10   2  12   38.49    1.19
  -9  -2  12   12.08    0.49
   9  -2 -12   12.33    0.50
  -9  -2  12   12.07    0.47
   9   2 -12   12.49    0.48
   9   2 -12   11.73    0.46
  -9   2  12   12.89    0.54
   8  -2 -12    0.61    0.13
   8  -2 -12    0.89    0.16
  -8  -2  12    1.18    0.18
  -8  -2  12    0.79    0.15
   8   2 -12    1.32    0.17
  -8   2  12    0.89    0.19
   8   2 -12    1.08    0.15
   7  -2 -12   10.39    0.41
   7  -2 -12   10.37    0.44
  -7  -2  12   10.39    0.41
  -7  -2  12   10.60    0.44
  -7   2  12   10.35    0.47
   7   2 -12   10.55    0.41
   7   2 -12   10.53    0.43
   6  -2 -12   73.43    1.99
  -6  -2  12   73.46    1.97
   6  -2 -12   74.40    2.01
  -6  -2  12   75.59    2.03
   6   2 -12   70.91    2.00
  -6   2  12   72.15    2.05
   6   2 -12   75.23    1.95
  -5  -2  12   13.39    0.56
   5  -2 -12   13.61    0.50
  -5  -2  12   14.13    0.52
   5  -2 -12   13.21    0.50
   5   2 -12   14.06    0.51
  -5   2  12   14.37    0.55
   5   2 -12   14.02    0.45
   4  -2 -12   17.90    0.61
  -4  -2  12   17.98    0.62
  -4  -2  12   18.26    0.58
   4  -2 -12   18.05    0.61
   4   2 -12   18.18    0.53
   4   2 -12   17.68    0.62
  -4   2  12   18.39    0.65
   3  -2 -12    1.09    0.16
  -3  -2  12    1.28    0.18
  -3  -2  12    1.17    0.14
   3  -2 -12    1.15    0.16
  -3   2  12    1.37    0.18
   3   2 -12    1.55    0.18
   2  -2 -12   21.64    0.71
  -2  -2  12   22.78    0.69
  -2  -2  12   22.64    0.75
  -2   2  12   22.48    0.74
   2   2 -12   23.06    0.73
  -1  -2  12   58.23    1.64
  -1  -2  12   57.88    1.57
   1  -2 -12   57.28    1.60
   1  -2 -12   57.02    1.59
  -1   2  12   56.11    1.61
   1   2 -12   60.28    1.61
   0  -2  12   34.23    1.03
   0  -2 -12   34.03    1.01
   0  -2 -12   33.44    1.00
   0   2 -12   33.02    1.01
   0   2  12   33.74    0.92
   0   2  12   37.83    1.23
   0   2 -12   32.97    1.05
  -1  -2 -12   13.15    0.47
   1  -2  12   12.99    0.47
   1   2  12   13.12    0.48
  -1   2 -12   13.13    0.54
  -1   2 -12   13.22    0.48
   1   2  12   13.67    0.43
  -2  -2 -12   35.53    1.00
  -2  -2 -12   35.16    1.03
  -2  -2 -12   36.09    1.03
   2  -2  12   34.99    1.04
   2   2  12   35.57    1.07
  -2   2 -12   34.05    1.12
  -2   2 -12   34.63    1.01
  -3  -2 -12   41.85    1.19
  -3  -2 -12   43.03    1.18
  -3  -2 -12   41.21    1.19
   3  -2  12   40.40    1.20
  -3   2 -12   39.98    1.29
  -3   2 -12   41.77    1.16
  -4  -2 -12   22.95    0.74
   4  -2  12   21.96    0.74
  -4  -2 -12   22.99    0.72
   4   2  12   22.89    0.69
  -4   2 -12   21.87    0.82
   4   2  12   22.28    0.71
  -5  -2 -12    0.18    0.12
   5   2  12    0.19    0.10
  -5   2 -12    0.24    0.09
   5   2  12    0.20    0.09
  -5   2 -12    0.18    0.14
   6  -2  12   33.64    1.04
  -6  -2 -12   32.85    1.04
  -6  -2 -12   33.88    1.01
   6   2  12   33.48    0.95
   6   2  12   32.59    0.99
  -6   2 -12   33.42    1.14
  -7  -2 -12   29.04    0.96
  -7  -2 -12   30.83    0.92
   7  -2  12   29.49    0.95
  -7   2 -12   28.21    1.03
   7   2  12   29.49    0.90
   8  -2  12    3.00    0.28
  -8  -2 -12    2.62    0.30
  -8   2 -12    2.76    0.36
   8   2  12    2.80    0.25
  -9  -2 -12   17.09    0.69
   9  -2  12   17.56    0.66
   9   2  12   17.28    0.60
  -9   2 -12   17.01    0.76
  10  -3 -12   20.92    0.73
 -10  -3  12   21.08    0.72
  10   3 -12   20.12    0.71
  10   3 -12   21.10    0.70
 -10   3  12   20.76    0.76
  -9  -3  12    9.53    0.49
   9  -3 -12    9.73    0.44
  -9  -3  12   10.68    0.44
   9   3 -12    9.79    0.42
   9   3 -12    9.58    0.48
  -9   3  12   10.44    0.49
  -8  -3  12    2.72    0.25
   8  -3 -12    3.20    0.26
  -8  -3  12    3.14    0.26
  -8   3  12    3.53    0.23
  -8   3  12    3.45    0.28
   8   3 -12    2.82    0.25
   8   3 -12    2.38    0.24
   7  -3 -12   21.79    0.70
  -7  -3  12   21.97    0.73
   7  -3 -12   22.38    0.74
  -7  -3  12   21.87    0.72
   7   3 -12   21.72    0.73
   7   3 -12   22.67    0.69
  -7   3  12   21.71    0.77
   6  -3 -12   40.02    1.17
  -6  -3  12   41.17    1.19
   6  -3 -12   40.16    1.20
  -6  -3  12   41.18    1.18
  -6   3  12   40.82    1.23
   6   3 -12   41.52    1.13
   6   3 -12   39.73    1.19
  -5  -3  12    4.27    0.26
   5  -3 -12    3.80    0.24
  -5  -3  12    4.12    0.26
   5  -3 -12    4.17    0.26
  -5   3  12    3.95    0.28
   5   3 -12    4.66    0.27
   4  -3 -12   42.21    1.22
  -4  -3  12   41.66    1.20
  -4  -3  12   43.28    1.23
   4  -3 -12   41.47    1.21
   4   3 -12   42.37    1.24
  -4   3  12   40.73    1.24
  -3  -3  12   13.26    0.48
  -3  -3  12   13.34    0.51
   3  -3 -12   13.55    0.51
   3  -3 -12   13.43    0.49
   3   3 -12   13.42    0.51
  -3   3  12   13.61    0.52
  -2  -3  12    1.70    0.17
   2  -3 -12    1.64    0.18
   2  -3 -12    1.80    0.20
  -2  -3  12    1.65    0.19
   2   3 -12    1.67    0.20
  -2   3  12    1.66    0.18
  -1  -3  12    1.27    0.16
   1  -3 -12    1.34    0.18
   1  -3 -12    0.95    0.14
  -1   3  12    1.33    0.16
   1   3 -12    1.13    0.17
   1   3 -12    1.14    0.17
   0  -3 -12   42.48    1.24
   0  -3  12   44.46    1.24
   0  -3 -12   43.55    1.26
   0   3 -12   43.03    1.25
   0   3 -12   42.92    1.30
  -1  -3 -12    0.17    0.11
   1  -3  12    0.42    0.11
   1   3  12    0.29    0.09
  -1   3 -12    0.16    0.10
   1   3  12    0.23    0.10
  -1   3 -12    0.26    0.13
  -2  -3 -12   20.84    0.70
  -2  -3 -12   22.00    0.66
   2  -3  12   20.98    0.70
   2   3  12   20.83    0.67
  -2   3 -12   20.38    0.77
   2   3  12   21.27    0.66
  -2   3 -12   21.45    0.68
  -3  -3 -12   32.62    0.96
  -3  -3 -12   30.33    0.94
   3  -3  12   30.53    0.94
   3   3  12   30.06    0.88
   3   3  12   28.73    0.89
  -3   3 -12   29.37    1.02
  -3   3 -12   29.76    0.89
  -4  -3 -12   26.97    0.84
   4  -3  12   26.55    0.85
  -4  -3 -12   27.02    0.84
  -4   3 -12   25.70    0.94
  -4   3 -12   26.07    0.78
   4   3  12   25.81    0.80
   4   3  12   26.98    0.82
   5  -3  12    8.38    0.38
  -5  -3 -12    8.08    0.38
  -5  -3 -12    7.84    0.40
   5   3  12    7.35    0.42
   5   3  12    7.89    0.34
  -5   3 -12    7.95    0.32
  -5   3 -12    8.06    0.49
   6  -3  12    3.39    0.27
  -6  -3 -12    3.60    0.30
   6   3  12    3.11    0.25
   6   3  12    3.66    0.23
  -6   3 -12    3.60    0.37
  -7  -3 -12   26.22    0.95
   7  -3  12   28.34    0.90
   7   3  12   27.84    0.87
  -7   3 -12   27.48    1.02
   8  -3  12   29.50    0.95
  -8  -3 -12   28.60    0.99
  -8   3 -12   29.00    1.07
   8   3  12   30.02    0.92
  -9  -4  12   32.45    1.04
   9  -4 -12   33.40    1.05
  -9   4  12   34.39    1.09
   9   4 -12   33.79    1.03
  -8  -4  12   23.44    0.79
   8  -4 -12   24.01    0.81
  -8   4  12   24.80    0.83
   8   4 -12   23.33    0.79
  -8   4  12   23.85    0.74
  -7  -4  12   19.18    0.64
   7  -4 -12   18.98    0.67
  -7  -4  12   18.54    0.66
  -7   4  12   18.57    0.68
  -7   4  12   18.54    0.62
   6  -4 -12    6.45    0.37
  -6  -4  12    6.55    0.34
  -6  -4  12    6.52    0.33
  -6   4  12    6.83    0.32
  -6   4  12    6.64    0.36
   6   4 -12    6.47    0.36
   5  -4 -12    0.91    0.16
  -5  -4  12    1.27    0.19
  -5  -4  12    1.33    0.17
  -5   4  12    0.87    0.16
   5   4 -12    1.51    0.23
  -5   4  12    1.15    0.17
  -4  -4  12   10.68    0.44
  -4  -4  12   10.84    0.43
   4  -4 -12   11.29    0.46
  -4   4  12   10.63    0.45
   4   4 -12   10.98    0.47
  -4   4  12   11.17    0.43
  -3  -4  12    9.63    0.40
  -3  -4  12    9.49    0.40
   3  -4 -12    9.34    0.42
   3   4 -12    9.27    0.43
  -3   4  12    9.80    0.39
  -3   4  12    9.50    0.41
  -2  -4  12   30.80    0.94
  -2  -4  12   30.73    0.93
   2  -4 -12   30.97    0.96
  -2   4  12   29.27    0.92
  -2   4  12   31.35    0.94
   2   4 -12   30.46    0.97
   1  -4 -12    0.45    0.13
  -1  -4  12    0.32    0.11
   1   4 -12    0.32    0.12
  -1   4  12    0.71    0.12
   1   4 -12    0.17    0.12
  -1   4  12    0.44    0.12
   0  -4 -12   12.27    0.49
   0  -4  12   12.37    0.47
   0   4  12   12.33    0.46
   0   4 -12   12.04    0.48
   0   4  12   12.10    0.45
   0   4 -12   12.02    0.50
  -1  -4 -12   11.38    0.48
   1  -4  12   11.45    0.45
   1   4  12   11.64    0.42
  -1   4 -12   11.37    0.51
   1   4  12   11.08    0.43
  -1   4 -12   11.45    0.47
   2  -4  12   76.13    2.05
  -2  -4 -12   73.67    2.06
   2   4  12   75.16    1.98
   2   4  12   74.99    2.02
  -2   4 -12   73.60    2.03
  -2   4 -12   73.27    2.11
   3  -4  12    8.32    0.38
  -3  -4 -12    8.02    0.39
  -3  -4 -12    8.15    0.38
  -3   4 -12    7.85    0.35
   3   4  12    8.15    0.36
  -3   4 -12    7.93    0.45
  -4  -4 -12    0.64    0.15
   4  -4  12    0.51    0.14
  -4  -4 -12    0.60    0.16
  -4   4 -12    0.57    0.19
   4   4  12    0.39    0.12
  -4   4 -12    0.60    0.13
  -5  -4 -12    2.09    0.27
   5  -4  12    2.22    0.24
  -5  -4 -12    1.92    0.29
   5   4  12    2.10    0.20
  -5   4 -12    2.02    0.33
  -6  -4 -12    6.38    0.41
   6  -4  12    7.31    0.37
  -6  -4 -12    7.42    0.37
  -6   4 -12    7.19    0.48
   6   4  12    6.78    0.32
  -7  -4 -12    0.36    0.19
   7  -4  12    0.31    0.16
  -7   4 -12    0.25    0.21
   7   4  12    0.50    0.22
   7   4  12    0.51    0.16
   8  -5 -12    0.50    0.17
  -8  -5  12    0.77    0.18
  -8   5  12    0.43    0.17
   8   5 -12    0.65    0.18
   7  -5 -12    0.19    0.14
  -7  -5  12    0.13    0.14
  -7   5  12   -0.07    0.14
   7   5 -12    0.26    0.16
   6  -5 -12   14.54    0.56
  -6  -5  12   13.23    0.53
  -6   5  12   13.92    0.55
   6   5 -12   13.87    0.57
  -6   5  12   13.41    0.52
   5  -5 -12    6.83    0.37
  -5  -5  12    6.21    0.42
  -5   5  12    7.10    0.34
   5   5 -12    7.11    0.39
  -5   5  12    6.81    0.35
  -4  -5  12    0.27    0.13
   4  -5 -12    0.41    0.19
  -4  -5  12    0.24    0.12
   4   5 -12    0.15    0.15
  -4   5  12    0.08    0.11
  -4   5  12    0.01    0.11
  -3  -5  12   33.50    1.00
  -3  -5  12   35.00    1.03
   3  -5 -12   33.20    1.04
  -3   5  12   32.77    1.01
   3   5 -12   32.55    1.07
  -3   5  12   34.05    1.01
   2  -5 -12   24.82    0.84
  -2  -5  12   25.89    0.81
  -2  -5  12   26.16    0.82
   2   5 -12   25.51    0.85
  -2   5  12   25.59    0.81
  -2   5  12   24.95    0.79
  -1  -5  12   11.83    0.47
   1  -5 -12   11.57    0.50
   1   5 -12   11.54    0.48
  -1   5  12   12.50    0.47
  -1   5  12   11.64    0.44
   1   5 -12   11.93    0.50
   0  -5  12   51.60    1.43
   0  -5 -12   51.07    1.46
   0   5 -12   48.06    1.44
   0   5 -12   49.61    1.46
   0   5  12   50.29    1.42
   0   5  12   48.71    1.38
  -1  -5 -12    1.57    0.23
   1  -5  12    1.70    0.21
  -1   5 -12    1.33    0.21
   1   5  12    1.65    0.20
  -1   5 -12    1.37    0.20
  -2  -5 -12    3.67    0.42
  -2   5 -12    3.53    0.27
  -2   5 -12    3.07    0.31
   2   5  12    3.62    0.25
  -3  -5 -12   28.71    0.92
   3  -5  12   28.86    0.90
  -3   5 -12   27.45    1.23
  -3   5 -12   27.48    0.88
  -4  -5 -12    1.01    0.18
  -4  -5 -12    1.43    0.34
   4  -5  12    0.98    0.18
   4   5  12    1.40    0.19
  -4   5 -12    1.08    0.16
  -4   5 -12    1.30    0.25
   5  -5  12    1.37    0.23
  -5  -5 -12    1.40    0.21
  -5  -5 -12    1.44    0.24
   5   5  12    1.56    0.20
  -5   5 -12    1.48    0.26
   6  -5  12    8.18    0.41
  -6  -5 -12    7.96    0.42
  -6  -5 -12    7.75    0.47
  -6   5 -12    7.47    0.50
   6   5  12    7.92    0.36
  -6  -6  12    4.80    0.34
   6  -6 -12    4.86    0.34
   6   6 -12    4.80    0.36
  -6   6  12    4.77    0.29
  -6   6  12    4.64    0.33
   5  -6 -12    0.34    0.15
  -5  -6  12    0.41    0.15
  -5   6  12    0.12    0.14
  -5   6  12    0.48    0.13
   5   6 -12    0.19    0.17
  -4  -6  12    0.50    0.14
   4  -6 -12    0.41    0.16
  -4   6  12    0.22    0.14
   4   6 -12    0.15    0.16
  -4   6  12    0.11    0.13
  -3  -6  12   40.15    1.18
   3  -6 -12   38.65    1.19
  -3   6  12   37.63    1.13
   3   6 -12   39.14    1.21
  -3   6  12   39.82    1.16
   2  -6 -12    0.40    0.15
  -2  -6  12    0.41    0.14
  -2  -6  12    0.28    0.13
   2   6 -12    0.23    0.15
  -2   6  12    0.35    0.14
  -1  -6  12    0.61    0.15
  -1  -6  12    0.37    0.13
   1  -6 -12    0.48    0.16
   1   6 -12    0.80    0.20
  -1   6  12    0.46    0.13
   0  -6  12    2.86    0.25
   0  -6 -12    2.48    0.27
   0   6  12    2.99    0.24
   0   6 -12    2.53    0.29
   0   6 -12    2.48    0.27
  -1  -6 -12    4.05    0.32
   1  -6  12    4.23    0.29
   1   6  12    4.14    0.27
  -1   6 -12    3.90    0.33
  -1   6 -12    3.96    0.32
  -2  -6 -12    1.45    0.21
   2  -6  12    1.47    0.22
  -2   6 -12    1.19    0.21
   2   6  12    1.61    0.21
  -2   6 -12    1.38    0.22
  -3  -6 -12   22.21    0.77
   3  -6  12   22.97    0.75
   3   6  12   22.63    0.72
  -3   6 -12   19.13    0.77
  -3   6 -12   22.26    0.82
  -4  -6 -12   16.67    0.64
   4  -6  12   16.27    0.61
  -4   6 -12   16.36    0.69
   4   6  12   16.34    0.58
  -1   7  12    7.18    0.36
   1   7 -12    6.72    0.43
  10   0 -13    0.05    0.14
 -10   0  13    0.11    0.14
   9   0 -13    5.45    0.31
   9   0 -13    4.86    0.29
  -9   0  13    5.44    0.33
   8   0 -13    0.30    0.13
  -8   0  13    0.39    0.14
   8   0 -13    0.21    0.12
   7   0 -13  131.41    3.43
  -7   0  13  131.58    3.50
   7   0 -13  131.83    3.43
  -6   0  13    0.39    0.13
   6   0 -13    0.31    0.11
   5   0 -13   19.42    0.65
  -5   0  13   19.91    0.69
  -5   0  13   20.29    0.57
   4   0 -13    0.20    0.10
   4   0 -13    0.23    0.09
  -4   0  13    0.34    0.07
  -4   0  13    0.17    0.11
  -3   0  13  106.91    2.67
  -3   0  13  102.15    2.80
   3   0 -13  104.86    2.72
   3   0 -13  104.76    2.78
  -2   0  13    0.27    0.07
  -2   0  13    0.44    0.12
   2   0 -13    0.30    0.10
   2   0 -13    0.37    0.09
   1   0 -13   13.15    0.49
  -1   0  13   13.35    0.52
   1   0 -13   14.09    0.44
  -1   0  13   13.79    0.43
   0   0  13    0.25    0.09
   0   0 -13    0.23    0.09
   0   0 -13    0.20    0.08
   0   0  13    0.36    0.09
  -1   0 -13   47.73    1.37
  -1   0 -13   51.22    1.32
   1   0  13   47.28    1.41
   1   0  13   50.12    1.35
   2   0  13    0.33    0.10
  -2   0 -13    0.49    0.10
  -2   0 -13    0.44    0.12
  -2   0 -13    0.80    0.12
   3   0  13   17.47    0.59
  -3   0 -13   17.03    0.64
  -3   0 -13   17.31    0.57
   3   0  13   18.01    0.54
  -4   0 -13   -0.04    0.08
  -4   0 -13    0.17    0.13
   4   0  13    0.21    0.10
   4   0  13    0.03    0.09
  -5   0 -13   17.27    0.66
  -5   0 -13   16.75    0.53
   5   0  13   16.52    0.53
   5   0  13   16.17    0.59
  -6   0 -13    0.35    0.15
   6   0  13    0.02    0.11
  -6   0 -13    0.26    0.19
   6   0  13    0.11    0.10
  -7   0 -13   50.28    1.51
   7   0  13   50.39    1.38
   8   0  13    0.24    0.12
  -8   0 -13    0.14    0.18
   8   0  13    0.08    0.13
   9   0  13   50.54    1.50
  10  -1 -13    0.37    0.14
 -10  -1  13    0.28    0.15
  10   1 -13   -0.03    0.13
 -10   1  13    0.27    0.13
   9  -1 -13   28.70    0.86
   9  -1 -13   27.92    0.95
   9   1 -13   29.30    0.89
   9   1 -13   28.37    0.86
  -9   1  13   28.58    0.94
   8  -1 -13    9.07    0.38
   8  -1 -13    9.18    0.41
  -8  -1  13   10.07    0.44
  -8   1  13    9.36    0.46
   8   1 -13    9.67    0.40
   8   1 -13    9.23    0.39
  -7  -1  13    0.73    0.16
   7  -1 -13    0.56    0.14
  -7  -1  13    0.78    0.14
   7  -1 -13    0.55    0.13
  -7   1  13    0.84    0.17
   7   1 -13    0.71    0.14
   7   1 -13    0.77    0.14
   6  -1 -13    8.84    0.38
  -6  -1  13    9.16    0.41
   6  -1 -13    9.25    0.39
   6   1 -13    9.15    0.37
   6   1 -13    8.69    0.38
  -6   1  13    9.09    0.43
  -5  -1  13   15.45    0.57
   5  -1 -13   14.88    0.54
   5  -1 -13   15.02    0.53
  -5  -1  13   15.56    0.49
  -5   1  13   15.00    0.58
   5   1 -13   15.08    0.55
   4  -1 -13   48.55    1.36
  -4  -1  13   47.20    1.29
  -4  -1  13   49.57    1.40
   4  -1 -13   44.92    1.38
  -4   1  13   48.61    1.40
   4   1 -13   46.77    1.36
   4   1 -13   49.27    1.29
   3  -1 -13   42.01    1.18
  -3  -1  13   42.59    1.14
  -3  -1  13   40.89    1.22
   3  -1 -13   40.78    1.20
   3   1 -13   44.18    1.12
  -3   1  13   41.03    1.23
   3   1 -13   38.74    1.20
  -2  -1  13   53.28    1.43
  -2  -1  13   51.93    1.52
   2  -1 -13   51.80    1.49
   2   1 -13   55.58    1.40
   2   1 -13   53.45    1.50
  -2   1  13   53.71    1.52
   1  -1 -13  155.07    4.14
  -1  -1  13  161.47    4.19
  -1  -1  13  158.95    4.10
   1  -1 -13  162.96    4.11
  -1   1  13  157.74    4.04
  -1   1  13  161.79    4.18
   1   1 -13  163.59    4.16
   0  -1 -13    1.59    0.17
   0  -1 -13    1.53    0.16
   0  -1  13    2.14    0.19
   0   1 -13    1.52    0.17
   0   1  13    1.48    0.17
  -1  -1 -13   65.54    1.70
  -1  -1 -13   64.32    1.73
   1  -1  13   61.46    1.70
  -1   1 -13   60.87    1.79
  -1   1 -13   61.18    1.72
   1   1  13   62.75    1.75
   1   1  13   64.10    1.67
   2  -1  13    6.28    0.22
   2  -1  13    6.34    0.30
  -2  -1 -13    6.55    0.29
  -2  -1 -13    6.46    0.30
   2   1  13    6.19    0.31
  -2   1 -13    6.16    0.29
  -2   1 -13    6.61    0.36
   3  -1  13   42.60    1.24
   3  -1  13   44.11    1.14
  -3  -1 -13   43.11    1.21
  -3  -1 -13   44.08    1.24
  -3  -1 -13   43.58    1.27
  -3   1 -13   41.78    1.33
  -3   1 -13   41.70    1.20
   3   1  13   42.81    1.24
   4  -1  13    3.33    0.24
   4  -1  13    3.61    0.18
  -4  -1 -13    3.42    0.21
  -4  -1 -13    3.45    0.26
   4   1  13    3.43    0.22
  -4   1 -13    3.52    0.30
   4   1  13    3.43    0.24
  -4   1 -13    3.65    0.22
   5  -1  13    7.63    0.37
  -5  -1 -13    8.37    0.40
  -5  -1 -13    8.11    0.33
   5   1  13    7.88    0.38
  -5   1 -13    7.84    0.32
   5   1  13    8.03    0.33
  -5   1 -13    7.42    0.43
  -6  -1 -13    3.74    0.30
   6  -1  13    3.54    0.27
  -6  -1 -13    3.70    0.29
  -6   1 -13    3.38    0.32
   6   1  13    3.51    0.21
   6   1  13    3.28    0.23
   7  -1  13    0.29    0.13
  -7  -1 -13    0.34    0.17
  -7   1 -13    0.18    0.21
   7   1  13    0.27    0.12
   8  -1  13    3.26    0.29
  -8  -1 -13    2.86    0.30
  -8  -1 -13    3.38    0.32
  -8   1 -13    2.83    0.35
  10  -2 -13    4.62    0.32
 -10  -2  13    4.49    0.33
  10   2 -13    4.48    0.31
 -10   2  13    4.21    0.34
   9  -2 -13    3.81    0.29
  -9  -2  13    3.59    0.27
  -9  -2  13    4.11    0.35
  -9   2  13    3.64    0.31
   9   2 -13    3.70    0.28
   9   2 -13    4.04    0.28
  -8  -2  13   16.13    0.56
  -8  -2  13   16.35    0.60
   8  -2 -13   16.87    0.61
   8  -2 -13   15.62    0.55
   8   2 -13   15.05    0.56
   8   2 -13   15.94    0.56
  -8   2  13   16.52    0.63
   7  -2 -13   43.45    1.26
  -7  -2  13   43.84    1.28
   7  -2 -13   42.44    1.23
  -7  -2  13   42.78    1.22
   7   2 -13   41.87    1.24
   7   2 -13   43.13    1.21
  -7   2  13   44.16    1.31
   6  -2 -13    8.27    0.37
  -6  -2  13    8.60    0.36
  -6  -2  13    9.19    0.41
   6  -2 -13    8.53    0.38
  -6   2  13    8.79    0.42
   6   2 -13    8.63    0.34
   6   2 -13    8.66    0.39
  -5  -2  13   11.76    0.47
  -5  -2  13   11.83    0.43
   5  -2 -13   11.84    0.46
   5  -2 -13   11.56    0.45
   5   2 -13   12.10    0.41
   5   2 -13   11.66    0.47
  -5   2  13   12.41    0.50
  -4  -2  13    1.62    0.20
   4  -2 -13    1.50    0.19
   4  -2 -13    1.62    0.18
   4   2 -13    1.61    0.20
   4   2 -13    1.88    0.14
  -4   2  13    1.45    0.20
   3  -2 -13   45.82    1.32
   3  -2 -13   46.59    1.34
  -3  -2  13   47.78    1.33
  -3  -2  13   46.84    1.36
  -3   2  13   45.74    1.36
   3   2 -13   47.79    1.35
  -2  -2  13    1.33    0.16
   2  -2 -13    1.29    0.16
  -2  -2  13    1.08    0.17
   2  -2 -13    1.07    0.15
  -2   2  13    1.25    0.17
   2   2 -13    0.98    0.15
   1  -2 -13   58.09    1.64
  -1  -2  13   60.67    1.69
   1  -2 -13   59.48    1.66
   1   2 -13   60.84    1.67
  -1   2  13   59.37    1.66
   0  -2 -13    1.15    0.16
   0  -2  13    0.89    0.14
   0  -2 -13    1.13    0.16
   0   2 -13    0.93    0.14
   0   2  13    0.95    0.15
   0   2 -13    1.36    0.19
   0   2  13    1.22    0.12
  -1  -2 -13    2.26    0.20
   1  -2  13    2.33    0.19
  -1  -2 -13    2.28    0.19
  -1   2 -13    2.49    0.20
   1   2  13    2.29    0.16
  -1   2 -13    2.34    0.23
   1   2  13    2.65    0.21
  -2  -2 -13   90.74    2.43
  -2  -2 -13   92.14    2.43
   2  -2  13   89.15    2.44
   2   2  13   95.26    2.40
  -2   2 -13   92.38    2.43
   2   2  13   90.76    2.44
  -2   2 -13   89.82    2.54
   3  -2  13    1.85    0.19
  -3  -2 -13    2.30    0.20
  -3  -2 -13    1.45    0.19
  -3   2 -13    1.75    0.18
  -3   2 -13    1.74    0.24
   3   2  13    1.96    0.18
  -4  -2 -13    3.43    0.26
   4  -2  13    3.31    0.25
  -4  -2 -13    3.46    0.24
   4   2  13    3.62    0.22
   4   2  13    3.43    0.24
  -4   2 -13    3.43    0.21
  -4   2 -13    3.60    0.32
  -5  -2 -13   48.99    1.42
   5  -2  13   48.97    1.42
  -5   2 -13   47.90    1.51
   5   2  13   48.14    1.34
   5   2  13   49.67    1.38
  -5   2 -13   49.67    1.33
  -6  -2 -13   12.66    0.50
  -6  -2 -13   12.22    0.52
   6   2  13   12.08    0.47
   6   2  13   12.20    0.44
  -7  -2 -13    6.35    0.41
  -7  -2 -13    7.10    0.40
   7  -2  13    7.36    0.38
   7   2  13    6.64    0.37
  -7   2 -13    6.94    0.47
   8  -2  13    0.02    0.13
  -8  -2 -13    0.16    0.18
   8   2  13    0.30    0.14
  -9  -3  13    8.26    0.40
   9  -3 -13    8.19    0.41
  -9   3  13    8.11    0.43
   9   3 -13    7.84    0.39
  -8  -3  13    0.71    0.15
   8  -3 -13    0.56    0.14
   8  -3 -13    0.42    0.14
  -8  -3  13    0.49    0.14
  -8   3  13    0.19    0.13
   7  -3 -13   58.65    1.76
   7  -3 -13   61.88    1.68
  -7  -3  13   62.39    1.72
  -7  -3  13   61.95    1.69
   7   3 -13   59.86    1.70
  -6  -3  13    0.60    0.15
   6  -3 -13    0.58    0.14
  -6  -3  13    0.67    0.14
   6  -3 -13    0.61    0.13
   6   3 -13    0.76    0.14
  -6   3  13    0.41    0.14
   5  -3 -13    0.20    0.11
   5  -3 -13   -0.03    0.10
  -5  -3  13    0.49    0.13
  -5  -3  13    0.17    0.11
  -5   3  13    0.35    0.12
   5   3 -13    0.26    0.12
  -4  -3  13   69.26    1.87
  -4  -3  13   67.98    1.83
   4  -3 -13   67.05    1.86
   4  -3 -13   65.00    1.84
   4   3 -13   66.00    1.86
  -4   3  13   68.24    1.88
  -3  -3  13   44.87    1.26
   3  -3 -13   43.39    1.29
   3  -3 -13   43.35    1.27
  -3  -3  13   45.54    1.30
  -3   3  13   44.75    1.30
   3   3 -13   43.71    1.29
  -2  -3  13   26.26    0.81
   2  -3 -13   25.62    0.82
  -2  -3  13   26.58    0.85
   2  -3 -13   27.02    0.84
  -2   3  13   26.50    0.84
   2   3 -13   26.56    0.85
   1  -3 -13   51.25    1.44
  -1  -3  13   51.65    1.47
  -1  -3  13   49.78    1.42
   1  -3 -13   50.17    1.45
  -1   3  13   51.74    1.44
   1   3 -13   50.97    1.45
   0  -3 -13   18.54    0.64
   0  -3  13   17.82    0.61
   0  -3 -13   18.16    0.63
   0   3 -13   18.47    0.68
   0   3 -13   18.49    0.64
   0   3  13   18.96    0.62
  -1  -3 -13    1.47    0.17
   1  -3  13    1.67    0.19
  -1  -3 -13    1.23    0.20
  -1   3 -13    1.52    0.23
  -1   3 -13    1.78    0.20
   1   3  13    1.30    0.17
  -2  -3 -13    0.22    0.11
  -2  -3 -13    0.45    0.13
   2  -3  13    0.07    0.09
  -2   3 -13    0.19    0.13
   2   3  13    0.08    0.08
   2   3  13    0.27    0.10
  -2   3 -13    0.07    0.11
   3  -3  13   46.48    1.33
  -3  -3 -13   47.11    1.30
  -3  -3 -13   44.69    1.32
  -3   3 -13   46.55    1.29
   3   3  13   44.78    1.29
   3   3  13   45.53    1.28
  -3   3 -13   45.47    1.42
  -4  -3 -13    7.46    0.36
  -4  -3 -13    7.81    0.38
   4  -3  13    7.74    0.37
  -4   3 -13    7.80    0.33
  -4   3 -13    7.72    0.46
   4   3  13    7.41    0.33
   4   3  13    7.54    0.33
   5  -3  13   21.10    0.79
  -5  -3 -13   21.91    0.73
  -5  -3 -13   21.35    0.75
   5   3  13   22.46    0.69
  -5   3 -13   22.50    0.72
   6  -3  13    2.22    0.25
  -6  -3 -13    1.92    0.27
  -6   3 -13    2.03    0.33
   6   3  13    1.99    0.20
  -7  -3 -13    3.28    0.33
   7  -3  13    3.27    0.29
   7   3  13    3.15    0.26
  -7   3 -13    2.86    0.39
   8  -4 -13    0.59    0.17
  -8  -4  13    0.29    0.14
  -8   4  13    0.47    0.14
   8   4 -13    0.54    0.16
  -8   4  13    0.30    0.16
   7  -4 -13    5.45    0.33
  -7  -4  13    4.88    0.31
  -7   4  13    4.66    0.32
  -7   4  13    5.07    0.28
   7   4 -13    4.65    0.32
   6  -4 -13   36.35    1.11
  -6  -4  13   36.56    1.08
  -6  -4  13   37.83    1.08
   6   4 -13   32.71    1.17
  -6   4  13   36.72    1.06
   5  -4 -13   23.55    0.80
  -5  -4  13   24.79    0.78
  -5  -4  13   24.14    0.78
   5   4 -13   24.19    0.81
  -5   4  13   24.30    0.76
  -5   4  13   24.46    0.81
  -4  -4  13   18.22    0.63
  -4  -4  13   18.03    0.62
   4  -4 -13   18.38    0.65
  -4   4  13   18.15    0.61
  -4   4  13   18.32    0.64
   4   4 -13   17.83    0.66
  -3  -4  13   18.55    0.63
  -3  -4  13   18.59    0.64
   3  -4 -13   18.48    0.66
  -3   4  13   18.56    0.62
  -3   4  13   18.19    0.64
   3   4 -13   18.00    0.65
   2  -4 -13   15.85    0.59
  -2  -4  13   16.00    0.58
  -2  -4  13   15.45    0.56
  -2   4  13   16.46    0.56
  -2   4  13   15.88    0.57
   2   4 -13   15.74    0.60
  -1  -4  13   10.03    0.41
  -1  -4  13    9.97    0.43
   1  -4 -13   10.25    0.45
  -1   4  13    9.91    0.41
  -1   4  13   10.09    0.41
   1   4 -13   10.06    0.45
   0  -4  13    2.34    0.21
   0  -4 -13    2.32    0.24
   0   4 -13    2.35    0.25
   0   4 -13    2.35    0.24
   0   4  13    2.29    0.21
   0   4  13    2.81    0.20
   1  -4  13   20.27    0.67
  -1  -4 -13   19.46    0.69
  -1   4 -13   19.13    0.68
   1   4  13   19.99    0.66
  -1   4 -13   19.90    0.73
   1   4  13   20.44    0.64
   2  -4  13   15.48    0.56
  -2  -4 -13   14.87    0.57
  -2   4 -13   15.51    0.63
   2   4  13   14.90    0.51
  -2   4 -13   15.44    0.56
   2   4  13   15.22    0.54
  -3  -4 -13   21.91    0.73
   3  -4  13   22.55    0.75
  -3  -4 -13   22.25    0.76
   3   4  13   23.08    0.72
  -3   4 -13   22.67    0.84
  -3   4 -13   22.30    0.72
   4  -4  13    0.82    0.15
  -4  -4 -13    0.83    0.17
  -4  -4 -13    0.70    0.25
  -4   4 -13    0.81    0.20
   4   4  13    0.86    0.14
  -4   4 -13    1.15    0.16
  -5  -4 -13   35.77    1.09
   5  -4  13   36.58    1.10
  -5  -4 -13   35.11    1.10
   5   4  13   35.44    1.04
  -5   4 -13   34.94    1.20
   6  -4  13   16.65    0.63
   6   4  13   16.61    0.60
  -6   4 -13   16.24    0.74
   7  -4  13    0.15    0.15
  -7  -4 -13    0.32    0.21
  -7   4 -13    0.15    0.24
   7   4  13    0.26    0.15
  -7  -5  13    4.43    0.32
   7  -5 -13    4.92    0.33
  -7   5  13    4.67    0.33
  -7   5  13    4.53    0.30
   7   5 -13    5.20    0.35
  -6  -5  13    2.16    0.25
   6  -5 -13    2.77    0.27
  -6   5  13    2.17    0.26
   6   5 -13    2.83    0.29
  -6   5  13    2.43    0.24
  -5  -5  13    1.70    0.23
  -5  -5  13    1.52    0.23
   5  -5 -13    1.74    0.24
   5   5 -13    1.61    0.22
  -5   5  13    1.54    0.21
  -4  -5  13    7.27    0.44
   4  -5 -13    9.16    0.41
  -4  -5  13    8.10    0.37
  -4   5  13    7.85    0.37
   4   5 -13    7.74    0.42
  -4   5  13    7.25    0.41
   3  -5 -13   30.99    1.01
  -3  -5  13   31.03    1.05
  -3  -5  13   32.14    0.97
   3   5 -13   32.03    1.02
  -3   5  13   32.58    0.97
  -2  -5  13    7.25    0.36
  -2  -5  13    7.36    0.35
  -2   5  13    6.81    0.34
  -1  -5  13    0.12    0.11
   1  -5 -13    0.32    0.21
  -1  -5  13    0.41    0.13
   1   5 -13    0.39    0.16
  -1   5  13    0.14    0.11
   0  -5  13   45.59    1.38
   0   5 -13   43.35    1.32
   0   5 -13   44.00    1.32
   1  -5  13   20.28    0.83
  -1  -5 -13   20.95    0.85
   1   5  13   23.31    0.75
  -1   5 -13   23.14    0.80
  -1   5 -13   22.37    0.76
   2  -5  13   24.22    0.78
  -2  -5 -13   23.51    0.81
   2   5  13   23.63    0.76
  -2   5 -13   23.15    0.78
   3  -5  13   34.29    1.04
  -3  -5 -13   34.31    1.05
  -3   5 -13   32.78    1.11
   3   5  13   33.06    1.00
  -3   5 -13   31.87    1.00
  -4  -5 -13    8.09    0.41
   4  -5  13    8.43    0.41
   4   5  13    8.06    0.36
  -4   5 -13    7.58    0.38
  -4   5 -13    8.32    0.49
   5  -5  13    0.64    0.15
  -5  -5 -13    0.79    0.18
   5   5  13    0.57    0.13
  -5   5 -13    1.17    0.25
  -5  -6  13   65.25    1.79
   5  -6 -13   61.97    1.80
  -5   6  13   61.54    1.76
   5   6 -13   63.89    1.83
  -5   6  13   63.73    1.75
  -4  -6  13    0.32    0.14
   4  -6 -13    0.14    0.15
   4   6 -13    0.17    0.16
  -4   6  13    0.30    0.16
  -4   6  13   -0.01    0.11
  -3  -6  13    3.41    0.27
   3  -6 -13    3.40    0.29
   3   6 -13    3.09    0.32
  -3   6  13    2.62    0.25
  -2  -6  13    4.78    0.30
   2  -6 -13    4.45    0.33
  -2  -6  13    4.25    0.30
  -2   6  13    3.68    0.28
   2   6 -13    3.94    0.34
  -1  -6  13    4.81    0.31
   1  -6 -13    4.19    0.35
  -1  -6  13    4.80    0.30
  -1   6  13    4.80    0.30
   1   6 -13    4.37    0.34
   0  -6  13   15.29    0.57
   0  -6 -13   15.28    0.61
   0   6  13   14.67    0.55
   0   6 -13   14.70    0.61
  -1  -6 -13    4.17    0.32
   1  -6  13    3.81    0.29
  -1   6 -13    3.56    0.33
   1   6  13    3.83    0.27
  -1   6 -13    3.34    0.32
  -2  -6 -13    4.15    0.33
   2  -6  13    4.24    0.30
  -2   6 -13    4.43    0.35
  -2   6 -13    3.90    0.38
   2   6  13    4.41    0.28
   3  -6  13    0.73    0.17
  -3  -6 -13    0.44    0.17
   3   6  13    0.55    0.14
  -3   6 -13    0.56    0.18
  -3   6 -13    0.41    0.20
  10   0 -14    0.33    0.15
 -10   0  14    0.12    0.14
   9   0 -14    0.29    0.23
  -9   0  14    0.15    0.14
   9   0 -14    0.09    0.12
   8   0 -14    6.95    0.34
   8   0 -14    7.07    0.35
  -7   0  14    0.17    0.12
   7   0 -14    0.12    0.12
   7   0 -14    0.42    0.12
   6   0 -14    2.73    0.22
  -6   0  14    3.21    0.26
   6   0 -14    2.25    0.22
  -5   0  14    0.23    0.11
   5   0 -14    0.15    0.09
   5   0 -14    0.16    0.10
   4   0 -14   76.92    2.08
   4   0 -14   78.28    2.14
  -4   0  14   82.45    2.07
  -4   0  14   77.02    2.17
  -3   0  14    0.29    0.08
   3   0 -14    0.24    0.10
   3   0 -14    0.40    0.10
  -3   0  14    0.21    0.11
  -2   0  14  104.33    2.78
   2   0 -14  103.68    2.74
   2   0 -14  102.07    2.67
  -2   0  14  102.47    2.64
  -1   0  14    0.29    0.10
   1   0 -14    0.36    0.10
   1   0 -14    0.22    0.09
  -1   0  14    0.43    0.08
   0   0 -14   15.96    0.56
   0   0  14   15.79    0.59
   0   0 -14   17.15    0.51
   0   0  14   16.72    0.52
  -1   0 -14    0.30    0.10
  -1   0 -14    0.63    0.10
   1   0  14    0.38    0.11
   1   0  14    0.34    0.12
  -2   0 -14   46.00    1.30
   2   0  14   44.24    1.33
  -2   0 -14   46.48    1.38
  -2   0 -14   47.73    1.25
  -3   0 -14    0.13    0.09
  -3   0 -14    0.21    0.11
   3   0  14    0.21    0.09
   3   0  14    0.25    0.11
  -4   0 -14   38.65    1.25
   4   0  14   41.07    1.13
  -4   0 -14   42.48    1.17
   4   0  14   42.11    1.21
  -5   0 -14    0.22    0.15
   5   0  14    0.26    0.12
  -5   0 -14    0.09    0.10
   5   0  14    0.09    0.10
   6   0  14   13.94    0.55
  -6   0 -14   13.70    0.60
   6   0  14   13.79    0.47
   7   0  14   -0.02    0.12
  -7   0 -14    0.27    0.19
  -8   0 -14   15.26    0.64
   8   0  14   13.98    0.58
 -10  -1  14    4.09    0.32
  10  -1 -14    3.90    0.30
  10   1 -14    3.97    0.30
 -10   1  14    3.87    0.33
   9  -1 -14    1.45    0.21
  -9  -1  14    1.98    0.25
   9  -1 -14    2.16    0.24
  -9   1  14    1.88    0.38
   9   1 -14    1.73    0.23
   9   1 -14    1.85    0.24
   8  -1 -14   78.99    2.11
  -8  -1  14   75.94    2.16
   8  -1 -14   76.52    2.07
   8   1 -14   77.11    2.07
  -8   1  14   78.63    2.16
   8   1 -14   74.12    2.07
   7  -1 -14   10.58    0.44
   7  -1 -14   10.99    0.45
  -7  -1  14   10.78    0.47
   7   1 -14   11.49    0.43
   7   1 -14   10.34    0.43
  -7   1  14   11.50    0.49
   6  -1 -14    9.30    0.38
   6  -1 -14    7.57    0.36
  -6  -1  14    8.12    0.33
  -6  -1  14    7.66    0.39
  -6   1  14    8.04    0.40
   6   1 -14    7.49    0.34
   6   1 -14    8.07    0.37
  -5  -1  14    1.32    0.19
   5  -1 -14    1.54    0.19
   5  -1 -14    1.75    0.19
  -5  -1  14    1.67    0.15
   5   1 -14    1.50    0.18
   5   1 -14    1.40    0.19
  -5   1  14    1.71    0.21
  -4  -1  14    5.58    0.25
  -4  -1  14    5.31    0.31
   4  -1 -14    5.54    0.29
   4  -1 -14    5.75    0.31
   4   1 -14    6.14    0.26
   4   1 -14    6.41    0.31
  -4   1  14    5.50    0.32
  -3  -1  14   14.86    0.55
   3  -1 -14   13.71    0.53
   3  -1 -14   15.32    0.56
  -3  -1  14   15.02    0.47
  -3   1  14   14.33    0.55
   3   1 -14   14.00    0.53
   3   1 -14   14.56    0.45
  -2  -1  14    6.23    0.27
   2  -1 -14    5.99    0.29
   2  -1 -14    6.24    0.31
  -2  -1  14    6.45    0.34
  -2   1  14    5.78    0.32
   2   1 -14    6.99    0.24
   2   1 -14    6.22    0.31
   1  -1 -14   25.91    0.84
  -1  -1  14   26.38    0.86
   1  -1 -14   26.49    0.83
   1   1 -14   26.17    0.83
  -1   1  14   26.76    0.73
  -1   1  14   26.81    0.85
   0  -1 -14   11.64    0.45
   0  -1  14   11.71    0.43
   0  -1  14   12.23    0.49
   0   1  14   12.25    0.47
   0   1 -14   12.07    0.46
   0   1  14   11.76    0.39
   1  -1  14   21.32    0.67
  -1  -1 -14   21.64    0.66
  -1  -1 -14   20.71    0.68
  -1   1 -14   20.53    0.75
   1   1  14   20.74    0.71
   1   1  14   21.99    0.64
  -1   1 -14   20.40    0.68
  -2  -1 -14  110.65    2.84
  -2  -1 -14  107.84    2.81
   2  -1  14  106.47    2.83
  -2   1 -14  106.81    2.82
   2   1  14  108.18    2.87
   2   1  14  107.19    2.81
  -2   1 -14  105.94    2.93
  -3  -1 -14    0.38    0.11
  -3  -1 -14    0.44    0.11
   3  -1  14    0.53    0.11
   3   1  14    0.40    0.12
   3   1  14    0.26    0.11
  -3   1 -14    0.24    0.10
  -3   1 -14    0.49    0.15
   4  -1  14   91.00    2.41
  -4  -1 -14   88.67    2.44
  -4  -1 -14   90.14    2.36
  -4   1 -14   84.62    2.49
  -4   1 -14   89.44    2.35
   4   1  14   91.30    2.40
   4   1  14   89.49    2.36
  -5  -1 -14   10.24    0.46
   5  -1  14    9.67    0.43
  -5  -1 -14   10.07    0.39
   5   1  14   10.20    0.39
  -5   1 -14    9.97    0.50
   5   1  14   10.11    0.43
  -5   1 -14    9.86    0.38
   6  -1  14    1.11    0.22
  -6  -1 -14    1.58    0.22
   6   1  14    1.43    0.20
   6   1  14    1.79    0.19
   6   1  14    1.31    0.22
  -7  -1 -14    2.01    0.28
   7  -1  14    2.07    0.25
   7   1  14    1.90    0.24
  -7   1 -14    2.15    0.32
   7   1  14    2.03    0.21
   8  -1  14   19.22    0.70
  -8  -1 -14   19.67    0.72
   8   1  14   19.32    0.71
   8   1  14   18.94    0.63
  -8   1 -14   18.56    0.77
  -9  -2  14   18.98    0.68
   9  -2 -14   18.76    0.67
   9   2 -14   17.55    0.68
  -9   2  14   18.65    0.69
   9   2 -14   18.74    0.64
   8  -2 -14    4.42    0.30
  -8  -2  14    4.43    0.30
  -8  -2  14    4.32    0.40
   8  -2 -14    4.20    0.27
   8   2 -14    4.32    0.28
   8   2 -14    4.45    0.28
  -8   2  14    4.76    0.32
   7  -2 -14    0.41    0.13
  -7  -2  14    0.33    0.13
   7  -2 -14    0.50    0.14
  -7  -2  14    0.27    0.12
   7   2 -14    0.20    0.13
   7   2 -14    0.49    0.13
  -6  -2  14   21.97    0.75
   6  -2 -14   22.27    0.72
   6  -2 -14   21.50    0.73
  -6  -2  14   22.34    0.69
   6   2 -14   20.97    0.72
  -6   2  14   22.76    0.77
   6   2 -14   22.63    0.73
  -5  -2  14    4.37    0.24
   5  -2 -14    4.23    0.27
  -5  -2  14    4.38    0.28
   5  -2 -14    5.13    0.29
  -5   2  14    4.17    0.29
   5   2 -14    4.30    0.27
   4  -2 -14   26.60    0.85
  -4  -2  14   27.47    0.82
   4  -2 -14   27.46    0.86
  -4  -2  14   27.99    0.88
  -4   2  14   28.17    0.90
   4   2 -14   27.50    0.87
  -3  -2  14    4.49    0.24
   3  -2 -14    5.34    0.28
  -3  -2  14    4.31    0.28
   3  -2 -14    4.25    0.27
  -3   2  14    4.50    0.28
   3   2 -14    4.68    0.28
  -2  -2  14   33.65    0.98
   2  -2 -14   35.03    1.02
  -2  -2  14   34.02    1.05
   2  -2 -14   33.95    1.03
   2   2 -14   34.55    1.04
  -2   2  14   34.42    1.05
   1  -2 -14    4.79    0.28
  -1  -2  14    5.15    0.26
   1  -2 -14    5.45    0.29
  -1  -2  14    5.33    0.30
   1   2 -14    5.16    0.29
  -1   2  14    5.06    0.28
   0  -2  14   18.21    0.59
   0  -2 -14   18.57    0.61
   0  -2 -14   17.90    0.61
   0  -2  14   18.01    0.65
   0   2 -14   17.80    0.68
   0   2  14   17.75    0.61
   0   2 -14   17.86    0.62
  -1  -2 -14    4.52    0.27
  -1  -2 -14    4.48    0.26
   1  -2  14    4.53    0.25
   1   2  14    4.70    0.22
  -1   2 -14    4.45    0.26
   1   2  14    4.52    0.26
  -1   2 -14    4.37    0.31
   2  -2  14   57.63    1.60
  -2  -2 -14   58.63    1.59
  -2  -2 -14   57.08    1.59
   2   2  14   58.08    1.60
  -2   2 -14   57.12    1.70
  -2   2 -14   55.65    1.58
  -3  -2 -14    2.90    0.23
  -3  -2 -14    2.81    0.23
   3  -2  14    2.83    0.24
   3   2  14    2.92    0.23
  -3   2 -14    2.92    0.22
   3   2  14    2.80    0.22
  -3   2 -14    2.83    0.30
   4  -2  14   12.82    0.49
  -4  -2 -14   12.34    0.47
  -4  -2 -14   12.59    0.50
  -4   2 -14   12.24    0.58
  -4   2 -14   12.16    0.44
   4   2  14   12.41    0.45
   4   2  14   12.63    0.48
  -5  -2 -14   71.19    2.02
   5  -2  14   75.40    2.04
  -5   2 -14   75.14    1.95
   5   2  14   72.56    1.96
  -5   2 -14   71.62    2.50
   5   2  14   74.92    1.99
   5   2  14   73.44    2.00
   6  -2  14    3.21    0.27
  -6  -2 -14    3.78    0.30
   6   2  14    3.51    0.25
   6   2  14    3.39    0.23
  -6   2 -14    3.66    0.36
  -7  -2 -14    2.02    0.28
   7  -2  14    1.71    0.25
  -7   2 -14    1.94    0.33
   7   2  14    1.76    0.23
   8  -2  14   17.81    0.68
  -8  -2 -14   17.23    0.69
   8   2  14   18.59    0.63
  -9  -3  14    6.20    0.36
  -9  -3  14    5.70    0.34
   9  -3 -14    6.03    0.36
   9   3 -14    6.49    0.35
  -9   3  14    6.30    0.38
  -8  -3  14    9.25    0.42
  -8  -3  14    8.95    0.41
   8  -3 -14    8.99    0.40
   8  -3 -14    9.04    0.43
   8   3 -14    9.16    0.43
  -8   3  14    9.61    0.45
  -7  -3  14    1.84    0.22
   7  -3 -14    2.11    0.24
  -7  -3  14    1.72    0.22
   7  -3 -14    1.35    0.18
  -7   3  14    1.92    0.25
   6  -3 -14   10.70    0.44
   6  -3 -14   11.10    0.47
  -6  -3  14   10.85    0.46
  -6  -3  14   10.60    0.43
  -6   3  14   11.46    0.48
   6   3 -14   10.82    0.46
   5  -3 -14    1.22    0.18
  -5  -3  14    1.25    0.18
  -5  -3  14    1.46    0.19
   5  -3 -14    1.68    0.20
  -5   3  14    1.54    0.21
   5   3 -14    1.56    0.21
  -4  -3  14   53.39    1.46
  -4  -3  14   53.29    1.50
   4  -3 -14   49.86    1.49
   4  -3 -14   51.61    1.48
  -4   3  14   52.18    1.51
   4   3 -14   53.82    1.51
   3  -3 -14    1.28    0.18
  -3  -3  14    1.62    0.19
   3  -3 -14    1.58    0.21
  -3  -3  14    1.32    0.19
  -3   3  14    1.34    0.19
   3   3 -14    1.43    0.20
   2  -3 -14   11.94    0.47
   2  -3 -14   12.24    0.49
  -2  -3  14   12.66    0.50
  -2  -3  14   12.38    0.46
   2   3 -14   12.33    0.50
  -2   3  14   12.78    0.49
   1  -3 -14   46.91    1.35
   1  -3 -14   47.39    1.36
  -1  -3  14   46.85    1.33
  -1  -3  14   45.87    1.38
   1   3 -14   47.32    1.36
  -1   3  14   48.05    1.35
   0  -3 -14   59.08    1.62
   0  -3 -14   57.43    1.62
   0  -3  14   58.14    1.60
   0   3  14   58.75    1.61
   0   3 -14   55.48    1.67
   0   3 -14   57.07    1.62
   1  -3  14   10.82    0.43
  -1  -3 -14   10.62    0.43
  -1  -3 -14   10.89    0.46
  -1   3 -14   10.64    0.50
  -1   3 -14   10.82    0.44
   1   3  14   10.87    0.42
   2  -3  14    7.93    0.36
  -2  -3 -14    8.01    0.38
   2   3  14    7.93    0.34
  -2   3 -14    7.92    0.44
  -2   3 -14    7.57    0.36
   2   3  14    7.63    0.34
  -3  -3 -14    2.66    0.23
  -3  -3 -14    2.04    0.23
   3  -3  14    2.34    0.22
  -3   3 -14    2.11    0.28
   3   3  14    2.22    0.19
  -3   3 -14    2.60    0.23
   3   3  14    2.12    0.20
  -4  -3 -14    4.65    0.29
  -4  -3 -14    4.64    0.31
   4  -3  14    4.73    0.30
  -4   3 -14    4.46    0.27
   4   3  14    4.83    0.26
   4   3  14    4.33    0.27
  -5  -3 -14    5.22    0.34
   5  -3  14    5.35    0.33
  -5  -3 -14    5.46    0.32
   5   3  14    5.15    0.28
  -5   3 -14    5.21    0.41
  -6  -3 -14   20.71    0.75
   6  -3  14   21.41    0.74
   6   3  14   21.39    0.67
   6   3  14   20.84    0.70
  -6   3 -14   20.89    0.84
  -7  -3 -14   23.76    0.85
   7  -3  14   24.57    0.83
  -7   3 -14   24.57    0.96
   7   3  14   24.58    0.79
  -8  -4  14   17.44    0.64
   8  -4 -14   16.98    0.66
  -8   4  14   17.70    0.67
   8   4 -14   16.92    0.64
  -8   4  14   18.18    0.59
   7  -4 -14    2.04    0.27
  -7  -4  14    2.41    0.25
  -7  -4  14    2.04    0.24
  -7   4  14    1.94    0.26
   7   4 -14    2.31    0.26
  -7   4  14    2.48    0.28
  -6  -4  14   13.34    0.51
   6  -4 -14   13.82    0.54
  -6  -4  14   13.27    0.51
   6   4 -14   12.37    0.52
  -6   4  14   13.42    0.53
  -6   4  14   13.04    0.54
  -5  -4  14   12.61    0.50
   5  -4 -14   10.91    0.57
  -5  -4  14   12.56    0.49
  -5   4  14   12.81    0.48
  -5   4  14   12.87    0.51
   5   4 -14   13.16    0.53
  -4  -4  14    4.69    0.29
  -4  -4  14    4.75    0.28
   4  -4 -14    4.60    0.31
  -4   4  14    4.85    0.28
  -4   4  14    4.77    0.30
   4   4 -14    4.78    0.38
  -3  -4  14    1.56    0.21
   3  -4 -14    1.34    0.19
  -3  -4  14    1.88    0.21
  -3   4  14    1.45    0.19
  -3   4  14    1.54    0.20
   3   4 -14    1.50    0.20
   2  -4 -14   36.67    1.13
  -2  -4  14   38.27    1.14
  -2  -4  14   38.06    1.11
  -2   4  14   37.51    1.11
  -2   4  14   37.69    1.12
   2   4 -14   37.86    1.15
  -1  -4  14    2.83    0.24
   1  -4 -14    3.30    0.26
  -1  -4  14    2.93    0.23
   1   4 -14    2.86    0.25
  -1   4  14    2.60    0.23
  -1   4  14    3.07    0.22
   0  -4  14    9.02    0.40
   0  -4 -14   10.02    0.43
   0   4 -14    8.77    0.44
   0   4 -14    9.30    0.42
   0   4  14    9.34    0.39
   0   4  14    9.43    0.39
   1  -4  14   44.66    1.28
  -1  -4 -14   44.54    1.31
   1   4  14   44.57    1.25
  -1   4 -14   43.60    1.35
  -1   4 -14   42.15    1.29
   1   4  14   44.46    1.26
  -2  -4 -14    5.03    0.31
   2  -4  14    4.92    0.30
  -2   4 -14    4.59    0.36
   2   4  14    5.63    0.28
   2   4  14    5.00    0.28
  -2   4 -14    5.10    0.31
  -3  -4 -14    9.29    0.46
   3  -4  14    8.83    0.47
  -3   4 -14    9.74    0.41
  -3   4 -14    9.20    0.50
   3   4  14    9.11    0.39
   4  -4  14    5.52    0.33
  -4  -4 -14    5.74    0.34
  -4   4 -14    5.61    0.31
  -4   4 -14    5.14    0.41
  -5  -4 -14   13.09    0.53
   5  -4  14   12.90    0.53
  -5  -4 -14   12.96    0.55
  -5   4 -14   12.93    0.64
   5   4  14   12.74    0.48
  -6  -4 -14   16.54    0.65
   6  -4  14   16.20    0.63
   6   4  14   16.72    0.61
   6   4  14   16.56    0.56
  -6   4 -14   16.66    0.75
  -6  -5  14    1.38    0.21
   6  -5 -14    1.78    0.27
  -6   5  14    1.71    0.24
   6   5 -14    2.16    0.29
  -6   5  14    1.72    0.23
  -5  -5  14   31.82    1.03
  -5  -5  14   31.38    0.97
   5  -5 -14   31.25    1.00
  -5   5  14   29.98    0.97
   5   5 -14   30.73    1.01
  -5   5  14   31.70    0.95
  -4  -5  14    4.56    0.29
  -4  -5  14    3.98    0.28
   4  -5 -14    3.83    0.31
   4   5 -14    4.57    0.33
  -4   5  14    4.44    0.28
  -4   5  14    3.71    0.28
  -3  -5  14    9.29    0.42
   3  -5 -14    9.31    0.44
  -3  -5  14    9.28    0.42
  -3   5  14    9.23    0.40
  -3   5  14    9.45    0.41
   3   5 -14    8.84    0.45
   2  -5 -14    0.88    0.18
  -2  -5  14    0.67    0.16
  -2  -5  14    0.82    0.16
  -2   5  14    0.72    0.15
  -2   5  14    0.67    0.13
   2   5 -14    0.72    0.17
   1  -5 -14   10.01    0.45
  -1  -5  14    9.62    0.43
  -1  -5  14    9.35    0.41
  -1   5  14    9.28    0.41
   1   5 -14    9.41    0.46
  -1   5  14    9.55    0.40
   0  -5 -14   21.22    0.76
   0  -5  14   21.38    0.72
   0   5 -14   20.09    0.79
   0   5  14   21.44    0.71
   0   5 -14   23.73    0.78
  -1  -5 -14   13.23    0.55
   1  -5  14   13.63    0.52
   1   5  14   13.38    0.51
   2  -5  14    2.53    0.24
  -2  -5 -14    2.67    0.26
  -2   5 -14    2.26    0.31
   2   5  14    2.25    0.23
  -3  -5 -14    2.26    0.27
   3  -5  14    2.19    0.25
  -3   5 -14    2.07    0.26
  -3   5 -14    2.59    0.32
   3   5  14    2.34    0.23
  -4  -5 -14   12.48    0.53
   4  -5  14   12.09    0.51
  -4   5 -14   12.30    0.60
   4   5  14   12.71    0.48
  -4  -6  14   11.78    0.49
   4  -6 -14   11.53    0.52
  -4   6  14   11.60    0.47
  -4   6  14   11.19    0.47
   4   6 -14   11.47    0.55
  -3  -6  14    3.51    0.28
   3  -6 -14    3.94    0.33
  -3   6  14    3.37    0.27
   3   6 -14    3.23    0.35
   2  -6 -14   32.96    1.06
  -2  -6  14   32.85    1.02
   2   6 -14   33.18    1.08
  -2   6  14   33.44    1.01
   1  -6 -14    1.73    0.27
  -1  -6  14    1.42    0.20
  -1  -6  14    1.63    0.23
   1   6 -14    1.88    0.25
  -1   6  14    1.61    0.22
   0  -6 -14   10.34    0.49
   0  -6  14   10.72    0.45
   0   6 -14    9.95    0.49
   0   6  14    9.96    0.44
   0   6 -14   10.67    0.49
  -1  -6 -14   15.43    0.63
   1  -6  14   15.68    0.59
  -1   6 -14   15.64    0.63
  -1   6 -14   16.50    0.65
   1   6  14   15.71    0.57
  -2  -6 -14   10.32    0.49
   2  -6  14   10.29    0.45
  -2   6 -14    9.36    0.48
  -2   6 -14    9.68    0.50
   2   6  14    9.90    0.42
  -9   0  15    0.59    0.16
   9   0 -15    0.73    0.17
   9   0 -15    0.58    0.17
  -8   0  15    0.38    0.14
   8   0 -15    0.13    0.13
   8   0 -15    0.12    0.14
   7   0 -15    6.76    0.34
   7   0 -15    7.25    0.35
  -7   0  15    6.77    0.41
   6   0 -15    0.26    0.12
   6   0 -15    0.28    0.12
  -6   0  15    0.18    0.12
   5   0 -15   47.04    1.32
   5   0 -15   46.40    1.35
  -5   0  15   48.00    1.40
   4   0 -15    0.30    0.12
   4   0 -15    0.24    0.11
  -4   0  15    0.31    0.13
   3   0 -15   72.08    1.94
   3   0 -15   72.17    2.01
  -3   0  15   76.15    2.05
  -2   0  15    0.29    0.11
   2   0 -15    0.19    0.10
  -2   0  15    0.08    0.07
   2   0 -15    0.06    0.09
   1   0 -15   54.07    1.56
  -1   0  15   56.27    1.49
  -1   0  15   55.76    1.60
   1   0 -15   57.31    1.49
   0   0  15    0.23    0.10
   0   0  15    0.01    0.10
   0   0 -15    0.22    0.09
   0   0 -15    0.18    0.10
   1   0  15  100.86    2.76
  -1   0 -15  105.29    2.64
  -1   0 -15  101.65    2.72
   1   0  15  101.93    2.68
  -2   0 -15    0.24    0.11
  -2   0 -15    0.28    0.10
   2   0  15    0.17    0.11
   2   0  15    0.34    0.11
  -3   0 -15    2.23    0.20
   3   0  15    1.82    0.20
  -3   0 -15    2.18    0.24
  -4   0 -15    0.65    0.17
   4   0  15    0.08    0.12
  -4   0 -15    0.29    0.11
  -5   0 -15    4.70    0.26
  -5   0 -15    4.13    0.32
   5   0  15    4.57    0.30
   7   0  15   10.46    0.47
  -7   0 -15   10.19    0.53
  -9  -1  15   55.83    1.58
   9  -1 -15   56.84    1.56
   9  -1 -15   52.92    1.51
   9   1 -15   50.33    1.52
   9   1 -15   53.66    1.54
  -9   1  15   56.60    1.60
  -8  -1  15    1.02    0.17
   8  -1 -15    0.93    0.18
   8  -1 -15    0.96    0.16
   8   1 -15    0.91    0.16
  -8   1  15    0.93    0.18
   8   1 -15    1.05    0.17
   7  -1 -15    3.57    0.26
   7  -1 -15    3.56    0.27
  -7  -1  15    3.41    0.28
   7   1 -15    3.76    0.26
  -7   1  15    3.53    0.31
   7   1 -15    3.86    0.27
  -6  -1  15    3.69    0.28
   6  -1 -15    4.81    0.28
   6  -1 -15    3.98    0.27
   6   1 -15    3.84    0.25
  -6   1  15    3.78    0.28
   6   1 -15    3.75    0.26
   5  -1 -15   85.09    2.34
   5  -1 -15   85.75    2.35
  -5  -1  15   88.65    2.40
   5   1 -15   87.54    2.29
   5   1 -15   88.59    2.37
  -5   1  15   88.97    2.41
   4  -1 -15    5.60    0.29
   4  -1 -15    5.54    0.31
  -4  -1  15    5.40    0.32
  -4  -1  15    6.05    0.26
   4   1 -15    5.95    0.32
   4   1 -15    5.82    0.26
  -4   1  15    5.46    0.32
  -3  -1  15   17.15    0.57
   3  -1 -15   17.96    0.62
  -3  -1  15   17.65    0.64
   3  -1 -15   17.84    0.59
   3   1 -15   17.51    0.62
  -3   1  15   18.12    0.64
   2  -1 -15    2.67    0.22
   2  -1 -15    2.40    0.22
  -2  -1  15    2.46    0.23
   2   1 -15    2.69    0.22
  -2   1  15    2.56    0.23
   1  -1 -15    2.98    0.22
   1  -1 -15    2.95    0.21
  -1  -1  15    2.92    0.24
  -1  -1  15    2.68    0.19
   1   1 -15    2.98    0.23
  -1   1  15    2.69    0.23
   0  -1 -15   30.99    0.89
   0  -1  15   30.31    0.96
   0  -1  15   28.89    0.93
   0  -1 -15   30.12    0.92
   0   1  15   31.25    0.85
   0   1 -15   29.94    0.92
   0   1  15   30.11    0.95
   1  -1  15    0.59    0.12
  -1  -1 -15    0.43    0.11
   1  -1  15    0.39    0.12
   1   1  15    0.24    0.11
  -1   1 -15    0.52    0.13
   1   1  15    0.41    0.11
  -2  -1 -15    4.05    0.24
  -2  -1 -15    3.13    0.21
   2  -1  15    3.05    0.23
  -2   1 -15    3.43    0.29
  -2   1 -15    3.17    0.22
   2   1  15    3.27    0.24
  -3  -1 -15    3.55    0.24
   3  -1  15    3.48    0.25
  -3  -1 -15    3.51    0.23
   3   1  15    3.46    0.26
  -3   1 -15    3.16    0.23
   3   1  15    3.47    0.24
  -3   1 -15    3.63    0.30
   4  -1  15   10.24    0.43
  -4  -1 -15   10.27    0.40
  -4  -1 -15   10.28    0.47
  -4   1 -15    9.62    0.49
  -4   1 -15    9.80    0.39
   4   1  15   10.07    0.42
   4   1  15    9.36    0.38
   5  -1  15   30.19    0.97
  -5  -1 -15   29.11    0.98
  -5  -1 -15   31.74    0.92
   5   1  15   35.17    0.98
  -5   1 -15   28.63    1.18
   5   1  15   30.72    0.91
  -5   1 -15   30.66    0.90
  -6  -1 -15    3.18    0.29
   6  -1  15    2.76    0.26
   6   1  15    2.58    0.27
  -6   1 -15    3.12    0.34
   6   1  15    3.11    0.23
   7  -1  15   75.45    2.07
  -7  -1 -15   74.01    2.08
   7   1  15   75.55    2.07
   7   1  15   71.53    1.98
  -7   1 -15   74.08    2.15
  -9  -2  15   10.26    0.46
   9  -2 -15    9.53    0.45
   9   2 -15    9.98    0.44
  -9   2  15   10.13    0.48
   8  -2 -15    2.97    0.27
   8  -2 -15    2.54    0.24
  -8  -2  15    2.54    0.26
   8   2 -15    2.50    0.26
  -8   2  15    3.03    0.28
   7  -2 -15    0.56    0.16
  -7  -2  15    0.50    0.15
   7  -2 -15    0.56    0.14
  -7   2  15    0.39    0.14
   7   2 -15    0.52    0.16
  -6  -2  15   66.44    1.84
   6  -2 -15   64.14    1.80
   6  -2 -15   64.26    1.81
  -6  -2  15   65.37    1.76
   6   2 -15   64.82    1.81
  -6   2  15   66.32    1.88
   5  -2 -15    0.68    0.15
   5  -2 -15    0.55    0.13
  -5  -2  15    0.74    0.12
  -5  -2  15    0.45    0.13
   5   2 -15    0.58    0.14
   4  -2 -15   13.34    0.51
  -4  -2  15   13.48    0.47
  -4  -2  15   13.50    0.53
   4  -2 -15   13.19    0.51
  -4   2  15   14.45    0.55
   4   2 -15   13.44    0.53
   3  -2 -15   53.33    1.52
  -3  -2  15   52.33    1.46
   3  -2 -15   52.04    1.50
  -3  -2  15   53.92    1.55
  -3   2  15   54.47    1.54
   3   2 -15   55.26    1.54
  -2  -2  15    0.27    0.12
  -2  -2  15    0.27    0.10
   2  -2 -15    0.30    0.12
   2  -2 -15    0.24    0.11
  -2   2  15    0.25    0.11
   2   2 -15    0.14    0.11
   1  -2 -15    8.75    0.39
  -1  -2  15    8.57    0.40
  -1  -2  15    8.67    0.36
   1  -2 -15    8.92    0.38
  -1   2  15    8.37    0.38
   1   2 -15    8.69    0.39
   0  -2 -15    0.14    0.10
   0  -2  15    0.46    0.12
   0  -2  15    0.22    0.10
   0  -2 -15    0.12    0.11
   0   2 -15    0.00    0.10
   0   2  15    0.24    0.10
  -1  -2 -15   41.13    1.21
  -1  -2 -15   42.90    1.21
   1  -2  15   40.92    1.20
  -1   2 -15   41.35    1.29
  -1   2 -15   42.16    1.22
   1   2  15   42.00    1.22
  -2  -2 -15    2.15    0.20
  -2  -2 -15    2.43    0.22
   2  -2  15    2.32    0.21
  -2   2 -15    2.82    0.22
   2   2  15    2.50    0.19
   2   2  15    2.23    0.21
  -2   2 -15    2.32    0.26
  -3  -2 -15   15.76    0.55
  -3  -2 -15   15.93    0.55
   3  -2  15   15.34    0.56
   3   2  15   15.83    0.56
   3   2  15   15.04    0.53
  -3   2 -15   14.97    0.65
  -3   2 -15   15.62    0.54
  -4  -2 -15    4.96    0.29
   4  -2  15    4.90    0.30
   4   2  15    4.76    0.26
   4   2  15    4.53    0.28
  -4   2 -15    4.52    0.45
   4   2  15    4.80    0.28
  -4   2 -15    4.48    0.26
   5  -2  15   21.06    0.81
   5   2  15   22.39    0.73
   5   2  15   21.39    0.70
   5   2  15   22.42    0.69
  -5   2 -15   21.36    0.84
   5   2  15   22.52    0.73
   6  -2  15    0.50    0.15
   6   2  15    0.32    0.12
   6   2  15    0.60    0.14
   6   2  15    0.29    0.17
  -6   2 -15    0.66    0.21
   6   2  15    0.59    0.14
   7  -2  15    3.52    0.30
   7   2  15    3.06    0.27
  -7   2 -15    3.98    0.41
  -8  -3  15   26.37    0.86
  -8  -3  15   26.68    0.84
   8  -3 -15   26.50    0.87
   8  -3 -15   24.66    0.85
   8   3 -15   25.37    0.84
  -8   3  15   27.16    0.90
   7  -3 -15    5.25    0.36
  -7  -3  15    5.74    0.32
  -7  -3  15    5.80    0.37
   7  -3 -15    5.80    0.35
  -7   3  15    5.50    0.35
   7   3 -15    5.16    0.33
  -6  -3  15   13.13    0.49
   6  -3 -15   13.00    0.50
  -6  -3  15   13.04    0.52
   6   3 -15   13.08    0.54
  -6   3  15   13.66    0.55
   5  -3 -15   19.13    0.65
  -5  -3  15   19.08    0.67
   5  -3 -15   18.77    0.66
  -5  -3  15   19.22    0.64
   5   3 -15   19.14    0.73
  -5   3  15   19.05    0.69
   4  -3 -15    0.21    0.13
   4  -3 -15    0.13    0.11
  -4  -3  15    0.17    0.12
  -4  -3  15    0.36    0.12
  -4   3  15    0.16    0.12
   4   3 -15    0.23    0.13
   3  -3 -15   15.67    0.58
  -3  -3  15   15.55    0.54
  -3  -3  15   15.41    0.58
   3  -3 -15   15.21    0.56
  -3   3  15   15.94    0.59
   3   3 -15   15.03    0.58
  -2  -3  15    0.48    0.14
   2  -3 -15    0.46    0.12
   2  -3 -15    0.37    0.13
  -2  -3  15    0.51    0.12
   2   3 -15    0.55    0.14
  -2   3  15    0.40    0.13
   1  -3 -15   31.56    0.98
  -1  -3  15   31.76    0.95
   1  -3 -15   32.30    0.98
  -1  -3  15   31.63    1.01
  -1   3  15   32.00    0.98
   1   3 -15   31.99    1.00
   0  -3  15   15.84    0.57
   0  -3 -15   16.28    0.59
   0  -3 -15   17.67    0.61
   0   3  15   16.26    0.58
   0   3 -15   16.15    0.60
   0   3 -15   16.47    0.65
  -1  -3 -15    4.67    0.30
  -1  -3 -15    4.42    0.27
   1  -3  15    4.87    0.28
  -1   3 -15    4.43    0.29
   1   3  15    4.58    0.27
  -1   3 -15    4.60    0.33
   2  -3  15    7.22    0.35
  -2  -3 -15    7.18    0.36
   2   3  15    6.69    0.32
  -2   3 -15    6.65    0.34
  -2   3 -15    7.03    0.43
   2   3  15    7.25    0.33
  -3  -3 -15   56.49    1.60
   3  -3  15   56.05    1.60
   3   3  15   57.11    1.57
  -3   3 -15   55.57    1.57
   3   3  15   58.07    1.57
  -4  -3 -15    0.51    0.16
   4  -3  15    0.27    0.13
  -4  -3 -15    0.28    0.13
   4   3  15    0.22    0.11
  -4   3 -15    0.13    0.15
  -4   3 -15    0.19    0.13
   4   3  15    0.16    0.13
  -5  -3 -15    2.01    0.28
   5  -3  15    1.91    0.23
  -5  -3 -15    2.00    0.23
   5   3  15    1.94    0.21
  -5   3 -15    2.11    0.34
   6  -3  15    1.57    0.25
  -6  -3 -15    1.97    0.29
   6   3  15    1.88    0.24
  -6   3 -15    1.68    0.27
  -7  -4  15    4.92    0.32
   7  -4 -15    5.24    0.34
   7   4 -15    4.97    0.34
  -7   4  15    4.92    0.33
  -7   4  15    5.07    0.29
   6  -4 -15    4.02    0.30
  -6  -4  15    3.53    0.29
  -6  -4  15    3.51    0.33
   6   4 -15    4.17    0.31
  -6   4  15    3.88    0.26
   5  -4 -15   27.10    0.90
  -5  -4  15   26.79    0.86
  -5  -4  15   27.22    0.87
  -5   4  15   27.82    0.86
  -5   4  15   27.88    0.90
   5   4 -15   28.10    0.90
  -4  -4  15    2.22    0.24
  -4  -4  15    2.32    0.22
   4  -4 -15    2.20    0.33
  -4   4  15    1.81    0.22
  -4   4  15    2.29    0.24
   4   4 -15    2.06    0.25
  -3  -4  15   10.70    0.46
  -3  -4  15   10.36    0.43
   3  -4 -15   10.32    0.47
  -3   4  15   10.62    0.45
   3   4 -15    9.97    0.46
   2  -4 -15   47.39    1.41
  -2  -4  15   49.54    1.42
  -2  -4  15   48.22    1.37
  -2   4  15   47.75    1.39
   1  -4 -15    2.21    0.24
  -1  -4  15    1.74    0.23
  -1  -4  15    1.99    0.20
  -1   4  15    1.69    0.22
   1   4 -15    1.99    0.24
   0  -4  15    2.06    0.21
   0  -4 -15    2.00    0.25
   0   4  15    1.91    0.21
   0   4 -15    2.12    0.27
   0   4 -15    1.96    0.24
   1  -4  15   32.53    0.97
  -1  -4 -15   33.43    1.01
   1   4  15   30.85    1.05
  -1   4 -15   27.70    1.12
  -1   4 -15   31.12    0.98
   1   4  15   32.74    0.94
  -2  -4 -15    1.98    0.32
   2  -4  15    1.34    0.22
  -2   4 -15    1.68    0.28
   2   4  15    1.90    0.20
  -2   4 -15    1.79    0.24
  -3  -4 -15   11.06    0.48
   3  -4  15   11.06    0.47
   3   4  15   11.25    0.44
  -3   4 -15   10.67    0.46
  -3   4 -15   10.84    0.57
  -4  -4 -15   17.32    0.64
   4  -4  15   17.76    0.64
  -4   4 -15   17.82    0.61
  -4   4 -15   17.31    0.74
   4   4  15   17.51    0.60
  -5  -4 -15    4.73    0.34
   5  -4  15    5.15    0.33
   5   4  15    4.96    0.29
  -5   4 -15    4.53    0.43
  -6  -5  15    3.12    0.29
   6  -5 -15    3.81    0.33
  -6   5  15    3.30    0.27
   6   5 -15    3.40    0.33
  -6   5  15    3.75    0.30
   5  -5 -15    6.55    0.39
  -5  -5  15    6.20    0.42
  -5  -5  15    6.86    0.37
  -5   5  15    6.90    0.35
  -5   5  15    6.62    0.36
   5   5 -15    6.64    0.40
   4  -5 -15    2.58    0.28
  -4  -5  15    2.44    0.26
  -4  -5  15    2.74    0.25
  -4   5  15    2.33    0.23
   4   5 -15    2.46    0.30
  -4   5  15    2.71    0.26
  -3  -5  15    0.29    0.13
  -3  -5  15    0.35    0.13
   3  -5 -15    0.57    0.17
   3   5 -15    0.71    0.18
  -3   5  15    0.44    0.13
  -3   5  15    0.32    0.14
   2  -5 -15   11.89    0.51
  -2  -5  15   11.90    0.54
  -2  -5  15   11.95    0.48
  -2   5  15   11.95    0.47
   2   5 -15   11.32    0.52
  -2   5  15   11.30    0.46
  -1  -5  15    7.47    0.37
   1  -5 -15    7.55    0.41
  -1   5  15    7.47    0.35
   1   5 -15    7.26    0.41
  -1   5  15    7.50    0.35
   0  -5  15    0.26    0.12
   0  -5 -15    0.17    0.16
   0   5 -15    0.32    0.16
   0   5 -15    0.43    0.15
   0   5  15    0.28    0.13
  -1  -5 -15    0.72    0.17
   1  -5  15    0.64    0.14
   1   5  15    0.73    0.15
  -1   5 -15    0.60    0.17
  -1   5 -15    1.00    0.20
  -2  -5 -15    0.47    0.16
   2  -5  15    0.34    0.13
  -2   5 -15    0.42    0.16
  -2   5 -15    0.20    0.18
   2   5  15    0.18    0.12
   3  -5  15   10.87    0.47
  -3  -5 -15   10.53    0.49
  -3   5 -15   10.38    0.57
  -3   5 -15   11.31    0.48
   3   5  15   11.09    0.45
   4   5  15   34.85    1.03
   2  -6 -15   11.54    0.53
  -2  -6  15   11.24    0.48
  -2  -6  15   11.88    0.49
  -2   6  15   11.25    0.48
   2   6 -15   11.95    0.56
  -1  -6  15   35.79    1.07
  -1  -6  15   34.38    1.06
   1  -6 -15   34.38    1.10
  -1   6  15   35.37    1.06
   1   6 -15   33.88    1.11
   0  -6  15    7.64    0.38
   0  -6 -15    7.15    0.41
   0  -6  15    7.88    0.40
   0   6  15    7.08    0.37
   0   6 -15    7.25    0.44
   9   0 -16    0.06    0.14
   9   0 -16    0.23    0.16
  -9   0  16    0.03    0.14
  -8   0  16   32.49    1.03
   8   0 -16   31.72    0.98
   8   0 -16   31.62    1.03
   7   0 -16    0.55    0.16
   7   0 -16    0.15    0.13
  -7   0  16   -0.06    0.12
  -6   0  16    0.13    0.13
   6   0 -16    0.24    0.12
   6   0 -16    0.23    0.13
   5   0 -16    0.25    0.13
  -5   0  16    0.25    0.12
   5   0 -16    0.36    0.12
   4   0 -16   19.73    0.69
  -4   0  16   20.52    0.71
   3   0 -16    0.29    0.12
  -3   0  16    0.20    0.12
   3   0 -16    0.10    0.13
  -2   0  16   64.71    1.83
   2   0 -16   63.84    1.81
   2   0 -16   66.83    1.74
  -1   0  16    0.17    0.11
  -1   0  16    0.27    0.09
   1   0 -16    0.23    0.10
   0   0 -16   61.68    1.76
   0   0 -16   66.66    1.71
   0   0  16   61.29    1.69
   0   0  16   64.19    1.80
   1   0  16    0.44    0.13
  -1   0 -16    0.41    0.12
   1   0  16    0.26    0.10
   2   0  16   81.63    2.17
  -2   0 -16   81.16    2.19
   2   0  16   81.04    2.25
   3   0  16    0.30    0.12
  -3   0 -16    0.36    0.12
  -3   0 -16    0.05    0.13
  -4   0 -16   17.99    0.69
   4   0  16   17.74    0.62
  -4   0 -16   17.90    0.60
  -5   0 -16    0.23    0.12
   5   0  16    0.26    0.14
  -6   0 -16   13.54    0.60
   6   0  16   13.62    0.55
  -7   0 -16    0.08    0.18
   7   0  16    0.16    0.15
  -9  -1  16    3.37    0.30
   9  -1 -16    3.06    0.26
   9  -1 -16    3.21    0.29
  -9   1  16    3.19    0.31
   9   1 -16    3.18    0.27
   8  -1 -16    0.36    0.19
  -8  -1  16    0.39    0.15
   8  -1 -16    0.34    0.17
  -8   1  16    0.32    0.15
   8   1 -16    0.45    0.15
   7  -1 -16    2.51    0.26
  -7  -1  16    2.44    0.27
   7  -1 -16    2.96    0.25
  -7   1  16    3.17    0.28
  -6  -1  16   56.21    1.62
   6  -1 -16   54.87    1.56
   6  -1 -16   56.62    1.57
   6   1 -16   54.68    1.57
  -6   1  16   55.01    1.78
   5  -1 -16    0.21    0.13
  -5  -1  16   -0.02    0.11
   5  -1 -16    0.04    0.12
  -5   1  16    0.19    0.12
   5   1 -16    0.30    0.12
   4  -1 -16   30.96    0.96
  -4  -1  16   31.62    0.99
   4  -1 -16   29.69    0.92
   4   1 -16   31.06    0.96
  -4   1  16   31.47    0.99
   3  -1 -16    0.37    0.12
   3  -1 -16    0.20    0.11
  -3  -1  16    0.31    0.09
  -3  -1  16    0.26    0.13
   3   1 -16    0.28    0.12
  -3   1  16    0.22    0.12
  -2  -1  16   34.87    0.99
   2  -1 -16   35.59    1.07
  -2  -1  16   35.89    1.10
   2  -1 -16   34.73    1.02
  -2   1  16   36.09    1.09
   2   1 -16   35.06    1.07
   1  -1 -16    1.73    0.22
   1  -1 -16    1.74    0.20
  -1  -1  16    2.48    0.23
   1   1 -16    1.73    0.20
  -1   1  16    1.83    0.21
   0  -1  16   34.16    0.99
   0  -1 -16   35.19    1.04
   0  -1  16   34.66    1.08
   0   1 -16   33.99    1.04
   0   1  16   34.86    1.06
  -1  -1 -16    2.04    0.19
  -1  -1 -16    1.93    0.19
   1  -1  16    2.19    0.19
   1  -1  16    1.92    0.21
   1   1  16    1.89    0.18
  -1   1 -16    2.03    0.21
   1   1  16    1.93    0.21
  -2  -1 -16   25.43    0.81
  -2  -1 -16   25.83    0.78
   2  -1  16   26.04    0.80
  -2   1 -16   25.73    0.81
   2   1  16   25.66    0.84
   2   1  16   26.22    0.78
  -2   1 -16   25.99    0.90
  -3  -1 -16   28.29    0.87
   3  -1  16   28.51    0.88
  -3  -1 -16   28.97    0.85
  -3   1 -16   27.88    0.97
   3   1  16   28.69    0.87
   3   1  16   28.10    0.91
  -3   1 -16   28.33    0.87
  -4  -1 -16   11.26    0.43
   4  -1  16   11.44    0.47
   4   1  16   11.65    0.48
   4   1  16   10.54    0.45
   4   1  16   11.06    0.41
  -4   1 -16   10.81    0.42
  -5  -1 -16    0.03    0.16
  -5  -1 -16    0.16    0.12
  -5   1 -16    0.07    0.12
   5   1  16    0.22    0.14
   5   1  16    0.00    0.11
  -5   1 -16    0.13    0.16
   6  -1  16    8.84    0.43
  -6  -1 -16    8.53    0.65
  -6   1 -16    8.31    0.50
   6   1  16    8.08    0.41
  -7  -1 -16    7.66    0.43
   7  -1  16    7.36    0.41
  -7   1 -16    7.29    0.49
   7   1  16    8.20    0.42
   8  -2 -16    8.91    0.39
   8  -2 -16    8.88    0.44
  -8  -2  16    8.14    0.42
   8   2 -16    8.80    0.42
  -8   2  16    8.74    0.45
  -7  -2  16    3.43    0.29
   7  -2 -16    3.27    0.34
   7   2 -16    3.68    0.28
  -7   2  16    3.47    0.29
   6  -2 -16   35.96    1.07
  -6  -2  16   34.59    1.13
   6  -2 -16   35.89    1.06
   6   2 -16   32.80    1.13
  -6   2  16   35.23    1.10
   5  -2 -16    1.98    0.22
   5  -2 -16    2.11    0.23
  -5  -2  16    2.33    0.20
  -5  -2  16    1.77    0.22
   5   2 -16    2.21    0.23
  -5   2  16    1.77    0.23
  -4  -2  16    5.72    0.28
   4  -2 -16    5.35    0.32
  -4  -2  16    5.75    0.33
   4  -2 -16    5.71    0.32
   4   2 -16    6.29    0.33
  -4   2  16    5.63    0.33
  -3  -2  16   77.63    2.12
   3  -2 -16   75.47    2.06
  -3  -2  16   74.20    2.01
   3  -2 -16   75.64    2.08
   3   2 -16   76.48    2.09
  -3   2  16   75.97    2.10
  -2  -2  16    0.42    0.11
   2  -2 -16    0.67    0.14
  -2  -2  16    0.36    0.13
  -2   2  16    0.39    0.13
   1  -2 -16   31.13    0.96
  -1  -2  16   31.73    0.93
  -1  -2  16   31.85    1.01
   1  -2 -16   31.67    0.98
  -1   2  16   32.18    0.99
   1   2 -16   32.67    1.00
   0  -2 -16   59.84    1.71
   0  -2  16   60.99    1.68
   0  -2  16   62.57    1.77
   0  -2 -16   63.45    1.70
   0   2  16   61.47    1.72
   0   2 -16   60.91    1.72
  -1  -2 -16    0.02    0.10
  -1  -2 -16    0.09    0.12
   1  -2  16    0.01    0.11
  -1   2 -16    0.17    0.12
   1   2  16    0.09    0.11
   2  -2  16    9.37    0.39
  -2  -2 -16    9.28    0.39
  -2  -2 -16    9.15    0.40
  -2   2 -16    9.22    0.40
  -2   2 -16    9.05    0.47
   2   2  16    9.40    0.41
   3  -2  16    6.46    0.34
  -3  -2 -16    6.41    0.33
  -3  -2 -16    6.34    0.32
  -3   2 -16    6.24    0.32
   3   2  16    6.29    0.33
   3   2  16    6.65    0.32
   4  -2  16   15.25    0.63
  -4  -2 -16   14.87    0.55
   4   2  16   15.35    0.55
   4   2  16   15.36    0.54
   4   2  16   15.59    0.57
  -4   2 -16   14.90    0.67
  -4   2 -16   17.40    0.55
   5  -2  16    0.66    0.16
   5   2  16    0.71    0.16
   5   2  16    0.65    0.15
   5   2  16    0.63    0.15
  -5   2 -16    0.46    0.20
   5   2  16    0.70    0.14
   6  -2  16   20.14    0.73
   6   2  16   20.49    0.68
  -6   2 -16   21.05    0.84
   6   2  16   20.60    0.71
  -8  -3  16   14.20    0.57
   8  -3 -16   13.59    0.54
   8  -3 -16   14.38    0.58
  -8   3  16   14.92    0.60
   8   3 -16   14.37    0.57
   7  -3 -16    1.41    0.21
  -7  -3  16    1.19    0.19
   7  -3 -16    1.31    0.18
  -7  -3  16    1.64    0.24
   7   3 -16    1.36    0.19
  -7   3  16    1.25    0.20
   6  -3 -16   15.95    0.58
   6  -3 -16   16.91    0.62
  -6  -3  16   15.57    0.56
  -6   3  16   16.01    0.62
   6   3 -16   15.50    0.59
   5  -3 -16    9.00    0.50
  -5  -3  16    9.28    0.43
   5  -3 -16    9.31    0.43
  -5  -3  16    9.76    0.40
   5   3 -16    9.85    0.45
  -5   3  16    9.42    0.44
   4  -3 -16    7.36    0.51
   4  -3 -16    7.44    0.38
  -4  -3  16    7.29    0.34
  -4  -3  16    6.84    0.36
   4   3 -16    6.90    0.42
  -4   3  16    7.17    0.37
   3  -3 -16    1.98    0.22
  -3  -3  16    2.16    0.23
  -3  -3  16    2.06    0.21
   3  -3 -16    1.77    0.24
  -3   3  16    1.93    0.22
   3   3 -16    1.78    0.26
  -2  -3  16    8.47    0.40
  -2  -3  16    7.81    0.35
   2  -3 -16    7.98    0.39
   2  -3 -16    8.23    0.38
   2   3 -16    8.11    0.40
  -2   3  16    7.79    0.38
   1  -3 -16    9.65    0.42
  -1  -3  16    9.25    0.39
  -1  -3  16    9.78    0.44
   1  -3 -16    9.44    0.42
   1   3 -16    9.08    0.42
  -1   3  16    9.02    0.40
   0  -3 -16   42.00    1.21
   0  -3  16   40.05    1.24
   0  -3 -16   41.14    1.21
   0  -3  16   39.71    1.17
   0   3  16   39.87    1.19
   0   3 -16   41.71    1.22
   1  -3  16   11.84    0.47
  -1  -3 -16   11.90    0.49
  -1  -3 -16   12.37    0.48
   1   3  16   12.06    0.47
  -1   3 -16   11.48    0.47
  -1   3 -16   12.17    0.57
  -2  -3 -16    8.56    0.40
   2  -3  16    8.54    0.40
   2   3  16    8.20    0.37
   2   3  16    8.16    0.37
  -2   3 -16    8.31    0.39
  -2   3 -16    8.68    0.47
   3  -3  16   40.55    1.33
  -3  -3 -16   44.16    1.26
   3   3  16   43.45    1.23
  -3   3 -16   43.48    1.38
  -3   3 -16   42.52    1.23
   4  -3  16   11.89    0.49
  -4   3 -16   11.51    0.45
   4   3  16   11.14    0.47
  -4   3 -16   11.52    0.60
  -5  -3 -16    0.42    0.16
   5  -3  16    0.41    0.16
  -5   3 -16    0.61    0.22
   5   3  16    0.40    0.13
   7   4 -16   10.29    0.48
   6  -4 -16   25.84    0.87
  -6  -4  16   26.32    0.85
  -6  -4  16   25.64    0.83
  -6   4  16   26.47    0.82
   6   4 -16   25.10    0.86
  -6   4  16   26.76    0.87
  -5  -4  16    1.71    0.24
   5  -4 -16    1.71    0.27
   5   4 -16    1.95    0.26
  -5   4  16    1.95    0.24
  -5   4  16    1.66    0.22
   4  -4 -16    3.93    0.31
  -4  -4  16    3.81    0.28
  -4  -4  16    2.70    0.40
   4   4 -16    3.05    0.29
  -4   4  16    3.03    0.26
  -4   4  16    3.13    0.25
  -3  -4  16   18.29    0.69
   3  -4 -16   17.71    0.66
  -3  -4  16   18.32    0.62
  -3   4  16   18.48    0.63
   3   4 -16   17.85    0.67
  -3   4  16   18.43    0.65
  -2  -4  16   43.78    1.25
  -2  -4  16   41.98    1.35
   2   4 -16   42.60    1.30
  -2   4  16   44.30    1.26
  -2   4  16   43.95    1.27
  -1  -4  16    1.53    0.19
   1   4 -16    1.39    0.20
  -1   4  16    1.08    0.17
  -1   4  16    1.25    0.19
   0  -4  16    6.49    0.36
   0   4  16    6.29    0.33
   0   4 -16    6.13    0.36
   0   4  16    6.46    0.32
   1  -4  16   17.77    0.62
  -1  -4 -16   18.04    0.69
   1   4  16   18.78    0.62
  -1   4 -16   15.18    0.69
  -1   4 -16   18.39    0.71
   1   4  16   17.90    0.61
   2  -4  16    3.26    0.27
  -2  -4 -16    3.60    0.30
  -2   4 -16    3.34    0.34
   2   4  16    3.48    0.25
  -3  -4 -16    0.47    0.17
   3  -4  16    0.57    0.15
   3   4  16    0.60    0.13
  -3   4 -16    0.33    0.19
   4  -4  16   24.28    0.81
  -4  -4 -16   24.40    0.81
  -4   4 -16   23.26    0.93
   4   4  16   24.84    0.78
  -5   5  16    7.84    0.38
   5   5 -16    7.98    0.44
  -4  -5  16   44.50    1.30
   4  -5 -16   44.18    1.34
  -4  -5  16   45.91    1.31
   4   5 -16   44.05    1.35
  -4   5  16   43.67    1.29
  -4   5  16   45.70    1.31
  -3  -5  16    0.83    0.17
  -3  -5  16    0.80    0.16
   3  -5 -16    1.13    0.19
  -3   5  16    0.82    0.17
  -3   5  16    0.99    0.16
   3   5 -16    1.11    0.20
   2  -5 -16   12.83    0.55
  -2  -5  16   12.84    0.51
  -2  -5  16   13.43    0.54
  -2   5  16   12.80    0.50
  -2   5  16   13.10    0.51
   2   5 -16   13.01    0.56
  -1  -5  16   22.63    0.77
  -1  -5  16   22.83    0.75
   1  -5 -16   22.46    0.78
  -1   5  16   21.80    0.73
   1   5 -16   21.13    0.77
   0  -5  16    0.84    0.16
   0  -5  16    0.87    0.17
   0  -5 -16    0.60    0.18
   0   5 -16    0.90    0.19
   0   5  16    0.86    0.16
   1  -5  16    0.34    0.14
  -1  -5 -16    0.17    0.17
   1   5  16    0.24    0.13
  -1   5 -16    0.16    0.17
  -1   5 -16    0.41    0.17
   2  -5  16   10.96    0.46
  -2  -5 -16   11.11    0.50
  -2   5 -16   10.79    0.54
   2   5  16   10.20    0.44
  -2   5 -16   10.28    0.49
   8   0 -17    0.00    0.14
   8   0 -17    0.33    0.16
  -8   0  17    0.31    0.15
  -7   0  17  114.63    2.99
   7   0 -17  108.99    2.89
   7   0 -17  102.09    2.86
   6   0 -17    0.12    0.14
  -6   0  17    0.24    0.14
   6   0 -17    0.11    0.15
   5   0 -17   10.13    0.41
   5   0 -17   10.11    0.44
   4   0 -17    0.25    0.14
  -4   0  17    0.15    0.11
   4   0 -17    0.18    0.12
   3   0 -17    0.59    0.15
  -3   0  17    0.43    0.14
   2   0 -17    0.29    0.13
  -2   0  17    0.53    0.14
  -1   0  17    8.11    0.40
   1   0 -17    8.40    0.39
   0   0  17    0.29    0.11
   0   0 -17    0.66    0.15
   0   0  17    0.40    0.13
  -1   0 -17   13.86    0.51
   1   0  17   13.44    0.55
   1   0  17   13.63    0.47
  -2   0 -17    0.18    0.12
   2   0  17    0.12    0.12
   2   0  17    0.14    0.11
   3   0  17   28.33    0.93
  -3   0 -17   28.63    0.87
   3   0  17   28.59    0.88
  -4   0 -17    0.13    0.13
   4   0  17    0.31    0.14
  -4   0 -17    0.08    0.15
  -5   0 -17   92.23    2.41
   5   0  17   90.51    2.61
  -5   0 -17   91.00    2.54
   6   0  17    0.16    0.16
  -6   0 -17    0.37    0.19
  -8  -1  17   15.03    0.61
   8  -1 -17   15.87    0.58
   8  -1 -17   15.01    0.59
  -8   1  17   17.25    0.64
   8   1 -17   15.74    0.58
   7  -1 -17    4.87    0.31
   7  -1 -17    4.47    0.33
  -7  -1  17    4.31    0.33
   7   1 -17    5.04    0.31
  -7   1  17    4.91    0.33
  -6  -1  17    0.23    0.14
   6  -1 -17    0.15    0.14
   6  -1 -17    0.11    0.15
  -6   1  17    0.03    0.13
   6   1 -17    0.33    0.13
   5  -1 -17   11.91    0.47
   5  -1 -17   11.29    0.52
  -5   1  17   12.54    0.54
   4  -1 -17    4.81    0.30
  -4  -1  17    5.37    0.33
   4  -1 -17    4.74    0.31
  -4   1  17    5.69    0.33
   4   1 -17    5.18    0.32
   3  -1 -17   30.20    0.94
  -3  -1  17   31.38    1.00
   3  -1 -17   32.07    0.99
  -3   1  17   32.05    1.00
   3   1 -17   31.62    0.99
  -2  -1  17    0.59    0.12
   2  -1 -17    0.63    0.13
  -2  -1  17    0.61    0.14
   2  -1 -17    0.55    0.14
   2   1 -17    0.52    0.13
  -2   1  17    0.48    0.14
  -1  -1  17   62.83    1.75
   1  -1 -17   61.82    1.71
   1  -1 -17   60.99    1.66
  -1  -1  17   59.24    1.64
  -1   1  17   60.10    1.73
   1   1 -17   61.33    1.72
   0  -1  17    5.45    0.28
   0  -1  17    5.74    0.34
   0  -1 -17    5.39    0.29
   0  -1 -17    5.80    0.32
   0   1 -17    5.77    0.31
   0   1  17    6.08    0.33
  -1  -1 -17    5.54    0.29
  -1  -1 -17    5.56    0.30
   1  -1  17    5.49    0.29
   1  -1  17    5.46    0.34
  -1   1 -17    6.30    0.32
   1   1  17    5.26    0.32
   2  -1  17    0.83    0.15
   2  -1  17    0.94    0.18
  -2  -1 -17    0.89    0.14
  -2  -1 -17    0.69    0.14
  -2   1 -17    0.46    0.13
   2   1  17    0.83    0.16
   2   1  17    0.63    0.15
   3  -1  17   30.90    0.94
  -3  -1 -17   29.66    0.91
  -3   1 -17   30.56    1.04
   3   1  17   30.00    0.91
  -3   1 -17   30.50    0.92
   3   1  17   30.01    0.96
  -4  -1 -17    0.65    0.14
   4  -1  17    0.35    0.14
   4   1  17    0.49    0.17
   4   1  17    0.61    0.16
  -4   1 -17    0.43    0.13
  -4   1 -17    0.63    0.19
  -5  -1 -17   13.91    0.50
   5  -1  17   13.98    0.54
   5   1  17   13.01    0.54
  -5   1 -17   13.35    0.62
   5   1  17   13.44    0.55
   6  -1  17   16.10    0.61
   6   1  17   15.85    0.60
  -6   1 -17   15.01    0.68
   8  -2 -17    9.16    0.42
  -8  -2  17    8.97    0.45
   8  -2 -17    9.48    0.47
   8   2 -17    9.56    0.45
  -8   2  17   10.01    0.48
  -7  -2  17   28.19    0.92
   7  -2 -17   27.14    0.90
   7  -2 -17   27.77    0.87
  -7   2  17   27.34    0.92
   7   2 -17   27.41    0.89
   6  -2 -17    4.01    0.29
  -6  -2  17    3.47    0.29
   6  -2 -17    3.71    0.28
   6   2 -17    3.88    0.29
  -6   2  17    3.90    0.29
   5  -2 -17   13.75    0.54
  -5  -2  17   14.17    0.62
   5  -2 -17   13.29    0.54
  -5   2  17   14.15    0.57
   5   2 -17   13.78    0.55
  -4  -2  17    2.27    0.20
  -4  -2  17    2.05    0.25
   4  -2 -17    2.11    0.25
   4   2 -17    2.11    0.26
  -3  -2  17   19.63    0.69
   3  -2 -17   18.61    0.65
   3  -2 -17   18.73    0.68
  -3  -2  17   18.51    0.60
   3   2 -17   17.55    0.71
  -3   2  17   19.08    0.68
   2  -2 -17   12.85    0.50
  -2  -2  17   12.80    0.53
   2  -2 -17   12.98    0.51
  -2  -2  17   12.65    0.45
  -2   2  17   12.35    0.51
   2   2 -17   12.52    0.51
   1  -2 -17    1.55    0.21
  -1  -2  17    1.04    0.18
  -1  -2  17    1.29    0.18
   1  -2 -17    1.33    0.21
   1   2 -17    1.17    0.18
  -1   2  17    1.11    0.19
   0  -2  17   30.32    0.92
   0  -2 -17   30.77    0.94
   0  -2  17   30.75    0.99
   0  -2 -17   30.27    0.95
   0   2  17   30.55    0.95
   0   2 -17   31.63    0.97
  -1  -2 -17   10.51    0.43
  -1  -2 -17   10.28    0.43
   1  -2  17    9.95    0.42
   1   2  17   10.83    0.45
  -1   2 -17   10.13    0.44
   2  -2  17   16.89    0.59
  -2  -2 -17   16.16    0.58
  -2  -2 -17   16.60    0.59
  -2   2 -17   16.46    0.59
   2   2  17   16.28    0.60
  -2   2 -17   17.10    0.69
  -3  -2 -17   16.35    0.58
   3  -2  17   16.13    0.59
  -3  -2 -17   16.37    0.65
  -3   2 -17   16.20    0.57
   3   2  17   16.72    0.60
  -3   2 -17   16.25    0.69
   4  -2  17    4.12    0.29
  -4  -2 -17    4.19    0.27
   4   2  17    4.40    0.30
  -4   2 -17    4.03    0.37
  -4   2 -17    3.75    0.27
   5  -2  17   23.06    0.77
   5   2  17   21.67    0.82
  -5   2 -17   21.62    0.86
   5   2  17   22.86    0.75
   5   2  17   22.60    0.80
   7  -3 -17    6.25    0.34
   7  -3 -17    6.45    0.38
  -7  -3  17    6.38    0.37
  -7   3  17    6.45    0.38
   7   3 -17    6.19    0.37
   6  -3 -17    0.48    0.14
  -6  -3  17    0.09    0.14
   6  -3 -17    0.42    0.16
  -6   3  17    0.40    0.15
   6   3 -17    0.70    0.18
  -5  -3  17   26.57    0.82
   5  -3 -17   26.98    0.86
  -5  -3  17   26.84    0.88
   5  -3 -17   26.25    0.87
  -5   3  17   27.91    0.89
   5   3 -17   25.80    0.87
  -4  -3  17    2.87    0.26
   4  -3 -17    2.51    0.24
  -4  -3  17    3.08    0.24
   4  -3 -17    2.68    0.28
   4   3 -17    2.73    0.27
  -4   3  17    2.61    0.25
   3  -3 -17    4.57    0.30
   3  -3 -17    4.19    0.28
  -3  -3  17    4.02    0.26
   3   3 -17    4.48    0.31
  -3   3  17    4.22    0.43
  -2  -3  17    0.54    0.13
   2  -3 -17    0.43    0.15
   2  -3 -17    0.47    0.14
   2   3 -17    0.32    0.15
  -2   3  17    0.36    0.14
   1  -3 -17   24.53    0.80
  -1  -3  17   23.90    0.76
   1  -3 -17   24.25    0.79
  -1  -3  17   22.82    0.89
   1   3 -17   23.69    0.83
  -1   3  17   24.59    0.79
   0  -3 -17    0.63    0.16
   0  -3  17    0.26    0.14
   0  -3 -17    0.32    0.14
   0  -3  17    0.09    0.11
   0   3  17    0.24    0.12
   1  -3  17    7.75    0.37
  -1  -3 -17    8.48    0.40
  -1  -3 -17    8.43    0.38
   1   3  17    7.91    0.37
  -1   3 -17    7.40    0.56
  -1   3 -17    8.00    0.46
   2  -3  17   14.80    0.67
  -2  -3 -17   14.84    0.56
  -2   3 -17   13.91    0.59
   2   3  17   15.22    0.55
   2   3  17   15.26    0.54
  -2   3 -17   15.51    0.65
   3  -3  17   24.46    0.80
  -3   3 -17   23.84    0.79
   3   3  17   23.98    0.77
  -3   3 -17   23.85    0.90
   3   3  17   24.68    0.77
   4  -3  17    6.13    0.35
  -4  -3 -17    6.01    0.34
  -4   3 -17    6.03    0.32
  -4   3 -17    5.27    0.43
   4   3  17    6.21    0.32
   5   3  17    0.69    0.17
  -5   3 -17    0.53    0.24
   5   3  17    0.71    0.15
   6  -4 -17    0.28    0.18
  -6  -4  17   -0.26    0.15
  -6   4  17    0.11    0.15
  -6   4  17   -0.04    0.14
   6   4 -17    0.21    0.17
   5  -4 -17    2.78    0.30
  -5  -4  17    2.22    0.25
  -5  -4  17    2.20    0.26
  -5   4  17    2.38    0.24
  -5   4  17    2.32    0.27
   5   4 -17    2.07    0.29
   4  -4 -17   14.66    0.59
  -4  -4  17   14.65    0.57
  -4  -4  17   14.55    0.54
   4   4 -17   13.56    0.58
  -4   4  17   14.62    0.54
  -4   4  17   14.37    0.56
   3  -4 -17   34.62    1.09
  -3  -4  17   35.94    1.09
  -3  -4  17   34.22    1.07
  -3   4  17   35.02    1.08
   3   4 -17   35.03    1.11
  -3   4  17   36.75    1.07
  -2  -4  17    1.26    0.19
   2  -4 -17    1.34    0.21
  -2  -4  17    1.57    0.23
  -2   4  17    1.26    0.18
   2   4 -17    1.20    0.20
   1  -4 -17    0.00    0.15
  -1  -4  17    0.17    0.13
  -1  -4  17    0.28    0.13
   1   4 -17    0.16    0.15
  -1   4  17    0.39    0.13
  -1   4  17    0.09    0.13
   0  -4  17    5.09    0.30
   0  -4 -17    4.79    0.33
   0  -4  17    5.18    0.33
   0   4  17    4.74    0.30
   0   4  17    5.20    0.30
   0   4 -17    4.95    0.33
  -1  -4 -17   35.62    1.10
   1  -4  17   34.36    1.06
  -1   4 -17   35.06    1.09
  -1   4 -17   35.25    1.15
   1   4  17   35.07    1.08
   1   4  17   35.70    1.05
   2  -4  17    5.11    0.32
  -2  -4 -17    5.32    0.35
   2   4  17    5.34    0.30
  -2   4 -17    4.94    0.34
  -2   4 -17    5.23    0.40
  -3  -4 -17    3.62    0.31
   3  -4  17    3.94    0.30
   3   4  17    4.13    0.28
  -3   4 -17    4.34    0.31
  -3   4 -17    3.75    0.38
   3  -5 -17    5.53    0.39
  -3  -5  17    4.86    0.32
  -3  -5  17    5.82    0.34
  -3   5  17    5.34    0.32
  -3   5  17    5.53    0.34
   3   5 -17    5.65    0.39
  -2  -5  17    0.97    0.18
   2  -5 -17    0.87    0.19
  -2  -5  17    0.70    0.16
  -2   5  17    0.87    0.16
  -2   5  17    0.59    0.16
   2   5 -17    0.56    0.20
   1  -5 -17   26.91    0.91
  -1  -5  17   27.42    0.89
  -1  -5  17   27.73    0.87
   1   5 -17   25.58    0.90
  -1   5  17   26.91    0.85
   0  -5  17    0.25    0.13
   0  -5  17    0.32    0.16
   0  -5 -17    0.03    0.17
   0   5  17    0.24    0.13
   0   5 -17    0.22    0.18
  -8   0  18   29.01    0.96
   8   0 -18   28.59    0.91
  -7   0  18    0.01    0.13
   7   0 -18    0.18    0.14
   6   0 -18    8.07    0.40
  -6   0  18    7.97    0.42
  -5   0  18    0.01    0.13
   5   0 -18    0.11    0.13
   4   0 -18   78.20    2.18
  -4   0  18   80.51    2.21
   2   0 -18   31.06    1.05
  -2   0  18   32.09    1.06
  -1   0  18    0.31    0.13
   1   0 -18    0.18    0.13
   0   0 -18   16.35    0.59
   0   0  18   15.96    0.62
  -1   0 -18    0.32    0.13
  -2   0 -18    6.58    0.34
   2   0  18    6.54    0.32
   2   0  18    6.62    0.40
  -3   0 -18    0.03    0.12
   3   0  18    0.16    0.14
   3   0  18    0.25    0.13
  -4   0 -18    0.28    0.14
   4   0  18    0.25    0.14
   4   0  18    0.29    0.14
   5   0  18    0.07    0.14
  -5   0 -18    0.07    0.18
  -7  -1  18   -0.22    0.13
   7  -1 -18    0.04    0.14
   7   1 -18    0.21    0.15
  -7   1  18    0.07    0.14
  -6  -1  18    4.96    0.34
   6  -1 -18    4.68    0.32
   6  -1 -18    4.98    0.32
  -6   1  18    4.79    0.33
   6   1 -18    5.07    0.33
   5  -1 -18   26.86    0.86
   5  -1 -18   27.17    0.88
  -5  -1  18   27.36    0.91
   5   1 -18   28.35    0.90
  -5   1  18   27.68    0.92
   4  -1 -18   23.12    0.74
  -4  -1  18   23.50    0.80
   4  -1 -18   23.41    0.78
  -4   1  18   22.78    0.79
   4   1 -18   22.07    0.77
  -3  -1  18    2.36    0.27
   3  -1 -18    2.58    0.24
   3  -1 -18    2.34    0.27
   3   1 -18    2.39    0.26
   2  -1 -18   39.85    1.16
  -2   1  18   41.93    1.29
  -1  -1  18    0.59    0.14
   1  -1 -18    0.44    0.23
   1   1 -18    0.27    0.16
  -1   1  18    0.48    0.14
   0  -1  18   22.78    0.70
   0  -1 -18   22.20    0.83
   0   1 -18   22.96    0.76
   0   1  18   23.19    0.78
   1  -1  18    0.10    0.12
   1  -1  18    0.08    0.12
  -1   1 -18    0.13    0.12
   1   1  18    0.25    0.14
   2  -1  18   41.02    1.26
   2  -1  18   39.85    1.18
  -2   1 -18   41.00    1.20
   2   1  18   41.38    1.47
   3  -1  18    0.86    0.16
  -3   1 -18    0.61    0.21
   3   1  18    0.83    0.17
  -3   1 -18    0.73    0.16
   4  -1  18   10.05    0.45
  -4  -1 -18    9.95    0.43
   4   1  18    9.68    0.48
  -4   1 -18    9.80    0.52
   4   1  18    9.98    0.46
  -4   1 -18    9.82    0.41
   5  -1  18    0.25    0.15
  -5  -1 -18    0.39    0.14
   5   1  18    0.23    0.16
  -5   1 -18    0.44    0.19
   5   1  18    0.12    0.15
  -7  -2  18    5.54    0.37
   7  -2 -18    6.12    0.34
   7  -2 -18    5.89    0.36
   7   2 -18    5.71    0.36
  -7   2  18    6.03    0.36
   6  -2 -18    4.01    0.30
  -6  -2  18    3.10    0.29
   6  -2 -18    3.68    0.29
  -6   2  18    3.47    0.29
   6   2 -18    3.75    0.30
  -5  -2  18    2.41    0.26
   5  -2 -18    2.51    0.26
   5  -2 -18    2.30    0.28
   5   2 -18    2.63    0.26
  -5   2  18    3.01    0.27
   4  -2 -18   24.71    0.82
   4  -2 -18   24.15    0.81
  -4  -2  18   25.14    0.84
   4   2 -18   24.50    0.83
  -4   2  18   24.98    0.84
  -3  -2  18    2.20    0.25
   3  -2 -18    1.64    0.23
   3  -2 -18    1.57    0.21
  -3   2  18    1.74    0.23
   3   2 -18    1.89    0.24
  -2  -2  18   26.88    0.81
   2  -2 -18   26.57    0.84
  -2  -2  18   26.43    0.89
   2  -2 -18   27.16    0.87
   2   2 -18   27.48    0.89
  -1  -2  18    7.79    0.35
   1  -2 -18    8.05    0.39
   1  -2 -18    7.69    0.38
  -1  -2  18    8.45    0.41
   1   2 -18    7.49    0.39
  -1   2  18    7.53    0.38
   0  -2  18    1.90    0.20
   0  -2  18    1.95    0.24
   0  -2 -18    2.16    0.25
   0  -2 -18    1.87    0.21
   0   2 -18    1.82    0.27
   0   2  18    2.18    0.23
  -1  -2 -18   39.05    1.16
   1  -2  18   38.76    1.14
  -1  -2 -18   40.23    1.15
   1  -2  18   40.12    1.23
   1   2  18   38.82    1.17
  -2  -2 -18    0.38    0.13
  -2  -2 -18    0.32    0.14
   2  -2  18    0.43    0.14
   2  -2  18    0.80    0.17
   2   2  18    0.54    0.15
  -2   2 -18    0.26    0.17
   3  -2  18    5.68    0.32
  -3  -2 -18    5.54    0.31
  -3  -2 -18    5.62    0.32
  -3   2 -18    5.07    0.39
   4  -2  18   21.91    0.75
   4   2  18   22.33    0.71
  -4   2 -18   21.16    0.85
   4   2  18   21.79    0.74
   6  -3 -18    5.53    0.37
  -6  -3  18    4.72    0.35
   6  -3 -18    5.56    0.33
   6   3 -18    5.49    0.35
  -6   3  18    5.44    0.35
  -5  -3  18   38.61    1.16
   5  -3 -18   37.76    1.14
   5  -3 -18   37.49    1.15
   5   3 -18   36.85    1.15
  -5   3  18   37.61    1.16
  -4  -3  18   10.05    0.46
   4  -3 -18    9.26    0.46
   4  -3 -18   10.03    0.44
  -4  -3  18    9.38    0.40
  -4   3  18    9.70    0.45
   4   3 -18    9.77    0.46
   3  -3 -18    7.41    0.38
  -3  -3  18    6.94    0.34
  -3  -3  18    7.45    0.40
  -3   3  18    7.44    0.39
   3   3 -18    7.14    0.38
  -2  -3  18   32.40    0.97
  -2  -3  18   32.67    1.04
   2  -3 -18   33.33    1.02
   2  -3 -18   33.87    1.02
  -2   3  18   32.80    1.03
   2   3 -18   32.51    1.03
   1  -3 -18    8.57    0.41
  -1  -3  18    8.54    0.43
  -1  -3  18    8.11    0.37
   1  -3 -18    8.64    0.41
   1   3 -18    8.46    0.43
   0  -3 -18    2.57    0.27
   0  -3  18    2.75    0.24
   0  -3  18    2.91    0.28
   0  -3 -18    2.49    0.25
   0   3  18    2.42    0.26
   0   3 -18    2.53    0.28
   1  -3  18    0.18    0.13
  -1  -3 -18    0.11    0.13
   1  -3  18    0.05    0.13
  -1  -3 -18    0.19    0.14
   1   3  18    0.24    0.13
  -1   3 -18    0.04    0.14
   2  -3  18   13.95    0.54
  -2  -3 -18   12.10    0.65
   2   3  18   15.10    0.53
   2   3  18   14.10    0.53
  -2   3 -18   14.49    0.64
  -2   3 -18   13.98    0.54
   3  -3  18    0.61    0.17
  -3  -3 -18    0.82    0.17
  -3   3 -18    0.87    0.22
   3   3  18    0.75    0.14
  -3   3 -18    0.87    0.17
  -4  -4  18    7.15    0.36
  -4  -4  18    6.97    0.38
   4  -4 -18    6.43    0.40
   4   4 -18    6.73    0.40
  -4   4  18    7.05    0.38
  -4   4  18    6.46    0.35
   3  -4 -18   10.20    0.48
  -3  -4  18    9.85    0.42
  -3  -4  18   10.19    0.47
  -3   4  18    9.92    0.45
  -3   4  18    9.72    0.43
   3   4 -18    9.69    0.47
  -2  -4  18    3.30    0.27
   2  -4 -18    3.62    0.31
  -2  -4  18    3.45    0.29
  -2   4  18    3.20    0.27
   2   4 -18    3.37    0.31
  -2   4  18    3.21    0.26
  -1  -4  18    0.97    0.19
  -1  -4  18    0.90    0.17
   1  -4 -18    1.01    0.20
  -1   4  18    0.91    0.17
  -1   4  18    0.91    0.16
   1   4 -18    0.98    0.20
   0  -4  18   19.22    0.71
   0  -4  18   18.67    0.66
   0  -4 -18   19.07    0.70
   0   4 -18   18.98    0.70
   0   4  18   19.06    0.66
   1  -4  18    3.60    0.31
   1  -4  18    3.67    0.29
  -1  -4 -18    3.64    0.31
  -1   4 -18    3.73    0.32
   1   4  18    3.97    0.27
  -2  -4 -18    1.11    0.21
   2  -4  18    1.01    0.18
  -2   4 -18    1.39    0.21
   2   4  18    1.44    0.21
  -2   4 -18    1.18    0.24
   7   0 -19    0.58    0.17
  -7   0  19    0.51    0.17
   6   0 -19    0.02    0.15
  -6   0  19    0.10    0.14
   5   0 -19   28.88    0.92
  -5   0  19   27.73    0.94
   4   0 -19    0.29    0.15
  -4   0  19    0.28    0.14
   3   0 -19   50.32    1.47
  -3   0  19   50.38    1.49
  -2   0  19    0.16    0.13
   2   0 -19    0.00    0.13
  -1   0  19   20.93    0.75
   1   0 -19   21.60    0.74
   0   0  19    0.15    0.13
   0   0 -19    0.21    0.13
   1   0  19   37.54    1.16
  -1   0 -19   36.91    1.11
   2   0  19    0.09    0.14
  -2   0 -19    0.12    0.13
  -3   0 -19   38.20    1.11
   3   0  19   36.90    1.17
   4   0  19    0.37    0.16
  -4   0 -19    0.36    0.14
   4   0  19    0.24    0.17
  -7  -1  19   17.42    0.68
   7  -1 -19   17.98    0.65
  -7   1  19   17.82    0.68
   7   1 -19   18.04    0.65
   6  -1 -19    5.47    0.34
  -6  -1  19    5.29    0.36
   6   1 -19    5.72    0.35
  -6   1  19    5.49    0.36
  -5  -1  19    9.25    0.45
   5  -1 -19    9.80    0.44
  -5   1  19    9.33    0.46
   5   1 -19    9.23    0.44
  -4  -1  19    0.81    0.18
   4  -1 -19    0.72    0.17
  -4   1  19    0.76    0.17
   4   1 -19    0.72    0.16
  -3  -1  19   10.04    0.46
   3  -1 -19    9.99    0.45
  -3   1  19    9.78    0.46
   3   1 -19    9.23    0.44
  -2  -1  19   33.34    1.08
   2  -1 -19   35.67    1.07
  -2   1  19   33.26    1.07
   2   1 -19   34.62    1.06
   1  -1 -19   12.77    0.51
  -1  -1  19   12.42    0.53
  -1   1  19   12.34    0.52
   1   1 -19   12.80    0.51
   0  -1  19    4.24    0.31
   0  -1 -19    4.22    0.29
   0   1 -19    3.90    0.29
   0   1  19    3.92    0.29
   1  -1  19   25.92    0.80
  -1  -1 -19   25.77    0.84
   1  -1  19   26.56    0.89
  -1   1 -19   25.95    0.84
   1   1  19   26.37    0.87
   2  -1  19    6.27    0.38
   2  -1  19    6.25    0.33
  -2  -1 -19    6.30    0.33
  -2   1 -19    6.48    0.35
   2   1  19    5.78    0.35
  -3  -1 -19   48.18    1.37
   3  -1  19   49.10    1.46
   3   1  19   48.61    1.43
  -3   1 -19   47.27    1.37
  -4  -1 -19    2.56    0.25
   4  -1  19    2.19    0.26
  -4   1 -19    2.27    0.24
  -4   1 -19    2.18    0.30
   4   1  19    2.66    0.28
  -6  -2  19    0.72    0.18
   6  -2 -19    1.14    0.19
   6  -2 -19    1.19    0.21
   6   2 -19    1.18    0.20
  -6   2  19    1.11    0.21
  -5  -2  19   17.68    0.66
   5  -2 -19   16.48    0.63
   5   2 -19   16.62    0.64
  -5   2  19   17.97    0.67
  -4  -2  19    0.10    0.14
   4  -2 -19    0.24    0.14
   4  -2 -19    0.26    0.17
  -4   2  19    0.35    0.14
   4   2 -19    0.25    0.14
   3  -2 -19   16.80    0.62
   3  -2 -19   15.85    0.60
  -3  -2  19   16.08    0.63
  -3   2  19   16.82    0.63
   3   2 -19   16.10    0.62
  -2  -2  19    0.07    0.13
   2  -2 -19    0.12    0.12
   2  -2 -19    0.09    0.16
   2   2 -19    0.33    0.14
  -2   2  19    0.27    0.14
   1  -2 -19    9.15    0.43
  -1  -2  19    9.23    0.46
  -1  -2  19    9.21    0.38
   1  -2 -19    9.14    0.43
   1   2 -19    9.75    0.45
  -1   2  19    9.44    0.43
   0  -2  19    2.06    0.26
   0  -2  19    2.08    0.22
   0  -2 -19    2.40    0.26
   0  -2 -19    1.86    0.23
   0   2 -19    1.73    0.25
   0   2  19    1.96    0.23
  -1  -2 -19   39.63    1.16
   1  -2  19   38.62    1.14
   1  -2  19   39.41    1.22
   1   2  19   39.36    1.18
  -1   2 -19   39.18    1.18
   2  -2  19    7.29    0.38
   2  -2  19    7.31    0.41
  -2  -2 -19    7.54    0.37
   2   2  19    7.23    0.38
  -2   2 -19    7.50    0.38
   3  -2  19    0.26    0.15
  -3  -2 -19    0.18    0.14
  -3   2 -19    0.01    0.19
   3   2  19    0.28    0.15
  -3   2 -19    0.33    0.16
   5  -3 -19   39.29    1.23
  -5  -3  19   41.63    1.24
   5  -3 -19   40.29    1.21
   5   3 -19   40.89    1.25
  -5   3  19   40.87    1.24
  -4  -3  19    0.37    0.16
   4  -3 -19    0.50    0.18
   4  -3 -19    0.71    0.16
  -4   3  19    0.41    0.15
   4   3 -19    0.73    0.19
  -3  -3  19    2.59    0.27
  -3  -3  19    2.30    0.26
   3  -3 -19    2.39    0.29
   3  -3 -19    2.77    0.27
  -3   3  19    2.18    0.26
   3   3 -19    2.21    0.28
  -2  -3  19   38.90    1.20
   2  -3 -19   38.65    1.17
  -2  -3  19   38.54    1.13
   2  -3 -19   38.63    1.18
   2   3 -19   39.38    1.21
  -2   3  19   39.02    1.18
  -1  -3  19   16.07    0.61
   1  -3 -19   15.55    0.58
   1  -3 -19   12.95    0.64
   1   3 -19   15.30    0.59
  -1   3  19   15.02    0.57
   0  -3  19    3.76    0.27
   0  -3 -19    3.41    0.28
   0  -3 -19    3.11    0.32
   0  -3  19    4.20    0.31
   0   3 -19    2.97    0.31
   0   3  19    3.50    0.28
  -1  -3 -19   18.19    0.66
  -1  -3 -19   19.24    0.66
   1  -3  19   18.26    0.71
   1  -3  19   18.74    0.64
  -1   3 -19   18.44    0.67
   1   3  19   18.53    0.65
   2  -3  19    0.38    0.16
  -2  -3 -19    0.59    0.18
   2  -3  19    0.61    0.17
   2   3  19    0.58    0.16
   2   3  19    0.89    0.16
  -2   3 -19    0.47    0.17
   6   0 -20   12.95    0.55
  -6   0  20   13.59    0.58
  -5   0  20    0.18    0.14
   5   0 -20    0.07    0.15
   4   0 -20    2.08    0.28
  -4   0  20    1.96    0.25
   3   0 -20    0.50    0.17
  -3   0  20    0.15    0.14
  -2   0  20   15.02    0.59
   2   0 -20   14.16    0.57
   1   0 -20    0.16    0.15
  -1   0  20    0.26    0.14
   0   0  20   62.60    1.79
   0   0 -20   62.15    1.75
   1   0  20    0.26    0.15
  -1   0 -20    0.25    0.14
  -2   0 -20   10.52    0.45
   2   0  20   10.44    0.49
   3   0  20    0.40    0.17
  -3   0 -20    0.11    0.14
   5  -1 -20    1.60    0.22
  -5  -1  20    2.07    0.27
  -5   1  20    1.78    0.25
   5   1 -20    2.07    0.26
  -4  -1  20   18.18    0.68
   4  -1 -20   18.10    0.66
  -4   1  20   18.31    0.68
   4   1 -20   17.39    0.66
   3  -1 -20    3.57    0.30
  -3  -1  20    3.83    0.30
  -3   1  20    3.90    0.30
   3   1 -20    3.96    0.31
   2  -1 -20    0.52    0.16
  -2  -1  20    0.41    0.14
  -2   1  20    0.36    0.14
   2   1 -20    0.42    0.15
  -1  -1  20    3.92    0.31
   1  -1 -20    4.19    0.31
   1   1 -20    4.05    0.31
  -1   1  20    4.04    0.30
   0  -1  20   -0.01    0.13
   0  -1 -20    0.17    0.14
   0   1 -20    0.05    0.14
   0   1  20    0.19    0.14
  -1  -1 -20   10.39    0.45
   1  -1  20    9.67    0.48
  -1   1 -20   10.42    0.46
   1   1  20   10.09    0.46
   2  -1  20    0.69    0.17
  -2  -1 -20    0.30    0.14
  -2   1 -20    0.09    0.15
   2   1  20    0.71    0.17
   3  -1  20    3.18    0.33
  -3  -1 -20    3.44    0.27
   3   1  20    3.47    0.31
  -3   1 -20    3.45    0.28
   4  -2 -20   26.50    0.87
  -4  -2  20   26.76    0.89
   4   2 -20   25.32    0.87
  -4   2  20   25.99    0.88
  -3  -2  20    0.26    0.15
   3  -2 -20    0.09    0.14
  -3   2  20    0.28    0.14
   3   2 -20    0.52    0.17
  -2  -2  20    5.63    0.36
   2  -2 -20    5.91    0.35
  -2   2  20    5.32    0.34
   2   2 -20    5.54    0.36
   1  -2 -20    0.70    0.16
  -1  -2  20    0.29    0.15
   1   2 -20    0.41    0.17
  -1   2  20    0.44    0.15
   0  -2 -20   23.36    0.79
   0  -2  20   24.29    0.85
   0   2  20   24.68    0.81
   0   2 -20   24.06    0.81
  -1  -2 -20    2.05    0.25
   1  -2  20    2.42    0.28
   1  -2  20    1.93    0.24
  -1   2 -20    2.66    0.28
   1   2  20    2.38    0.26
   2  -2  20    4.59    0.36
  -2  -2 -20    4.78    0.32
   2  -2  20    5.04    0.31
  -2   2 -20    4.79    0.33
   2   2  20    4.80    0.33
  -2  -3  20   35.04    1.11
   2  -3 -20   35.20    1.09
   2  -3 -20   34.43    1.07
   2   3 -20   34.77    1.11
  -2   3  20   35.14    1.09
   1  -3 -20    4.85    0.34
   1  -3 -20    4.93    0.36
  -1  -3  20    5.12    0.31
  -1  -3  20    4.94    0.35
  -1   3  20    5.04    0.33
   1   3 -20    4.72    0.36
   0  -3  20    0.21    0.16
   0  -3 -20    0.32    0.16
   0   3  20    0.34    0.16
   0   3 -20    0.60    0.19
   4   0 -21    0.20    0.16
  -4   0  21    1.02    0.20
   3   0 -21   33.57    1.06
  -3   0  21   32.95    1.07
   2   0 -21    0.07    0.15
  -2   0  21   -0.02    0.14
  -1   0  21   13.22    0.57
   1   0 -21   14.61    0.57
   0   0  21    0.32    0.15
   0   0 -21    0.18    0.15
  -1   0 -21   21.30    0.74
   1   0  21   21.09    0.77
  -3  -1  21   22.93    0.80
   3  -1 -21   21.66    0.77
   3   1 -21   22.17    0.78
  -3   1  21   22.75    0.79
   2  -1 -21    0.45    0.16
  -2  -1  21    0.29    0.15
   2   1 -21    0.49    0.17
  -2   1  21    0.36    0.15
  -1  -1  21   37.95    1.20
   1  -1 -21   38.76    1.17
   1   1 -21   38.86    1.19
  -1   1  21   38.18    1.19
   0  -1  21    7.03    0.41
   0  -1 -21    6.99    0.39
   0   1  21    7.25    0.40
   0   1 -21    7.14    0.40
   0   0   0    0.00    0.00
;
_shelx_hkl_checksum              54648
loop_
_space_group_symop_operation_xyz
'x, y, z'
'-x+1/2, y+1/2, -z+1/2'
'-x, -y, -z'
'x-1/2, -y-1/2, z-1/2'
loop_
_atom_site_label
_atom_site_type_symbol
_atom_site_fract_x
_atom_site_fract_y
_atom_site_fract_z
_atom_site_U_iso_or_equiv
_atom_site_adp_type
_atom_site_occupancy
_atom_site_site_symmetry_order
_atom_site_calc_flag
Bk1 Bk 0.53958(3) 0.23112(5) 0.39957(2) 0.01743(8) Uani 1 1 d
I1 I 0.61727(6) -0.09239(9) 0.19925(3) 0.01333(11) Uani 1 1 d
I2 I 0.27969(6) 0.68790(9) 0.35058(3) 0.01357(11) Uani 1 1 d
I3 I 0.83483(6) -0.14265(9) 0.47766(3) 0.01360(11) Uani 1 1 d
O7 O 0.7797(7) 0.0306(11) 0.3803(4) 0.0158(11) Uani 1 1 d
O2 O 0.7681(7) -0.0013(11) 0.1339(4) 0.0178(12) Uani 1 1 d
O3 O 0.3623(8) 0.5971(11) 0.4604(4) 0.0193(12) Uani 1 1 d
O8 O 0.4533(7) -0.0911(11) 0.1136(4) 0.0173(11) Uani 1 1 d
O6 O 0.5872(7) 0.1865(11) 0.2436(4) 0.0157(11) Uani 1 1 d
O5 O 0.3600(8) 0.4459(12) 0.2977(5) 0.0212(13) Uani 1 1 d
O1 O 0.6406(7) -0.1079(12) 0.5094(4) 0.0194(12) Uani 1 1 d
O4 O 0.4237(7) 0.8948(11) 0.3289(4) 0.0181(12) Uani 1 1 d
O9 O 0.9112(7) 0.0799(11) 0.5555(4) 0.0182(12) Uani 1 1 d
loop_
_atom_site_aniso_label
_atom_site_aniso_U_11
_atom_site_aniso_U_22
_atom_site_aniso_U_33
_atom_site_aniso_U_23
_atom_site_aniso_U_13
_atom_site_aniso_U_12
Bk1 0.01634(14) 0.02050(15) 0.01556(13) -0.00009(10) 0.00234(10) -0.00307(10)
I1 0.0128(2) 0.0142(2) 0.0131(2) 0.00021(17) 0.00173(16) 0.00036(17)
I2 0.0131(2) 0.0135(2) 0.0142(2) -0.00047(17) 0.00211(16) -0.00011(17)
I3 0.0133(2) 0.0135(2) 0.0140(2) -0.00073(17) 0.00151(16) 0.00057(17)
O7 0.019(3) 0.014(3) 0.015(3) 0.001(2) 0.002(2) 0.002(2)
O2 0.016(3) 0.021(3) 0.017(3) 0.002(2) 0.004(2) 0.003(2)
O3 0.020(3) 0.019(3) 0.017(3) 0.001(2) -0.003(2) -0.002(2)
O8 0.016(3) 0.016(3) 0.018(3) -0.002(2) -0.002(2) 0.001(2)
O6 0.020(3) 0.013(3) 0.014(3) -0.002(2) 0.001(2) 0.001(2)
O5 0.019(3) 0.019(3) 0.026(3) -0.006(3) 0.003(2) 0.001(2)
O1 0.014(3) 0.024(3) 0.023(3) 0.000(3) 0.008(2) -0.002(2)
O4 0.018(3) 0.020(3) 0.017(3) -0.001(2) 0.003(2) -0.005(2)
O9 0.015(3) 0.017(3) 0.022(3) -0.005(2) -0.001(2) -0.001(2)
loop_
_atom_type_symbol
_atom_type_description
_atom_type_scat_dispersion_real
_atom_type_scat_dispersion_imag
_atom_type_scat_source
O O 0.0106 0.0060 'International Tables Vol C Tables 4.2.6.8 and 6.1.1.4'
I I -0.4742 1.8119 'International Tables Vol C Tables 4.2.6.8 and 6.1.1.4'
Bk Bk -6.8498 4.9086 'International Tables Vol C Tables 4.2.6.8 and 6.1.1.4'
loop_
_geom_angle_atom_site_label_1
_geom_angle_atom_site_label_2
_geom_angle_atom_site_label_3
_geom_angle
_geom_angle_site_symmetry_1
_geom_angle_site_symmetry_3
O1 Bk1 O2 150.4(2) 3_656 2_655
O1 Bk1 O3 79.0(2) 3_656 3_666
O2 Bk1 O3 73.9(2) 2_655 3_666
O1 Bk1 O4 74.1(2) 3_656 1_545
O2 Bk1 O4 135.5(2) 2_655 1_545
O3 Bk1 O4 145.0(2) 3_666 1_545
O1 Bk1 O5 96.0(2) 3_656 .
O2 Bk1 O5 86.6(2) 2_655 .
O3 Bk1 O5 118.2(2) 3_666 .
O4 Bk1 O5 86.8(2) 1_545 .
O1 Bk1 O6 137.5(2) 3_656 .
O2 Bk1 O6 70.5(2) 2_655 .
O3 Bk1 O6 143.5(2) 3_666 .
O4 Bk1 O6 66.4(2) 1_545 .
O5 Bk1 O6 67.6(2) . .
O1 Bk1 O7 124.6(2) 3_656 .
O2 Bk1 O7 70.3(2) 2_655 .
O3 Bk1 O7 95.0(2) 3_666 .
O4 Bk1 O7 82.6(2) 1_545 .
O5 Bk1 O7 132.5(2) . .
O6 Bk1 O7 65.7(2) . .
O1 Bk1 O1 66.3(2) 3_656 .
O2 Bk1 O1 115.7(2) 2_655 .
O3 Bk1 O1 73.5(2) 3_666 .
O4 Bk1 O1 75.5(2) 1_545 .
O5 Bk1 O1 157.6(2) . .
O6 Bk1 O1 115.6(2) . .
O7 Bk1 O1 59.36(19) . .
O1 Bk1 O3 67.5(2) 3_656 .
O2 Bk1 O3 89.5(2) 2_655 .
O3 Bk1 O3 63.4(2) 3_666 .
O4 Bk1 O3 123.0(2) 1_545 .
O5 Bk1 O3 58.3(2) . .
O6 Bk1 O3 123.2(2) . .
O7 Bk1 O3 154.33(19) . .
O1 Bk1 O3 120.98(19) . .
O1 Bk1 I3 97.42(17) 3_656 .
O2 Bk1 I3 88.74(16) 2_655 .
O3 Bk1 I3 78.37(16) 3_666 .
O4 Bk1 I3 83.34(16) 1_545 .
O5 Bk1 I3 160.49(16) . .
O6 Bk1 I3 92.98(15) . .
O7 Bk1 I3 29.30(14) . .
O1 Bk1 I3 31.11(13) . .
O3 Bk1 I3 140.62(12) . .
O1 Bk1 I2 84.16(17) 3_656 .
O2 Bk1 I2 84.49(16) 2_655 .
O3 Bk1 I2 90.86(16) 3_666 .
O4 Bk1 I2 107.93(16) 1_545 .
O5 Bk1 I2 28.18(16) . .
O6 Bk1 I2 93.44(15) . .
O7 Bk1 I2 151.24(14) . .
O1 Bk1 I2 148.46(13) . .
O3 Bk1 I2 30.46(13) . .
I3 Bk1 I2 168.552(15) . .
O1 Bk1 I1 167.38(17) 3_656 2_655
O2 Bk1 I1 25.68(15) 2_655 2_655
O3 Bk1 I1 90.77(16) 3_666 2_655
O4 Bk1 I1 112.05(15) 1_545 2_655
O5 Bk1 I1 95.39(16) . 2_655
O6 Bk1 I1 52.98(15) . 2_655
O7 Bk1 I1 48.29(15) . 2_655
O1 Bk1 I1 103.80(13) . 2_655
O3 Bk1 I1 114.62(13) . 2_655
I3 Bk1 I1 73.000(13) . 2_655
I2 Bk1 I1 103.608(14) . 2_655
O6 I1 O8 97.0(3) . .
O6 I1 O2 94.5(3) . .
O8 I1 O2 100.1(3) . .
O6 I1 Bk1 124.9(2) . 2_645
O8 I1 Bk1 109.2(2) . 2_645
O2 I1 Bk1 34.9(2) . 2_645
O6 I1 Bk1 34.9(2) . .
O8 I1 Bk1 111.9(2) . .
O2 I1 Bk1 120.3(2) . .
Bk1 I1 Bk1 135.919(15) 2_645 .
O3 I2 O4 98.9(3) . .
O3 I2 O5 92.1(3) . .
O4 I2 O5 97.9(3) . .
O3 I2 Bk1 53.7(2) . .
O4 I2 Bk1 96.2(2) . .
O5 I2 Bk1 39.0(2) . .
O3 I2 Bk1 24.2(2) . 3_666
O4 I2 Bk1 83.3(2) . 3_666
O5 I2 Bk1 112.6(2) . 3_666
Bk1 I2 Bk1 73.679(12) . 3_666
O3 I2 Bk1 84.9(2) . 1_565
O4 I2 Bk1 24.4(2) . 1_565
O5 I2 Bk1 118.4(2) . 1_565
Bk1 I2 Bk1 103.769(15) . 1_565
Bk1 I2 Bk1 64.285(11) 3_666 1_565
O3 I2 Bk1 160.2(2) . 2
O4 I2 Bk1 100.9(2) . 2
O5 I2 Bk1 84.8(2) . 2
Bk1 I2 Bk1 123.014(15) . 2
Bk1 I2 Bk1 161.674(15) 3_666 2
Bk1 I2 Bk1 113.779(14) 1_565 2
O7 I3 O1 89.1(3) . .
O7 I3 O9 99.0(3) . .
O1 I3 O9 91.8(3) . .
O7 I3 O9 84.6(3) . 3_756
O1 I3 O9 164.3(3) . 3_756
O9 I3 O9 75.2(3) . 3_756
O7 I3 Bk1 41.75(19) . .
O1 I3 Bk1 49.1(2) . .
O9 I3 Bk1 87.8(2) . .
O9 I3 Bk1 120.35(16) 3_756 .
O7 I3 Bk1 107.3(2) . 3_656
O1 I3 Bk1 18.8(2) . 3_656
O9 I3 Bk1 93.0(2) . 3_656
O9 I3 Bk1 164.65(15) 3_756 3_656
Bk1 I3 Bk1 67.900(12) . 3_656
O7 I3 Bk1 99.2(2) . 1_545
O1 I3 Bk1 69.2(2) . 1_545
O9 I3 Bk1 153.3(2) . 1_545
O9 I3 Bk1 125.94(15) 3_756 1_545
Bk1 I3 Bk1 92.959(13) . 1_545
Bk1 I3 Bk1 62.897(10) 3_656 1_545
I3 O7 Bk1 109.0(3) . .
I1 O2 Bk1 119.4(3) . 2_645
I2 O3 Bk1 137.8(4) . 3_666
I2 O3 Bk1 95.9(3) . .
Bk1 O3 Bk1 116.6(2) 3_666 .
I1 O6 Bk1 120.1(3) . .
I2 O5 Bk1 112.9(3) . .
I3 O1 Bk1 146.5(4) . 3_656
I3 O1 Bk1 99.8(3) . .
Bk1 O1 Bk1 113.7(2) 3_656 .
I2 O4 Bk1 137.6(3) . 1_565
I2 O4 Bk1 70.96(19) . 3_666
Bk1 O4 Bk1 74.48(15) 1_565 3_666
I2 O4 Bk1 58.10(19) . .
Bk1 O4 Bk1 125.8(2) 1_565 .
Bk1 O4 Bk1 65.72(10) 3_666 .
I3 O9 I3 104.8(3) . 3_756
I3 O9 Bk1 64.02(18) . .
I3 O9 Bk1 125.1(2) 3_756 .
loop_
_geom_bond_atom_site_label_1
_geom_bond_atom_site_label_2
_geom_bond_distance
_geom_bond_site_symmetry_2
Bk1 O1 2.327(6) 3_656
Bk1 O2 2.405(6) 2_655
Bk1 O3 2.407(6) 3_666
Bk1 O4 2.418(6) 1_545
Bk1 O5 2.421(7) .
Bk1 O6 2.452(6) .
Bk1 O7 2.459(6) .
Bk1 O1 2.679(7) .
Bk1 O3 2.873(7) .
Bk1 I3 3.4925(6) .
Bk1 I2 3.5471(6) .
Bk1 I1 3.6590(6) 2_655
I1 O6 1.808(6) .
I1 O8 1.811(6) .
I1 O2 1.820(6) .
I1 Bk1 3.6590(6) 2_645
I2 O3 1.808(6) .
I2 O4 1.812(6) .
I2 O5 1.818(7) .
I2 Bk1 3.9375(6) 3_666
I2 Bk1 3.9489(6) 1_565
I2 Bk1 4.4248(6) 2
I3 O7 1.807(6) .
I3 O1 1.831(6) .
I3 O9 1.834(6) .
I3 O9 2.364(6) 3_756
I3 Bk1 3.9849(6) 3_656
I3 Bk1 4.5820(6) 1_545
O2 Bk1 2.405(6) 2_645
O3 Bk1 2.407(6) 3_666
O1 Bk1 2.327(6) 3_656
O4 Bk1 2.418(6) 1_565
O4 Bk1 4.137(6) 3_666
O9 I3 2.364(6) 3_756
