#------------------------------------------------------------------------------
#$Date: 2017-07-27 01:34:31 +0300 (Thu, 27 Jul 2017) $
#$Revision: 199346 $
#$URL: file:///home/coder/svn-repositories/cod/cif/4/12/63/4126318.cif $
#------------------------------------------------------------------------------
#
# This file is available in the Crystallography Open Database (COD),
# http://www.crystallography.net/
#
# All data on this site have been placed in the public domain by the
# contributors.
#
data_4126318
loop_
_publ_author_name
'Surbella, Robert G.'
'Ducati, Lucas Colucci'
'Pellegrini, Kristi L.'
'McNamara, Bruce K.'
'Autschbach, Jochen'
'Schwantes, Jon Michael'
'Cahill, Christopher L.'
_publ_section_title
;
 Transuranic Hybrid Materials: Crystallographic and Computational Metrics
 of Supramolecular Assembly.
;
_journal_name_full               'Journal of the American Chemical Society'
_journal_paper_doi               10.1021/jacs.7b05689
_journal_year                    2017
_chemical_formula_moiety         '(C5 H5 N Cl 1+)2, (Np O2 Cl4 2-)'
_chemical_formula_sum            'C10 H10 Cl6 N2 Np O2'
_chemical_formula_weight         639.90
_space_group_crystal_system      monoclinic
_space_group_IT_number           12
_space_group_name_Hall           '-C 2y'
_space_group_name_H-M_alt        'C 1 2/m 1'
_symmetry_cell_setting           monoclinic
_symmetry_Int_Tables_number      12
_symmetry_space_group_name_Hall  '-C 2y'
_symmetry_space_group_name_H-M   'C 1 2/m 1'
_atom_sites_solution_hydrogens   mixed
_audit_creation_method           SHELXL-2014/7
_cell_angle_alpha                90
_cell_angle_beta                 105.538(3)
_cell_angle_gamma                90
_cell_formula_units_Z            2
_cell_length_a                   15.705(4)
_cell_length_b                   6.5663(18)
_cell_length_c                   9.050(3)
_cell_measurement_reflns_used    2909
_cell_measurement_temperature    110(2)
_cell_measurement_theta_max      56.523
_cell_measurement_theta_min      4.672
_cell_volume                     899.2(4)
_computing_cell_refinement       'SAINT, Bruker-AXS'
_computing_data_collection       'APEX, Bruker-AXS'
_computing_data_reduction        'SAINT, Bruker-AXS'
_computing_molecular_graphics    'WINGX (Farrugia, 2012)'
_computing_publication_material  'Crystal Maker (Palmer, 2009)'
_computing_structure_refinement  'SHELXL-2014/7 (Sheldrick, 2014)'
_computing_structure_solution    'SIR92 (Gualardi, 1994)'
_diffrn_ambient_temperature      110(2)
_diffrn_measured_fraction_theta_full 1.000
_diffrn_measured_fraction_theta_max 0.982
_diffrn_measurement_device_type  'Bruker Quazar'
_diffrn_measurement_method       'Omega scans'
_diffrn_radiation_probe          x-ray
_diffrn_radiation_type           MoK\a
_diffrn_radiation_wavelength     0.71073
_diffrn_reflns_av_R_equivalents  0.0393
_diffrn_reflns_av_unetI/netI     0.0299
_diffrn_reflns_Laue_measured_fraction_full 1.000
_diffrn_reflns_Laue_measured_fraction_max 0.982
_diffrn_reflns_limit_h_max       20
_diffrn_reflns_limit_h_min       -20
_diffrn_reflns_limit_k_max       8
_diffrn_reflns_limit_k_min       -8
_diffrn_reflns_limit_l_max       12
_diffrn_reflns_limit_l_min       -11
_diffrn_reflns_number            5633
_diffrn_reflns_point_group_measured_fraction_full 1.000
_diffrn_reflns_point_group_measured_fraction_max 0.982
_diffrn_reflns_theta_full        25.500
_diffrn_reflns_theta_max         28.325
_diffrn_reflns_theta_min         2.336
_diffrn_source                   'Moly microfocus'
_exptl_absorpt_coefficient_mu    6.671
_exptl_absorpt_correction_T_max  0.7457
_exptl_absorpt_correction_T_min  0.6029
_exptl_absorpt_correction_type   multi-scan
_exptl_absorpt_process_details   'Krause et. al 2015'
_exptl_crystal_colour            Green-Yellow
_exptl_crystal_density_diffrn    2.363
_exptl_crystal_description       Prismatic
_exptl_crystal_F_000             590
_exptl_crystal_recrystallization_method 'Aqueous acidic (HCl) evaporation'
_exptl_crystal_size_max          0.040
_exptl_crystal_size_mid          0.025
_exptl_crystal_size_min          0.025
_refine_diff_density_max         0.520
_refine_diff_density_min         -0.668
_refine_diff_density_rms         0.118
_refine_ls_extinction_method     none
_refine_ls_goodness_of_fit_ref   1.060
_refine_ls_hydrogen_treatment    mixed
_refine_ls_matrix_type           full
_refine_ls_number_parameters     67
_refine_ls_number_reflns         1195
_refine_ls_number_restraints     1
_refine_ls_restrained_S_all      1.060
_refine_ls_R_factor_all          0.0189
_refine_ls_R_factor_gt           0.0189
_refine_ls_shift/su_max          0.000
_refine_ls_shift/su_mean         0.000
_refine_ls_structure_factor_coef Fsqd
_refine_ls_weighting_details
'w=1/[\s^2^(Fo^2^)+(0.0165P)^2^+0.5190P] where P=(Fo^2^+2Fc^2^)/3'
_refine_ls_weighting_scheme      calc
_refine_ls_wR_factor_gt          0.0394
_refine_ls_wR_factor_ref         0.0394
_reflns_Friedel_coverage         0.000
_reflns_number_gt                1193
_reflns_number_total             1195
_reflns_threshold_expression     'I > 2\s(I)'
_cod_data_source_file            ja7b05689_si_002.cif
_cod_data_source_block           Compound_6_110K
_cod_original_sg_symbol_H-M      'C 2/m'
_cod_database_code               4126318
_shelx_shelxl_version_number     2014/7
_shelx_space_group_comment
;
The symmetry employed for this shelxl refinement is uniquely defined
by the following loop, which should always be used as a source of
symmetry information in preference to the above space-group names.
They are only intended as comments.
;
_shelx_estimated_absorpt_t_min   0.776
_shelx_estimated_absorpt_t_max   0.851
_shelx_res_file
;

    shelx.res created by SHELXL-2014/7

TITL C2onm in C2/m
CELL  0.71073  15.7051   6.5663   9.0503   90.000  105.538   90.000
ZERR     2.00   0.0042   0.0018   0.0025    0.000    0.003    0.000
LATT   7
SYMM  - X,   Y, - Z
SFAC  C    CL   H    N    NP   O
UNIT  20 12 20 4 2 4
MERG   2
DFIX 0.89 0.02 N1 HN1
HTAB C1 Cl2
EQIV $1 -x+1, -y, -z
HTAB C1 Cl2_$1
HTAB C2 Cl1
HTAB C2 Cl2
EQIV $2 x, y, z-1
HTAB N1 Cl1_$2
HTAB C1 Cl2
HTAB C1 Cl2_$1
HTAB C2 Cl1
HTAB C2 Cl2
HTAB N1 Cl1_$2
FMAP   2
PLAN   5
SIZE     0.025   0.025   0.040
ACTA    51.00
BOND   $H
L.S.  12
TEMP  -163.15
WGHT    0.016500    0.519000
FVAR       0.08214
C1    1    0.310132    0.000000   -0.110132    10.50000    0.01822    0.02569 =
         0.02271    0.00000    0.00257    0.00000
AFIX  43
H1    3    0.372916    0.000000   -0.081201    10.50000   -1.20000
AFIX   0
C2    1    0.265032    0.000000   -0.000127    10.50000    0.01748    0.02372 =
         0.01833    0.00000    0.00336    0.00000
AFIX  43
H2    3    0.295713    0.000000    0.105717    10.50000   -1.20000
AFIX   0
C3    1    0.173317    0.000000   -0.046948    10.50000    0.01419    0.01853 =
         0.02405    0.00000    0.00441    0.00000
C4    1    0.127380    0.000000   -0.200902    10.50000    0.01695    0.01970 =
         0.02700    0.00000   -0.00280    0.00000
AFIX  43
H4    3    0.064611    0.000000   -0.232392    10.50000   -1.20000
AFIX   0
C5    1    0.176543    0.000000   -0.306562    10.50000    0.03077    0.02012 =
         0.02355    0.00000   -0.00326    0.00000
AFIX  43
H5    3    0.147487    0.000000   -0.413121    10.50000   -1.20000
AFIX   0
N1    4    0.265399    0.000000   -0.259384    10.50000    0.02935    0.01944 =
         0.02046    0.00000    0.00995    0.00000
O1    6    0.500000   -0.266275    0.500000    10.50000    0.02013    0.02261 =
         0.03405    0.00000   -0.00031    0.00000
CL1   2    0.322517    0.000000    0.431115    10.50000    0.01470    0.03334 =
         0.01764    0.00000    0.00172    0.00000
CL2   2    0.491428    0.000000    0.205631    10.50000    0.01723    0.07042 =
         0.01637    0.00000    0.00364    0.00000
CL3   2    0.115411    0.000000    0.089502    10.50000    0.01865    0.04730 =
         0.03191    0.00000    0.01061    0.00000
NP1   5    0.500000    0.000000    0.500000    10.25000    0.01461    0.02143 =
         0.01612    0.00000    0.00077    0.00000
HN1   3    0.295946    0.000000   -0.326656    10.50000    0.03046
HKLF    4

REM  C2onm in C2/m
REM R1 =  0.0189 for    1193 Fo > 4sig(Fo)  and  0.0189 for all    1195 data
REM     67 parameters refined using      1 restraints

END

WGHT      0.0165      0.5189

REM Highest difference peak  0.520,  deepest hole -0.668,  1-sigma level  0.118
Q1    1   0.5229 -0.1784  0.5627  11.00000  0.05    0.50
Q2    1   0.2601  0.0000  0.2643  10.50000  0.05    0.46
Q3    1   0.0625  0.0000  0.0067  10.50000  0.05    0.45
Q4    1   0.1321  0.1819 -0.5401  11.00000  0.05    0.41
Q5    1   0.3795  0.1195  0.4134  11.00000  0.05    0.39
;
_shelx_res_checksum              10197
_shelx_hkl_file
;
  -2   0   0  109.72    2.97
   2   0   0  111.19    3.12
   2   0   0  116.33    3.46
  -2   0   0  105.50    3.02
  -4   0   0  182.78    4.98
   4   0   0  186.12    5.91
   4   0   0  187.98    5.32
  -4   0   0  181.72    5.09
  -6   0   0  360.33   10.02
   6   0   0  381.41   11.42
   6   0   0  372.87   10.39
  -6   0   0  359.15    9.84
  -8   0   0  173.86    4.88
   8   0   0  176.20    6.78
   8   0   0  178.29    5.61
  -8   0   0  173.13    5.10
  10   0   0  159.22    5.59
 -10   0   0  168.06    5.00
 -10   0   0  165.38    4.69
  10   0   0  168.19    7.01
 -12   0   0  101.26    3.41
  12   0   0  100.69    4.13
  12   0   0   99.77    5.45
 -14   0   0   14.90    1.01
  14   0   0   14.58    2.70
 -16   0   0   95.21    3.49
  16   0   0   87.36    6.02
 -18   0   0   55.16    2.55
  18   0   0   55.08    5.14
  -1  -1   0  193.42    5.39
   1  -1   0  199.48    5.84
  -1  -1   0  197.23    5.23
   1  -1   0  183.88    5.40
  -1   1   0  195.66    5.23
  -1   1   0  196.15    5.71
   1   1   0  204.90    5.53
   3  -1   0  245.04    7.64
  -3  -1   0  242.74    6.73
  -3  -1   0  249.84    6.81
   3  -1   0  257.51    6.83
   3   1   0  251.03    7.33
  -3   1   0  248.99    6.74
  -3   1   0  250.99    7.30
   3   1   0  248.98    6.94
   5  -1   0  543.25   15.45
  -5  -1   0  520.48   14.01
   5  -1   0  497.56   14.04
  -5  -1   0  524.50   14.05
   5   1   0  519.22   14.26
   5   1   0  555.46   15.13
  -5   1   0  529.13   14.70
  -5   1   0  505.94   14.04
   7  -1   0   79.20    3.72
  -7  -1   0   69.43    2.31
  -7  -1   0   70.39    2.19
   7  -1   0   73.00    2.27
   7   1   0   77.39    3.49
   7   1   0   72.24    2.55
  -7   1   0   67.30    2.85
  -7   1   0   70.56    2.31
   9  -1   0   66.71    2.14
  -9  -1   0   64.03    2.06
  -9  -1   0   65.42    2.25
   9  -1   0   72.51    3.89
   9   1   0   60.60    2.52
  -9   1   0   57.51    2.78
   9   1   0   61.04    3.44
  -9   1   0   66.85    2.25
  11  -1   0  119.09    5.94
 -11  -1   0  117.61    3.81
 -11  -1   0  117.68    3.51
 -11   1   0  114.99    4.59
  11   1   0  119.93    4.33
  11   1   0  112.63    5.63
 -11   1   0  119.76    3.80
 -13  -1   0   95.40    3.33
  13  -1   0   90.41    5.59
 -13   1   0   95.07    3.31
  13   1   0   95.75    5.47
 -15  -1   0   31.68    1.64
  15  -1   0   30.69    4.09
 -15   1   0   31.21    1.64
  15   1   0   31.34    3.24
  17  -1   0   32.66    4.65
 -17  -1   0   29.49    1.68
 -17   1   0   28.87    1.66
  17   1   0   31.74    4.22
  19  -1   0    6.19    2.30
 -19  -1   0    6.50    0.95
  19   1   0    9.14    2.63
 -19   1   0    9.13    1.09
   0  -2   0  972.92   26.70
   0   2   0  976.20   26.73
   0   2   0 1000.00   26.03
  -2  -2   0   26.80    0.88
  -2  -2   0   24.87    1.10
   2  -2   0   26.79    1.15
   2  -2   0   26.72    1.70
   2   2   0   25.01    1.27
   2   2   0   26.22    1.28
  -2   2   0   25.65    1.49
  -2   2   0   25.11    0.87
   4  -2   0   67.22    2.23
   4  -2   0   66.16    3.20
  -4  -2   0   66.12    2.00
  -4  -2   0   64.68    2.18
  -4   2   0   60.35    1.98
   4   2   0   64.20    2.62
   4   2   0   66.77    2.39
  -4   2   0   61.99    2.76
   6  -2   0  186.93    6.84
  -6  -2   0  176.64    5.10
  -6  -2   0  176.43    5.00
   6  -2   0  176.17    5.18
  -6   2   0  174.59    5.99
   6   2   0  162.57    5.99
   6   2   0  174.38    5.37
  -6   2   0  171.89    4.99
  -8  -2   0   88.32    2.80
   8  -2   0   84.03    2.89
   8  -2   0   92.79    4.67
  -8  -2   0   87.67    2.82
  -8   2   0   84.82    2.79
   8   2   0   90.54    3.18
  -8   2   0   82.01    3.67
   8   2   0   87.66    4.06
  10  -2   0   93.13    3.14
 -10  -2   0   96.42    3.00
  10  -2   0   96.24    5.25
 -10  -2   0   93.82    3.12
 -10   2   0   89.89    3.07
 -10   2   0   89.97    4.05
  10   2   0   96.50    3.52
  10   2   0   92.10    4.63
 -12  -2   0   64.05    2.41
  12  -2   0   59.07    4.36
  12   2   0   59.70    2.78
  12   2   0   61.11    4.00
 -12   2   0   62.00    2.35
  14  -2   0    5.49    1.88
 -14  -2   0    5.70    0.77
  14   2   0    6.24    1.70
 -14   2   0    8.43    0.90
  16  -2   0   60.15    5.15
 -16  -2   0   57.60    2.57
 -16   2   0   60.92    2.54
  16   2   0   62.36    4.87
  18  -2   0   38.79    5.43
 -18  -2   0   39.10    2.11
 -18   2   0   40.80    2.08
  18   2   0   40.41    5.20
   1  -3   0  116.59    4.51
  -1  -3   0  122.95    3.91
   1  -3   0  115.39    3.88
  -1  -3   0  116.22    4.20
   1   3   0  118.61    3.37
  -1   3   0  118.61    3.37
   1   3   0  114.34    4.25
  -1   3   0  125.34    4.51
   3  -3   0  148.28    4.57
   3  -3   0  144.58    5.67
  -3  -3   0  143.24    4.04
  -3  -3   0  140.38    4.50
   3   3   0  142.86    4.77
  -3   3   0  141.06    5.22
   3   3   0  137.24    4.77
  -3   3   0  135.75    4.01
  -5  -3   0  288.23    8.09
  -5  -3   0  299.61    8.48
   5  -3   0  306.49   10.33
   5  -3   0  282.42    8.54
   5   3   0  289.98    8.78
   5   3   0  299.13    9.14
  -5   3   0  293.19    9.46
  -5   3   0  288.83    8.08
  -7  -3   0   51.58    2.08
   7  -3   0   54.11    3.60
  -7  -3   0   53.07    1.92
   7  -3   0   58.29    2.27
  -7   3   0   51.20    2.87
   7   3   0   57.66    2.95
  -7   3   0   56.73    1.92
   7   3   0   56.11    2.39
  -9  -3   0   46.93    1.88
   9  -3   0   45.63    2.00
   9  -3   0   48.84    3.68
  -9  -3   0   46.33    1.81
   9   3   0   46.23    2.20
  -9   3   0   47.81    1.81
  -9   3   0   41.80    2.68
   9   3   0   48.93    3.01
  11  -3   0   79.44    5.29
 -11  -3   0   85.17    2.93
 -11  -3   0   81.82    2.94
  11   3   0   88.01    3.47
 -11   3   0   80.76    4.08
 -11   3   0   83.99    2.95
  11   3   0   84.97    4.64
 -13  -3   0   70.68    2.71
  13  -3   0   70.22    5.33
 -13   3   0   70.08    2.68
  13   3   0   68.89    3.19
  13   3   0   66.49    4.43
  15  -3   0   26.62    4.20
 -15  -3   0   29.71    1.62
 -15   3   0   26.12    1.51
  15   3   0   27.09    3.72
 -17  -3   0   25.51    1.59
  17  -3   0   26.74    4.58
  17   3   0   31.80    4.27
 -17   3   0   21.74    1.48
   0  -4   0  422.66   12.17
   0  -4   0  420.59   12.73
   0   4   0  411.54   11.36
   0   4   0  429.91   12.88
  -2  -4   0   43.91    1.52
   2  -4   0   45.79    2.76
  -2  -4   0   47.92    2.10
   2  -4   0   46.16    2.10
  -2   4   0   44.00    2.56
   2   4   0   42.80    2.34
  -2   4   0   44.04    1.51
   2   4   0   43.90    2.19
   4  -4   0   62.11    3.73
  -4  -4   0   65.64    2.12
  -4  -4   0   67.22    2.65
   4  -4   0   62.66    2.66
   4   4   0   61.09    2.87
  -4   4   0   65.92    2.09
   4   4   0   62.00    2.88
  -4   4   0   67.61    3.39
  -6  -4   0  124.06    4.29
  -6  -4   0  131.05    3.87
   6  -4   0  127.72    4.45
   6  -4   0  133.17    6.30
   6   4   0  123.46    4.96
  -6   4   0  122.43    5.26
   6   4   0  129.87    4.70
  -6   4   0  125.95    3.83
   8  -4   0   69.59    4.63
  -8  -4   0   69.94    2.72
   8  -4   0   69.78    2.86
  -8  -4   0   67.61    2.41
   8   4   0   66.28    3.56
  -8   4   0   71.93    2.41
   8   4   0   67.45    3.02
  -8   4   0   70.30    3.69
  10  -4   0   60.11    4.75
  10  -4   0   74.92    3.00
 -10  -4   0   72.89    2.78
 -10  -4   0   71.60    2.62
  10   4   0   72.14    3.20
 -10   4   0   72.40    3.89
 -10   4   0   72.61    2.59
  10   4   0   73.53    4.10
 -12  -4   0   55.01    2.21
  12  -4   0   47.63    4.48
  12   4   0   51.54    3.70
 -12   4   0   48.98    2.09
  12   4   0   51.72    2.69
  14  -4   0    9.77    2.83
 -14  -4   0    7.52    0.92
 -14   4   0    7.45    0.87
  14   4   0    6.03    1.78
 -16  -4   0   47.00    2.30
  16  -4   0   51.20    5.33
  16   4   0   53.69    7.64
 -16   4   0   46.43    2.20
   1  -5   0   44.63    2.25
  -1  -5   0   43.61    2.22
  -1   5   0   44.70    1.57
   1   5   0   45.24    1.59
  -1   5   0   38.40    2.58
   1   5   0   47.14    2.69
  -3  -5   0   47.91    2.39
   3  -5   0   53.77    3.38
  -3  -5   0   52.24    1.77
   3  -5   0   46.79    2.37
  -3   5   0   48.67    1.73
   3   5   0   48.98    2.75
  -3   5   0   52.18    3.06
  -5  -5   0  108.74    4.02
  -5  -5   0  108.35    3.34
   5  -5   0  107.47    4.10
   5  -5   0  100.23    5.46
   5   5   0  102.77    4.35
  -5   5   0  104.05    3.28
  -5   5   0  105.94    4.93
   7  -5   0   21.74    1.52
  -7  -5   0   21.64    1.09
   7  -5   0   23.63    3.21
  -7  -5   0   24.13    1.50
  -7   5   0   22.36    2.49
  -7   5   0   22.57    1.07
   7   5   0   22.67    1.72
  -9  -5   0   19.37    1.09
   9  -5   0   18.97    3.24
  -9  -5   0   20.64    1.37
   9  -5   0   20.39    1.48
   9   5   0   19.24    1.61
  -9   5   0   19.24    2.33
  -9   5   0   20.16    1.07
 -11  -5   0   35.64    1.90
 -11  -5   0   36.92    1.74
  11  -5   0   33.59    4.53
 -11   5   0   38.39    1.68
 -11   5   0   38.84    2.93
  11   5   0   37.69    2.35
  13  -5   0   27.58    4.49
 -13  -5   0   33.70    1.74
 -13   5   0   32.11    1.62
  13   5   0   33.53    2.27
  15  -5   0    7.50    2.59
 -15   5   0   10.35    1.08
   0  -6   0  126.21    4.90
   0   6   0  131.10    5.59
   2  -6   0    9.35    1.19
  -2  -6   0   11.11    1.32
   2   6   0   11.75    1.69
  -2   6   0   11.42    1.69
   4  -6   0   19.43    1.53
  -4  -6   0   19.93    1.53
   4   6   0   17.98    1.99
  -4   6   0   15.12    2.08
   6  -6   0   42.11    2.39
  -6  -6   0   40.61    2.29
   6   6   0   42.16    2.67
  -6   6   0   43.81    3.10
  -8  -6   0   21.79    1.57
   8  -6   0   23.32    1.72
  -8   6   0   19.77    2.48
   8   6   0   19.50    1.77
  10  -6   0   23.63    1.77
 -10  -6   0   24.92    1.66
  10   6   0   20.40    1.84
 -10   6   0   28.18    3.06
  12   6   0   19.89    2.16
   1  -7   0   23.60    1.82
  -1  -7   0   21.65    1.81
   1   7   0   22.30    2.56
  -1   7   0   21.72    2.46
  -3  -7   0   19.96    1.72
   3  -7   0   25.67    1.92
   3   7   0   26.17    2.25
  -3   7   0   25.14    2.85
   5  -7   0   50.77    2.83
  -5  -7   0   41.42    2.55
   5   7   0   43.73    3.00
  -5   7   0   53.57    3.56
   7  -7   0   12.37    1.55
  -7  -7   0   12.47    1.53
   7   7   0   14.42    1.99
  -7   7   0   12.77    2.11
   9  -7   0   10.42    1.45
  -9  -7   0   11.83    1.52
   9   7   0   12.97    1.85
  -9   7   0   11.91    2.10
  11   7   0   15.33    2.03
   0  -8   0   48.21    2.95
   0   8   0   41.63    3.25
   2  -8   0    4.70    1.09
  -2  -8   0    5.25    1.09
  -2   8   0    2.91    1.10
   2   8   0    6.18    1.40
  -4  -8   0    6.05    1.15
   4  -8   0    8.76    1.37
  -4   8   0    9.51    1.84
   4   8   0    9.67    1.73
   6  -8   0   17.46    2.01
  -6  -8   0   18.33    1.97
   6   8   0   15.44    2.26
  -6   8   0   20.44    2.74
  -8  -8   0    7.00    1.21
   8  -8   0    9.52    1.46
  -8   8   0   10.78    2.04
  20   0  -1   15.06    3.68
 -20   0   1   17.47    1.75
 -18   0   1   29.03    1.68
  18   0  -1   28.99    4.49
  16   0  -1   36.85    3.87
 -16   0   1   41.43    1.96
  14   0  -1   53.92    4.29
  14   0  -1   58.60    3.25
 -14   0   1   58.52    2.34
 -12   0   1  135.51    4.27
  12   0  -1  133.26    6.59
  12   0  -1  130.78    5.21
  10   0  -1   37.92    2.10
  10   0  -1   33.44    2.67
 -10   0   1   35.30    1.47
   8   0  -1   96.44    3.56
  -8   0   1   92.06    2.90
   8   0  -1   88.82    4.28
   6   0  -1  312.42    9.04
  -6   0   1  296.56    8.44
   6   0  -1  314.48    9.90
  -6   0   1  313.24    8.18
  -4   0   1  185.35    5.16
   4   0  -1  190.04    6.16
   4   0  -1  190.21    5.59
   2   0  -1  237.16    6.30
   2   0  -1  239.00    6.68
   2   0  -1  250.40    7.11
  -2   0   1  231.16    6.38
   0   0  -1   88.74    2.44
   0   0  -1   90.17    2.48
   0   0  -1   90.63    2.84
   0   0  -1   89.20    2.55
   2   0   1  121.96    3.97
  -2   0  -1  130.82    3.50
  -4   0  -1  252.80    6.85
  -4   0  -1  249.69    6.87
   4   0   1  260.49    6.87
   4   0   1  239.18    7.70
  -6   0  -1  164.74    4.83
  -6   0  -1  162.79    4.74
   6   0   1  177.98    6.13
   6   0   1  170.45    4.97
   8   0   1    1.45    0.66
  -8   0  -1    1.26    0.27
  -8   0  -1    1.72    0.27
   8   0   1    1.20    0.37
  10   0   1   79.12    3.06
 -10   0  -1   79.70    2.51
  10   0   1   74.81    4.21
 -10   0  -1   73.43    2.64
  12   0   1   62.78    4.26
 -12   0  -1   67.85    2.51
 -14   0  -1   20.84    1.25
  14   0   1   16.73    2.78
 -16   0  -1   14.07    1.11
  16   0   1   12.37    2.67
 -18   0  -1    4.88    0.83
  18   0   1    4.34    1.78
  19  -1  -1   28.18    4.77
 -19  -1   1   30.34    1.82
  19   1  -1   26.89    4.28
 -19   1   1   29.76    1.78
  17  -1  -1   58.03    5.19
 -17  -1   1   64.18    2.69
 -17   1   1   57.14    2.56
  17   1  -1   63.55    5.20
 -15  -1   1   19.36    1.22
  15  -1  -1   14.71    2.84
 -15   1   1   20.64    1.23
  15   1  -1   17.76    2.86
  13  -1  -1   27.46    3.56
 -13  -1   1   27.30    1.39
  13   1  -1   23.51    2.56
 -13   1   1   27.91    1.37
  13   1  -1   26.75    1.91
 -13   1   1   26.20    2.07
  11  -1  -1  131.15    6.43
 -11  -1   1  130.99    4.08
  11   1  -1  130.54    4.76
  11   1  -1  119.02    5.85
 -11   1   1  130.49    4.04
 -11   1   1  122.96    5.01
  -9  -1   1   58.81    1.80
   9  -1  -1   56.63    1.87
   9  -1  -1   61.01    3.71
  -9  -1   1   59.10    2.07
  -9   1   1   59.99    2.85
   9   1  -1   55.66    2.48
   9   1  -1   60.40    3.40
  -9   1   1   57.99    2.04
  -7  -1   1  140.52    3.85
   7  -1  -1  135.74    5.71
  -7  -1   1  134.63    4.03
   7  -1  -1  143.00    3.92
  -7   1   1  132.72    4.00
   7   1  -1  138.10    5.32
   7   1  -1  138.57    4.45
  -7   1   1  136.57    4.86
   5  -1  -1   63.65    1.90
   5  -1  -1   60.85    3.13
  -5  -1   1   60.57    1.93
  -5  -1   1   63.31    1.86
   5   1  -1   62.00    2.21
  -5   1   1   63.83    1.90
  -5   1   1   57.76    2.53
   5   1  -1   59.75    2.68
   3  -1  -1   63.54    2.93
  -3  -1   1   62.67    1.90
  -3  -1   1   64.31    1.95
   3  -1  -1   65.05    1.94
  -3   1   1   60.98    1.83
   3   1  -1   67.18    2.15
   3   1  -1   64.68    2.33
  -3   1   1   66.55    2.52
   1  -1  -1  172.87    5.75
   1  -1  -1  179.94    5.00
  -1  -1   1  180.17    5.02
  -1   1   1  179.55    5.48
   1   1  -1  191.12    5.12
  -1   1   1  179.84    4.77
   1  -1   1  306.77    9.05
  -1  -1  -1  323.89    8.89
   1  -1   1  321.63    8.90
  -1  -1  -1  325.49    8.69
   1   1   1  359.32    9.53
   1   1   1  338.05    9.19
  -1   1  -1  328.52    8.79
  -1   1  -1  326.74    8.98
  -3  -1  -1    2.13    0.23
   3  -1   1    2.12    0.52
   3  -1   1    1.74    0.25
  -3  -1  -1    2.18    0.28
  -3   1  -1    1.83    0.35
  -3   1  -1    2.56    0.29
   3   1   1    1.83    0.28
   3   1   1    1.46    0.43
  -5  -1  -1   69.41    2.15
   5  -1   1   71.69    2.22
  -5  -1  -1   67.10    2.16
   5  -1   1   64.84    3.06
   5   1   1   68.35    3.05
  -5   1  -1   68.78    2.17
   5   1   1   69.14    2.22
  -5   1  -1   68.61    2.49
  -7  -1  -1   91.98    2.92
   7  -1   1   92.34    2.96
   7  -1   1   92.91    4.31
  -7  -1  -1   99.54    2.98
  -7   1  -1   95.89    2.99
   7   1   1   98.58    3.08
  -7   1  -1   91.98    3.37
   7   1   1   97.22    4.20
   9  -1   1   41.04    2.91
  -9  -1  -1   37.83    1.57
  -9  -1  -1   39.85    1.50
   9  -1   1   41.35    1.55
   9   1   1   35.15    2.59
  -9   1  -1   40.74    1.60
   9   1   1   40.56    1.75
  -9   1  -1   37.69    1.95
  11  -1   1   45.56    3.39
 -11  -1  -1   41.70    1.76
 -11  -1  -1   43.23    1.62
  11  -1   1   41.82    1.68
 -11   1  -1   43.31    1.78
  11   1   1   38.35    3.00
 -13  -1  -1    3.31    0.59
  13  -1   1    2.25    1.12
  13   1   1    1.70    1.01
 -13   1  -1    3.59    0.60
 -15  -1  -1   14.36    1.07
  15  -1   1   13.30    2.62
 -15   1  -1   13.67    1.04
  15   1   1   14.76    2.81
 -17  -1  -1   37.78    1.98
  17  -1   1   31.26    4.44
 -17   1  -1   37.97    1.95
  17   1   1   34.50    4.63
 -19  -1  -1    5.81    1.05
  19   1   1    2.03    2.06
 -18  -2   1   19.62    1.41
  18  -2  -1   18.03    3.74
  18   2  -1   17.67    3.46
 -18   2   1   20.93    1.39
 -16  -2   1   24.09    1.47
  16  -2  -1   26.31    4.35
 -16   2   1   22.96    1.38
  16   2  -1   23.88    3.46
  14  -2  -1   34.36    3.71
 -14  -2   1   36.76    1.74
  14   2  -1   38.03    2.36
 -14   2   1   33.73    1.66
  14   2  -1   32.09    3.14
  12  -2  -1   82.08    5.41
 -12  -2   1   87.58    3.01
 -12   2   1   88.24    2.96
 -12   2   1   79.93    4.08
  12   2  -1   83.33    4.79
  12   2  -1   80.62    3.54
 -10  -2   1   14.51    0.86
  10  -2  -1   12.89    0.80
 -10  -2   1   15.02    0.74
  10  -2  -1   12.52    2.28
 -10   2   1   12.26    1.62
  10   2  -1   16.13    1.19
  10   2  -1   14.99    2.09
 -10   2   1   15.61    0.85
  -8  -2   1   37.17    1.48
   8  -2  -1   37.93    2.97
  -8  -2   1   39.66    1.44
   8  -2  -1   39.12    1.52
  -8   2   1   35.77    1.41
   8   2  -1   36.37    1.80
  -8   2   1   40.94    2.39
   8   2  -1   40.11    2.46
   6  -2  -1  145.01    6.19
   6  -2  -1  144.77    4.40
  -6  -2   1  147.22    4.27
  -6  -2   1  149.62    4.34
  -6   2   1  143.20    5.38
   6   2  -1  146.04    5.19
  -6   2   1  149.54    4.22
   6   2  -1  145.83    4.69
  -4  -2   1   69.63    2.11
   4  -2  -1   68.20    3.55
  -4  -2   1   66.70    2.27
   4  -2  -1   68.26    2.30
  -4   2   1   66.22    2.01
  -4   2   1   71.93    3.08
   4   2  -1   67.04    2.56
  -2  -2   1   79.07    2.61
   2  -2  -1   76.55    3.51
   2  -2  -1   81.23    2.60
   2   2  -1   78.23    2.44
   2   2  -1   81.07    2.76
  -2   2   1   78.63    2.20
  -2   2   1   79.43    3.23
   2   2  -1   80.16    2.35
   0  -2  -1   22.75    1.03
   0  -2  -1   21.06    1.47
   0  -2  -1   22.89    0.68
   0  -2   1   21.87    1.02
   0  -2   1   22.44    1.03
   0   2  -1   23.49    0.83
   0   2  -1   22.52    1.18
   0   2   1   21.72    1.37
  -2  -2  -1   37.00    1.15
   2  -2   1   37.85    1.82
  -2  -2  -1   38.16    1.45
   2  -2   1   38.80    1.49
   2   2   1   34.62    1.84
   2   2   1   38.44    1.74
  -2   2  -1   38.29    1.75
  -2   2  -1   35.92    1.24
  -4  -2  -1  103.60    3.06
   4  -2   1  105.39    4.19
   4  -2   1  106.43    3.36
  -4  -2  -1  105.65    3.30
  -4   2  -1  110.94    3.82
   4   2   1  104.51    3.47
   4   2   1  105.28    4.04
  -4   2  -1  103.57    3.14
  -6  -2  -1   75.30    2.43
   6  -2   1   79.34    3.76
   6  -2   1   80.59    2.66
  -6  -2  -1   79.37    2.58
  -6   2  -1   73.56    3.07
   6   2   1   80.19    3.57
   6   2   1   77.11    2.71
  -6   2  -1   71.76    2.46
   8  -2   1    0.32    0.17
   8  -2   1    0.68    0.56
  -8  -2  -1    0.47    0.20
  -8  -2  -1    0.92    0.25
   8   2   1    0.57    0.50
  -8   2  -1    0.08    0.31
  -8   2  -1    0.61    0.23
   8   2   1    0.41    0.24
  10  -2   1   43.01    1.79
  10  -2   1   40.04    3.17
 -10  -2  -1   40.51    1.64
 -10  -2  -1   41.21    1.71
 -10   2  -1   44.85    1.76
  10   2   1   41.56    1.93
  10   2   1   39.96    2.93
 -12  -2  -1   38.24    1.70
 -12  -2  -1   35.62    1.90
  12  -2   1   33.61    3.23
 -12   2  -1   37.39    1.68
  12   2   1   35.67    3.04
  14  -2   1    8.89    2.25
 -14  -2  -1   10.67    1.05
 -14   2  -1   11.38    1.10
  14   2   1    9.98    2.17
 -16  -2  -1    8.42    1.00
  16  -2   1   11.65    2.82
  16   2   1    8.35    2.23
 -16   2  -1    5.40    0.78
 -18  -2  -1    3.88    0.80
  18  -2   1    1.77    1.68
  18   2   1    1.76    1.50
 -18   2  -1    2.47    0.60
 -19  -3   1   30.41    3.11
  19   3  -1   17.93    3.66
 -19   3   1   19.57    1.41
 -17  -3   1   41.86    2.18
  17  -3  -1   50.99    6.75
 -17   3   1   47.56    2.16
  17   3  -1   42.05    4.13
  15  -3  -1   19.75    3.87
 -15  -3   1   17.59    1.21
  15   3  -1   17.48    2.95
 -15   3   1   16.49    1.11
  13  -3  -1   19.88    3.48
 -13  -3   1   24.26    1.33
 -13   3   1   22.00    2.62
  13   3  -1   25.01    1.79
  13   3  -1   20.46    2.88
 -13   3   1   21.51    1.20
 -11  -3   1   97.22    3.28
  11  -3  -1   93.52    5.92
 -11   3   1   97.16    3.19
  11   3  -1   92.60    3.83
 -11   3   1   92.20    4.62
  11   3  -1   99.90    5.05
  -9  -3   1   45.46    1.79
  -9  -3   1   42.31    1.78
   9  -3  -1   46.30    1.95
   9  -3  -1   44.78    3.66
  -9   3   1   43.72    2.83
   9   3  -1   48.44    2.30
  -9   3   1   45.57    1.71
   9   3  -1   49.43    2.88
  -7  -3   1   98.51    3.34
   7  -3  -1   96.35    3.42
  -7  -3   1   98.19    3.16
   7  -3  -1  109.84    5.54
  -7   3   1  101.38    4.50
  -7   3   1  103.51    3.09
   7   3  -1  100.17    4.16
   7   3  -1  101.47    3.72
  -5  -3   1   57.92    2.15
   5  -3  -1   54.62    3.51
  -5  -3   1   52.79    1.85
   5  -3  -1   52.45    2.14
  -5   3   1   56.84    2.99
   5   3  -1   55.05    2.35
   5   3  -1   54.64    2.41
  -5   3   1   54.76    1.75
  -3  -3   1   51.86    2.06
  -3  -3   1   48.64    1.69
   3  -3  -1   49.79    3.07
   3  -3  -1   52.17    2.07
   3   3  -1   53.35    2.00
  -3   3   1   52.97    1.58
  -3   3   1   51.85    2.73
   3   3  -1   52.53    2.27
  -1  -3   1  120.47    4.03
   1  -3  -1  127.79    4.04
   1  -3  -1  120.83    4.97
   1   3  -1  128.28    4.34
   1   3  -1  119.25    3.80
  -1   3   1  120.49    3.40
   1   3  -1  124.38    3.59
  -1   3   1  128.12    4.76
  -1  -3  -1  179.01    4.95
   1  -3   1  179.68    5.60
   1  -3   1  184.48    5.95
  -1  -3  -1  183.99    6.38
  -1  -3  -1  179.21    5.55
  -1   3  -1  181.23    6.00
   1   3   1  179.58    6.13
  -1   3  -1  186.28    5.12
  -3  -3  -1    8.56    0.68
   3  -3   1    7.45    0.67
  -3  -3  -1    9.41    0.46
   3  -3   1    8.88    1.30
  -3   3  -1    9.89    0.53
  -3   3  -1    8.76    1.16
   3   3   1    8.06    1.11
   3   3   1    9.05    1.07
  -5  -3  -1   61.13    1.98
  -5  -3  -1   60.55    2.30
   5  -3   1   60.03    2.36
   5  -3   1   61.99    3.38
   5   3   1   60.27    3.01
  -5   3  -1   60.51    2.87
  -5   3  -1   60.96    2.05
   5   3   1   61.05    2.53
  -7  -3  -1   72.85    2.65
   7  -3   1   73.36    2.78
  -7  -3  -1   71.73    2.41
   7  -3   1   74.76    4.12
  -7   3  -1   71.75    3.33
  -7   3  -1   72.92    2.48
   7   3   1   70.54    2.84
   7   3   1   78.11    3.75
  -9  -3  -1   33.93    1.56
  -9  -3  -1   35.30    1.49
   9  -3   1   34.26    2.93
   9  -3   1   35.35    1.71
  -9   3  -1   32.94    2.16
  -9   3  -1   33.11    1.48
   9   3   1   33.95    2.57
   9   3   1   35.32    1.79
  11  -3   1   37.68    3.42
  11  -3   1   41.86    1.93
 -11  -3  -1   35.54    1.67
 -11  -3  -1   38.02    1.71
  11   3   1   37.37    1.98
  11   3   1   40.20    3.09
 -11   3  -1   41.42    1.76
 -13  -3  -1    4.00    0.62
  13  -3   1    3.14    1.35
 -13   3  -1    4.77    0.70
  13   3   1    5.25    1.51
 -15  -3  -1   12.32    1.23
  15  -3   1   11.45    2.75
 -15   3  -1   12.75    1.20
  15   3   1    9.84    2.28
  17  -3   1   25.22    4.16
 -17  -3  -1   29.03    1.76
  17   3   1   31.31    4.39
 -17   3  -1   31.73    1.78
 -18  -4   1   14.14    1.44
  18  -4  -1   18.82    4.18
 -18   4   1   17.51    1.27
  16  -4  -1   19.94    3.94
 -16  -4   1   23.24    1.46
 -16   4   1   18.01    1.24
  14  -4  -1   26.97    4.33
 -14  -4   1   29.12    1.62
  14   4  -1   31.64    2.20
 -14   4   1   32.98    1.59
 -12  -4   1   63.34    2.54
  12  -4  -1   70.96    5.50
 -12   4   1   61.27    3.89
  12   4  -1   64.35    3.15
 -12   4   1   67.43    2.47
  10  -4  -1   17.70    3.09
  10  -4  -1   21.32    1.34
 -10  -4   1   20.53    1.13
 -10  -4   1   20.00    1.19
  10   4  -1   18.91    1.50
 -10   4   1   19.60    1.02
 -10   4   1   16.90    2.26
  10   4  -1   23.42    3.15
   8  -4  -1   41.25    1.98
  -8  -4   1   38.58    1.62
   8  -4  -1   35.31    3.43
  -8  -4   1   43.23    1.91
  -8   4   1   43.33    1.57
  -8   4   1   41.49    2.85
   8   4  -1   42.32    2.23
   8   4  -1   37.42    2.49
  -6  -4   1  109.27    3.88
  -6  -4   1  115.77    3.50
   6  -4  -1  118.26    6.02
   6  -4  -1  111.54    3.95
  -6   4   1  108.72    3.32
  -6   4   1  105.93    4.94
   6   4  -1  112.01    4.23
   6   4  -1  107.09    4.24
  -4  -4   1   68.18    2.73
   4  -4  -1   66.55    2.73
  -4  -4   1   67.06    2.24
   4  -4  -1   73.18    4.18
   4   4  -1   70.50    3.03
   4   4  -1   65.10    2.69
  -4   4   1   67.38    2.10
  -4   4   1   70.66    3.61
   2  -4  -1   75.23    4.03
  -2  -4   1   76.86    2.99
   2  -4  -1   79.49    3.01
   2   4  -1   78.88    2.45
  -2   4   1   72.74    3.66
   2   4  -1   77.00    3.29
  -2   4   1   77.37    2.26
   2   4  -1   71.05    2.71
   0  -4  -1   51.80    2.92
   0  -4  -1   48.20    2.20
   0  -4   1   48.81    2.23
   0  -4   1   47.64    2.23
   0   4  -1   49.07    2.52
   0   4  -1   51.12    1.71
   0   4   1   50.60    2.76
   0   4   1   48.54    1.55
   2  -4   1   55.19    2.40
  -2  -4  -1   53.04    1.72
   2  -4   1   55.67    2.87
  -2   4  -1   55.19    1.85
   2   4   1   54.40    2.82
   2   4   1   53.76    2.76
  -2   4  -1   54.01    2.78
  -4  -4  -1   98.44    3.53
   4  -4   1   94.16    4.62
   4  -4   1   95.77    3.62
  -4  -4  -1   97.93    2.93
   4   4   1  101.34    4.20
   4   4   1   97.16    3.91
  -4   4  -1   97.22    3.04
  -4   4  -1   91.99    4.10
  -6  -4  -1   74.86    2.85
   6  -4   1   69.90    2.95
  -6  -4  -1   69.63    2.36
   6  -4   1   73.30    4.22
   6   4   1   70.25    3.10
   6   4   1   71.01    3.59
  -6   4  -1   78.00    2.50
  -6   4  -1   68.62    3.48
  -8  -4  -1    3.11    0.45
   8  -4   1    3.18    0.65
  -8  -4  -1    4.31    0.69
   8  -4   1    4.12    1.37
  -8   4  -1    3.60    0.51
   8   4   1    5.23    1.25
   8   4   1    4.12    0.79
  -8   4  -1    3.05    0.88
 -10  -4  -1   46.05    1.88
 -10  -4  -1   42.31    2.00
  10  -4   1   46.88    2.26
  10  -4   1   45.67    3.90
  10   4   1   45.95    2.33
 -10   4  -1   44.13    1.87
  10   4   1   41.37    3.12
 -12  -4  -1   32.38    2.37
  12  -4   1   34.21    3.68
 -12  -4  -1   37.82    1.75
 -12   4  -1   34.51    1.68
  12   4   1   34.79    3.12
  14  -4   1   14.19    3.04
 -14  -4  -1   13.90    1.28
 -14   4  -1   13.08    1.03
  14   4   1   12.55    2.50
  16  -4   1    8.94    2.61
 -16  -4  -1   11.31    1.23
 -16   4  -1   10.81    1.16
  16   4   1   14.49    2.92
 -15  -5   1    6.71    0.88
  15  -5  -1    6.14    2.66
 -13  -5   1   12.94    1.20
  13  -5  -1    9.45    2.71
  13   5  -1   10.06    1.49
 -11  -5   1   44.74    1.95
  11  -5  -1   43.10    4.46
  11   5  -1   45.49    2.65
 -11   5   1   45.79    3.36
  -9  -5   1   20.75    1.37
   9  -5  -1   18.32    3.31
  -9  -5   1   20.46    1.14
   9  -5  -1   20.44    1.46
   9   5  -1   21.46    1.70
  -9   5   1   21.93    2.58
   7  -5  -1   47.33    3.93
   7  -5  -1   42.31    2.20
  -7  -5   1   43.58    1.75
  -7  -5   1   43.87    2.16
   7   5  -1   38.37    2.37
  -7   5   1   41.91    3.03
  -5  -5   1   28.00    1.22
   5  -5  -1   24.87    1.61
   5  -5  -1   27.80    2.79
  -5  -5   1   22.73    1.55
  -5   5   1   25.81    2.25
   5   5  -1   26.42    1.87
  -3  -5   1   22.89    1.51
  -3  -5   1   22.05    1.03
   3  -5  -1   21.91    1.48
   3  -5  -1   22.44    2.31
   3   5  -1   24.63    1.79
  -3   5   1   17.34    2.06
  -1  -5   1   49.85    2.44
   1  -5  -1   49.81    3.21
   1  -5  -1   52.52    2.48
   1   5  -1   52.36    2.84
   1   5  -1   50.01    1.82
  -1   5   1   54.50    3.13
  -1  -5  -1   71.50    3.06
   1  -5   1   74.12    3.11
   1   5   1   70.58    3.60
  -1   5  -1   72.16    2.37
   1   5   1   67.71    3.55
  -1   5  -1   66.56    3.42
   3  -5   1    5.90    0.93
  -3  -5  -1    5.55    0.87
   3   5   1    5.91    1.13
   3   5   1    4.81    1.00
  -3   5  -1    7.43    0.54
  -3   5  -1    4.56    1.00
  -5  -5  -1   30.33    1.74
   5  -5   1   31.46    1.86
  -5   5  -1   28.72    2.20
   5   5   1   27.48    1.97
   5   5   1   30.65    2.24
  -5   5  -1   28.98    1.28
  -7  -5  -1   33.08    1.85
   7  -5   1   31.82    1.95
  -7   5  -1   35.28    1.48
   7   5   1   32.76    2.12
   7   5   1   32.49    2.73
  -7   5  -1   38.81    2.61
   9  -5   1   15.40    1.33
  -9  -5  -1   17.83    1.28
   9   5   1   18.59    1.53
  -9   5  -1   18.38    1.06
  -9   5  -1   18.22    2.17
 -11  -5  -1   18.88    1.33
  11  -5   1   19.98    1.55
 -11   5  -1   20.33    1.20
  11   5   1   19.13    1.59
 -13   5  -1    3.03    0.59
 -15   5  -1    6.04    0.86
  14   6  -1   13.09    1.84
 -12   6   1   29.20    3.37
  12   6  -1   21.60    1.99
  10  -6  -1    9.04    1.21
 -10  -6   1    8.38    1.09
  10   6  -1    9.03    1.48
 -10   6   1    5.96    1.47
   8  -6  -1   14.96    1.59
  -8  -6   1   12.74    1.38
  -8   6   1    9.70    1.87
   8   6  -1   15.05    1.81
   6  -6  -1   32.31    2.09
  -6  -6   1   36.92    2.15
  -6   6   1   44.56    3.19
   6   6  -1   36.72    2.46
  -4  -6   1   21.03    1.59
   4  -6  -1   22.35    1.62
   4   6  -1   22.91    1.91
  -4   6   1   15.07    2.13
  -2  -6   1   25.96    1.78
   2  -6  -1   23.86    1.73
   2   6  -1   26.41    2.09
  -2   6   1   23.52    2.67
   0  -6  -1   12.98    1.45
   0  -6   1   15.47    1.37
   0   6   1   16.72    2.10
   0   6  -1   13.32    1.77
  -2  -6  -1   14.84    1.32
   2  -6   1   15.01    1.35
   2   6   1   16.68    2.03
  -2   6  -1   16.54    2.02
   4  -6   1   27.77    1.94
  -4  -6  -1   31.71    1.97
   4   6   1   31.61    2.32
  -4   6  -1   36.50    2.62
  -6  -6  -1   28.31    1.84
   6  -6   1   27.12    1.93
  -6   6  -1   29.19    2.41
   6   6   1   29.42    2.19
   8  -6   1    0.43    0.41
  -8  -6  -1    1.08    0.48
   8   6   1    0.23    0.45
  -8   6  -1    1.31    0.80
  10  -6   1   20.56    1.70
 -10  -6  -1   18.24    1.45
  10   6   1   18.47    2.07
 -11   7   1   16.98    2.55
  11   7  -1   16.25    2.08
  -9  -7   1   11.25    1.40
   9  -7  -1    9.84    1.37
   9   7  -1   11.94    1.85
  -9   7   1   10.84    2.08
  -7  -7   1   23.48    1.82
   7  -7  -1   22.79    1.82
   7   7  -1   22.04    2.46
  -7   7   1   26.78    3.23
  -5  -7   1   18.05    1.92
   5  -7  -1   16.44    1.81
   5   7  -1   13.44    1.83
  -5   7   1   15.82    2.33
   3  -7  -1   11.13    1.45
  -3  -7   1   11.85    1.47
   3   7  -1   13.37    1.91
  -3   7   1    7.52    1.59
   1  -7  -1   24.57    1.92
  -1  -7   1   25.89    1.93
  -1   7   1   27.35    2.48
   1   7  -1   27.92    2.35
  -1  -7  -1   35.04    2.30
   1  -7   1   34.68    2.32
  -1   7  -1   41.21    2.88
   1   7   1   33.97    2.70
   3  -7   1    6.78    1.21
  -3  -7  -1    5.00    1.02
   3   7   1    6.15    1.44
  -3   7  -1    6.57    1.39
   5  -7   1   18.66    1.70
  -5  -7  -1   18.53    1.60
   5   7   1   20.95    2.38
  -5   7  -1   20.97    2.56
  -7  -7  -1   17.50    1.57
   7  -7   1   17.07    1.87
   7   7   1   17.88    2.17
  -7   7  -1   16.68    2.30
  -9  -7  -1    7.68    1.17
   9  -7   1   11.80    1.60
   9   7   1   10.59    1.67
 -11  -7  -1   13.28    1.49
  11   7   1   11.35    1.77
   8  -8  -1    8.30    1.37
  -8  -8   1    6.65    1.17
  -8   8   1    6.96    1.72
   6  -8  -1   15.67    1.86
  -6  -8   1   13.55    1.69
   6   8  -1   15.08    2.08
  -6   8   1   17.24    2.66
   4  -8  -1    8.37    1.40
  -4  -8   1   10.97    1.58
   4   8  -1    9.20    1.72
  -4   8   1   11.06    2.02
   2  -8  -1   13.32    1.67
  -2  -8   1   12.18    1.66
   2   8  -1   11.81    1.87
  -2   8   1   14.96    2.29
   0  -8  -1    7.48    1.30
   0  -8   1   10.54    1.50
   0   8   1    7.93    1.66
   0   8  -1    9.57    1.76
  -2  -8  -1    9.06    1.50
   2  -8   1   10.52    1.57
  -2   8  -1   10.80    1.94
   2   8   1   10.05    1.86
  -4  -8  -1   15.96    1.86
   4  -8   1   15.31    1.82
  -4   8  -1   16.23    2.35
   4   8   1   12.44    2.02
  -6  -8  -1   14.89    1.75
   6  -8   1   12.35    1.70
  -6   8  -1   13.60    2.20
   6   8   1   14.56    2.17
  20   0  -2    3.87    2.12
 -20   0   2    6.48    0.97
 -18   0   2   40.02    2.07
  18   0  -2   46.97    4.75
  16   0  -2    4.52    1.21
 -16   0   2    7.26    0.89
  16   0  -2    5.67    1.91
  14   0  -2    1.15    0.61
 -14   0   2    2.23    0.46
  14   0  -2    4.17    1.51
 -12   0   2   90.44    3.11
  12   0  -2   91.07    4.18
  12   0  -2   93.16    5.35
  10   0  -2   48.10    3.32
 -10   0   2   41.50    1.67
  10   0  -2   45.56    2.47
   8   0  -2   36.55    2.61
   8   0  -2   34.07    1.95
  -8   0   2   37.26    1.38
  -6   0   2   91.67    2.71
   6   0  -2   88.95    3.37
   6   0  -2   88.48    4.11
   4   0  -2   13.24    0.44
   4   0  -2   13.44    1.32
   4   0  -2   13.40    0.93
  -4   0   2   12.99    0.56
   2   0  -2  241.11    6.57
   2   0  -2  242.60    7.03
   2   0  -2  253.89    6.59
   2   0  -2  238.75    7.57
   0   0  -2  205.29    6.27
   0   0  -2  197.80    5.48
   0   0  -2  203.50    5.56
   0   0  -2  205.05    5.74
  -2   0  -2    2.81    0.24
  -2   0  -2    2.46    0.25
   2   0   2    2.03    0.51
   4   0   2  100.89    4.16
  -4   0  -2  117.02    3.35
  -4   0  -2  121.21    3.40
  -6   0  -2  135.96    4.17
   6   0   2  156.35    5.60
  -6   0  -2  137.97    4.19
  -8   0  -2   42.03    1.59
  -8   0  -2   43.95    1.66
   8   0   2   40.83    2.75
  10   0   2   73.79    4.34
 -10   0  -2   82.54    2.72
 -10   0  -2   83.05    2.83
 -12   0  -2   16.37    1.04
 -12   0  -2   17.91    0.97
  12   0   2   14.60    2.33
 -14   0  -2   25.03    1.42
  14   0   2   23.85    3.46
  16   0   2   50.45    4.55
 -16   0  -2   57.70    2.51
 -18   0  -2   16.28    1.29
  18   0   2   13.47    3.04
  19  -1  -2    2.71    1.83
 -19  -1   2    2.25    0.57
 -19   1   2    1.56    0.53
  19   1  -2    2.86    1.74
  17  -1  -2   22.32    3.89
 -17  -1   2   19.91    1.36
  17   1  -2   21.15    3.53
 -17   1   2   26.43    1.48
 -15  -1   2   12.36    0.96
  15  -1  -2   11.79    2.79
  15   1  -2   13.48    1.89
  15   1  -2   16.43    2.88
 -15   1   2   11.67    1.84
 -15   1   2   12.52    0.94
  13  -1  -2   25.25    3.45
 -13  -1   2   31.16    1.52
  13   1  -2   32.83    2.23
  13   1  -2   37.85    3.31
 -13   1   2   32.20    1.50
 -13   1   2   35.83    2.52
 -11  -1   2   16.85    0.96
  11  -1  -2   14.44    1.80
  11  -1  -2   18.06    2.86
 -11   1   2   14.84    1.77
  11   1  -2   20.24    2.71
 -11   1   2   16.83    0.93
  11   1  -2   18.02    1.45
   9  -1  -2    0.64    0.56
  -9  -1   2    1.26    0.29
  -9  -1   2    1.69    0.14
   9  -1  -2    1.87    0.70
   9   1  -2    1.50    0.47
   9   1  -2    1.71    0.78
  -9   1   2    1.61    0.31
   7  -1  -2  147.54    3.95
  -7  -1   2  141.41    3.94
   7  -1  -2  133.87    5.20
  -7  -1   2  145.06    4.20
   7  -1  -2  150.31    6.30
   7   1  -2  140.78    4.73
  -7   1   2  141.77    4.13
   7   1  -2  139.75    5.53
   5  -1  -2   61.04    3.43
  -5  -1   2   63.16    2.00
   5  -1  -2   61.87    1.87
  -5  -1   2   62.26    1.93
  -5   1   2   66.62    2.80
   5   1  -2   62.91    2.87
   5   1  -2   64.23    2.37
  -5   1   2   64.59    1.92
  -3  -1   2    2.34    0.27
   3  -1  -2    1.25    0.58
   3  -1  -2    1.98    0.23
   3   1  -2    1.99    0.50
   3   1  -2    1.55    0.32
  -3   1   2    2.28    0.17
   3   1  -2    2.37    0.28
  -3   1   2    2.86    0.59
   1  -1  -2   98.83    2.96
   1  -1  -2   96.86    3.95
   1  -1  -2  103.74    2.73
  -1  -1   2  101.03    2.99
   1   1  -2   99.18    2.89
   1   1  -2  101.04    3.16
   1   1  -2  102.69    3.09
  -1   1   2  104.60    3.55
   1  -1   2   45.67    1.56
  -1  -1  -2   46.14    1.35
  -1  -1  -2   45.74    1.56
   1  -1   2   50.86    1.83
   1   1   2   42.82    1.82
  -1   1  -2   44.62    1.46
  -1   1  -2   46.45    1.51
   1   1   2   45.95    2.23
  -3  -1  -2   67.58    2.11
   3  -1   2   72.45    2.85
  -3   1  -2   69.51    2.19
   3   1   2   74.27    3.06
   3   1   2   71.54    2.30
  -3   1  -2   71.42    2.13
  -3   1  -2   69.16    2.23
  -5  -1  -2  125.68    3.53
  -5  -1  -2  121.89    3.61
   5  -1   2  119.95    4.63
  -5   1  -2  117.99    3.58
  -5   1  -2  110.56    3.52
   5   1   2  115.27    4.61
   5   1   2  118.51    3.48
  -5   1  -2  121.70    3.59
  -7  -1  -2    5.69    0.46
   7  -1   2    5.91    1.23
  -7  -1  -2    6.25    0.49
  -7   1  -2    4.03    0.49
  -7   1  -2    5.63    0.46
   7   1   2    5.49    0.44
  -7   1  -2    5.93    0.64
   7   1   2    5.00    1.12
  -9  -1  -2   35.65    1.54
   9  -1   2   41.25    2.89
  -9  -1  -2   37.96    1.54
   9  -1   2   38.00    1.59
   9   1   2   38.94    2.77
  -9   1  -2   38.97    1.60
  11  -1   2   79.18    2.80
  11  -1   2   65.79    4.40
 -11  -1  -2   76.85    2.70
 -11  -1  -2   79.80    2.82
 -11   1  -2   80.80    2.85
  11   1   2   85.48    4.72
  13  -1   2   20.93    3.29
 -13  -1  -2   15.82    1.07
  13   1   2   15.08    2.57
 -13   1  -2   14.87    1.03
 -15  -1  -2   23.39    1.44
  15  -1   2   28.49    4.19
 -15   1  -2   22.57    1.41
  15   1   2   21.69    3.29
 -17  -1  -2   13.95    1.34
  17  -1   2   19.77    3.64
 -17   1  -2   16.09    1.25
  17   1   2   19.71    3.50
  20   2  -2    1.94    1.82
 -20   2   2    4.32    0.78
 -18  -2   2   26.26    1.65
  18  -2  -2   23.37    4.40
  18   2  -2   32.01    4.65
 -18   2   2   26.15    1.58
 -16  -2   2    2.93    0.62
  16  -2  -2    3.62    1.80
  16   2  -2    2.82    1.47
 -16   2   2    2.72    0.54
  16   2  -2    3.91    1.09
  14  -2  -2    0.18    0.99
 -14  -2   2    0.41    0.30
 -14   2   2    0.11    0.58
 -14   2   2    0.23    0.19
  14   2  -2    1.30    0.63
  14   2  -2    0.43    0.78
 -12  -2   2   59.72    2.28
  12  -2  -2   56.73    4.57
 -12   2   2   57.77    2.18
  12   2  -2   56.86    2.89
 -12   2   2   53.91    3.35
  12   2  -2   63.48    4.03
 -10  -2   2   21.28    1.08
  10  -2  -2   17.27    2.71
 -10  -2   2   20.74    0.91
  10   2  -2   21.98    1.50
  10   2  -2   21.77    2.04
 -10   2   2   22.15    1.03
 -10   2   2   21.10    1.87
  -8  -2   2   11.64    0.64
   8  -2  -2   12.24    2.09
  -8  -2   2   11.47    0.69
   8  -2  -2   11.56    0.66
   8   2  -2   12.38    1.62
  -8   2   2   11.73    0.63
   8   2  -2   10.29    0.93
  -8   2   2   10.68    1.47
   6  -2  -2   39.84    2.97
  -6  -2   2   35.48    1.37
   6  -2  -2   33.96    1.36
  -6  -2   2   36.59    1.36
  -6   2   2   35.80    2.23
   6   2  -2   36.01    1.72
  -6   2   2   33.83    1.21
   6   2  -2   34.21    1.97
   4  -2  -2    0.78    0.22
  -4  -2   2    1.19    0.23
   4  -2  -2    0.63    0.58
  -4  -2   2    0.99    0.25
   4   2  -2    1.15    0.39
  -4   2   2    1.09    0.50
  -4   2   2    0.95    0.15
   4   2  -2    0.70    0.27
   2  -2  -2   94.47    4.36
  -2  -2   2   97.88    3.13
   2  -2  -2   98.98    3.10
  -2   2   2  102.63    3.95
   2   2  -2  100.78    3.30
   2   2  -2   98.73    2.94
   0  -2   2   76.44    2.34
   0  -2  -2   72.59    2.45
   0  -2   2   72.75    2.50
   0  -2  -2   77.17    3.48
   0   2  -2   74.28    2.28
   0   2   2   76.94    3.10
   0   2  -2   70.84    2.56
  -2  -2  -2    0.81    0.14
   2  -2   2    0.80    0.25
   2  -2   2    0.81    0.36
  -2  -2  -2    0.55    0.21
   2   2   2    0.76    0.34
   2   2   2    0.71    0.44
  -2   2  -2    0.89    0.20
  -2   2  -2    0.70    0.27
  -4  -2  -2   46.79    1.59
  -4  -2  -2   49.90    1.85
   4  -2   2   50.46    2.54
   4  -2   2   52.19    1.94
  -4   2  -2   50.83    2.02
   4   2   2   48.03    2.59
   4   2   2   49.95    1.99
  -4   2  -2   47.28    1.71
   6  -2   2   62.72    3.32
  -6  -2  -2   63.69    2.28
  -6  -2  -2   63.68    2.11
   6  -2   2   65.88    2.38
  -6   2  -2   62.27    2.52
   6   2   2   61.95    2.30
  -6   2  -2   62.24    2.19
   6   2   2   68.41    3.36
  -8  -2  -2   20.99    1.00
   8  -2   2   18.77    1.09
  -8  -2  -2   19.58    1.03
   8  -2   2   17.45    1.86
   8   2   2   19.22    1.87
   8   2   2   22.72    1.13
  -8   2  -2   18.22    1.00
  10  -2   2   48.73    3.47
  10  -2   2   43.28    1.95
 -10  -2  -2   46.66    1.89
 -10  -2  -2   46.66    1.88
  10   2   2   45.20    3.22
 -10   2  -2   47.95    1.94
  12  -2   2   10.20    0.87
 -12  -2  -2    9.58    0.75
  12  -2   2   11.13    2.32
 -12  -2  -2    9.55    0.96
  12   2   2    9.35    2.02
 -12   2  -2    9.49    0.99
  14  -2   2   11.41    2.46
 -14  -2  -2   13.15    1.21
  14   2   2   12.15    2.49
 -14   2  -2   12.63    1.18
  16  -2   2   39.50    5.28
 -16  -2  -2   35.77    1.97
 -16   2  -2   43.15    2.10
  16   2   2   37.42    3.90
 -18  -2  -2   10.57    1.25
  18  -2   2    9.81    2.94
  18   2   2   11.89    4.23
  19  -3  -2    2.45    1.93
 -19  -3   2    1.01    0.49
 -19   3   2    3.61    0.68
  17  -3  -2   19.41    4.00
 -17  -3   2   20.54    1.41
  17   3  -2   18.03    3.36
 -17   3   2   20.10    1.30
 -15  -3   2   14.78    1.08
  15  -3  -2   11.91    3.12
  15   3  -2   14.58    1.87
 -15   3   2   12.26    0.93
  15   3  -2    8.53    2.17
 -15   3   2   12.05    2.09
 -13  -3   2   29.61    1.52
  13  -3  -2   29.67    4.45
 -13   3   2   31.23    1.44
  13   3  -2   30.47    2.91
 -13   3   2   27.73    2.55
  13   3  -2   31.25    2.11
  11  -3  -2   17.47    3.05
 -11  -3   2   15.81    0.98
 -11   3   2   17.88    0.94
  11   3  -2   14.80    1.32
 -11   3   2   16.97    2.25
  11   3  -2   17.58    2.32
   9  -3  -2    3.41    1.35
   9  -3  -2    5.16    0.64
  -9  -3   2    4.49    0.57
  -9  -3   2    3.63    0.49
  -9   3   2    4.63    0.49
   9   3  -2    3.87    1.01
  -9   3   2    3.53    1.04
   9   3  -2    4.84    0.85
  -7  -3   2   99.89    3.39
  -7  -3   2  103.64    3.26
   7  -3  -2  103.77    3.46
   7  -3  -2  105.14    5.73
  -7   3   2   94.97    4.59
   7   3  -2  104.87    4.17
   7   3  -2  103.93    3.85
  -7   3   2  102.76    3.07
  -5  -3   2   56.78    2.17
  -5  -3   2   54.66    1.90
   5  -3  -2   58.39    2.19
   5  -3  -2   59.47    3.81
   5   3  -2   52.49    2.28
  -5   3   2   53.25    3.04
   5   3  -2   54.44    2.39
  -5   3   2   54.87    1.70
   3  -3  -2   10.17    0.76
   3  -3  -2    9.86    1.65
  -3  -3   2   11.57    0.82
   3   3  -2   11.06    0.90
  -3   3   2   10.57    0.40
   3   3  -2   12.01    0.64
  -3   3   2    9.33    1.38
   1  -3  -2   83.78    4.07
   1  -3  -2   80.53    2.85
  -1  -3   2   77.08    2.89
   1   3  -2   82.81    3.08
   1   3  -2   82.21    2.54
  -1   3   2   77.00    3.57
  -1  -3  -2   42.94    1.84
  -1  -3  -2   47.91    2.77
  -1  -3  -2   44.82    1.32
   1  -3   2   42.69    1.87
   1  -3   2   43.90    1.99
  -1   3  -2   47.16    2.11
   1   3   2   48.97    2.47
  -1   3  -2   45.51    1.58
   3  -3   2   58.92    2.78
  -3  -3  -2   56.65    1.79
   3  -3   2   56.41    2.32
  -3  -3  -2   59.29    2.26
  -3   3  -2   61.00    2.58
   3   3   2   59.35    3.04
  -3   3  -2   58.51    1.99
   3   3   2   59.86    2.66
  -5  -3  -2   93.76    3.21
  -5  -3  -2   90.13    2.81
   5  -3   2   92.40    4.22
   5  -3   2   84.83    3.25
   5   3   2   95.44    4.26
  -5   3  -2   90.12    3.58
  -5   3  -2   93.27    2.97
   5   3   2   95.60    3.47
  -7  -3  -2    9.31    0.62
   7  -3   2    8.00    0.89
   7  -3   2    9.51    1.68
  -7  -3  -2    9.99    0.77
   7   3   2    9.30    1.58
  -7   3  -2   10.43    1.23
   7   3   2    8.54    0.80
  -7   3  -2    9.90    0.68
  -9  -3  -2   35.44    1.66
   9  -3   2   30.35    2.82
  -9  -3  -2   35.41    1.52
   9  -3   2   38.59    1.84
   9   3   2   39.40    2.89
  -9   3  -2   34.57    1.58
   9   3   2   35.01    1.76
  11  -3   2   57.63    4.28
 -11  -3  -2   60.38    2.37
 -11  -3  -2   61.62    2.43
  11  -3   2   62.22    2.65
  11   3   2   60.96    4.06
 -11   3  -2   65.07    2.48
  13  -3   2   12.30    2.57
 -13  -3  -2   14.21    1.04
  13   3   2   15.51    2.63
 -13   3  -2   15.59    1.09
  15  -3   2   16.67    3.27
 -15  -3  -2   20.52    1.37
  15   3   2   19.87    3.18
 -15   3  -2   21.46    1.38
  17  -3   2   11.10    2.87
 -17  -3  -2   12.15    1.30
  17   3   2   13.36    2.94
 -17   3  -2   14.23    1.40
 -18  -4   2   21.68    1.53
  18  -4  -2   17.72    4.14
 -16  -4   2    5.57    0.85
  16  -4  -2    4.37    2.13
  16   4  -2    5.71    1.31
 -16   4   2    5.52    0.92
  14  -4  -2    1.24    1.49
 -14  -4   2    1.93    0.49
  14   4  -2    2.94    0.88
 -14   4   2    2.74    0.51
 -14   4   2    1.26    0.95
  12  -4  -2   53.37    4.96
 -12  -4   2   52.53    2.25
 -12   4   2   56.87    2.14
 -12   4   2   62.70    3.97
  12   4  -2   53.58    2.91
 -10  -4   2   25.02    1.27
  10  -4  -2   25.44    3.98
 -10  -4   2   24.02    1.34
 -10   4   2   25.02    2.90
 -10   4   2   27.18    1.17
  10   4  -2   23.91    1.74
  -8  -4   2   23.20    1.33
   8  -4  -2   20.65    1.31
   8  -4  -2   22.04    3.33
  -8  -4   2   23.47    1.16
  -8   4   2   21.88    0.97
   8   4  -2   22.80    1.59
  -8   4   2   24.79    2.28
  -6  -4   2   46.91    2.15
   6  -4  -2   49.12    2.19
   6  -4  -2   55.61    4.05
  -6  -4   2   48.64    1.83
  -6   4   2   53.86    3.28
  -6   4   2   48.18    1.60
   6   4  -2   50.11    2.47
   4  -4  -2   16.33    1.13
  -4  -4   2   15.87    1.11
  -4  -4   2   16.39    0.84
   4  -4  -2   17.75    2.50
  -4   4   2   15.45    0.63
  -4   4   2   16.69    2.03
   4   4  -2   13.39    1.17
   2  -4  -2   93.16    3.45
  -2  -4   2   96.07    3.52
   2  -4  -2   93.36    4.84
   2   4  -2   93.27    3.72
   2   4  -2   92.70    2.95
  -2   4   2   90.85    4.31
   0  -4  -2   77.35    4.13
   0  -4   2   81.09    3.18
   0  -4  -2   84.50    3.15
   0   4  -2   83.47    2.65
   0   4   2   80.88    3.86
   0   4  -2   81.37    3.42
  -2  -4  -2    9.12    0.82
   2  -4   2    9.80    1.06
   2  -4   2    9.85    1.32
  -2   4  -2   10.50    0.63
   2   4   2    7.90    1.38
   2   4   2    8.28    1.21
  -2   4  -2   10.32    1.26
  -4  -4  -2   61.28    2.52
   4  -4   2   58.59    3.28
   4  -4   2   58.83    2.59
  -4   4  -2   61.25    2.15
   4   4   2   59.58    3.31
  -4   4  -2   58.27    2.89
   4   4   2   65.64    2.97
  -6  -4  -2   62.10    2.20
   6  -4   2   55.49    2.58
  -6  -4  -2   63.56    2.56
   6  -4   2   62.22    3.74
  -6   4  -2   62.61    2.23
  -6   4  -2   61.74    3.02
   6   4   2   60.05    2.78
   6   4   2   54.87    3.37
  -8  -4  -2   25.12    1.46
  -8  -4  -2   26.37    1.24
   8  -4   2   23.73    1.54
   8  -4   2   26.87    2.70
   8   4   2   27.10    1.66
   8   4   2   29.41    2.47
  -8   4  -2   26.37    1.31
 -10  -4  -2   49.99    1.98
  10  -4   2   44.55    3.80
 -10  -4  -2   45.91    2.15
  10  -4   2   45.21    2.31
 -10   4  -2   47.43    2.01
  10   4   2   48.97    3.51
  12  -4   2   12.18    2.66
 -12  -4  -2   13.38    1.07
 -12  -4  -2   13.72    1.04
 -12   4  -2   14.06    1.02
  12   4   2   14.66    2.49
  14  -4   2   13.75    2.97
  14   4   2   11.69    2.48
 -14   4  -2   13.82    1.09
  16  -4   2   25.30    4.39
 -16   4  -2   29.62    1.73
  16   4   2   30.75    4.10
  17  -5  -2    9.35    3.38
 -17  -5   2    9.70    1.14
  15  -5  -2    7.16    2.75
 -15  -5   2    6.74    0.91
  15   5  -2    7.96    1.42
  13  -5  -2   14.28    3.34
 -13  -5   2   16.03    1.11
  13   5  -2   14.77    1.82
 -13   5   2    9.62    1.93
 -11  -5   2   11.71    0.90
  11  -5  -2    8.98    2.66
  11   5  -2   11.08    1.50
 -11   5   2   11.36    2.02
  -9  -5   2    2.94    0.62
   9  -5  -2    4.46    1.84
   9  -5  -2    3.47    0.68
  -9  -5   2    2.68    0.47
   9   5  -2    2.99    0.75
  -9   5   2    1.21    0.91
  -7  -5   2   50.92    1.98
   7  -5  -2   56.31    4.42
   7  -5  -2   48.60    2.38
  -7  -5   2   48.41    2.37
  -7   5   2   45.03    3.30
   7   5  -2   47.87    2.68
   5  -5  -2   26.47    2.88
   5  -5  -2   25.69    1.67
  -5  -5   2   26.38    1.26
  -5  -5   2   32.08    1.79
   5   5  -2   29.63    1.95
  -5   5   2   30.15    2.55
   3  -5  -2    6.42    1.62
  -3  -5   2    7.16    1.00
   3  -5  -2    8.83    1.11
   3   5  -2    7.37    1.17
   3   5  -2    7.50    0.60
  -3   5   2    5.98    1.34
  -1  -5   2   37.06    2.08
   1  -5  -2   39.64    3.01
   1  -5  -2   40.32    2.09
   1   5  -2   39.00    2.34
   1   5  -2   38.86    1.56
  -1   5   2   37.44    2.67
  -1  -5  -2   23.58    1.53
   1  -5   2   22.17    1.54
   1   5   2   22.83    1.95
  -1   5  -2   23.22    1.09
   1   5   2   22.04    2.07
  -1   5  -2   22.21    1.75
   3  -5   2   26.48    1.71
  -3  -5  -2   27.87    1.67
  -3   5  -2   24.99    1.21
  -3   5  -2   30.25    2.08
   3   5   2   27.07    2.02
   3   5   2   27.52    2.24
  -5  -5  -2   41.87    2.15
   5  -5   2   44.14    2.36
  -5   5  -2   42.42    1.74
  -5   5  -2   39.89    2.55
   5   5   2   41.85    2.50
   5   5   2   47.48    3.05
   7  -5   2    5.31    0.91
  -7  -5  -2    5.56    0.84
   7   5   2    3.44    1.09
   7   5   2    4.22    0.85
  -7   5  -2    7.25    1.29
  -7   5  -2    4.37    0.58
  -9  -5  -2   18.53    1.34
   9  -5   2   17.52    1.48
   9   5   2   15.47    2.35
  -9   5  -2   18.14    1.11
   9   5   2   17.04    1.48
 -11  -5  -2   34.70    1.92
  11  -5   2   32.26    2.10
 -11   5  -2   31.13    1.64
  11   5   2   33.22    3.12
 -13   5  -2    7.85    0.96
  13   5   2    3.82    1.73
 -15   5  -2   11.99    1.29
 -14  -6   2    1.82    0.55
  14  -6  -2    2.30    1.82
 -14   6   2    1.01    1.14
  14   6  -2    1.54    0.83
  12  -6  -2   23.77    4.37
 -12  -6   2   24.20    1.44
 -12   6   2   20.50    2.94
  12   6  -2   24.13    2.09
  10  -6  -2   10.11    2.61
 -10  -6   2   10.92    1.27
 -10  -6   2    9.94    0.95
  10   6  -2    8.24    1.40
 -10   6   2    8.28    1.87
   8  -6  -2    9.11    2.35
  -8  -6   2    7.52    1.12
   8  -6  -2    9.56    1.27
  -8  -6   2    8.02    0.85
   8   6  -2   11.56    1.63
  -8   6   2    8.73    1.87
   6  -6  -2   23.81    3.53
  -6  -6   2   19.52    1.12
   6  -6  -2   20.62    1.60
  -6  -6   2   20.58    1.56
  -6   6   2   18.08    2.46
   6   6  -2   18.67    1.74
   4  -6  -2    3.02    1.57
  -4  -6   2    5.49    0.63
  -4  -6   2    5.56    0.95
   4  -6  -2    6.35    1.02
  -4   6   2    6.30    1.50
   4   6  -2    6.31    1.21
   2  -6  -2   32.80    2.02
  -2  -6   2   29.59    1.95
   2   6  -2   30.03    1.40
   2   6  -2   29.76    2.21
  -2   6   2   33.67    2.68
   0  -6  -2   25.24    1.78
   0  -6   2   28.51    1.91
   0   6  -2   29.55    2.21
   0   6   2   25.93    2.31
   0   6  -2   26.77    1.29
   2  -6   2    3.92    0.85
  -2  -6  -2    3.59    0.74
   2   6   2    3.64    1.01
  -2   6  -2    4.17    0.56
  -2   6  -2    2.84    0.86
   4  -6   2   23.34    1.76
  -4  -6  -2   22.29    1.63
  -4   6  -2   21.80    1.97
   4   6   2   20.96    1.93
  -4   6  -2   23.12    1.20
  -6  -6  -2   20.87    1.54
   6  -6   2   20.16    1.67
  -6   6  -2   20.28    1.16
  -6   6  -2   22.82    2.03
   6   6   2   19.55    1.81
  -8  -6  -2    9.93    1.22
   8  -6   2    9.33    1.34
   8   6   2    8.91    1.40
  -8   6  -2    9.65    0.95
  10  -6   2   16.34    1.79
 -10  -6  -2   17.65    1.42
 -10   6  -2   17.04    1.14
 -12  -6  -2    4.26    1.22
 -12   6  -2    5.04    0.76
 -11   7   2    4.25    1.50
  11   7  -2   11.61    1.84
   9  -7  -2    4.92    0.96
  -9  -7   2    5.12    0.98
   9   7  -2    5.72    1.31
  -9   7   2    2.29    1.17
   7  -7  -2   27.45    2.00
  -7  -7   2   23.53    1.86
  -7   7   2   26.50    3.36
   7   7  -2   28.24    2.32
   5  -7  -2   15.32    1.70
  -5  -7   2   18.14    1.92
   5   7  -2   17.58    2.14
  -5   7   2   16.68    2.53
   3  -7  -2    6.96    1.15
  -3  -7   2    6.51    1.08
  -3   7   2    7.64    1.69
   3   7  -2    7.82    1.45
   1  -7  -2   23.40    1.85
  -1  -7   2   25.53    1.95
   1   7  -2   25.12    2.20
  -1   7   2   25.77    2.92
   1  -7   2   16.26    1.84
  -1  -7  -2   12.13    1.55
   1   7   2   17.58    2.38
  -1   7  -2   13.81    1.94
  -3  -7  -2   17.56    1.89
   3  -7   2   17.00    1.91
   3   7   2   17.72    2.29
  -3   7  -2   18.48    2.26
   5  -7   2   28.77    2.15
  -5  -7  -2   25.24    1.92
  -5   7  -2   25.83    2.32
   5   7   2   25.03    2.24
  -7  -7  -2    6.33    1.07
   7  -7   2    8.74    1.43
   7   7   2    5.02    1.24
  -9  -7  -2   12.90    1.55
   9  -7   2   11.41    1.60
   9   7   2   11.51    1.80
   8  -8  -2    6.07    1.22
  -8  -8   2    5.55    1.14
   6  -8  -2   11.62    1.60
  -6  -8   2   10.27    1.55
   6   8  -2   11.81    1.90
  -6   8   2   10.74    2.19
  -4  -8   2    3.38    0.93
   4  -8  -2    5.03    1.10
  -4   8   2    5.28    1.61
   4   8  -2    7.57    1.57
   2  -8  -2   16.52    1.94
  -2  -8   2   13.39    1.72
   2   8  -2   15.00    2.16
  -2   8   2   15.79    2.38
   0  -8  -2   14.30    1.76
   0  -8   2   15.62    1.93
   0   8   2   11.89    2.04
   0   8  -2   13.96    2.02
   2  -8   2    4.04    0.97
  -2  -8  -2    4.49    1.04
  -2   8  -2    4.69    1.28
   2   8   2    4.19    1.23
   4  -8   2   10.99    1.61
  -4  -8  -2   11.96    1.59
   4   8   2   11.78    1.91
  -4   8  -2   13.28    2.09
  -6   8  -2    8.35    1.64
   6   8   2   13.58    2.07
  20   0  -3    5.73    2.23
 -20   0   3    5.81    0.93
  18   0  -3   30.68    4.84
 -18   0   3   24.91    1.54
 -16   0   3   32.29    1.68
  16   0  -3   29.22    4.22
  16   0  -3   34.54    2.85
  14   0  -3   83.41    4.39
  14   0  -3   79.58    5.58
 -14   0   3   87.69    3.08
  12   0  -3   39.97    2.64
  12   0  -3   38.29    3.45
 -12   0   3   40.21    1.68
 -10   0   3   38.54    1.53
  10   0  -3   37.57    3.15
  10   0  -3   38.67    2.39
  -8   0   3  186.08    5.40
   8   0  -3  197.93    7.82
   8   0  -3  182.23    6.46
   6   0  -3  378.50   12.53
   6   0  -3  385.39   11.33
  -6   0   3  385.74   10.06
  -6   0   3  366.88   10.30
   4   0  -3   55.82    2.95
   4   0  -3   52.78    2.29
  -4   0   3   51.11    1.63
   4   0  -3   51.28    1.57
   2   0  -3  244.10    7.16
   2   0  -3  242.20    7.86
   2   0  -3  231.47    6.55
   2   0  -3  240.99    6.52
   0   0   3  233.08    7.62
   0   0  -3  236.75    6.67
   0   0  -3  244.53    6.99
   0   0  -3  248.02    6.57
  -2   0  -3  327.71    9.02
   2   0   3  325.31    8.97
   2   0   3  321.75    9.97
  -2   0  -3  333.41    8.91
  -4   0  -3  259.20    7.00
  -4   0  -3  260.83    7.09
   4   0   3  226.75    8.08
  -6   0  -3   85.68    2.88
  -6   0  -3   84.77    2.86
   6   0   3   99.43    4.29
  -8   0  -3   85.08    2.92
  -8   0  -3   87.03    2.94
   8   0   3   92.48    4.52
  10   0   3  187.27    7.95
 -10   0  -3  191.22    5.82
 -10   0  -3  193.40    5.78
 -12   0  -3   65.65    2.41
 -12   0  -3   59.69    2.44
  12   0   3   54.79    4.11
 -14   0  -3   26.32    1.51
  14   0   3   27.89    3.82
  16   0   3   61.58    5.13
 -16   0  -3   57.49    2.62
  19  -1  -3   40.74    6.03
 -19  -1   3   37.82    2.05
 -19   1   3   37.51    1.99
  19   1  -3   40.19    5.65
  17  -1  -3   13.50    3.22
 -17  -1   3   18.63    1.28
 -17   1   3   21.37    1.32
 -17   1   3   20.97    2.75
  17   1  -3   15.95    3.26
  17   1  -3   16.86    2.40
  15  -1  -3    1.92    1.40
 -15  -1   3    4.16    0.62
  15   1  -3    4.09    1.61
 -15   1   3    5.13    1.27
 -15   1   3    5.75    0.75
  15   1  -3    3.18    0.99
  13  -1  -3   49.20    3.31
  13  -1  -3   52.72    4.47
 -13  -1   3   56.26    2.21
 -13   1   3   55.79    2.15
 -13   1   3   54.20    3.35
  13   1  -3   53.60    3.11
  13   1  -3   57.91    4.26
  11  -1  -3  138.15    5.91
 -11  -1   3  147.45    4.43
  11  -1  -3  151.92    7.46
 -11   1   3  140.93    4.35
  11   1  -3  133.33    5.37
  11   1  -3  138.29    6.70
   9  -1  -3   41.14    3.36
  -9  -1   3   41.59    1.61
   9  -1  -3   38.70    2.56
   9   1  -3   41.94    3.01
   9   1  -3   44.91    2.32
  -9   1   3   44.22    1.58
   7  -1  -3   71.69    4.31
  -7  -1   3   79.84    2.41
   7  -1  -3   69.83    3.41
  -7  -1   3   70.61    2.18
   7  -1  -3   72.63    2.09
   7   1  -3   72.78    2.99
   7   1  -3   71.64    3.76
  -7   1   3   71.34    2.26
   5  -1  -3  130.61    5.12
  -5  -1   3  145.96    4.11
  -5  -1   3  140.78    4.06
   5  -1  -3  150.92    6.25
   5  -1  -3  144.04    4.00
   5   1  -3  141.65    4.66
   5   1  -3  136.33    5.37
  -5   1   3  147.09    5.17
  -5   1   3  141.27    3.98
  -3  -1   3  145.36    4.34
   3  -1  -3  154.91    4.30
   3  -1  -3  158.05    6.08
   3   1  -3  151.10    5.17
  -3   1   3  149.96    4.13
   3   1  -3  151.81    4.30
  -3   1   3  154.11    5.21
   3   1  -3  145.47    4.67
   1  -1  -3  411.89   11.06
   1  -1  -3  410.23   10.80
  -1  -1   3  416.05   11.10
   1  -1  -3  415.60   12.62
  -1   1   3  377.82   11.71
   1   1  -3  395.73   11.22
   1   1  -3  423.19   11.68
   1   1  -3  402.34   10.98
  -1  -1  -3   49.07    1.72
  -1  -1  -3   50.68    1.52
   1  -1   3   44.80    2.09
   1   1   3   53.35    2.14
  -1   1  -3   50.76    1.73
  -1   1  -3   50.71    1.65
  -1   1  -3   52.06    1.70
   1   1   3   46.01    2.53
  -3  -1  -3   85.95    2.75
  -3  -1  -3   84.27    2.56
   3  -1   3   82.05    3.42
  -3   1  -3   88.64    2.48
  -3   1  -3   84.46    2.65
   3   1   3   87.93    2.82
  -3   1  -3   89.84    2.76
   3   1   3   72.86    3.56
   5  -1   3  252.12    8.14
  -5  -1  -3  240.18    6.86
  -5  -1  -3  235.39    6.69
   5   1   3  223.44    8.16
  -5   1  -3  233.87    6.78
   5   1   3  240.06    6.57
  -5   1  -3  240.33    6.85
   7  -1   3  120.09    5.46
  -7  -1  -3  131.05    4.07
  -7  -1  -3  131.14    4.17
  -7   1  -3  132.88    4.17
   7   1   3  151.15    5.92
  -7   1  -3  136.47    4.16
  -9  -1  -3   47.55    1.87
   9  -1   3   40.86    3.06
  -9  -1  -3   47.48    1.85
  -9   1  -3   45.92    1.85
   9   1   3   43.43    3.10
  -9   1  -3   45.60    1.88
 -11  -1  -3   82.33    2.98
  11  -1   3   83.69    3.04
  11  -1   3   83.53    4.90
 -11  -1  -3   86.08    2.97
 -11   1  -3   86.51    3.06
  11   1   3   68.78    4.53
  13  -1   3   29.91    3.85
 -13  -1  -3   28.04    1.53
 -13  -1  -3   31.16    2.09
  13   1   3   26.34    3.44
 -13   1  -3   29.86    1.59
  15  -1   3   66.83    5.22
 -15  -1  -3   70.04    2.85
 -15   1  -3   67.04    2.86
  15   1   3   66.33    5.04
  17  -1   3   31.54    4.62
 -17  -1  -3   31.07    1.82
  17   1   3   33.44    4.72
 -17   1  -3   28.92    1.78
  20   2  -3    3.30    2.23
 -20   2   3    3.22    0.69
 -18  -2   3   16.70    1.28
  18  -2  -3   19.62    4.15
 -18   2   3   17.36    1.22
  18   2  -3   16.81    2.62
  18   2  -3   17.64    3.34
  16  -2  -3   19.97    4.00
 -16  -2   3   18.92    1.26
  16   2  -3   20.17    2.45
 -16   2   3   17.98    1.16
 -16   2   3   11.65    2.05
  16   2  -3   19.78    3.31
 -14  -2   3   53.75    2.30
  14  -2  -3   55.62    4.96
  14   2  -3   57.68    4.35
 -14   2   3   59.47    3.75
 -14   2   3   54.33    2.20
  14   2  -3   59.87    3.29
 -12  -2   3   19.88    1.12
  12  -2  -3   23.40    3.81
  12   2  -3   19.72    1.67
  12   2  -3   21.75    2.95
 -12   2   3   19.82    2.38
 -12   2   3   19.68    1.05
 -10  -2   3   14.61    0.86
  10  -2  -3   17.87    2.88
 -10   2   3   15.12    0.80
 -10   2   3   14.57    1.92
  10   2  -3   15.08    1.31
  10   2  -3   15.49    2.17
  -8  -2   3   94.99    3.21
   8  -2  -3   98.47    5.68
   8  -2  -3  101.13    3.09
  -8  -2   3   96.82    3.13
  -8   2   3  106.11    4.65
   8   2  -3  103.82    3.88
   8   2  -3  110.45    4.78
  -8   2   3  106.62    3.10
  -6  -2   3  196.16    5.66
   6  -2  -3  193.99    5.55
   6  -2  -3  189.19    8.15
  -6  -2   3  194.88    5.58
   6   2  -3  194.09    6.17
   6   2  -3  193.17    6.73
  -6   2   3  189.38    5.36
  -6   2   3  199.78    7.07
  -4  -2   3   16.32    0.84
   4  -2  -3   13.05    1.97
   4  -2  -3   15.05    0.76
  -4   2   3   14.78    0.53
   4   2  -3   13.05    1.02
  -4   2   3   13.10    1.53
   4   2  -3   12.81    0.94
   4   2  -3   14.52    0.74
  -2  -2   3  105.83    3.13
   2  -2  -3  105.07    3.27
   2  -2  -3  109.18    4.94
  -2  -2   3  104.72    3.33
  -2   2   3  101.33    4.18
   2   2  -3  102.55    3.14
   2   2  -3  101.53    3.47
   0  -2   3  111.79    3.47
   0  -2  -3  106.43    4.71
   0  -2  -3  110.57    3.39
   0  -2   3  103.04    3.37
   0  -2  -3  105.87    2.88
   0   2  -3  104.45    3.20
   0   2   3  104.95    4.10
   0   2  -3  105.43    3.44
  -2  -2  -3  154.62    4.42
   2  -2   3  157.32    5.22
  -2  -2  -3  165.92    4.86
   2  -2   3  163.97    4.92
   2   2   3  149.30    5.95
  -2   2  -3  163.21    4.80
   2   2   3  159.62    5.34
  -2   2  -3  163.26    4.66
   4  -2   3  141.41    5.04
   4  -2   3  130.98    4.24
  -4  -2  -3  131.51    4.15
  -4  -2  -3  130.42    3.82
  -4   2  -3  133.41    4.01
  -4   2  -3  134.37    4.03
   4   2   3  125.90    5.29
   4   2   3  127.74    4.29
   6  -2   3   42.25    2.55
   6  -2   3   34.42    1.67
  -6  -2  -3   40.45    1.65
  -6  -2  -3   37.27    1.46
   6   2   3   37.63    1.58
   6   2   3   40.18    2.67
  -6   2  -3   37.53    1.55
   8  -2   3   46.40    3.13
   8  -2   3   43.83    1.99
  -8  -2  -3   44.41    1.90
  -8  -2  -3   46.48    1.79
  -8   2  -3   44.75    1.85
   8   2   3   50.05    3.24
 -10  -2  -3  133.18    4.32
  10  -2   3  126.90    6.36
  10  -2   3  134.60    4.47
 -10  -2  -3  126.10    4.20
 -10   2  -3  128.16    4.28
  10   2   3  133.66    6.32
  12  -2   3   39.64    3.52
  12  -2   3   38.11    1.91
 -12  -2  -3   38.22    1.80
 -12  -2  -3   36.19    1.78
 -12   2  -3   41.59    1.89
  12   2   3   42.67    3.49
 -14  -2  -3   16.77    1.16
  14  -2   3   11.93    2.55
 -14   2  -3   16.75    1.19
  14   2   3   19.87    3.28
 -16  -2  -3   38.01    2.02
  16  -2   3   44.09    4.37
  16   2   3   43.53    4.18
 -16   2  -3   37.55    2.03
  19  -3  -3   23.47    5.18
 -19  -3   3   22.75    1.61
 -19   3   3   25.21    1.54
  17  -3  -3   14.15    3.66
 -17  -3   3   15.93    1.24
  17   3  -3   17.56    2.30
 -17   3   3   16.72    1.13
 -15  -3   3    4.24    0.70
  15  -3  -3    3.40    1.94
 -15   3   3    4.13    1.35
 -15   3   3    5.76    0.73
  15   3  -3    5.36    1.20
  13  -3  -3   47.27    4.61
 -13  -3   3   40.38    1.86
  13   3  -3   42.02    2.59
 -13   3   3   40.62    1.72
  13   3  -3   41.09    5.59
 -13   3   3   34.37    3.00
 -11  -3   3  100.60    3.34
  11  -3  -3   95.71    6.40
  11   3  -3   94.28    4.08
  11   3  -3   95.92    4.99
 -11   3   3   98.66    3.15
 -11   3   3   94.17    4.98
   9  -3  -3   36.54    3.59
  -9  -3   3   34.89    1.52
  -9  -3   3   34.69    1.51
   9  -3  -3   35.16    1.52
  -9   3   3   35.16    1.33
   9   3  -3   30.38    2.33
   9   3  -3   35.27    2.03
  -9   3   3   34.37    2.65
   7  -3  -3   61.22    4.36
  -7  -3   3   56.67    2.19
   7  -3  -3   56.97    2.16
  -7   3   3   59.46    3.45
   7   3  -3   57.10    2.61
   7   3  -3   52.32    2.78
  -7   3   3   56.12    1.80
  -5  -3   3   90.50    3.19
   5  -3  -3   88.24    3.09
   5  -3  -3   98.28    5.32
  -5  -3   3   91.00    2.92
   5   3  -3   84.66    3.36
  -5   3   3   94.60    2.59
   5   3  -3   92.43    3.49
  -5   3   3   90.93    4.35
   3  -3  -3  103.25    5.28
   3  -3  -3   98.39    3.39
  -3  -3   3  106.42    3.53
   3   3  -3   95.00    3.63
  -3   3   3  100.52    4.51
   3   3  -3  105.34    3.19
   1  -3  -3  246.78    7.16
   1  -3  -3  244.17    9.02
  -1  -3   3  237.92    7.23
  -1   3   3  236.96    8.21
   1   3  -3  238.10    6.83
   1   3  -3  244.44    7.37
  -1  -3  -3   41.67    1.81
   1  -3   3   42.00    1.89
  -1  -3  -3   40.12    1.22
   1  -3   3   43.20    1.88
  -1  -3  -3   42.00    2.84
   1   3   3   40.29    2.76
  -1   3  -3   44.96    1.97
   1   3   3   41.92    2.38
  -1   3  -3   46.10    1.62
   3  -3   3   64.42    2.56
   3  -3   3   66.55    2.95
  -3  -3  -3   65.38    1.97
  -3  -3  -3   63.62    2.46
   3   3   3   63.57    2.89
   3   3   3   60.34    3.38
  -3   3  -3   64.26    2.57
  -3   3  -3   66.49    2.25
   5  -3   3  171.13    5.35
   5  -3   3  157.81    6.17
  -5  -3  -3  156.80    5.15
  -5  -3  -3  162.30    4.70
   5   3   3  172.97    6.67
  -5   3  -3  162.88    5.28
   5   3   3  162.93    5.41
  -5   3  -3  160.21    4.93
   7  -3   3   88.77    3.43
  -7  -3  -3   91.81    3.32
  -7  -3  -3   96.46    3.01
   7  -3   3   99.66    4.74
   7   3   3  102.31    4.87
   7   3   3   83.28    3.31
  -7   3  -3   92.68    3.16
  -9  -3  -3   34.43    1.54
   9  -3   3   38.10    1.91
   9  -3   3   37.72    3.01
  -9  -3  -3   35.96    1.72
  -9   3  -3   36.19    1.66
   9   3   3   36.14    2.97
  11  -3   3   63.87    4.44
 -11  -3  -3   63.09    2.61
 -11  -3  -3   65.67    2.50
  11  -3   3   62.70    2.78
 -11   3  -3   67.13    2.61
  11   3   3   61.86    4.25
  13  -3   3   19.27    3.18
 -13  -3  -3   21.99    1.36
 -13   3  -3   21.94    1.37
  13   3   3   23.23    3.30
  15  -3   3   47.85    4.67
 -15  -3  -3   50.74    2.34
  15   3   3   41.76    4.15
 -15   3  -3   49.89    2.36
  18  -4  -3   13.56    3.86
 -18  -4   3   13.71    1.36
  18   4  -3    9.82    2.00
  16  -4  -3   12.46    3.34
 -16  -4   3   16.33    1.24
 -16   4   3   15.93    2.64
  16   4  -3   16.73    2.17
 -14  -4   3   46.69    2.08
  14  -4  -3   39.54    5.54
  14   4  -3   44.51    2.84
 -14   4   3   41.81    3.55
 -12  -4   3   22.06    1.27
  12  -4  -3   19.76    3.58
  12   4  -3   24.30    1.89
 -12   4   3   20.77    2.75
 -10  -4   3   20.62    1.15
  10  -4  -3   19.49    3.34
 -10   4   3   17.19    2.43
  10   4  -3   18.97    1.59
   8  -4  -3   75.32    3.00
  -8  -4   3   83.73    3.08
  -8  -4   3   79.44    2.81
   8  -4  -3   76.70    5.41
   8   4  -3   81.10    3.53
  -8   4   3   82.58    4.55
   6  -4  -3  133.41    4.56
  -6  -4   3  132.26    4.60
   6  -4  -3  133.53    7.09
  -6  -4   3  134.80    4.21
   6   4  -3  141.40    5.03
  -6   4   3  138.47    6.14
   4  -4  -3   25.70    1.46
   4  -4  -3   27.08    2.79
  -4  -4   3   25.38    1.51
  -4   4   3   27.51    2.30
   4   4  -3   28.43    1.26
   4   4  -3   26.32    1.68
   2  -4  -3   88.82    4.96
  -2  -4   3   94.90    3.51
   2  -4  -3   87.97    3.33
   2   4  -3   88.94    2.95
   2   4  -3   90.66    3.61
  -2   4   3   90.67    4.38
   0  -4   3   81.66    3.28
   0  -4  -3   85.85    3.22
   0  -4  -3   86.29    4.66
   0   4  -3   87.03    3.49
   0   4   3   83.51    4.05
   0   4  -3   87.17    2.82
  -2  -4  -3  111.86    3.95
   2   4   3  113.21    5.20
   2   4   3  111.08    4.65
  -2   4  -3  107.96    3.52
  -2   4  -3  112.17    4.22
  -4  -4  -3   96.85    3.68
   4  -4   3  103.40    3.90
  -4   4  -3  105.18    3.39
   4   4   3  106.42    4.24
   4   4   3  102.23    4.91
  -4   4  -3  101.43    3.98
   6  -4   3   40.37    2.09
  -6  -4  -3   39.89    1.94
   6   4   3   38.73    2.13
  -6   4  -3   38.46    1.66
   6   4   3   36.48    2.81
  -8  -4  -3   39.66    2.00
   8  -4   3   44.47    3.36
   8  -4   3   43.34    2.24
  -8   4  -3   40.99    1.83
   8   4   3   39.30    3.08
  10  -4   3   98.75    5.74
  10  -4   3   94.81    3.91
 -10  -4  -3   93.02    3.62
 -10   4  -3  102.42    3.53
  10   4   3   97.54    5.49
 -12  -4  -3   29.53    1.69
  12  -4   3   27.45    3.78
  12  -4   3   32.00    1.96
  12   4   3   24.49    3.37
 -12   4  -3   32.61    1.68
  14  -4   3   14.19    3.08
  14   4   3   11.22    2.53
 -14   4  -3   14.59    1.15
  17  -5  -3    6.21    3.12
 -17  -5   3    9.53    1.27
  17   5  -3    7.80    1.61
  15  -5  -3    3.65    2.13
 -15  -5   3    2.55    0.63
  15   5  -3    3.11    0.98
 -15   5   3    3.01    1.34
 -13  -5   3   22.43    1.37
  13  -5  -3   18.55    3.93
 -13   5   3   27.71    3.42
  13   5  -3   19.83    2.21
 -11  -5   3   44.11    2.00
  11  -5  -3   39.67    5.40
  11   5  -3   46.97    2.80
 -11   5   3   45.83    3.65
   9  -5  -3   16.55    1.27
  -9  -5   3   15.61    1.23
   9  -5  -3   16.35    3.29
  -9  -5   3   16.05    1.04
   9   5  -3   15.69    1.78
  -9   5   3   14.09    2.29
  -7  -5   3   26.95    1.31
   7  -5  -3   25.60    1.60
   7  -5  -3   25.65    3.85
  -7  -5   3   22.94    1.54
   7   5  -3   23.31    1.80
  -7   5   3   27.99    3.08
  -5  -5   3   37.30    2.04
   5  -5  -3   34.87    3.52
  -5  -5   3   38.77    1.65
   5  -5  -3   40.73    2.09
   5   5  -3   36.59    2.27
  -5   5   3   40.58    3.04
   3  -5  -3   40.06    3.44
   3  -5  -3   43.72    2.17
  -3  -5   3   40.72    2.19
   3   5  -3   41.19    2.37
  -3   5   3   41.70    3.00
   3   5  -3   37.79    1.65
   1  -5  -3   95.21    3.70
   1  -5  -3   92.83    5.23
  -1  -5   3   94.37    3.80
  -1   5   3   91.12    4.63
   1   5  -3   89.81    3.11
   1   5  -3   95.31    4.04
  -1  -5  -3   19.19    1.36
   1  -5   3   20.45    1.49
   1   5   3   16.31    2.05
  -1   5  -3   15.19    0.93
  -1   5  -3   19.01    1.56
   1   5   3   17.95    2.39
   3  -5   3   24.14    1.70
  -3  -5  -3   25.22    1.59
  -3   5  -3   26.13    1.26
  -3   5  -3   23.82    1.80
   3   5   3   27.65    2.09
   3   5   3   23.18    2.25
  -5  -5  -3   73.91    3.09
   5  -5   3   65.63    3.16
   5   5   3   72.12    4.17
   5   5   3   75.58    3.55
  -5   5  -3   69.49    3.37
  -5   5  -3   69.43    2.60
   7  -5   3   38.56    2.24
  -7  -5  -3   36.54    2.02
  -7   5  -3   35.24    1.69
   7   5   3   39.50    3.13
   7   5   3   39.73    2.33
   9  -5   3   12.68    1.49
  -9  -5  -3   17.38    1.33
  -9   5  -3   14.48    1.03
   9   5   3   16.02    2.50
 -11  -5  -3   34.92    1.95
  11  -5   3   30.73    2.08
  11   5   3   32.30    3.24
 -11   5  -3   32.10    1.71
 -13   5  -3    8.36    1.01
  13   5   3    9.10    2.33
 -14  -6   3   21.86    1.44
  14  -6  -3   15.50    3.70
  14   6  -3   17.50    2.23
 -14   6   3   16.98    2.80
  12  -6  -3    4.79    2.25
 -12  -6   3    7.11    0.87
  12   6  -3    5.50    1.21
 -12   6   3    7.17    1.75
  10  -6  -3    8.84    2.80
 -10  -6   3    7.78    0.88
 -10   6   3   10.81    2.23
  10   6  -3    5.03    1.11
  -8  -6   3   29.57    1.91
   8  -6  -3   26.73    3.96
  -8  -6   3   29.17    1.52
   8  -6  -3   27.62    1.85
   8   6  -3   29.14    2.21
  -8   6   3   30.42    3.48
   6  -6  -3   41.95    2.35
   6  -6  -3   43.57    4.24
  -6  -6   3   44.48    2.43
  -6  -6   3   42.05    1.87
   6   6  -3   39.86    2.64
  -6   6   3   45.13    3.48
  -4  -6   3    8.28    0.81
   4  -6  -3    7.43    1.08
   4  -6  -3    7.52    1.93
  -4  -6   3    7.62    1.11
   4   6  -3    7.88    1.28
  -4   6   3    7.27    1.56
   2  -6  -3   28.83    1.89
   2  -6  -3   30.56    3.11
  -2  -6   3   27.91    1.93
  -2   6   3   28.67    2.57
   2   6  -3   28.85    1.40
   2   6  -3   29.35    2.16
   0  -6  -3   28.49    1.87
   0  -6   3   30.42    2.01
   0   6  -3   27.19    1.37
   0   6   3   34.21    2.65
   0   6  -3   23.87    2.00
   0   6   3   25.69    2.65
   2  -6   3   30.88    2.11
  -2  -6  -3   31.42    2.00
  -2   6  -3   33.38    1.54
   2   6   3   31.50    2.76
  -2   6  -3   37.52    2.46
   2   6   3   30.65    2.47
   4  -6   3   36.66    2.27
  -4  -6  -3   34.27    2.06
   4   6   3   27.29    2.25
   4   6   3   29.70    3.05
  -4   6  -3   32.04    1.55
  -4   6  -3   33.58    2.37
  -6  -6  -3   12.81    1.40
   6  -6   3   13.36    1.66
  -6   6  -3   10.81    0.87
   6   6   3   12.94    1.79
  -8  -6  -3   12.32    1.41
   8  -6   3   13.60    1.66
  -8   6  -3   16.23    1.09
   8   6   3   12.97    2.14
  10  -6   3   42.44    2.60
 -10  -6  -3   32.92    2.09
 -10   6  -3   33.69    1.80
 -12  -6  -3   11.42    1.34
 -12   6  -3   10.64    1.17
 -11   7   3   24.60    3.42
  11   7  -3   23.23    2.69
  -9  -7   3    8.07    1.26
   9   7  -3    7.41    1.43
  -9   7   3    8.68    1.98
  -7  -7   3   15.22    1.71
   7  -7  -3   16.56    1.77
  -7   7   3   13.27    2.37
   7   7  -3   18.33    2.22
  -5  -7   3   18.32    1.65
   5  -7  -3   20.43    1.72
   5   7  -3   22.31    2.05
  -5   7   3   17.88    2.66
  -3  -7   3   18.95    1.68
   3  -7  -3   21.83    1.76
   3   7  -3   22.09    2.42
  -3   7   3   17.96    2.57
  -1  -7   3   44.64    2.67
   1  -7  -3   43.55    2.58
   1   7  -3   40.41    2.86
  -1   7   3   37.81    3.13
  -1  -7  -3   11.33    1.41
   1  -7   3    9.27    1.41
   1   7   3   12.20    1.99
  -1   7  -3   11.31    1.73
   3  -7   3   13.88    1.72
  -3  -7  -3   18.05    1.93
   3   7   3   14.35    2.09
  -3   7  -3   15.91    2.11
  -5  -7  -3   33.58    2.24
   5  -7   3   35.54    2.49
   5   7   3   33.37    2.63
  -5   7  -3   34.48    4.06
  -7  -7  -3   15.46    1.68
   7  -7   3   22.45    1.98
   7   7   3   19.34    2.27
   9  -7   3    8.49    1.41
  -9  -7  -3    8.35    1.23
  -6  -8   3   16.21    2.01
   6  -8  -3   18.52    2.02
  -6   8   3   15.95    3.47
   6   8  -3   17.79    3.22
  -4  -8   3    5.02    1.06
   4  -8  -3    4.96    1.06
   4   8  -3    4.68    1.29
  -4   8   3    3.98    1.43
   2  -8  -3   17.55    2.00
  -2  -8   3   16.11    1.99
   2   8  -3   14.54    2.10
  -2   8   3   10.61    2.05
   0  -8  -3   12.88    1.63
   0  -8   3   11.10    1.57
   0   8  -3   13.54    2.08
   0   8   3   10.46    1.98
   2  -8   3   13.21    1.81
  -2  -8  -3   13.55    1.77
   2   8   3    8.21    1.65
  -2   8  -3   13.46    2.02
  -4   8  -3   15.92    2.20
   4   8   3   15.20    2.34
  20   0  -4   27.04    5.12
 -20   0   4   30.95    1.82
  18   0  -4   56.68    4.11
 -18   0   4   55.22    2.47
  18   0  -4   43.77    5.79
 -16   0   4   16.79    1.15
  16   0  -4   16.08    2.43
  16   0  -4   19.18    3.53
  14   0  -4   64.21    5.10
 -14   0   4   61.34    2.42
  14   0  -4   61.27    3.79
  12   0  -4  165.29    8.18
  12   0  -4  157.82    6.58
 -12   0   4  162.34    4.98
  10   0  -4   77.70    4.97
  10   0  -4   77.48    3.84
 -10   0   4   81.42    2.68
   8   0  -4  124.87    5.13
   8   0  -4  140.18    6.57
  -8   0   4  132.00    3.68
  -8   0   4  138.80    4.02
   6   0  -4   76.63    3.35
   6   0  -4   73.71    4.13
   6   0  -4   75.75    2.23
  -6   0   4   75.96    2.38
   4   0  -4  259.57    7.90
   4   0  -4  244.63    6.82
   4   0  -4  243.10    6.87
   4   0  -4  246.60    8.76
   2   0  -4  297.40    8.10
   2   0  -4  291.69    8.89
   2   0  -4  301.26    9.74
   2   0  -4  296.29    8.18
   0   0   4  156.55    5.64
   0   0  -4  151.91    4.31
   0   0  -4  148.24    4.84
   0   0  -4  149.28    4.44
   2   0   4   31.40    1.37
   2   0   4   34.34    2.09
  -2   0  -4   32.45    1.23
  -2   0  -4   32.66    1.33
  -4   0  -4  213.03    6.03
   4   0   4  190.47    7.35
  -4   0  -4  222.96    6.18
  -6   0  -4   92.36    3.07
   6   0   4   89.92    4.39
  -6   0  -4   88.69    2.97
  -8   0  -4   79.63    2.77
  -8   0  -4   76.32    2.78
 -10   0  -4   26.72    1.37
 -10   0  -4   23.27    1.30
  10   0   4   25.80    2.55
  12   0   4   22.32    3.15
 -12   0  -4   25.77    1.44
 -12   0  -4   24.10    1.36
  14   0   4   51.01    4.23
 -14   0  -4   43.29    2.16
 -16   0  -4   22.95    1.56
  16   0   4   24.28    3.95
 -19  -1   4   33.78    1.87
  19  -1  -4   27.74    4.92
  19   1  -4   28.39    4.84
  19   1  -4   32.75    3.77
 -19   1   4   30.56    1.76
  17  -1  -4   46.94    5.04
 -17  -1   4   55.98    2.42
 -17   1   4   53.49    2.32
 -17   1   4   55.08    3.97
  17   1  -4   53.10    3.77
  17   1  -4   45.93    4.90
 -15  -1   4   31.03    1.58
  15  -1  -4   26.48    4.22
 -15   1   4   28.74    3.15
  15   1  -4   26.07    2.38
 -15   1   4   29.06    1.50
  15   1  -4   30.49    4.18
  13  -1  -4  121.51    7.36
 -13  -1   4  120.34    4.01
  13  -1  -4  130.68    5.99
 -13   1   4  119.37    3.96
  13   1  -4  121.08    5.38
  13   1  -4  125.74    6.95
 -11  -1   4   15.93    0.90
  11  -1  -4    8.54    1.56
  11  -1  -4   14.54    2.71
  11   1  -4   10.07    2.08
  11   1  -4   14.38    1.77
 -11   1   4   14.55    0.83
   9  -1  -4   98.76    5.78
  -9  -1   4   95.32    3.15
   9  -1  -4  100.24    4.66
  -9   1   4   98.33    3.06
   9   1  -4   98.40    4.11
   9   1  -4   99.22    5.25
  -7  -1   4  266.69    7.71
   7  -1  -4  281.99   10.83
  -7  -1   4  269.51    7.83
   7  -1  -4  286.15    7.61
   7  -1  -4  283.15    9.48
  -7   1   4  285.77    7.73
   7   1  -4  287.63   10.07
   7   1  -4  280.44    8.80
   5  -1  -4   55.99    1.83
  -5  -1   4   57.92    1.92
  -5  -1   4   55.08    1.89
   5  -1  -4   56.73    2.94
   5  -1  -4   56.48    3.63
  -5   1   4   61.97    2.95
   5   1  -4   56.00    3.06
  -5   1   4   58.45    1.80
   5   1  -4   56.85    2.50
  -3  -1   4   57.74    1.98
   3  -1  -4   58.34    1.78
   3  -1  -4   58.36    1.94
   3  -1  -4   60.78    3.52
   3   1  -4   55.30    2.77
  -3   1   4   59.13    2.78
   3   1  -4   60.95    1.95
   3   1  -4   58.87    2.38
   1  -1  -4  203.42    5.68
   1  -1  -4  209.80    7.66
   1  -1  -4  207.66    5.97
  -1  -1   4  208.41    6.75
  -1   1   4  217.81    6.80
   1   1  -4  205.02    5.87
   1   1  -4  205.56    5.95
   1   1  -4  211.26    6.24
  -1  -1  -4   64.04    2.00
   1  -1   4   64.09    2.83
  -1  -1  -4   69.13    2.28
   1   1   4   60.86    3.26
  -1   1  -4   65.62    2.27
  -1   1  -4   62.58    2.23
  -1   1  -4   67.91    2.16
   1   1   4   67.41    2.71
  -3  -1  -4  181.21    5.39
  -3  -1  -4  183.81    5.14
   3  -1   4  184.70    6.34
  -3   1  -4  184.07    5.12
  -3   1  -4  182.47    5.38
   3   1   4  172.04    5.44
  -3   1  -4  173.51    5.24
  -5  -1  -4   69.46    2.46
  -5  -1  -4   63.60    2.25
   5  -1   4   67.41    3.44
   5   1   4   70.07    3.68
  -5   1  -4   66.85    2.35
  -5   1  -4   68.32    2.44
   7  -1   4    4.91    1.19
  -7  -1  -4    5.38    0.65
  -7  -1  -4    5.45    0.61
   7   1   4    5.53    1.28
  -7   1  -4    4.52    0.59
  -7   1  -4    5.22    0.65
  -9  -1  -4  121.39    4.13
   9  -1   4  134.00    6.15
  -9  -1  -4  127.33    4.10
  -9   1  -4  124.48    4.12
  -9   1  -4  121.92    4.14
 -11  -1  -4   41.04    1.87
  11  -1   4   41.14    3.42
 -11  -1  -4   38.44    1.83
 -11   1  -4   40.00    1.87
 -11   1  -4   41.57    1.89
  11   1   4   44.23    3.54
 -13  -1  -4    6.23    0.83
  13  -1   4    9.24    2.26
  13  -1   4    6.41    0.96
 -13  -1  -4    8.29    0.97
 -13   1  -4    7.15    0.89
  13   1   4    5.76    1.70
  15  -1   4   14.11    2.94
 -15  -1  -4   15.10    1.21
 -15   1  -4   16.25    1.24
  15   1   4   17.00    3.14
 -20   2   4   21.01    1.46
  18  -2  -4   38.07    5.87
 -18  -2   4   41.73    2.11
  18   2  -4   40.86    5.44
 -18   2   4   36.41    3.99
 -18   2   4   38.20    1.94
  18   2  -4   45.36    3.49
  16  -2  -4    7.08    2.54
 -16  -2   4    9.29    1.01
  16   2  -4   13.18    3.07
  16   2  -4   13.60    2.07
 -16   2   4   12.06    1.12
 -16   2   4   11.75    2.14
 -14  -2   4   33.87    1.66
  14  -2  -4   36.41    5.12
 -14   2   4   36.44    3.00
  14   2  -4   35.20    2.59
 -14   2   4   32.49    1.54
  14   2  -4   37.17    3.61
  12  -2  -4  119.39    7.26
 -12  -2   4  107.00    3.65
  12   2  -4  110.90    4.78
  12   2  -4  109.36    6.04
 -12   2   4  109.56    3.54
 -12   2   4  107.96    5.39
  10  -2  -4   42.60    3.97
 -10  -2   4   39.39    1.68
  10   2  -4   47.11    2.51
  10   2  -4   35.56    2.99
 -10   2   4   40.63    1.55
 -10   2   4   42.82    2.92
  -8  -2   4   77.37    2.52
   8  -2  -4   75.73    2.37
   8  -2  -4   70.07    4.88
  -8  -2   4   71.83    2.52
  -8   2   4   77.22    3.95
   8   2  -4   71.48    3.96
  -8   2   4   74.44    2.34
   8   2  -4   72.20    3.20
  -6  -2   4   34.23    1.38
   6  -2  -4   34.62    3.09
  -6  -2   4   37.69    1.48
   6  -2  -4   33.32    1.33
  -6   2   4   32.72    2.33
   6   2  -4   38.39    1.92
  -6   2   4   33.75    1.17
   6   2  -4   32.71    2.20
   4  -2  -4  119.68    5.93
  -4  -2   4  127.08    3.87
   4  -2  -4  122.87    3.75
  -4   2   4  119.95    3.37
  -4   2   4  118.67    4.98
   4   2  -4  121.62    4.21
   4   2  -4  122.04    4.36
   2  -2  -4  159.61    6.66
  -2  -2   4  151.75    4.78
   2  -2  -4  151.32    4.61
  -2  -2   4  145.15    4.68
   2   2  -4  151.94    4.87
  -2   2   4  157.72    5.77
  -2   2   4  154.32    4.11
   2   2  -4  151.17    4.50
   0  -2  -4   73.30    2.52
   0  -2   4   72.48    2.59
   0  -2   4   74.55    2.75
   0  -2  -4   68.53    2.03
   0  -2  -4   75.55    3.99
   0   2  -4   66.52    2.53
   0   2   4   74.13    3.28
   0   2  -4   70.85    2.36
  -2  -2  -4    9.83    0.70
   2  -2   4    9.17    0.73
   2  -2   4   10.66    0.99
  -2  -2  -4    9.27    0.47
   2   2   4   11.37    1.73
  -2   2  -4    9.36    0.62
   2   2   4   10.96    1.21
  -2   2  -4    8.67    0.63
   4  -2   4  127.65    4.22
  -4  -2  -4  122.96    4.08
   4  -2   4  124.87    4.95
  -4  -2  -4  127.66    3.77
  -4   2  -4  130.76    3.99
   4   2   4  129.02    5.58
  -4   2  -4  124.86    4.11
   4   2   4  132.39    4.31
   6  -2   4   52.17    3.06
   6  -2   4   49.58    2.14
  -6  -2  -4   50.36    2.08
  -6  -2  -4   48.68    1.82
   6   2   4   51.08    3.28
  -6   2  -4   49.77    1.96
  -8  -2  -4   45.44    1.96
   8  -2   4   43.34    2.03
   8  -2   4   42.21    3.04
  -8  -2  -4   42.74    1.76
   8   2   4   46.47    3.26
  -8   2  -4   44.20    1.88
  10  -2   4   11.63    0.99
 -10  -2  -4   13.36    0.90
  10  -2   4   12.02    2.27
 -10  -2  -4   12.34    0.95
 -10   2  -4   12.69    0.93
  10   2   4   13.09    2.34
 -12  -2  -4   14.48    1.03
  12  -2   4   13.50    1.12
  12  -2   4   10.69    2.27
 -12  -2  -4   14.75    1.07
  12   2   4   20.61    3.17
 -12   2  -4   12.92    1.03
  14  -2   4   30.66    4.32
 -14  -2  -4   29.28    1.65
  14   2   4   27.32    3.73
 -14   2  -4   29.16    1.70
  16  -2   4   11.53    2.92
 -16  -2  -4   17.16    1.56
 -16   2  -4   16.76    2.20
  16   2   4   19.49    4.14
  19  -3  -4   28.84    7.58
 -19  -3   4   25.12    2.82
  19   3  -4   22.23    2.95
  17  -3  -4   45.11    6.52
 -17  -3   4   37.21    1.99
  17   3  -4   38.86    3.08
 -17   3   4   37.42    4.12
  15  -3  -4   14.64    3.38
 -15  -3   4   24.32    1.38
  15   3  -4   18.73    2.31
 -15   3   4   20.72    1.43
 -15   3   4   17.75    2.75
 -13  -3   4   85.50    3.18
  13  -3  -4   90.03    6.71
  13   3  -4   90.65    4.27
 -13   3   4   84.43    5.00
 -13   3   4   89.59    3.01
  11  -3  -4   13.52    2.99
 -11  -3   4    9.86    0.78
  11   3  -4   11.11    1.44
 -11   3   4   11.30    0.69
 -11   3   4    8.60    1.73
   9  -3  -4   70.89    5.24
  -9  -3   4   69.81    2.51
  -9  -3   4   70.11    2.53
  -9   3   4   63.13    3.93
  -9   3   4   67.71    2.22
   9   3  -4   67.32    3.18
  -7  -3   4  174.04    5.70
   7  -3  -4  189.01    8.83
  -7  -3   4  184.58    5.53
   7  -3  -4  185.86    5.58
   7   3  -4  189.30    6.33
  -7   3   4  199.12    7.62
   5  -3  -4   42.42    1.81
  -5  -3   4   46.50    1.97
   5  -3  -4   49.54    3.82
   5   3  -4   44.76    1.76
   5   3  -4   47.24    2.26
  -5   3   4   42.38    2.88
   3  -3  -4   54.02    3.75
   3  -3  -4   47.99    1.93
  -3  -3   4   43.90    1.99
   3   3  -4   45.44    1.76
   3   3  -4   47.16    2.18
  -3   3   4   48.81    2.96
   1  -3  -4  137.76    4.36
   1  -3  -4  131.24    6.22
  -1  -3   4  128.10    4.44
  -1   3   4  142.79    5.56
   1   3  -4  135.64    4.54
   1   3  -4  133.04    4.11
   1  -3   4   48.59    2.16
  -1  -3  -4   50.13    2.08
   1  -3   4   51.69    2.18
   1   3   4   50.05    2.74
  -1   3  -4   53.45    2.18
   1   3   4   54.04    3.43
  -1   3  -4   48.00    1.86
   3  -3   4  125.33    4.80
  -3  -3  -4  122.34    4.25
   3  -3   4  133.02    4.44
   3   3   4  133.38    4.85
  -3   3  -4  121.79    4.00
  -3   3  -4  129.01    4.22
   3   3   4  135.24    5.83
   5  -3   4   51.88    3.00
  -5  -3  -4   50.26    2.19
   5  -3   4   51.59    2.34
   5   3   4   52.95    2.39
   5   3   4   55.32    3.44
  -5   3  -4   51.80    2.03
   7  -3   4    4.77    0.74
   7  -3   4    5.65    1.37
  -7  -3  -4    6.57    0.81
   7   3   4    5.44    1.34
  -7   3  -4    5.92    0.72
  -9  -3  -4   97.99    3.66
   9  -3   4   96.58    3.84
  -9   3  -4   99.91    3.54
   9   3   4  107.86    5.67
  11  -3   4   29.96    1.82
  11  -3   4   27.60    2.98
 -11  -3  -4   30.64    1.69
  11   3   4   32.56    3.19
 -11   3  -4   31.20    1.64
  13  -3   4    4.92    1.74
 -13  -3  -4    5.82    0.85
 -13   3  -4    6.05    0.86
  13   3   4    4.56    1.60
  15  -3   4    8.45    2.50
  15   3   4   12.65    2.84
 -15   3  -4   11.45    1.20
 -18  -4   4   31.39    3.13
 -18   4   4   36.59    4.94
  18   4  -4   26.27    3.04
 -16  -4   4    9.34    1.10
  16  -4  -4   10.14    3.25
 -16   4   4    7.86    2.00
  16   4  -4   10.82    1.75
  14  -4  -4   23.95    4.43
 -14  -4   4   28.41    1.55
  14   4  -4   24.69    2.18
 -14   4   4   23.77    3.24
  12  -4  -4   66.39    5.88
 -12  -4   4   78.25    2.90
  12   4  -4   73.03    3.73
 -12   4   4   81.55    4.94
  10  -4  -4   36.93    4.05
 -10  -4   4   36.51    1.71
 -10   4   4   38.27    3.18
  10   4  -4   37.22    2.35
  -8  -4   4   63.03    2.56
   8  -4  -4   61.08    4.95
   8  -4  -4   58.81    2.43
  -8  -4   4   59.75    2.28
  -8   4   4   58.78    3.89
   8   4  -4   57.04    2.95
   6  -4  -4   35.56    3.58
  -6  -4   4   37.56    1.60
  -6  -4   4   35.23    1.86
   6  -4  -4   37.77    1.80
  -6   4   4   31.21    2.71
   6   4  -4   42.18    2.25
   4  -4  -4   87.09    3.28
  -4  -4   4   83.62    3.41
   4  -4  -4   88.77    5.50
   4   4  -4   94.04    3.70
   4   4  -4   92.23    3.03
  -4   4   4   85.71    4.58
   2  -4  -4  109.27    5.93
  -2  -4   4  107.59    4.01
   2  -4  -4  109.38    3.89
   2   4  -4  109.68    3.57
  -2   4   4  114.44    5.18
   2   4  -4  111.42    4.20
   0  -4  -4   61.63    4.11
   0  -4   4   60.52    2.68
   0  -4  -4   59.99    2.54
   0   4  -4   63.15    2.25
   0   4  -4   58.72    2.70
   0   4   4   62.81    3.44
  -2  -4  -4   18.78    1.23
   2  -4   4   21.26    1.41
   2   4   4   17.21    1.93
  -2   4  -4   17.38    0.99
  -2   4  -4   16.72    1.26
   2   4   4   18.92    2.48
   4  -4   4  100.82    3.89
  -4  -4  -4   94.76    3.62
   4   4   4   94.88    5.00
  -4   4  -4   99.75    3.34
  -4   4  -4   96.80    3.84
   4   4   4   98.81    4.15
   6  -4   4   45.21    2.31
  -6  -4  -4   42.30    2.10
   6   4   4   40.43    3.20
   6   4   4   41.87    2.35
  -6   4  -4   43.04    1.86
   8  -4   4   38.25    2.18
  -8  -4  -4   40.49    2.04
   8   4   4   42.24    3.33
  -8   4  -4   38.75    1.83
 -10  -4  -4   14.28    1.15
  10  -4   4   13.68    1.52
  10   4   4   16.37    2.72
 -10   4  -4   15.61    1.12
 -12  -4  -4   14.35    1.20
  12  -4   4   17.76    1.50
  12   4   4   13.40    2.55
 -12   4  -4   16.16    1.19
  14   4   4   25.58    3.86
 -14   4  -4   27.28    1.69
 -17   5   4   20.77    3.33
  17   5  -4   17.89    2.47
 -15  -5   4    8.39    1.03
  15  -5  -4    4.35    2.23
 -15   5   4    6.92    1.88
  15   5  -4    6.95    1.47
 -13  -5   4   42.92    2.05
  13  -5  -4   50.00    5.31
 -13   5   4   37.28    4.17
  13   5  -4   43.56    2.92
  11  -5  -4    2.04    1.55
 -11  -5   4    4.98    0.74
 -11   5   4    3.88    1.42
  11   5  -4    3.93    1.00
  -9  -5   4   31.92    1.58
  -9  -5   4   30.19    1.77
   9  -5  -4   29.15    4.36
  -9   5   4   29.46    3.46
   9   5  -4   29.92    2.17
  -7  -5   4   83.72    2.97
   7  -5  -4   83.70    3.34
  -7  -5   4   82.41    3.40
   7  -5  -4   82.01    5.95
  -7   5   4   73.62    4.66
   7   5  -4   80.12    3.77
   5  -5  -4   21.47    1.42
   5  -5  -4   17.55    2.99
  -5  -5   4   18.00    1.39
   5   5  -4   18.78    1.57
   5   5  -4   17.19    1.09
  -5   5   4   16.91    2.38
   3  -5  -4   21.29    3.11
   3  -5  -4   21.08    1.44
  -3  -5   4   19.34    1.46
   3   5  -4   22.95    1.71
  -3   5   4   21.43    2.63
   3   5  -4   19.98    1.13
   1  -5  -4   62.14    2.78
   1  -5  -4   61.40    4.38
  -1  -5   4   63.04    2.98
  -1   5   4   61.17    3.73
   1   5  -4   62.34    2.38
   1   5  -4   65.63    3.11
  -1  -5  -4   20.19    1.43
   1  -5   4   21.08    1.56
  -1   5  -4   20.52    1.14
   1   5   4   22.21    2.90
  -1   5  -4   21.97    1.65
   1   5   4   21.75    2.00
  -3  -5  -4   51.89    2.54
   3  -5   4   56.44    2.77
   3   5   4   53.64    3.72
   3   5   4   52.59    3.11
  -3   5  -4   56.94    2.21
  -3   5  -4   54.94    2.81
   5  -5   4   29.47    1.91
  -5  -5  -4   25.51    1.67
   5   5   4   27.10    2.01
   5   5   4   26.26    2.58
  -5   5  -4   26.89    1.42
   7  -5   4    2.90    0.73
  -7  -5  -4    2.18    0.60
  -7   5  -4    2.39    0.48
   7   5   4    3.09    1.23
  -9  -5  -4   47.33    2.43
   9  -5   4   51.10    2.75
  -9   5  -4   46.95    2.16
   9   5   4   45.20    3.72
  11  -5   4   15.26    1.77
 -11  -5  -4   16.41    1.34
 -11   5  -4   17.18    1.23
  11   5   4   17.84    3.02
 -13   5  -4    1.54    0.54
  13   5   4    1.47    1.27
  14  -6  -4   10.24    3.24
 -14  -6   4   12.35    1.25
 -14   6   4    9.21    2.30
  14   6  -4   13.29    2.05
  12  -6  -4   28.60    5.00
 -12  -6   4   24.91    1.54
  12   6  -4   27.72    2.35
 -12   6   4   27.94    3.68
 -10  -6   4   13.78    1.06
  10  -6  -4    8.04    2.35
 -10   6   4   10.77    2.18
  10   6  -4    8.41    1.43
   8  -6  -4   19.56    1.54
   8  -6  -4   20.43    3.81
  -8  -6   4   21.58    1.65
  -8  -6   4   21.67    1.30
  -8   6   4   21.17    2.96
   8   6  -4   22.84    1.98
  -6  -6   4   10.99    1.37
   6  -6  -4   15.24    3.07
   6  -6  -4   13.54    1.44
  -6  -6   4   12.09    0.94
   6   6  -4   11.90    1.64
  -6   6   4   10.44    2.04
   4  -6  -4   28.57    1.90
  -4  -6   4   32.45    2.09
   4  -6  -4   33.51    4.44
   4   6  -4   30.89    1.57
  -4   6   4   25.69    3.19
   4   6  -4   30.26    2.25
  -2  -6   4   33.05    2.20
   2  -6  -4   37.03    2.20
   2  -6  -4   38.27    3.67
   2   6  -4   39.05    2.53
   2   6  -4   37.29    1.72
  -2   6   4   37.84    3.08
   0  -6  -4   21.94    1.61
   0  -6   4   20.44    1.68
   0   6   4   17.55    2.34
   0   6   4   18.00    2.76
   0   6  -4   20.52    1.21
   0   6  -4   20.11    1.78
  -2  -6  -4    6.46    1.00
   2  -6   4    5.40    1.02
   2   6   4    6.43    1.61
  -2   6  -4    3.64    0.58
  -2   6  -4    6.27    1.21
   2   6   4    6.30    1.39
   4  -6   4   36.60    2.39
  -4  -6  -4   35.94    2.15
   4   6   4   35.83    3.21
  -4   6  -4   33.80    1.70
   4   6   4   33.94    2.53
   6  -6   4   13.98    1.69
  -6  -6  -4   14.83    1.33
   6   6   4   11.05    1.66
  -6   6  -4   13.80    1.02
   6   6   4   11.29    2.20
  -8  -6  -4   17.38    1.49
   8  -6   4   15.43    1.91
  -8   6  -4   16.00    1.17
   8   6   4   17.08    2.85
  10  -6   4    3.75    0.98
 -10  -6  -4    5.57    1.00
 -10   6  -4    6.55    0.94
 -11  -7   4    2.58    0.60
 -11   7   4    4.46    1.67
  11   7  -4    3.85    1.97
  -9  -7   4   16.24    1.24
  -9   7   4   14.80    2.77
   9   7  -4   16.13    2.13
  -7  -7   4   36.38    1.83
  -7  -7   4   30.70    2.21
   7  -7  -4   37.63    2.33
   7   7  -4   34.48    2.65
  -7   7   4   33.49    3.92
   5  -7  -4   10.29    1.37
  -5  -7   4   10.87    1.48
  -5  -7   4   10.38    1.04
  -5   7   4    8.18    1.86
   5   7  -4   12.88    1.84
  -3  -7   4   11.90    1.58
   3  -7  -4   12.03    1.45
   3   7  -4   11.02    1.72
  -3   7   4   10.91    2.14
   3   7  -4   10.46    1.04
  -1  -7   4   34.14    2.35
   1  -7  -4   30.93    2.14
   1   7  -4   29.62    1.57
   1   7  -4   28.42    2.34
  -1   7   4   24.89    2.98
   1  -7   4   14.03    1.77
  -1  -7  -4   11.51    1.46
   1   7   4    8.50    1.74
  -1   7  -4   10.64    1.07
  -1   7  -4   10.26    1.64
  -3  -7  -4   26.98    2.02
   3  -7   4   30.39    2.30
   3   7   4   22.23    2.65
  -3   7  -4   30.79    1.60
  -3   7  -4   28.22    2.36
  -5  -7  -4   12.23    1.49
   5  -7   4   13.75    1.82
   5   7   4   14.40    2.04
  -5   7  -4   14.66    1.10
   7  -7   4    2.75    0.90
  -7  -7  -4    2.29    0.71
  -7   7  -4    1.30    0.44
   6  -8  -4    6.52    1.17
  -6  -8   4    5.47    1.17
  -4  -8   4   10.91    1.62
   4  -8  -4   15.66    1.84
   4   8  -4   10.48    2.10
  -2  -8   4   12.94    1.76
   2  -8  -4   14.49    1.81
   2   8  -4   14.28    2.15
  -2   8   4   15.60    2.57
   0  -8  -4   10.35    2.28
   0  -8   4   11.20    2.54
   0   8   4   11.53    2.15
   0   8  -4   12.32    1.94
   2   8   4    3.20    1.24
  -2   8  -4    2.86    1.11
 -20   0   5    9.74    1.17
  20   0  -5    7.88    2.17
  20   0  -5    9.43    3.17
  18   0  -5   22.39    4.30
 -18   0   5   31.29    1.71
  18   0  -5   29.68    3.63
  16   0  -5   16.86    2.52
 -16   0   5   17.84    1.18
  16   0  -5   23.12    4.13
  14   0  -5   10.95    2.58
  14   0  -5   21.06    2.73
 -14   0   5   18.72    1.12
 -12   0   5   23.90    1.22
  12   0  -5   24.44    2.67
  12   0  -5   27.56    3.86
  10   0  -5   15.06    2.68
 -10   0   5   19.76    0.98
  10   0  -5   16.22    2.05
   8   0  -5  109.34    4.63
  -8   0   5  101.72    2.97
   8   0  -5   97.81    5.52
  -8   0   5   97.99    3.16
   6   0  -5   54.28    3.62
   6   0  -5   56.28    2.92
   6   0  -5   55.90    1.82
  -6   0   5   55.22    1.87
   4   0  -5    4.26    0.43
   4   0  -5    4.43    1.19
   4   0  -5    3.93    0.81
   4   0  -5    4.27    0.37
   2   0  -5   92.03    2.87
   2   0  -5   90.87    4.29
   2   0  -5   86.00    2.73
   2   0  -5   89.10    3.59
   0   0  -5   66.28    2.15
   0   0  -5   63.91    2.73
   0   0   5   72.84    3.48
   0   0  -5   63.64    2.28
  -2   0  -5   31.93    1.29
   2   0   5   32.49    1.56
  -2   0  -5   34.33    1.46
   2   0   5   34.85    2.30
   4   0   5   54.93    3.19
  -4   0  -5   51.76    1.94
  -4   0  -5   54.49    2.09
  -6   0  -5   12.04    0.85
   6   0   5   15.12    2.15
  -6   0  -5   12.33    0.80
   8   0   5   21.96    2.88
  -8   0  -5   19.66    1.18
  -8   0  -5   20.20    1.15
  10   0   5   77.05    4.80
 -10   0  -5   70.73    2.88
 -10   0  -5   77.42    2.89
 -12   0  -5    3.38    0.62
 -12   0  -5    3.53    0.66
  12   0   5    2.59    1.21
  14   0   5    6.39    2.14
 -14   0  -5   11.03    1.17
  19  -1  -5   15.05    3.82
 -19  -1   5   14.29    1.41
 -19   1   5   17.35    2.96
 -19   1   5   18.75    1.29
  19   1  -5   18.67    2.86
  19   1  -5   11.38    3.29
  17  -1  -5    3.40    1.97
 -17  -1   5    2.91    0.63
  17   1  -5    2.45    1.16
 -17   1   5    1.00    0.99
  17   1  -5    1.89    1.61
 -17   1   5    3.11    0.63
  15  -1  -5   11.74    2.92
 -15  -1   5   16.50    1.09
  15   1  -5   11.90    2.00
  15   1  -5   14.78    3.14
 -15   1   5   15.64    1.04
 -15   1   5   17.01    2.45
  13  -1  -5   44.71    4.55
 -13  -1   5   47.70    2.00
  13  -1  -5   52.20    3.64
  13   1  -5   43.48    4.14
 -13   1   5   49.26    1.95
  13   1  -5   46.35    3.11
  11  -1  -5   22.68    2.67
 -11  -1   5   19.55    1.09
  11  -1  -5   24.34    3.74
  11   1  -5   21.15    3.08
  11   1  -5   19.81    2.16
 -11   1   5   24.06    1.11
   9  -1  -5    9.44    2.28
  -9  -1   5    9.51    0.66
   9  -1  -5    8.37    1.49
   9   1  -5    7.12    1.21
  -9   1   5    9.67    0.60
   9   1  -5   10.80    2.07
   7  -1  -5   42.04    2.78
  -7  -1   5   40.82    1.60
  -7  -1   5   45.29    1.60
   7  -1  -5   43.89    1.49
   7  -1  -5   41.87    3.47
  -7   1   5   41.53    1.51
   7   1  -5   44.60    3.11
   7   1  -5   43.78    2.42
  -5  -1   5   16.16    0.84
   5  -1  -5   14.12    2.35
   5  -1  -5   17.88    0.83
   5   1  -5   17.09    0.87
   5   1  -5   17.31    1.74
  -5   1   5   18.27    0.75
  -5   1   5   18.52    1.61
   5   1  -5   15.89    1.30
   3  -1  -5   84.06    2.50
   3  -1  -5   82.60    4.50
   3  -1  -5   84.26    2.72
   3   1  -5   84.16    2.68
   3   1  -5   83.43    2.71
  -3   1   5   78.34    3.61
   3   1  -5   85.38    3.31
   3   1  -5   84.48    3.83
  -1  -1   5   32.51    1.95
   1  -1  -5   27.67    2.32
   1  -1  -5   27.44    1.23
   1  -1  -5   25.17    0.98
  -1   1   5   29.68    1.82
   1   1  -5   25.26    1.45
   1   1  -5   29.39    1.17
   1   1  -5   26.07    1.21
   1  -1   5    6.79    1.10
  -1  -1  -5    6.15    0.42
  -1  -1  -5    5.93    0.66
  -1   1  -5    6.46    0.62
   1   1   5    7.12    0.97
   1   1   5    7.81    1.46
  -1   1  -5    5.56    0.63
  -1   1  -5    6.57    0.75
   3  -1   5   46.89    2.68
  -3  -1  -5   40.30    1.79
  -3  -1  -5   42.07    1.58
  -3   1  -5   45.85    1.72
  -3   1  -5   44.86    1.83
   3   1   5   45.77    2.90
   3   1   5   46.75    1.96
   5  -1   5   46.47    3.01
  -5  -1  -5   51.23    1.90
  -5  -1  -5   49.98    2.08
  -5   1  -5   56.41    2.04
   5   1   5   55.20    3.38
  -5   1  -5   50.37    2.08
  -7  -1  -5    9.09    0.76
  -7  -1  -5    8.38    0.67
   7  -1   5    8.47    1.61
   7   1   5    8.00    1.68
  -7   1  -5    8.39    0.74
  -7   1  -5    9.19    0.73
   9  -1   5   22.37    2.98
  -9  -1  -5   25.22    1.33
  -9  -1  -5   25.00    1.40
   9   1   5   26.79    3.40
  -9   1  -5   25.72    1.39
  -9   1  -5   27.11    1.47
  11  -1   5    5.69    1.76
 -11  -1  -5    6.77    0.87
 -11  -1  -5    7.27    0.87
 -11   1  -5    5.66    0.79
 -11   1  -5    7.60    0.95
  11   1   5    7.06    1.79
 -13  -1  -5   10.43    1.15
 -13  -1  -5   10.78    1.16
  13  -1   5   12.83    1.40
  13  -1   5    8.48    2.21
 -13   1  -5   13.59    1.31
  13   1   5    9.97    2.41
 -15  -1  -5   30.52    1.83
  15  -1   5   32.47    4.82
  15   1   5   34.78    4.73
 -15   1  -5   32.33    1.88
  20   2  -5    6.16    1.82
 -20   2   5    6.59    0.92
 -20   2   5    7.10    2.12
  18  -2  -5   14.46    3.62
 -18  -2   5   20.43    1.43
  18   2  -5   22.63    2.98
 -18   2   5   20.33    1.32
 -18   2   5   25.59    3.42
  16  -2  -5    6.95    2.61
 -16  -2   5   10.31    1.07
 -16   2   5   12.58    2.34
 -16   2   5   11.73    0.90
  16   2  -5   12.91    2.10
  14  -2  -5   12.13    3.17
 -14  -2   5   12.04    0.93
  14   2  -5    9.06    1.63
  14   2  -5    7.98    2.27
 -14   2   5   13.16    0.87
 -14   2   5   10.54    2.04
  12  -2  -5    9.73    2.47
 -12  -2   5   13.68    0.92
 -12   2   5   12.22    2.01
  12   2  -5   13.61    1.76
  12   2  -5   12.95    2.47
 -12   2   5   12.43    0.79
  10  -2  -5    7.61    2.08
 -10  -2   5    8.96    0.70
 -10   2   5    8.24    1.56
  10   2  -5    7.82    1.28
  10   2  -5    6.46    1.65
 -10   2   5    7.80    0.55
   8  -2  -5   63.27    4.70
   8  -2  -5   56.49    2.05
  -8  -2   5   61.44    2.21
  -8  -2   5   62.75    2.23
   8   2  -5   59.69    3.62
   8   2  -5   65.50    3.06
  -8   2   5   59.33    1.98
  -8   2   5   64.10    3.66
   6  -2  -5   23.27    3.24
  -6  -2   5   27.60    1.30
   6  -2  -5   28.05    1.19
  -6  -2   5   26.40    1.22
  -6   2   5   27.78    0.99
  -6   2   5   26.08    2.18
   6   2  -5   24.61    1.66
   6   2  -5   27.93    2.06
   6   2  -5   29.15    1.29
  -4  -2   5    0.37    0.22
   4  -2  -5    0.50    0.20
   4  -2  -5    0.38    0.57
  -4   2   5   -0.21    0.46
   4   2  -5    0.18    0.17
  -4   2   5    0.35    0.11
   4   2  -5    0.80    0.47
   4   2  -5    0.40    0.30
  -2  -2   5   46.22    1.89
   2  -2  -5   44.49    3.31
   2  -2  -5   44.04    1.38
   2  -2  -5   47.24    1.81
  -2  -2   5   45.79    2.14
   2   2  -5   43.63    1.70
   2   2  -5   45.43    2.05
  -2   2   5   45.49    2.69
   0  -2   5   31.13    1.52
   0  -2  -5   31.84    1.06
   0  -2  -5   30.74    1.42
   0  -2   5   31.25    1.79
   0  -2  -5   29.41    2.59
   0   2   5   32.58    2.09
   0   2  -5   33.39    1.56
   0   2  -5   32.16    1.35
  -2  -2  -5   14.01    0.64
   2  -2   5   13.13    0.94
   2  -2   5   10.92    1.16
  -2  -2  -5   13.83    0.90
  -2   2  -5   14.40    0.83
   2   2   5   14.07    2.00
  -2   2  -5   13.21    0.84
   2   2   5   14.71    1.26
  -4  -2  -5   27.74    1.42
   4  -2   5   24.93    1.96
   4  -2   5   28.73    1.50
  -4  -2  -5   25.80    1.11
   4   2   5   25.90    2.34
  -4   2  -5   29.78    1.33
  -6  -2  -5    5.11    0.56
   6  -2   5    6.06    0.81
   6  -2   5    4.78    1.17
  -6  -2  -5    4.52    0.64
   6   2   5    4.73    1.33
  -6   2  -5    4.52    0.62
   8  -2   5   10.58    1.18
  -8  -2  -5   10.41    0.76
   8  -2   5    7.88    1.70
  -8  -2  -5   10.17    0.87
  -8   2  -5   10.64    0.84
   8   2   5    6.18    1.45
  10  -2   5   58.69    4.00
 -10  -2  -5   44.70    2.18
 -10  -2  -5   46.92    2.07
  10  -2   5   54.34    2.47
  10   2   5   44.08    3.70
 -10   2  -5   49.69    2.19
  12  -2   5    0.23    0.88
 -12  -2  -5    1.20    0.40
  12  -2   5    1.53    0.51
 -12  -2  -5    1.60    0.45
  12   2   5    0.87    0.99
 -12   2  -5    0.85    0.36
 -14  -2  -5    5.28    0.84
  14  -2   5    3.99    1.72
  14   2   5    5.72    1.90
 -14   2  -5    7.16    1.00
  19   3  -5   11.96    2.34
 -19   3   5   13.01    2.78
 -17  -3   5    3.97    0.75
  17  -3  -5    0.26    1.42
 -17   3   5    2.34    1.21
  17   3  -5    4.84    1.42
 -15  -3   5   16.70    1.18
  15  -3  -5    9.61    2.96
  15   3  -5   18.91    2.42
 -15   3   5   16.54    2.78
 -13  -3   5   35.27    1.74
  13  -3  -5   31.24    4.84
  13   3  -5   38.24    2.68
 -13   3   5   39.90    3.36
  11  -3  -5   20.70    3.84
 -11  -3   5   18.46    1.12
 -11   3   5   17.74    2.53
  11   3  -5   20.17    1.76
  -9  -3   5   12.18    0.82
   9  -3  -5    8.76    2.31
  -9   3   5    8.82    1.67
   9   3  -5   11.24    1.43
   7  -3  -5   38.14    1.65
  -7  -3   5   38.89    1.83
   7  -3  -5   42.10    3.91
  -7  -3   5   40.81    1.68
   7   3  -5   43.68    2.33
  -7   3   5   36.27    2.88
  -5  -3   5   17.26    1.11
   5  -3  -5   16.37    0.99
   5  -3  -5   17.67    3.02
   5   3  -5   15.67    0.93
  -5   3   5   20.64    2.36
   5   3  -5   18.63    1.36
   3  -3  -5   69.97    4.58
  -3  -3   5   68.30    2.71
   3  -3  -5   69.30    2.57
   3   3  -5   67.46    2.43
   3   3  -5   66.28    2.86
  -3   3   5   66.33    3.71
   1  -3  -5   29.42    2.79
  -1  -3   5   30.45    1.58
   1  -3  -5   26.41    1.42
  -1   3   5   28.79    2.23
   1   3  -5   28.22    1.58
   1   3  -5   28.24    1.30
   1  -3   5    9.64    1.03
  -1  -3  -5    8.25    0.91
   1   3   5   10.54    1.46
   1   3   5    7.99    1.60
  -1   3  -5    6.67    0.82
  -1   3  -5    9.23    0.68
   3  -3   5   42.23    2.07
  -3  -3  -5   42.70    1.95
  -3   3  -5   41.83    1.76
   3   3   5   38.14    2.27
   3   3   5   42.88    3.14
  -5  -3  -5   41.73    1.96
   5  -3   5   42.52    2.13
   5  -3   5   41.05    2.73
   5   3   5   40.87    3.14
  -5   3  -5   41.36    1.80
   7  -3   5   10.84    1.91
  -7  -3  -5    8.88    1.01
   7  -3   5   10.87    1.19
  -7   3  -5    9.80    0.99
   7   3   5   13.22    2.38
  -9  -3  -5   23.65    1.49
   9  -3   5   25.40    1.68
   9  -3   5   23.23    2.55
   9   3   5   25.11    2.70
  -9   3  -5   25.27    1.44
  11  -3   5    9.82    1.27
  11  -3   5    6.48    1.93
 -11  -3  -5    6.35    0.90
  11   3   5    7.43    2.00
 -11   3  -5    7.39    0.96
  13  -3   5    8.44    1.25
 -13  -3  -5   10.94    1.24
  13  -3   5    5.50    1.93
  13   3   5    6.71    1.97
 -13   3  -5   10.48    1.19
 -18   4   5   12.56    2.71
  18   4  -5   16.71    2.57
 -16  -4   5   10.16    1.13
  16  -4  -5    9.82    3.06
  16   4  -5   16.08    2.38
 -16   4   5   10.43    2.35
  14  -4  -5   14.05    3.48
 -14  -4   5   12.77    1.22
  14   4  -5   11.71    1.84
 -14   4   5   10.65    2.25
 -12  -4   5   18.80    1.20
  12  -4  -5   16.41    3.57
 -12   4   5   15.37    2.54
  12   4  -5   15.57    1.95
  10  -4  -5   10.86    2.86
 -10  -4   5   11.62    0.90
 -10   4   5   12.21    2.17
  10   4  -5   12.05    1.62
  -8  -4   5   56.59    2.48
   8  -4  -5   53.91    2.27
   8  -4  -5   53.36    4.80
  -8  -4   5   54.67    2.19
  -8   4   5   53.77    3.81
   8   4  -5   53.07    2.89
  -6  -4   5   31.61    1.51
   6  -4  -5   33.20    1.65
  -6  -4   5   31.73    1.78
   6  -4  -5   24.26    3.60
  -6   4   5   35.84    2.93
   6   4  -5   33.64    1.58
   6   4  -5   30.52    2.00
   4  -4  -5    5.33    1.64
   4  -4  -5    8.66    0.96
  -4  -4   5    6.40    0.88
   4   4  -5    6.67    1.01
   4   4  -5    6.00    0.69
  -4   4   5    7.12    1.55
   2  -4  -5   50.26    4.00
   2  -4  -5   51.38    2.27
  -2  -4   5   49.62    2.40
   2   4  -5   48.47    2.47
   2   4  -5   52.30    2.06
  -2   4   5   56.50    3.44
   0  -4  -5   35.26    1.80
   0  -4   5   32.07    1.89
   0  -4  -5   34.15    3.17
   0   4   5   36.92    2.62
   0   4  -5   36.95    1.59
   0   4  -5   33.57    1.89
   2  -4   5   22.33    1.53
  -2  -4  -5   24.30    1.46
  -2   4  -5   21.24    1.19
  -2   4  -5   22.36    1.45
   2   4   5   20.86    1.86
   2   4   5   25.05    2.53
   4  -4   5   33.66    1.98
  -4  -4  -5   34.95    1.87
   4   4   5   35.60    2.25
  -4   4  -5   35.48    1.66
   4   4   5   34.33    2.98
   6  -4   5   11.54    1.33
  -6  -4  -5    7.47    0.98
   6   4   5    7.71    1.78
  -6   4  -5   10.80    0.86
   8  -4   5   13.34    1.47
  -8  -4  -5   12.13    1.08
  -8   4  -5   13.69    1.02
   8   4   5   11.10    2.28
 -10  -4  -5   45.98    2.33
  10  -4   5   43.75    2.50
 -10   4  -5   43.16    2.12
  12  -4   5    3.45    0.84
 -12  -4  -5    2.66    0.66
  12   4   5    4.23    1.69
 -12   4  -5    3.03    0.65
 -15  -5   5    7.10    0.93
  15  -5  -5    4.56    2.41
 -15   5   5    7.96    2.16
  15   5  -5    7.67    1.71
  13  -5  -5   12.30    3.23
 -13  -5   5   21.33    1.37
  13   5  -5   19.67    2.42
 -13   5   5   23.07    3.50
 -11  -5   5    9.86    1.01
  11  -5  -5    6.85    2.42
  11   5  -5   12.76    1.82
 -11   5   5   12.25    2.39
   9  -5  -5    6.23    2.14
  -9  -5   5    8.43    0.92
   9   5  -5    5.72    1.14
  -9   5   5    4.77    1.44
  -7  -5   5   23.14    1.30
  -7  -5   5   24.02    1.64
   7  -5  -5   14.30    3.01
   7  -5  -5   20.93    1.42
   7   5  -5   22.74    1.86
  -7   5   5   22.63    3.05
  -5  -5   5   11.87    1.37
   5  -5  -5    9.90    2.37
   5  -5  -5    8.90    1.06
   5   5  -5    8.48    1.26
   5   5  -5   10.54    1.03
  -5   5   5    8.17    1.74
   3  -5  -5   36.36    3.63
  -3  -5   5   34.04    2.08
   3  -5  -5   32.51    1.87
  -3   5   5   34.72    2.90
   3   5  -5   33.90    1.60
   3   5  -5   31.96    2.10
  -1  -5   5   16.47    1.38
   1  -5  -5   14.34    2.67
   1  -5  -5   15.76    1.25
  -1   5   5   16.10    2.24
   1   5  -5   15.70    1.02
   1   5  -5   14.95    1.38
   1  -5   5    4.47    0.84
  -1  -5  -5    7.47    1.03
   1   5   5    8.39    1.94
   1   5   5    4.17    1.13
  -1   5  -5    5.95    0.73
  -1   5  -5    7.67    1.20
   3  -5   5   21.23    1.65
  -3  -5  -5   21.08    1.50
   3   5   5   24.16    2.62
   3   5   5   19.62    2.30
  -3   5  -5   21.26    1.26
   5  -5   5   23.45    1.78
  -5  -5  -5   21.16    1.56
   5   5   5   25.86    2.73
  -5   5  -5   22.13    1.34
  -7  -5  -5    6.81    0.97
   7  -5   5    6.06    1.08
  -7   5  -5    5.21    0.77
   7   5   5    5.03    1.61
   9  -5   5   13.67    1.67
  -9  -5  -5   14.05    1.26
   9   5   5   11.92    2.49
  -9   5  -5   17.24    1.24
 -11  -5  -5    5.77    0.98
  11  -5   5    4.63    1.01
 -11   5  -5    3.46    0.68
  11   5   5    2.64    1.42
  14  -6  -5    2.77    2.14
 -14  -6   5    5.30    0.83
 -14   6   5    7.40    3.29
  12  -6  -5   10.22    2.89
 -12  -6   5    7.87    1.02
 -12   6   5    7.58    2.15
  12   6  -5   10.34    1.79
 -10  -6   5    4.12    0.71
  10  -6  -5    5.47    2.35
  10   6  -5    6.43    1.28
 -10   6   5    3.85    1.66
  -8  -6   5   20.54    1.32
   8  -6  -5   24.89    3.02
   8  -6  -5   15.79    3.37
  -8  -6   5   21.31    1.67
  -8   6   5   19.07    2.83
   8   6  -5   22.87    2.04
  -6  -6   5   10.99    1.47
  -6  -6   5   12.97    1.00
   6  -6  -5   12.32    2.87
   6  -6  -5   13.14    1.42
   6   6  -5   10.61    1.63
  -6   6   5   10.54    2.09
   4  -6  -5    3.52    0.76
   4  -6  -5    2.30    1.47
  -4  -6   5    3.46    0.83
   4   6  -5    3.40    0.91
  -4   6   5    2.77    1.18
   4   6  -5    2.55    0.50
   2  -6  -5   20.60    3.38
  -2  -6   5   19.35    1.66
   2  -6  -5   18.79    1.53
   2   6  -5   19.93    1.23
  -2   6   5   21.87    2.82
   2   6  -5   22.54    1.89
   0  -6  -5   13.30    1.46
   0  -6   5   13.88    1.65
   0   6  -5   13.69    1.01
   0   6   5   11.06    2.30
   0   6   5   14.04    2.12
   0   6  -5   13.73    1.70
  -2  -6  -5    8.63    1.21
   2  -6   5    9.54    1.46
   2   6   5   10.71    2.22
  -2   6  -5    9.96    1.03
   2   6   5    8.84    1.64
   4  -6   5   14.90    1.73
  -4  -6  -5   12.69    1.45
   4   6   5   15.15    2.05
  -4   6  -5   15.97    1.13
   4   6   5   17.56    2.87
   6  -6   5    3.90    0.98
  -6  -6  -5    5.99    1.03
  -6   6  -5    5.35    0.82
   6   6   5    5.15    1.66
   8  -6   5    4.59    1.07
  -8  -6  -5    2.35    0.68
  -8   6  -5    4.36    0.73
   8   6   5    3.14    1.47
 -11  -7   5    5.25    0.87
  11  -7  -5    3.88    2.48
  -9  -7   5    5.85    0.87
   9  -7  -5    7.75    2.77
  -9   7   5    3.30    1.45
   9   7  -5    3.73    1.13
   7  -7  -5   14.15    1.66
  -7  -7   5   11.22    1.53
  -7  -7   5   13.11    1.24
   7  -7  -5   10.56    2.91
  -7   7   5   13.36    2.57
   7   7  -5   15.29    2.06
   5  -7  -5    6.76    2.17
  -5  -7   5    8.36    1.37
   5  -7  -5    8.38    1.27
  -5  -7   5    8.20    0.97
   5   7  -5    8.36    1.49
  -5   7   5    7.75    1.92
   3  -7  -5   18.65    3.49
   3  -7  -5   21.16    1.74
  -3  -7   5   19.65    2.13
   3   7  -5   22.95    2.53
   3   7  -5   19.88    1.32
  -3   7   5   15.87    2.67
  -1  -7   5    8.72    1.40
   1  -7  -5   14.29    1.69
  -1   7   5   11.35    2.10
   1   7  -5   11.68    1.80
   1   7  -5    9.60    1.01
   1  -7   5    4.40    1.03
  -1  -7  -5    6.61    1.16
  -1   7  -5    4.38    1.07
  -1   7  -5    5.88    0.81
   1   7   5    4.47    1.42
   3  -7   5   14.49    1.95
  -3  -7  -5   12.75    1.56
   3   7   5   13.93    2.10
  -3   7  -5   14.51    1.13
  -5  -7  -5   12.39    1.56
   5  -7   5   13.25    1.94
  -5   7  -5   11.13    1.15
 -20   0   6   11.39    1.21
  20   0  -6   14.91    4.25
  20   0  -6    6.26    2.04
 -18   0   6    2.88    0.61
  18   0  -6    1.66    1.77
  18   0  -6    1.71    1.10
  16   0  -6    3.32    2.09
 -16   0   6    3.27    0.59
  16   0  -6    2.29    1.15
 -14   0   6   62.82    2.39
  14   0  -6   50.06    4.99
  14   0  -6   59.90    4.05
  12   0  -6   28.25    2.59
 -12   0   6   31.97    1.46
  12   0  -6   36.13    3.85
  10   0  -6    7.76    1.50
 -10   0   6    8.04    0.62
  10   0  -6    6.93    1.98
   8   0  -6   56.06    3.33
  -8   0   6   56.75    2.03
   8   0  -6   59.38    4.25
   6   0  -6   56.74    3.19
   6   0  -6   65.51    4.14
  -6   0   6   58.32    2.00
   6   0  -6   55.99    1.98
   4   0  -6  102.37    5.06
   4   0  -6   97.79    3.08
   4   0  -6   90.25    4.12
   4   0  -6   93.33    2.98
   2   0  -6   86.56    4.48
   2   0  -6   91.08    3.82
   2   0  -6   91.93    2.96
   2   0  -6   84.11    2.78
   0   0  -6   17.90    0.87
   0   0   6   18.05    1.35
   0   0  -6   17.54    0.98
   0   0   6   14.99    1.64
  -2   0  -6  104.76    3.33
  -2   0  -6  106.97    3.54
   2   0   6  100.76    4.83
  -4   0  -6  121.25    4.14
   4   0   6  133.62    5.79
  -4   0  -6  122.36    3.94
  -6   0  -6   34.05    1.68
   6   0   6   37.83    2.87
  -6   0  -6   33.59    1.57
   8   0   6   44.63    3.52
  -8   0  -6   51.98    2.24
  -8   0  -6   47.14    2.06
 -10   0  -6   49.98    2.32
 -10   0  -6   50.60    2.23
 -12   0  -6   33.53    1.87
  12   0   6   32.52    3.49
 -12   0  -6   32.42    1.78
 -14   0  -6   41.98    2.20
  14   0   6   42.72    4.31
  19  -1  -6   21.75    4.80
 -19  -1   6   24.14    1.55
  19   1  -6   23.99    4.78
 -19   1   6   25.19    3.58
 -19   1   6   21.28    1.45
  19   1  -6   24.93    3.42
  17  -1  -6    6.51    2.71
 -17  -1   6    9.01    1.02
  17   1  -6    9.13    2.78
 -17   1   6    8.54    0.97
 -17   1   6   10.34    2.18
  17   1  -6    7.20    1.84
  15  -1  -6    8.71    2.74
 -15  -1   6    9.04    0.96
  15   1  -6    7.64    1.68
 -15   1   6    9.31    0.94
 -15   1   6    6.06    1.58
  15   1  -6    9.00    2.63
  13  -1  -6   19.21    2.77
  13  -1  -6   14.79    3.33
 -13  -1   6   15.37    1.01
 -13   1   6   16.18    0.98
  13   1  -6   17.20    2.34
  13   1  -6   11.04    2.59
  11  -1  -6   12.69    2.93
 -11  -1   6    9.48    0.74
  11  -1  -6    7.05    1.58
  11   1  -6   10.83    1.66
  11   1  -6    8.45    2.08
 -11   1   6    9.91    0.69
   9  -1  -6   86.36    5.67
   9  -1  -6   81.56    4.49
  -9  -1   6   79.49    2.76
  -9   1   6   77.61    2.63
   9   1  -6   80.96    4.00
   9   1  -6   84.53    5.04
   7  -1  -6   59.46    1.96
   7  -1  -6   51.59    3.31
  -7  -1   6   56.38    2.04
  -7  -1   6   54.75    2.04
   7  -1  -6   53.56    4.16
   7   1  -6   60.72    3.86
   7   1  -6   61.25    3.14
  -7   1   6   61.40    3.44
  -7   1   6   53.73    1.91
   5  -1  -6    2.97    0.42
  -5  -1   6    3.33    0.45
   5  -1  -6    2.29    1.02
  -5   1   6    2.44    0.82
   5   1  -6    3.02    0.96
   5   1  -6    2.16    0.64
   5   1  -6    1.96    0.34
  -5   1   6    2.71    0.33
   3  -1  -6   94.30    2.95
   3  -1  -6  100.55    3.25
   3  -1  -6   95.70    5.20
  -3   1   6  105.87    4.42
   3   1  -6   99.47    4.57
   3   1  -6   96.61    3.15
   3   1  -6   95.94    3.93
   3   1  -6  103.33    3.26
   1  -1  -6   88.21    4.75
   1  -1  -6   85.41    2.63
  -1  -1   6   83.93    3.92
   1  -1  -6   85.77    2.96
   1   1  -6   83.28    2.94
  -1   1   6   87.79    3.81
   1   1  -6   82.18    3.40
   1   1  -6   90.29    2.85
  -1  -1  -6   48.50    1.95
  -1  -1  -6   47.88    1.66
   1  -1   6   47.37    2.76
   1   1   6   44.39    3.11
  -1   1  -6   44.91    1.91
  -1   1  -6   45.92    1.79
   1   1   6   44.20    2.37
   3  -1   6   62.83    3.49
  -3  -1  -6   63.51    2.19
  -3  -1  -6   62.16    2.46
   3   1   6   58.63    3.70
  -3   1  -6   67.40    2.51
  -3   1  -6   63.13    2.32
  -5  -1  -6   28.69    1.33
  -5  -1  -6   29.25    1.53
   5  -1   6   28.30    2.41
   5   1   6   32.36    2.72
  -5   1  -6   30.09    1.56
  -5   1  -6   31.05    1.45
   7  -1   6   43.87    3.29
  -7  -1  -6   46.54    1.94
  -7  -1  -6   45.99    2.11
   7   1   6   52.06    3.62
  -7   1  -6   49.60    2.06
  -7   1  -6   45.73    2.14
  -9  -1  -6   76.99    3.14
  -9  -1  -6   82.54    3.03
   9  -1   6   82.67    5.00
  -9   1  -6   81.22    3.09
  -9   1  -6   81.45    3.21
   9   1   6   78.95    5.05
  11  -1   6   14.52    1.24
  11  -1   6   22.86    3.51
 -11  -1  -6   15.73    1.21
 -11  -1  -6   17.59    1.20
 -11   1  -6   18.28    1.25
 -11   1  -6   18.54    1.31
  11   1   6   17.60    3.05
  13  -1   6   21.93    3.56
 -13  -1  -6   22.41    1.48
  13  -1   6   19.33    1.52
 -13  -1  -6   21.14    1.47
  13   1   6   25.63    3.81
 -13   1  -6   21.94    1.47
  18  -2  -6    0.99    1.87
 -18  -2   6    1.53    0.47
 -18   2   6    1.55    1.34
  18   2  -6    3.10    1.32
  16  -2  -6    2.36    1.78
 -16  -2   6    2.88    0.60
  16   2  -6    1.85    0.98
 -16   2   6    3.28    1.36
 -14  -2   6   46.84    2.07
  14  -2  -6   49.51    5.20
 -14   2   6   44.77    3.69
  14   2  -6   46.31    3.31
 -12  -2   6   20.74    1.20
  12  -2  -6   16.66    3.49
  12   2  -6   24.11    2.59
 -12   2   6   17.03    2.53
  10  -2  -6    5.11    1.84
 -10  -2   6    3.56    0.53
  10   2  -6    3.85    1.05
 -10   2   6    2.58    0.96
  -8  -2   6   34.70    1.52
   8  -2  -6   39.76    3.80
  -8  -2   6   36.12    1.60
  -8   2   6   34.48    2.77
   8   2  -6   33.08    2.24
   6  -2  -6   29.53    3.18
  -6  -2   6   31.68    1.49
   6  -2  -6   30.84    1.36
   6   2  -6   31.37    1.44
   6   2  -6   32.39    2.03
  -6   2   6   31.83    2.51
  -4  -2   6   55.60    2.30
   4  -2  -6   59.77    2.22
   4  -2  -6   57.28    4.20
  -4   2   6   62.35    3.50
   4   2  -6   63.21    2.22
   4   2  -6   59.32    3.88
   4   2  -6   59.07    2.79
  -2  -2   6   50.97    2.57
   2  -2  -6   52.56    2.09
  -2  -2   6   55.23    2.24
   2  -2  -6   54.36    3.90
   2   2  -6   55.80    2.03
   2   2  -6   48.67    2.39
  -2   2   6   49.20    2.99
   0  -2   6    7.32    1.14
   0  -2  -6    7.53    0.79
   0  -2   6    7.93    0.86
   0   2   6    6.58    1.60
   0   2   6    7.07    1.21
   0   2  -6    7.01    0.90
   0   2  -6    7.35    0.74
   2  -2   6   58.30    2.56
  -2  -2  -6   65.64    2.54
   2  -2   6   66.08    3.25
   2   2   6   65.29    3.99
  -2   2  -6   64.28    2.38
  -4  -2  -6   78.53    3.06
   4  -2   6   83.04    3.21
   4  -2   6   79.26    4.05
   4   2   6   84.74    4.74
  -4   2  -6   79.86    2.91
  -6  -2  -6   22.34    1.37
   6  -2   6   23.19    2.22
   6  -2   6   17.66    1.30
  -6   2  -6   20.90    1.22
   6   2   6   25.29    3.21
  -8  -2  -6   33.59    1.77
   8  -2   6   32.97    1.86
   8  -2   6   30.26    2.80
  -8   2  -6   31.26    1.64
   8   2   6   25.45    2.76
  10  -2   6   31.65    1.93
  10  -2   6   36.44    3.33
 -10  -2  -6   31.87    1.81
 -10   2  -6   31.15    1.72
 -12  -2  -6   22.65    1.51
  12  -2   6   19.69    1.57
  12  -2   6   21.12    3.52
  12   2   6   20.84    3.45
 -12   2  -6   17.95    1.35
  14  -2   6   23.91    3.89
 -17  -3   6    7.37    0.99
  17  -3  -6    4.50    2.55
  17   3  -6    5.54    1.51
 -17   3   6    6.59    1.93
 -15  -3   6    7.72    0.94
  15  -3  -6   11.89    3.42
  15   3  -6    8.11    1.66
 -15   3   6    7.83    1.96
  13  -3  -6   16.93    3.70
 -13  -3   6   15.96    1.11
  13   3  -6   13.66    1.98
 -13   3   6   17.55    2.71
  11  -3  -6    7.97    2.42
 -11  -3   6    8.71    0.87
 -11   3   6    7.23    1.71
  11   3  -6    8.84    1.44
  -9  -3   6   58.65    2.37
   9  -3  -6   64.76    5.37
  -9   3   6   65.78    4.22
   9   3  -6   65.03    3.34
   7  -3  -6   45.61    1.88
   7  -3  -6   49.62    4.45
  -7  -3   6   46.70    2.07
  -7  -3   6   44.63    1.88
   7   3  -6   45.86    2.58
  -7   3   6   41.64    3.22
   5  -3  -6    3.09    1.39
   5  -3  -6    4.97    0.64
  -5  -3   6    5.24    0.76
   5   3  -6    3.44    0.51
   5   3  -6    3.53    0.76
  -5   3   6    3.94    1.26
   3  -3  -6   70.31    4.90
   3  -3  -6   72.71    2.76
  -3  -3   6   75.75    2.96
  -3   3   6   73.20    4.06
   3   3  -6   73.31    3.17
   1  -3  -6   66.46    2.61
  -1  -3   6   67.78    2.79
   1  -3  -6   64.44    4.51
  -1   3   6   61.85    3.58
   1   3  -6   66.53    2.84
   1   3  -6   65.36    2.44
   1  -3   6   34.99    1.89
  -1  -3  -6   34.90    1.74
  -1   3  -6   34.17    1.59
   1   3   6   37.80    2.46
   1   3   6   38.88    3.19
   3  -3   6   54.97    2.53
  -3  -3  -6   52.22    2.33
  -3   3  -6   54.39    2.19
   3   3   6   50.80    3.74
   5  -3   6   23.25    1.58
  -5  -3  -6   24.06    1.49
   5   3   6   23.95    2.54
  -5   3  -6   24.86    1.37
   7  -3   6   36.36    2.10
  -7  -3  -6   39.70    2.02
  -7   3  -6   37.57    1.82
   7   3   6   32.28    3.19
   9  -3   6   61.38    2.98
  -9  -3  -6   61.18    2.78
   9   3   6   60.23    4.46
  -9   3  -6   60.36    2.61
  11  -3   6   12.80    1.51
 -11  -3  -6   12.77    1.37
  11   3   6   10.63    2.37
 -11   3  -6   13.78    1.34
  13  -3   6   13.78    1.60
 -13  -3  -6   15.08    1.30
 -16  -4   6    3.98    0.71
  16  -4  -6    3.77    2.23
 -16   4   6    2.02    1.48
  16   4  -6    3.18    1.14
 -14  -4   6   32.90    1.75
  14  -4  -6   30.02    5.16
  14   4  -6   30.08    2.59
 -14   4   6   25.89    3.55
  12  -4  -6   20.22    4.17
 -12  -4   6   20.11    1.28
 -12   4   6   18.89    3.00
  12   4  -6   16.05    2.09
  10  -4  -6    5.38    2.05
 -10  -4   6    6.33    0.76
  10   4  -6    7.40    1.36
 -10   4   6    6.63    1.68
  -8  -4   6   31.95    1.60
  -8  -4   6   34.02    1.87
   8  -4  -6   36.90    5.03
  -8   4   6   34.67    3.12
   8   4  -6   32.20    2.24
   6  -4  -6   26.55    3.98
  -6  -4   6   31.12    1.80
   6  -4  -6   32.53    1.65
   6   4  -6   31.56    2.10
  -6   4   6   32.27    2.90
   6   4  -6   29.14    1.53
   4  -4  -6   49.30    4.33
   4  -4  -6   49.57    2.24
  -4  -4   6   49.17    2.41
  -4   4   6   48.49    3.51
   4   4  -6   52.40    2.11
   4   4  -6   51.76    2.68
  -2  -4   6   45.76    2.34
   2  -4  -6   43.47    2.12
   2  -4  -6   45.20    4.00
   2   4  -6   44.91    2.39
   2   4  -6   45.37    1.95
  -2   4   6   46.36    3.23
   0  -4  -6   13.26    1.07
   0  -4   6   10.32    1.24
   0   4   6   15.55    2.66
   0   4   6   12.12    1.81
   0   4  -6   11.43    0.86
   0   4  -6   12.10    1.31
  -2  -4  -6   53.41    2.45
   2  -4   6   52.79    2.62
   2   4   6   46.75    3.78
   2   4   6   50.39    3.07
  -2   4  -6   55.16    2.24
  -4  -4  -6   63.93    2.83
   4  -4   6   64.38    3.06
  -4   4  -6   65.43    2.64
   4   4   6   70.00    4.58
  -6  -4  -6   17.64    1.33
   6  -4   6   16.46    1.45
  -6   4  -6   17.80    1.20
   6   4   6   23.00    3.29
  -8  -4  -6   31.10    1.87
   8  -4   6   26.90    1.94
   8   4   6   32.77    3.32
  -8   4  -6   27.76    1.62
  10  -4   6   27.06    1.96
 -10  -4  -6   24.27    1.69
 -10   4  -6   24.04    1.54
 -12  -4  -6   15.87    1.39
  12  -4   6   16.09    1.90
  15  -5  -6    1.20    1.94
 -15  -5   6    4.53    0.78
  15   5  -6    4.46    1.32
 -15   5   6    5.72    1.89
  13  -5  -6    6.97    2.61
 -13  -5   6    6.60    0.88
  13   5  -6    7.54    1.56
 -13   5   6    6.98    2.03
  11  -5  -6    3.34    1.88
 -11  -5   6    4.85    0.77
  11   5  -6    4.09    1.10
 -11   5   6    6.78    1.90
  -9  -5   6   32.76    1.70
   9  -5  -6   30.48    4.80
   9   5  -6   33.81    2.46
  -9   5   6   31.72    3.78
   7  -5  -6   23.83    1.50
  -7  -5   6   23.47    1.36
   7  -5  -6   18.18    3.56
  -7  -5   6   20.40    1.58
   7   5  -6   22.73    1.91
  -7   5   6   21.05    3.03
  -5  -5   6    1.69    0.60
   5  -5  -6    2.20    0.55
   5  -5  -6    1.37    1.13
   5   5  -6    2.32    0.75
   5   5  -6    2.35    0.47
  -5   5   6    2.83    1.24
   3  -5  -6   41.73    2.14
  -3  -5   6   38.59    2.26
   3  -5  -6   29.80    4.16
   3   5  -6   35.63    2.32
   3   5  -6   38.39    1.82
  -3   5   6   39.78    3.23
   1  -5  -6   29.65    1.81
   1  -5  -6   31.88    3.49
  -1  -5   6   31.36    2.01
  -1   5   6   30.08    2.70
   1   5  -6   27.68    1.95
   1   5  -6   31.60    1.60
  -1  -5  -6   17.00    1.37
   1  -5   6   17.72    1.53
  -1   5  -6   19.43    1.21
   1   5   6   21.43    3.19
   1   5   6   18.20    2.33
   3  -5   6   31.96    2.11
  -3  -5  -6   27.20    1.80
   3   5   6   32.47    3.20
  -3   5  -6   27.43    1.56
   5  -5   6   13.45    1.62
  -5  -5  -6   14.69    1.27
   5   5   6   12.80    2.40
  -5   5  -6   12.75    1.03
  -7  -5  -6   18.75    1.46
   7  -5   6   18.95    1.69
   7   5   6   13.66    2.65
  -7   5  -6   15.48    1.21
  -9  -5  -6   29.67    1.94
   9  -5   6   26.62    2.10
   9   5   6   27.32    3.90
  -9   5  -6   26.24    1.65
  12  -6  -6    4.69    2.44
 -12  -6   6    8.56    1.04
  12   6  -6    9.00    1.70
 -12   6   6    9.75    2.38
  10  -6  -6    2.73    1.90
 -10  -6   6    3.84    0.73
  10   6  -6    1.08    0.72
 -10   6   6    3.55    1.60
  -8  -6   6   16.43    1.21
   8  -6  -6   13.94    3.21
  -8  -6   6   14.01    2.32
   8   6  -6   15.34    2.03
  -8   6   6   12.51    2.47
   6  -6  -6   10.33    1.26
  -6  -6   6    9.15    1.01
   6  -6  -6    8.25    2.44
  -6  -6   6   14.46    1.66
  -6   6   6   14.55    2.57
   6   6  -6   11.79    1.76
   4  -6  -6   19.33    1.53
  -4  -6   6   21.23    1.75
   4  -6  -6   19.73    3.58
   4   6  -6   19.56    1.29
  -4   6   6   19.88    2.89
   4   6  -6   17.98    2.07
   2  -6  -6   17.82    1.47
  -2  -6   6   17.27    1.92
   2  -6  -6   16.73    3.18
  -2   6   6   19.07    2.81
   2   6  -6   18.91    2.09
   2   6  -6   17.05    1.19
   0  -6  -6    4.89    0.90
   0  -6   6    4.71    1.01
   0   6  -6    4.33    0.71
   0   6   6    5.62    1.44
   0   6   6    3.75    1.51
   2  -6   6   23.66    1.93
  -2  -6  -6   21.70    1.69
  -2   6  -6   23.19    1.43
   2   6   6   20.58    2.59
   2   6   6   23.16    3.33
  -4  -6  -6   21.12    1.67
   4  -6   6   22.39    1.89
  -4   6  -6   18.11    1.30
   4   6   6   17.21    2.93
   6  -6   6    8.55    1.41
  -6  -6  -6    7.16    1.18
  -6   6  -6    6.42    0.89
   6   6   6    7.69    2.09
  -9  -7   6   19.11    1.39
   9  -7  -6   10.71    3.16
   7  -7  -6   11.18    2.03
  -7  -7   6   12.44    1.24
  -7  -7   6    9.62    1.46
   7  -7  -6   10.35    2.99
   7   7  -6   11.08    1.80
  -7   7   6   13.43    2.59
   5  -7  -6    1.57    1.65
  -5  -7   6    2.81    0.82
   5  -7  -6    3.00    0.79
  -5  -7   6    2.06    0.57
  -5   7   6    0.86    1.04
   5   7  -6    3.67    1.10
   3  -7  -6   19.96    1.70
   3  -7  -6   19.37    3.61
  -3  -7   6   21.26    1.92
   3   7  -6   17.36    2.22
  -3   7   6   19.45    2.95
   3   7  -6   19.14    1.36
  -1  -7   6   15.28    1.88
   1  -7  -6   15.54    1.78
   1   7  -6   15.90    1.21
  -1   7   6   18.59    3.37
  -1   7   6   13.41    2.27
   1   7  -6   15.64    2.02
  -1  -7  -6    7.55    1.21
   1  -7   6    7.79    1.39
   1   7   6    6.87    1.69
  -1   7  -6    9.27    1.08
   1   7   6    9.48    2.23
  -3   7  -6   12.46    1.23
   3   7   6   16.51    2.95
 -18   0   7   44.00    2.17
  18   0  -7   45.19    6.67
  18   0  -7   51.23    4.37
 -16   0   7   16.49    1.13
  16   0  -7   10.42    3.15
  16   0  -7   14.88    2.55
  14   0  -7   43.68    5.70
 -14   0   7   47.07    2.04
  14   0  -7   49.88    3.81
  12   0  -7   38.93    3.16
  12   0  -7   36.87    4.97
 -12   0   7   38.10    1.67
 -10   0   7   91.22    3.08
  10   0  -7   87.93    5.93
  10   0  -7   94.32    4.96
   8   0  -7  119.41    5.57
  -8   0   7  120.67    3.75
   8   0  -7  119.09    6.62
   6   0  -7   48.26    3.05
   6   0  -7   52.83    3.86
   6   0  -7   46.05    1.80
  -6   0   7   47.32    1.77
   4   0  -7   40.91    3.22
   4   0  -7   41.46    1.58
   4   0  -7   41.75    1.70
   4   0  -7   38.33    2.58
  -2   0   7  227.39    8.85
   2   0  -7  218.19    7.80
   2   0  -7  227.45    6.46
   2   0  -7  221.05    6.66
   0   0  -7   64.59    2.53
   0   0   7   70.84    3.92
   0   0  -7   67.42    2.34
  -2   0  -7   76.86    2.87
  -2   0  -7   72.92    2.62
   2   0   7   78.61    4.27
   4   0   7   61.52    3.87
  -4   0  -7   61.05    2.31
  -4   0  -7   60.59    2.52
   6   0   7   38.04    3.13
  -6   0  -7   41.72    1.85
  -6   0  -7   43.51    2.05
  -8   0  -7   78.99    3.04
   8   0   7   76.79    4.98
  -8   0  -7   81.07    3.24
  10   0   7   39.78    3.69
 -10   0  -7   35.86    1.99
 -10   0  -7   38.16    1.93
 -12   0  -7    5.24    0.84
  12   0   7    5.75    1.94
 -12   0  -7    4.84    0.85
 -19  -1   7   16.72    1.31
  19  -1  -7   11.39    3.71
  19   1  -7   18.94    3.13
 -19   1   7   15.71    1.77
 -19   1   7    9.81    2.35
 -17  -1   7    6.15    0.83
  17  -1  -7    6.78    2.65
 -17   1   7    7.51    1.95
  17   1  -7    6.95    1.87
 -17   1   7    7.31    0.90
 -15  -1   7   60.62    2.51
  15  -1  -7   61.73    5.99
  15   1  -7   51.24    5.28
  15   1  -7   62.56    4.29
 -15   1   7   64.15    2.49
 -15   1   7   60.06    4.40
  13  -1  -7   57.02    5.49
 -13  -1   7   63.10    2.41
  13  -1  -7   56.93    4.20
  13   1  -7   59.65    5.04
  13   1  -7   51.40    3.72
 -13   1   7   60.42    2.28
 -13   1   7   58.55    4.13
 -11  -1   7   22.31    1.24
  11  -1  -7   24.08    4.06
  11  -1  -7   27.31    3.19
 -11   1   7   25.01    2.94
  11   1  -7   28.08    2.45
  11   1  -7   22.66    3.43
 -11   1   7   24.63    1.19
  -9  -1   7   50.77    1.97
   9  -1  -7   51.62    4.48
   9  -1  -7   50.83    3.56
   9   1  -7   53.07    3.26
   9   1  -7   49.80    3.90
  -9   1   7   47.67    3.40
  -9   1   7   50.27    1.87
  -7  -1   7   78.02    2.69
   7  -1  -7   78.45    2.63
   7  -1  -7   74.12    5.22
  -7  -1   7   79.26    2.76
  -7   1   7   76.59    4.22
   7   1  -7   77.73    3.94
  -7   1   7   79.50    2.56
   7   1  -7   79.80    4.71
  -5  -1   7   94.42    3.23
   5  -1  -7   94.99    5.61
   5  -1  -7   90.32    3.13
   5   1  -7   93.36    3.11
  -5   1   7   92.32    2.91
   5   1  -7  103.19    5.06
  -5   1   7   98.25    4.64
   5   1  -7   91.12    4.21
   3  -1  -7   99.12    5.64
   3  -1  -7  105.39    3.21
  -3  -1   7  104.78    4.99
   3  -1  -7  106.06    3.52
   3   1  -7  102.82    3.51
  -3   1   7  110.93    4.82
   3   1  -7  102.28    4.37
   3   1  -7  107.90    3.44
   1  -1  -7   37.39    1.37
  -1  -1   7   36.48    2.50
   1  -1  -7   32.89    1.58
  -1   1   7   27.69    2.71
   1   1  -7   35.70    2.13
  -1   1   7   33.48    2.29
   1   1  -7   37.30    1.52
   1   1  -7   33.38    1.61
  -1  -1  -7   48.75    2.08
   1  -1   7   44.06    2.90
  -1  -1  -7   48.42    1.77
  -1   1  -7   48.79    2.10
  -1   1  -7   48.48    1.93
   1   1   7   50.71    3.47
   3  -1   7  148.51    6.45
  -3  -1  -7  154.55    4.65
  -3  -1  -7  150.17    5.01
   3   1   7  161.73    7.05
  -3   1  -7  150.30    5.03
  -3   1  -7  148.35    4.79
   5  -1   7   23.07    2.36
  -5  -1  -7   30.99    1.63
  -5  -1  -7   27.41    1.35
   5   1   7   28.27    2.73
  -5   1  -7   30.56    1.65
  -5   1  -7   29.45    1.47
   7  -1   7   28.60    2.81
  -7  -1  -7   30.87    1.73
  -7  -1  -7   31.73    1.57
   7   1   7   33.58    3.09
  -7   1  -7   34.82    1.70
  -7   1  -7   31.54    1.77
  -9  -1  -7   36.30    1.97
   9  -1   7   41.92    3.60
  -9  -1  -7   37.72    1.83
   9   1   7   32.74    3.37
  -9   1  -7   36.38    1.98
  -9   1  -7   33.72    1.83
 -11  -1  -7   24.73    1.62
 -11  -1  -7   23.09    1.49
  11  -1   7   30.53    4.20
  11   1   7   23.37    3.68
 -11   1  -7   23.68    1.53
  13  -1   7   23.75    1.80
 -13  -1  -7   24.97    1.71
  13  -1   7   31.87    4.69
 -18  -2   7   28.95    1.72
  18  -2  -7   27.44    5.25
  18   2  -7   26.70    3.37
 -18   2   7   28.02    3.82
  16  -2  -7    5.47    2.55
 -16  -2   7   10.91    1.16
 -16   2   7   11.66    2.40
  16   2  -7   10.72    2.10
 -14  -2   7   30.14    1.58
  14  -2  -7   22.15    4.20
 -14   2   7   28.74    3.56
  14   2  -7   31.26    2.83
 -12  -2   7   24.52    1.35
  12  -2  -7   19.49    3.73
  12   2  -7   23.73    2.66
 -12   2   7   22.14    2.98
 -10  -2   7   60.05    2.34
  10  -2  -7   58.65    5.19
  10   2  -7   59.29    3.52
 -10   2   7   61.91    4.10
  -8  -2   7   84.57    3.02
   8  -2  -7   87.41    6.12
  -8   2   7   92.94    4.96
   8   2  -7   86.62    4.21
  -6  -2   7   27.43    1.45
   6  -2  -7   35.83    4.55
   6  -2  -7   27.68    1.34
  -6   2   7   27.49    2.47
   6   2  -7   28.90    2.07
   6   2  -7   26.96    1.36
   4  -2  -7   22.31    1.22
  -4  -2   7   25.10    1.37
   4  -2  -7   21.55    3.15
   4   2  -7   22.40    1.19
   4   2  -7   23.07    1.75
  -4   2   7   21.77    2.47
   2  -2  -7  160.42    7.73
   2  -2  -7  153.36    4.99
  -2  -2   7  161.38    5.18
   2   2  -7  149.71    4.85
   2   2  -7  153.02    5.59
  -2   2   7  159.29    6.44
   0  -2   7   39.43    1.93
   0  -2  -7   37.50    1.81
   0   2   7   39.32    2.56
   0   2  -7   38.80    1.70
   0   2   7   38.11    3.24
   2  -2   7   49.80    3.22
   2  -2   7   47.33    2.25
  -2  -2  -7   44.56    2.11
   2   2   7   46.83    3.57
  -2   2  -7   47.59    2.00
  -4  -2  -7   40.23    2.00
   4  -2   7   40.62    2.11
   4  -2   7   41.16    2.93
  -4   2  -7   43.01    1.90
   4   2   7   38.13    3.26
  -6  -2  -7   20.14    1.40
   6  -2   7   25.33    2.46
   6  -2   7   23.71    1.58
   6   2   7   27.21    3.53
  -6   2  -7   22.82    1.34
  -8  -2  -7   58.36    2.69
   8  -2   7   53.04    4.02
   8  -2   7   59.68    2.86
   8   2   7   65.16    4.59
  -8   2  -7   60.88    2.57
 -10  -2  -7   23.02    1.58
  10  -2   7   21.92    1.68
  10  -2   7   28.32    3.81
 -10   2  -7   27.18    1.60
  10   2   7   24.26    3.64
  12  -2   7    4.17    1.74
  12  -2   7    2.49    0.77
 -12  -2  -7    4.07    0.80
 -12   2  -7    3.12    1.04
 -17  -3   7    4.82    0.79
  17  -3  -7    5.49    2.66
  17   3  -7    4.38    1.47
 -17   3   7    6.47    2.03
  15  -3  -7   44.26    6.43
 -15  -3   7   45.09    2.14
  15   3  -7   39.03    3.27
 -15   3   7   50.36    4.26
 -13  -3   7   44.82    2.07
  13  -3  -7   33.71    5.24
 -13   3   7   50.08    4.10
  13   3  -7   40.93    3.10
 -11  -3   7   20.84    1.26
  11  -3  -7   20.91    3.72
 -11   3   7   15.11    2.54
  11   3  -7   20.97    2.37
   9  -3  -7   31.75    4.39
  -9  -3   7   36.46    1.71
  -9   3   7   32.97    3.65
   9   3  -7   40.29    2.68
  -7  -3   7   53.38    2.26
  -7  -3   7   52.78    2.43
   7  -3  -7   60.78    2.28
   7  -3  -7   56.04    4.97
  -7   3   7   57.97    3.96
   7   3  -7   54.99    2.32
   7   3  -7   60.96    3.20
   5  -3  -7   61.70    4.98
   5  -3  -7   64.94    2.54
  -5  -3   7   65.68    2.75
  -5   3   7   63.83    4.05
   5   3  -7   67.64    2.54
   5   3  -7   64.22    3.23
  -3  -3   7   72.41    3.04
   3  -3  -7   76.89    5.34
   3  -3  -7   72.02    2.84
   3   3  -7   77.21    3.43
  -3   3   7   75.87    4.29
   3   3  -7   75.16    2.79
   1  -3  -7   28.04    1.51
   1  -3  -7   30.17    3.18
  -1  -3   7   23.92    1.57
   1   3  -7   25.94    1.36
  -1   3   7   22.95    3.28
  -1   3   7   24.41    2.26
   1  -3   7   36.88    2.02
  -1  -3  -7   32.82    1.80
   1   3   7   37.57    3.36
  -1   3  -7   36.81    1.72
  -3  -3  -7  112.27    4.26
   3  -3   7  123.80    4.57
  -3   3  -7  120.81    4.11
   3   3   7  119.25    6.37
  -5  -3  -7   23.91    1.55
   5  -3   7   25.55    1.71
  -5   3  -7   22.81    1.38
   5   3   7   20.45    3.09
  -7  -3  -7   27.42    1.73
   7  -3   7   24.88    1.79
  -7   3  -7   26.33    1.57
   7   3   7   31.94    3.28
   9  -3   7   29.17    2.00
  -9  -3  -7   27.84    1.80
   9   3   7   27.01    3.65
  -9   3  -7   28.56    1.68
 -11  -3  -7   19.17    1.49
  11  -3   7   16.74    1.86
  16  -4  -7    5.30    3.88
 -16  -4   7    9.11    1.55
  16   4  -7    7.48    1.93
 -16   4   7    4.00    1.72
 -14  -4   7   24.67    1.54
  14  -4  -7   18.76    4.39
  14   4  -7   25.90    2.99
 -14   4   7   21.95    3.27
 -12  -4   7   13.98    1.12
  12  -4  -7   12.38    3.07
 -12   4   7   17.23    2.91
  12   4  -7   15.32    2.11
 -10  -4   7   42.45    2.04
  10  -4  -7   47.54    5.13
 -10   4   7   44.45    3.88
  10   4  -7   50.22    3.13
   8  -4  -7   67.63    5.81
  -8  -4   7   61.75    2.54
  -8   4   7   57.64    4.31
   8   4  -7   65.66    3.52
   6  -4  -7   20.20    3.65
  -6  -4   7   24.19    1.60
   6  -4  -7   24.87    1.45
   6   4  -7   21.75    1.84
  -6   4   7   23.13    3.04
   6   4  -7   25.46    1.42
  -4  -4   7   21.11    1.51
   4  -4  -7   18.66    1.28
   4  -4  -7   19.87    3.46
  -4   4   7   15.28    2.47
   4   4  -7   22.73    1.73
   4   4  -7   19.58    1.21
   2  -4  -7  112.17    4.06
   2  -4  -7  102.83    6.64
  -2  -4   7  113.31    4.34
  -2   4   7  115.69    5.65
   2   4  -7  106.92    3.82
   2   4  -7  103.83    4.37
   0  -4  -7   32.77    1.78
   0  -4   7   29.70    1.90
   0   4  -7   29.96    1.58
   0   4   7   29.78    2.54
   0   4   7   29.31    3.17
  -2  -4  -7   37.47    1.99
   2  -4   7   29.28    2.00
  -2   4  -7   38.01    1.83
   2   4   7   39.93    3.56
   4  -4   7   33.30    2.13
  -4  -4  -7   35.51    1.99
   4   4   7   30.71    3.26
  -4   4  -7   33.64    1.77
   6  -4   7   24.40    1.81
  -6  -4  -7   18.40    1.45
   6   4   7   20.62    3.15
  -6   4  -7   22.06    1.42
  -8  -4  -7   43.29    2.39
   8  -4   7   44.84    2.65
   8   4   7   46.26    4.17
  -8   4  -7   40.35    2.15
  10  -4   7   17.87    2.07
 -10  -4  -7   20.46    1.62
  13  -5  -7   16.54    3.98
 -13  -5   7   17.74    1.35
 -13   5   7   17.13    3.08
  13   5  -7   17.56    2.34
 -11  -5   7    9.92    1.08
  11  -5  -7    7.94    2.56
 -11   5   7    8.23    2.23
  11   5  -7   10.63    1.75
   9  -5  -7   13.99    3.34
  -9  -5   7   22.66    1.38
  -9   5   7   17.50    2.98
   9   5  -7   16.36    2.07
  -7  -5   7   28.37    1.59
   7  -5  -7   24.67    4.12
  -7  -5   7   24.98    1.81
   7  -5  -7   25.70    2.77
   7   5  -7   22.95    2.04
  -7   5   7   24.72    3.40
   5  -5  -7   23.45    3.79
  -5  -5   7   29.74    1.99
   5  -5  -7   31.51    1.83
   5   5  -7   27.35    2.13
  -5   5   7   23.50    3.13
   5   5  -7   30.35    1.63
   3  -5  -7   25.03    3.82
  -3  -5   7   37.25    2.22
   3  -5  -7   34.19    1.98
  -3   5   7   33.77    3.08
   3   5  -7   35.16    2.33
   3   5  -7   34.91    1.78
  -1  -5   7   12.23    1.53
   1  -5  -7   11.88    1.33
   1   5  -7   14.01    1.06
  -1   5   7   13.24    2.81
  -1   5   7   11.20    2.03
   1  -5   7   19.64    1.63
  -1  -5  -7   14.25    1.29
  -1   5  -7   15.09    1.14
   1   5   7   15.11    2.87
   3  -5   7   49.68    2.90
  -3  -5  -7   55.05    2.68
  -3   5  -7   50.18    2.35
   3   5   7   49.64    4.22
   5  -5   7    9.09    1.42
  -5  -5  -7    9.91    1.25
  -5   5  -7   10.47    1.15
   5   5   7    8.71    2.17
  -7  -5  -7   14.45    1.57
   7  -5   7    9.39    1.50
   7   5   7   11.29    2.51
  -7   5  -7   14.36    1.40
 -10  -6   7   14.76    1.39
  10  -6  -7   12.74    3.53
 -10   6   7   15.01    2.87
  10   6  -7   15.74    2.24
  -8  -6   7   22.89    1.49
   8  -6  -7   20.69    4.14
  -8   6   7   26.56    3.68
   8   6  -7   19.87    2.33
   6  -6  -7    6.63    2.24
  -6  -6   7    9.94    1.16
   6  -6  -7    8.54    1.18
  -6  -6   7    9.40    1.41
   6   6  -7    7.83    1.02
  -6   6   7   10.32    2.30
   6   6  -7    7.67    1.44
  -4  -6   7    4.44    0.97
   4  -6  -7    7.19    1.09
   4  -6  -7    8.27    2.56
  -4   6   7    5.40    1.66
   4   6  -7    4.35    0.73
   4   6  -7    5.94    1.20
   2  -6  -7   42.55    2.46
  -2  -6   7   42.71    2.73
   2   6  -7   42.23    2.11
  -2   6   7   44.75    3.61
  -2   6   7   45.46    4.51
   0  -6  -7   11.27    1.38
   0  -6   7   12.75    1.73
   0   6  -7    9.09    1.08
   0   6   7   11.33    2.18
   0   6   7    7.31    2.05
  -2  -6  -7   12.93    1.49
   2  -6   7   10.81    1.56
   2   6   7    9.04    2.30
  -2   6  -7   10.77    1.17
   4  -6   7   12.76    1.75
  -4  -6  -7   13.73    1.64
  -4   6  -7   12.29    1.25
   4   6   7   12.89    2.68
   5  -7  -7   12.90    3.38
  -5  -7   7   12.36    1.76
   5  -7  -7   15.07    1.74
   5   7  -7   14.33    2.05
  -5   7   7   11.14    2.71
   5   7  -7   11.87    1.28
   3  -7  -7   18.91    1.69
  -3  -7   7   16.21    1.97
   3   7  -7   17.20    1.33
  -3   7   7   13.81    3.19
   3   7  -7   19.34    2.36
  -3   7   7   13.65    2.55
  -1   7   7    5.71    2.14
  -1   7   7    6.61    1.75
   1   7  -7    5.30    0.92
  18   0  -8    6.91    2.89
  18   0  -8    2.73    1.56
 -18   0   8    4.90    0.80
  16   0  -8   20.52    4.18
 -16   0   8   24.43    1.43
  16   0  -8   26.43    3.55
  14   0  -8   50.15    4.07
 -14   0   8   54.49    2.27
  14   0  -8   63.16    5.73
 -12   0   8    5.67    0.68
  12   0  -8    4.20    1.39
  12   0  -8    5.43    1.98
  10   0  -8   23.65    3.85
  10   0  -8   22.42    2.86
 -10   0   8   22.81    1.19
   8   0  -8   54.01    4.37
  -8   0   8   52.04    2.01
   8   0  -8   56.48    3.70
  -6   0   8   15.35    0.89
   6   0  -8   18.47    2.93
   6   0  -8   14.08    0.90
   6   0  -8   15.70    2.13
   4   0  -8   65.94    3.80
   4   0  -8   73.97    2.50
   4   0  -8   71.10    2.66
   4   0  -8   71.51    4.60
   2   0  -8   10.82    0.86
   2   0  -8   14.03    0.83
  -2   0   8   14.58    2.25
   0   0   8   12.06    2.04
   0   0  -8   11.44    0.90
   0   0  -8   10.27    0.74
  -2   0  -8   55.02    2.20
   2   0   8   66.63    4.04
  -2   0  -8   55.64    2.44
   4   0   8   29.37    2.82
  -4   0  -8   27.24    1.43
  -4   0  -8   28.14    1.62
  -6   0  -8    2.41    0.59
  -6   0  -8    2.15    0.49
   6   0   8    2.34    1.08
  -8   0  -8   24.14    1.59
  -8   0  -8   26.83    1.54
   8   0   8   18.09    2.90
 -10   0  -8    5.35    0.87
 -10   0  -8    5.18    0.90
  10   0   8    4.45    1.84
 -17  -1   8    7.94    0.94
  17  -1  -8    3.43    2.19
  17   1  -8   11.50    2.39
 -17   1   8   14.05    2.66
 -15  -1   8   11.01    1.13
  15  -1  -8    7.80    2.59
 -15   1   8   13.79    2.62
  15   1  -8    8.44    1.97
 -13  -1   8   22.51    1.29
  13  -1  -8   20.60    4.12
  13   1  -8   21.09    2.78
 -13   1   8   23.16    3.10
  11  -1  -8   16.84    3.43
 -11  -1   8   16.39    1.06
 -11   1   8   15.74    2.50
  11   1  -8   18.00    2.46
   9  -1  -8   53.51    4.80
  -9  -1   8   55.79    2.15
  -9   1   8   58.51    3.92
   9   1  -8   45.22    4.49
   9   1  -8   56.48    3.61
   7  -1  -8   10.97    2.44
  -7  -1   8    8.81    0.74
  -7  -1   8    8.76    0.84
   7   1  -8    8.06    1.90
   7   1  -8    6.18    1.31
  -7   1   8    7.76    1.57
  -5  -1   8   18.72    1.15
   5  -1  -8   15.64    2.77
   5  -1  -8   20.18    1.12
  -5   1   8   18.12    2.36
   5   1  -8   14.35    1.86
   5   1  -8   16.98    1.01
   5   1  -8   20.42    2.72
   3  -1  -8   35.28    3.36
  -3  -1   8   36.90    2.83
   3  -1  -8   38.37    1.76
   3   1  -8   37.83    1.66
   3   1  -8   39.52    1.80
   3   1  -8   43.10    2.69
  -3   1   8   38.35    2.74
  -1  -1   8   30.05    2.47
   1  -1  -8   30.60    1.57
   1   1  -8   31.66    1.61
   1   1  -8   27.51    1.39
  -1   1   8   33.01    2.97
  -1  -1  -8   18.68    1.19
   1  -1   8   13.93    2.04
  -1   1  -8   15.98    1.14
   1   1   8   11.93    2.19
  -1   1  -8   15.39    0.99
   3  -1   8   13.64    2.19
  -3  -1  -8   15.36    1.12
   3   1   8   12.57    2.22
  -3   1  -8   13.77    0.97
  -3   1  -8   11.88    1.02
  -5  -1  -8   11.16    1.20
   5  -1   8   11.21    2.16
   5   1   8   11.02    2.19
  -5   1  -8   11.27    1.01
  -5   1  -8   10.73    1.06
  -7  -1  -8   21.13    1.45
   7  -1   8   18.25    2.76
   7   1   8   17.78    2.94
  -7   1  -8   20.54    1.44
  -7   1  -8   20.41    1.32
   9  -1   8   11.35    2.53
  -9  -1  -8   16.85    1.33
  -9   1  -8   15.68    1.30
  -9   1  -8   14.13    1.36
   9   1   8    8.98    2.26
  11  -1   8    1.33    1.28
 -11  -1  -8    1.37    0.51
  11  -1   8    0.92    0.53
 -11   1  -8    1.56    0.52
 -16  -2   8   17.85    1.26
  16  -2  -8   16.02    4.05
 -16   2   8   16.06    2.82
  16   2  -8   17.53    2.72
 -14  -2   8   34.80    1.77
  14  -2  -8   30.74    4.93
  14   2  -8   36.39    3.25
 -14   2   8   37.01    4.12
  12  -2  -8    4.43    2.03
 -12  -2   8    3.73    0.60
  12   2  -8    1.87    0.95
 -12   2   8    3.30    1.36
 -10  -2   8   15.09    1.01
  10  -2  -8   12.62    3.00
  10   2  -8   11.04    1.84
 -10   2   8   14.94    2.49
  -8  -2   8   37.66    1.74
   8  -2  -8   39.03    4.15
  -8   2   8   38.35    3.22
   8   2  -8   40.74    2.85
  -6  -2   8    7.01    0.88
   6  -2  -8    5.77    1.81
   6  -2  -8    7.79    0.69
   6   2  -8    4.80    1.10
  -6   2   8    9.03    1.80
   6   2  -8    7.70    0.82
   4  -2  -8   50.28    2.17
   4  -2  -8   55.60    4.51
  -4  -2   8   52.43    2.34
  -4   2   8   49.04    3.44
   4   2  -8   49.43    2.08
   4   2  -8   47.75    2.89
  -2  -2   8    7.72    0.97
   2  -2  -8    2.98    1.22
   2  -2  -8    7.93    0.90
   2   2  -8    8.49    0.87
  -2   2   8    3.62    1.16
  -2   2   8    6.42    1.71
   0  -2  -8    6.62    0.85
   0  -2   8    5.79    0.87
   0   2   8    4.32    1.43
   0   2  -8    5.66    0.70
  -2  -2  -8   37.42    1.90
   2  -2   8   30.55    1.86
  -2   2  -8   33.64    1.68
   2   2   8   36.81    3.31
   4  -2   8   20.21    1.48
  -4  -2  -8   17.97    1.31
  -4   2  -8   20.52    1.27
   4   2   8   14.34    2.46
  -6  -2  -8    0.59    0.36
   6  -2   8    0.35    0.35
  -6   2  -8    1.08    0.40
   6   2   8    1.42    0.96
   8  -2   8   16.89    1.49
  -8  -2  -8   17.59    1.38
   8   2   8   21.40    3.34
  -8   2  -8   17.89    1.30
  10  -2   8    4.07    0.91
 -10  -2  -8    3.18    0.78
 -10   2  -8    2.72    0.62
  10   2   8    1.10    1.81
  15  -3  -8    8.73    3.04
 -15  -3   8    6.53    0.87
 -15   3   8    7.93    2.27
  15   3  -8    8.14    1.80
  13  -3  -8   19.88    4.24
 -13  -3   8   18.12    1.27
  13   3  -8   22.11    2.87
 -13   3   8   19.19    3.10
  11  -3  -8   11.12    3.19
 -11  -3   8   13.58    1.04
 -11   3   8   16.25    2.75
  11   3  -8   13.38    2.02
   9  -3  -8   44.12    4.77
  -9  -3   8   44.18    2.01
   9   3  -8   42.05    2.98
  -9   3   8   47.55    3.84
   7  -3  -8    7.45    2.36
  -7  -3   8    7.77    1.00
   7   3  -8    7.29    1.38
  -7   3   8    5.22    1.52
   7   3  -8    6.71    0.80
  -5  -3   8   14.09    1.17
   5  -3  -8   15.08    1.08
   5  -3  -8   15.79    3.17
   5   3  -8   16.95    1.09
   5   3  -8   18.00    2.00
  -5   3   8   15.79    2.45
   3  -3  -8   31.20    1.70
  -3  -3   8   35.54    1.95
   3  -3  -8   33.16    3.61
  -3   3   8   33.41    2.91
   3   3  -8   32.09    1.64
   3   3  -8   28.33    2.62
  -1  -3   8   25.08    1.67
   1  -3  -8   26.76    1.57
   1   3  -8   26.25    1.45
  -1   3   8   24.73    3.42
  -1  -3  -8   16.84    1.25
   1  -3   8   14.23    1.27
  -1   3  -8   15.39    1.10
   1   3   8   16.61    2.85
   3  -3   8   13.50    1.48
  -3  -3  -8   10.39    1.19
   3   3   8    8.42    1.94
  -3   3  -8   10.95    1.08
  -5  -3  -8    9.59    1.17
   5  -3   8   10.06    1.35
   5   3   8    3.92    1.52
  -5   3  -8   12.11    1.20
   7  -3   8   15.81    1.78
  -7  -3  -8   15.30    1.33
  -7   3  -8   19.64    1.36
   7   3   8   13.28    2.65
   9  -3   8   14.63    1.72
  -9  -3  -8   13.22    1.47
 -14  -4   8   24.88    1.61
 -14   4   8   25.78    3.86
  14   4  -8   29.29    3.33
 -12  -4   8    3.37    0.72
  12  -4  -8    1.02    1.60
  12   4  -8    3.68    1.21
 -12   4   8    2.69    1.39
  10  -4  -8   11.32    3.10
 -10  -4   8   14.61    1.11
  10   4  -8   13.84    2.03
 -10   4   8   10.51    2.36
  -8  -4   8   33.84    1.74
   8  -4  -8   34.41    5.03
   8   4  -8   30.35    2.46
  -8   4   8   27.62    3.51
  -6  -4   8    9.30    1.19
   6  -4  -8    8.32    0.97
   6  -4  -8    6.25    2.17
   6   4  -8    9.32    1.53
  -6   4   8    7.60    1.78
   6   4  -8    7.74    0.94
   4  -4  -8   38.99    4.24
  -4  -4   8   42.69    2.36
   4  -4  -8   43.80    2.11
   4   4  -8   39.61    2.58
   4   4  -8   38.93    1.94
  -4   4   8   40.77    3.43
  -2  -4   8   11.23    1.41
   2  -4  -8   11.07    1.20
   2  -4  -8    7.59    2.26
  -2   4   8    9.87    2.47
   2   4  -8    9.76    1.03
  -2   4   8   10.27    2.00
   0  -4  -8    8.42    1.14
   0  -4   8   10.93    1.39
   0   4  -8    6.56    0.83
   0   4   8    8.04    2.11
   2  -4   8   28.21    1.99
  -2  -4  -8   32.56    1.93
  -2   4  -8   33.57    1.76
   2   4   8   23.72    3.46
  -4  -4  -8   18.85    1.48
   4  -4   8   19.15    1.65
  -4   4  -8   20.19    1.37
   4   4   8   14.99    2.82
  -6  -4  -8    2.16    0.65
   6  -4   8    2.49    0.74
   6   4   8    1.23    1.27
  -6   4  -8    2.19    0.58
  11  -5  -8    4.35    2.20
 -11  -5   8    6.53    0.91
 -11   5   8    3.78    1.65
  11   5  -8    6.35    1.47
   9  -5  -8   20.58    4.25
  -9  -5   8   20.15    1.40
  -9   5   8   22.23    3.56
   9   5  -8   20.88    2.54
  -7  -5   8    4.85    0.84
   7  -5  -8    1.09    1.48
   7   5  -8    4.15    0.70
   7   5  -8    4.08    1.13
  -7   5   8    1.78    1.21
   5  -5  -8    8.28    2.57
   5  -5  -8    7.74    1.04
  -5  -5   8    9.65    1.34
   5   5  -8    9.05    1.04
  -5   5   8    8.70    2.07
   5   5  -8   10.47    1.65
  -3  -5   8   14.23    1.66
   3  -5  -8   15.84    3.39
   3  -5  -8   15.41    1.29
  -3   5   8   14.32    2.43
   3   5  -8   16.55    1.21
   1  -5  -8   14.09    1.46
  -1  -5   8   12.18    1.54
   1   5  -8   10.62    1.12
  -1   5   8   15.45    2.99
  -1  -5  -8    9.78    1.25
   1  -5   8    9.14    1.41
   1   5   8    7.30    2.07
  -1   5  -8    7.91    1.01
  -3  -5  -8    7.20    1.11
   3  -5   8    6.85    1.20
   3   5   8    7.76    2.11
  -3   5  -8    7.48    0.98
   5   5   8    8.35    2.49
  -8  -6   8   14.15    2.05
   8  -6  -8    8.55    2.87
   8   6  -8   13.94    2.10
  -8   6   8    8.88    2.29
   6  -6  -8    2.44    1.77
  -6  -6   8    2.62    0.83
   6  -6  -8    2.82    1.06
   6   6  -8    3.45    0.70
  -6   6   8    1.69    1.15
   6   6  -8    3.84    1.10
  -4  -6   8   21.54    2.30
   4  -6  -8   21.61    1.66
   4  -6  -8   13.99    3.20
   4   6  -8   19.55    1.40
  -4   6   8   16.15    2.78
  -2  -6   8    4.27    1.05
   2  -6  -8    3.85    0.81
  -2   6   8    4.01    1.47
  -2   6   8    3.29    1.80
   2   6  -8    3.30    0.62
   0  -6  -8    3.86    0.88
   0  -6   8    3.41    1.00
   0   6  -8    3.48    0.71
   0   6   8    3.68    1.77
  16   0  -9    2.23    1.47
  16   0  -9    3.34    2.30
  14   0  -9   10.29    2.21
 -14   0   9    7.77    0.89
  14   0  -9   10.91    2.99
  12   0  -9    7.80    2.52
  12   0  -9   11.07    2.30
 -12   0   9   10.55    0.84
 -10   0   9   20.13    1.15
  10   0  -9   22.65    3.07
  10   0  -9   21.69    3.61
   8   0  -9    8.02    1.74
   8   0  -9   11.98    2.61
  -8   0   9    9.44    0.74
   6   0  -9    3.41    0.55
   6   0  -9    3.06    0.49
   6   0  -9    1.33    1.14
   6   0  -9    2.50    1.10
  -6   0   9    2.45    0.46
   4   0  -9   43.02    1.96
  -4   0   9   44.78    3.27
   4   0  -9   41.97    1.76
  -4   0   9   41.32    3.55
  -2   0   9   30.06    2.88
   2   0  -9   28.13    1.37
   2   0  -9   27.06    1.54
   0   0  -9    4.61    0.59
   0   0  -9    5.52    0.79
   0   0   9    6.89    1.61
  -2   0  -9   33.09    1.82
  -2   0  -9   30.94    1.55
   2   0   9   31.56    2.99
  -4   0  -9   11.41    1.28
  -4   0  -9   12.20    1.16
   4   0   9    8.49    1.89
   6   0   9   16.86    2.80
  -6   0  -9   22.22    1.54
   8   0   9   31.19    4.16
  -8   0  -9   25.13    1.75
  17  -1  -9    4.24    2.78
 -17  -1   9    2.80    0.61
  15  -1  -9   16.88    3.89
 -15  -1   9   20.92    1.32
 -15   1   9   27.06    3.79
  15   1  -9   17.25    2.85
 -13  -1   9    2.27    0.52
  13  -1  -9    1.39    1.65
 -13   1   9    3.08    1.44
  13   1  -9    2.48    1.25
  11  -1  -9    0.43    1.33
 -11  -1   9    1.23    0.41
 -11   1   9   -0.09    0.53
  11   1  -9   -0.06    0.79
   9  -1  -9   25.50    4.08
  -9  -1   9   25.86    1.36
  -9   1   9   24.22    3.15
   9   1  -9   24.98    3.03
   7  -1  -9   14.83    2.90
  -7  -1   9   17.94    1.08
   7   1  -9   16.07    2.35
  -7   1   9   16.56    2.48
   5  -1  -9    7.04    2.02
  -5  -1   9    5.68    0.82
   5  -1  -9    6.87    0.81
  -5   1   9    5.03    1.35
   5   1  -9    5.73    0.68
   5   1  -9    4.23    1.20
   3  -1  -9   25.17    1.43
   3   1  -9   24.63    1.32
  -3   1   9   17.12    2.85
   3   1  -9   26.65    1.48
   1  -1  -9    3.27    0.61
   1   1  -9    4.92    0.65
  -1   1   9    3.11    1.24
   1   1  -9    3.15    0.61
   1  -1   9   29.93    2.91
  -1  -1  -9   26.61    1.61
  -1   1  -9   30.06    1.53
   1   1   9   26.88    2.86
  -1   1  -9   28.49    1.67
  -3  -1  -9   31.15    1.77
   3  -1   9   23.90    2.56
   3   1   9   23.78    3.35
  -3   1  -9   29.54    1.75
  -3   1  -9   28.88    1.56
   5  -1   9    2.52    1.14
  -5  -1  -9    3.58    0.75
   5   1   9    3.99    1.44
  -5   1  -9    2.62    0.57
  -5   1  -9    3.01    0.66
   7  -1   9   17.29    2.86
  -7  -1  -9   14.76    1.29
  -7   1  -9   16.77    1.37
  -7   1  -9   15.16    1.21
   7   1   9   17.00    3.03
   9  -1   9   17.77    3.11
  -9   1  -9   19.67    1.44
 -16  -2   9    1.53    0.52
  16  -2  -9    2.43    1.90
  14  -2  -9    5.28    2.51
 -14  -2   9    6.27    0.84
  14   2  -9    6.80    1.79
 -14   2   9    3.58    1.44
  12  -2  -9    6.46    2.52
 -12  -2   9    6.18    0.81
  12   2  -9    5.85    1.55
 -12   2   9    8.63    2.12
 -10  -2   9   12.69    0.97
  10  -2  -9   11.94    3.05
  10   2  -9   14.86    2.28
 -10   2   9   13.44    2.43
   8  -2  -9    7.83    2.50
  -8  -2   9    8.76    0.90
  -8   2   9    6.38    1.77
   8   2  -9    6.62    1.49
  -6  -2   9    0.70    0.38
   6  -2  -9    1.07    0.36
   6  -2  -9    1.44    1.27
  -6   2   9    0.62    0.85
   6   2  -9    1.15    0.86
   6   2  -9    1.28    0.40
   4  -2  -9   31.23    1.64
  -4  -2   9   28.98    1.75
   4  -2  -9   28.83    4.08
  -4   2   9   35.84    3.02
   4   2  -9   27.83    1.51
   2  -2  -9   18.82    1.26
  -2  -2   9   18.13    1.36
  -2   2   9   20.41    3.26
   2   2  -9   17.03    1.15
   0  -2   9    2.57    0.66
   0  -2  -9    3.14    0.63
   0   2   9    2.43    1.19
   0   2  -9    3.28    0.58
  -2  -2  -9   22.56    1.51
   2  -2   9   25.38    1.70
  -2   2  -9   19.58    1.30
   2   2   9   15.63    2.63
  -4  -2  -9    7.43    1.03
   4  -2   9    5.55    0.99
   4   2   9    7.41    2.10
  -4   2  -9    8.39    1.01
  -6  -2  -9   13.99    1.26
   6  -2   9   14.28    1.64
  -6   2  -9   15.37    1.21
   6   2   9   13.77    2.80
  -8   2  -9   21.57    1.53
 -15  -3   9   17.52    1.70
  13  -3  -9    2.84    2.08
 -13   3   9    3.26    1.54
  13   3  -9    3.93    1.47
 -11  -3   9    1.16    0.43
  11  -3  -9    1.72    1.69
 -11   3   9    2.41    1.32
  11   3  -9    0.60    0.82
  -9  -3   9   20.65    1.32
   9  -3  -9   19.46    3.89
   9   3  -9   18.34    2.44
  -9   3   9   24.36    3.36
   7  -3  -9   11.74    3.05
   7   3  -9   17.00    1.21
   7   3  -9   15.42    2.14
  -7   3   9   13.06    2.42
  -5  -3   9    6.18    0.97
   5  -3  -9    6.64    2.22
   5  -3  -9    5.09    0.75
  -5   3   9    4.95    1.62
   5   3  -9    5.93    0.81
   5   3  -9    6.95    1.68
   3  -3  -9   24.19    1.54
   3  -3  -9   20.27    3.64
  -3  -3   9   25.80    1.73
   3   3  -9   27.00    1.52
  -3   3   9   19.15    3.36
   1  -3  -9    5.43    0.88
  -1  -3   9    6.24    1.04
  -1   3   9    4.00    1.57
   1   3  -9    3.68    0.65
  -1  -3  -9   23.74    1.60
   1  -3   9   22.77    1.71
   1   3   9   19.45    3.18
  -1   3  -9   23.28    1.44
   3  -3   9   31.69    2.05
  -3  -3  -9   24.12    1.68
   3   3   9   27.27    3.93
  -3   3  -9   25.06    1.57
  -5  -3  -9    4.57    0.85
   5  -3   9    3.39    0.81
   5   3   9    1.93    1.25
  -5   3  -9    3.88    0.72
  12  -4  -9    8.57    2.95
 -12  -4   9    9.20    1.09
 -12   4   9    5.72    1.88
  12   4  -9    7.44    1.70
 -10  -4   9   11.49    1.18
  10  -4  -9   11.27    2.95
  10   4  -9   10.16    1.88
 -10   4   9   13.01    2.69
  -8  -4   9    9.89    1.12
   8  -4  -9    5.02    2.14
  -8   4   9    8.05    1.99
   8   4  -9   10.44    1.76
  -6  -4   9    1.90    0.60
   6  -4  -9    2.45    1.84
   6   4  -9    1.47    0.46
   6   4  -9    3.01    1.07
  -6   4   9    3.79    1.50
  -4  -4   9   29.88    1.97
   4  -4  -9   25.76    1.66
   4  -4  -9   20.11    3.61
   4   4  -9   28.43    1.63
  -4   4   9   29.90    3.58
   2  -4  -9   16.90    1.34
  -2  -4   9   16.14    1.46
  -2   4   9   13.18    2.69
   2   4  -9   18.20    1.29
   0  -4  -9    5.39    0.91
   0  -4   9    5.15    1.02
   0   4  -9    5.92    0.88
   0   4   9    1.94    1.37
   2  -4   9   20.48    1.76
  -2  -4  -9   21.08    1.61
   2   4   9   23.73    3.75
  -2   4  -9   22.26    1.47
   4  -4   9    7.75    1.28
  -4  -4  -9    8.75    1.26
   4   4   9    6.30    1.97
  -4   4  -9    6.55    0.96
   9  -5  -9   10.65    3.28
  -9  -5   9   15.64    1.61
   9   5  -9   11.91    1.96
  -9   5   9   12.08    2.71
  -7  -5   9   10.90    1.23
   7  -5  -9    9.09    2.92
  -7   5   9    6.36    1.91
   7   5  -9    8.00    1.63
   7   5  -9    6.61    0.94
   5  -5  -9    2.73    1.79
   5  -5  -9    2.78    0.66
  -5  -5   9    4.58    0.98
   5   5  -9    3.92    0.76
  -5   5   9    4.60    1.68
  -3  -5   9   11.80    1.59
   3  -5  -9   14.42    1.28
   3   5  -9   13.96    1.35
  -3   5   9   12.17    2.93
  -1  -5   9    2.43    0.77
   1  -5  -9    4.01    0.83
  -1   5   9    0.56    1.15
   1   5  -9    2.46    0.64
  -1  -5  -9   11.24    1.40
   1  -5   9   11.70    1.68
   1   5   9    7.49    2.44
  14   0 -10   15.64    3.01
  12   0 -10    3.87    1.62
  10   0 -10   33.18    3.89
  10   0 -10   34.96    6.29
   8   0 -10   44.12    3.73
   8   0 -10   44.79    4.32
  -6   0  10   26.48    3.81
   6   0 -10   33.51    4.35
   4   0 -10   41.51    2.05
  -4   0  10   41.73    3.68
   2   0 -10   20.63    1.39
  -2   0  10   22.45    3.13
   0   0  10   33.55    3.30
   0   0 -10   43.26    2.16
   2   0  10   64.02    4.59
  -2   0 -10   64.58    2.93
  -4   0 -10   15.98    1.34
   4   0  10   17.48    3.03
   6   0  10   18.84    3.15
  15  -1 -10   11.23    3.57
 -15  -1  10   13.25    1.27
 -13  -1  10   15.69    1.14
  13  -1 -10   15.08    3.61
  13   1 -10   11.95    2.36
 -13   1  10   15.67    2.78
 -11  -1  10   34.70    1.74
  11  -1 -10   31.38    4.95
  11   1 -10   35.09    3.85
 -11   1  10   37.49    4.30
   9  -1 -10   19.82    3.66
  -9  -1  10   20.94    1.25
   9   1 -10   19.35    2.72
  -9   1  10   23.45    3.16
  -7  -1  10   11.20    0.90
   7  -1 -10   10.30    2.70
   7   1 -10    9.87    1.97
  -7   1  10   10.69    2.18
  -5  -1  10   41.60    2.14
   5  -1 -10   42.09    4.24
   5  -1 -10   43.85    2.06
   5   1 -10   41.82    1.93
  -3  -1  10   59.23    2.73
   3  -1 -10   61.31    2.62
   3   1 -10   59.06    2.42
  -3   1  10   53.01    4.38
   1  -1 -10   17.32    1.28
  -1   1  10   17.81    3.03
   1   1 -10   14.69    1.21
   1   1 -10   16.51    1.14
  -1  -1 -10   30.74    1.77
  -1   1 -10   26.68    1.71
  -1   1 -10   26.94    1.52
   1   1  10   18.34    2.99
  -3  -1 -10   30.15    1.86
  -3   1 -10   32.10    1.73
   3   1  10   30.50    3.35
  -3   1 -10   30.68    1.91
  -5  -1 -10   27.05    1.83
   5  -1  10   31.01    2.05
  -5   1 -10   29.60    1.72
   5   1  10   29.40    4.02
  -5   1 -10   29.14    1.91
  14  -2 -10    7.14    2.88
 -14  -2  10   10.29    1.12
  14   2 -10    9.89    2.42
 -14   2  10   15.79    3.27
 -12  -2  10    2.41    0.54
  12  -2 -10    4.49    2.35
 -12   2  10    6.20    1.87
  12   2 -10    2.76    1.25
  10  -2 -10   25.38    4.32
 -10  -2  10   27.50    1.54
  10   2 -10   25.99    3.21
 -10   2  10   28.35    3.76
  -8  -2  10   31.82    1.67
   8  -2 -10   28.82    4.60
   8   2 -10   33.33    3.03
  -8   2  10   27.67    3.53
   6  -2 -10   17.04    3.31
  -6   2  10   20.49    2.98
   6   2 -10   16.87    1.19
   4  -2 -10   26.91    1.61
  -4  -2  10   30.90    1.89
  -4   2  10   24.62    3.77
   4   2 -10   30.80    1.62
   2  -2 -10   13.74    1.15
  -2  -2  10   14.46    1.57
  -2   2  10   11.50    2.50
   2   2 -10   13.93    1.09
   0  -2  10   35.29    2.13
   0  -2 -10   32.99    1.91
   0   2 -10   34.41    1.80
   0   2  10   26.57    3.80
  -2  -2 -10   42.08    2.31
   2  -2  10   45.84    2.57
   2   2  10   46.90    4.25
  -2   2 -10   45.42    2.20
   4  -2  10    8.05    1.27
  -4  -2 -10   10.98    1.36
   4   2  10   10.31    2.53
  -4   2 -10    7.59    0.98
 -13  -3  10   14.11    1.42
 -11  -3  10   25.62    1.55
  11  -3 -10   25.12    4.66
 -11   3  10   20.33    3.36
  11   3 -10   25.25    3.19
   9  -3 -10   12.73    3.45
  -9  -3  10   16.44    1.23
   9   3 -10   12.87    2.23
  -9   3  10   15.49    2.84
   7  -3 -10    7.04    2.39
   7   3 -10    6.88    0.92
  -7   3  10    8.18    2.07
   7   3 -10    5.83    2.24
   5  -3 -10   34.29    1.88
  -5  -3  10   32.60    2.05
   5  -3 -10   36.02    5.07
   5   3 -10   33.01    1.81
  -3  -3  10   41.41    2.43
   3  -3 -10   43.09    2.24
   3   3 -10   43.83    2.15
   1  -3 -10   13.11    1.19
  -1  -3  10   14.07    1.62
   1   3 -10   14.15    1.35
  -1   3  10   11.96    2.71
  -1  -3 -10   21.62    1.58
   1  -3  10   21.47    1.76
   1   3  10   26.95    4.11
  -1   3 -10   20.50    1.44
   3  -3  10   21.54    2.36
  -3  -3 -10   26.84    2.11
   3   3  10   22.50    3.70
  -3   3 -10   25.28    1.64
  10   4 -10   22.25    2.97
 -10   4  10   25.40    3.90
  -8  -4  10   21.51    1.50
   8  -4 -10   16.98    3.77
  -8   4  10   22.13    3.47
   8   4 -10   22.28    2.78
   6  -4 -10   14.11    3.34
   6   4 -10   14.54    1.36
  -6   4  10    9.28    2.30
  -4  -4  10   21.09    1.75
   4  -4 -10   23.72    1.63
   4   4 -10   22.00    1.50
  -4   4  10   19.69    3.73
  -2  -4  10   10.57    1.46
   2  -4 -10   11.59    1.38
  -2   4  10    7.05    2.18
   2   4 -10   10.88    1.19
   0  -4 -10   24.64    1.78
   0  -4  10   22.95    1.93
   0   4 -10   26.45    1.83
   0   4  10   22.94    5.18
 -12   0  11   17.44    3.13
 -10   0  11   35.00    4.12
   4   0 -11   36.40    2.01
   2   0 -11   13.45    1.21
   0   0 -11   11.50    1.34
  -2   0 -11   22.63    1.84
  13  -1 -11    2.96    2.22
  11  -1 -11   10.36    2.95
  11   1 -11   11.80    2.47
 -11   1  11   16.96    3.07
   9  -1 -11   32.65    4.88
  -9   1  11   32.31    3.89
   9   1 -11   32.29    3.82
   7  -1 -11   12.12    2.97
  -5  -1  11   15.57    1.75
  -5   1  11   14.83    2.81
  -3  -1  11   17.93    1.48
   3  -1 -11   18.11    1.37
  -3   1  11   18.35    3.26
   1  -1 -11    7.81    1.10
  -1  -1  11    9.24    1.31
  -1   1  11    7.28    1.96
  -1  -1 -11   29.57    1.91
   1  -1  11   29.57    2.03
   1   1  11   34.12    3.57
  12  -2 -11    9.50    4.57
 -12  -2  11   11.73    1.20
  12   2 -11    8.46    2.57
 -12   2  11   10.53    2.86
  10  -2 -11   22.93    4.52
 -10  -2  11   22.33    1.43
 -10   2  11   18.35    3.17
  10   2 -11   22.62    3.17
   8  -2 -11    3.81    2.10
  -8  -2  11    2.67    0.59
  -8   2  11    1.15    1.32
   6  -2 -11   16.96    3.46
   6   2 -11   17.93    1.31
  -4  -2  11   26.18    1.84
   4  -2 -11   27.94    1.71
  -4   2  11   21.21    3.61
   4   2 -11   28.02    1.62
  -2  -2  11    8.88    1.32
   2  -2 -11   10.78    1.28
   2   2 -11    8.77    1.01
  -2   2  11    8.02    2.23
   0  -2 -11    8.59    1.16
   0  -2  11    6.66    1.13
   0   2 -11    6.42    0.92
   0   2  11    5.73    1.97
  -9  -3  11   24.28    1.59
  -9   3  11   19.93    3.47
   7  -3 -11    5.80    2.28
   7   3 -11    8.28    1.06
  -5   3  11   15.61    3.32
   5   3 -11   15.74    1.26
  -3  -3  11   13.02    1.59
   3  -3 -11   14.86    1.29
   3   3 -11   12.00    1.24
  -3   3  11    8.29    2.44
   1  -3 -11    7.33    1.24
  -1  -3  11    6.24    1.19
   1   3 -11    7.99    1.46
  -5   1  12   13.64    2.88
   0   0   0    0.00    0.00
;
_shelx_hkl_checksum              4824
loop_
_space_group_symop_operation_xyz
'x, y, z'
'-x, y, -z'
'x+1/2, y+1/2, z'
'-x+1/2, y+1/2, -z'
'-x, -y, -z'
'x, -y, z'
'-x+1/2, -y+1/2, -z'
'x+1/2, -y+1/2, z'
loop_
_atom_site_label
_atom_site_type_symbol
_atom_site_fract_x
_atom_site_fract_y
_atom_site_fract_z
_atom_site_U_iso_or_equiv
_atom_site_adp_type
_atom_site_occupancy
_atom_site_site_symmetry_order
_atom_site_calc_flag
_atom_site_refinement_flags_posn
_atom_site_refinement_flags_adp
_atom_site_refinement_flags_occupancy
C1 C 0.3101(3) 0.0000 -0.1101(4) 0.0228(8) Uani 1 2 d S T P
H1 H 0.3729 0.0000 -0.0812 0.027 Uiso 1 2 calc R U P
C2 C 0.2650(2) 0.0000 -0.0001(4) 0.0201(7) Uani 1 2 d S T P
H2 H 0.2957 0.0000 0.1057 0.024 Uiso 1 2 calc R U P
C3 C 0.1733(2) 0.0000 -0.0469(4) 0.0191(7) Uani 1 2 d S T P
C4 C 0.1274(3) 0.0000 -0.2009(4) 0.0229(8) Uani 1 2 d S T P
H4 H 0.0646 0.0000 -0.2324 0.027 Uiso 1 2 calc R U P
C5 C 0.1765(3) 0.0000 -0.3066(4) 0.0268(9) Uani 1 2 d S T P
H5 H 0.1475 0.0000 -0.4131 0.032 Uiso 1 2 calc R U P
N1 N 0.2654(2) 0.0000 -0.2594(4) 0.0225(7) Uani 1 2 d DS T P
O1 O 0.5000 -0.2663(4) 0.5000 0.0271(6) Uani 1 2 d S T P
Cl1 Cl 0.32252(6) 0.0000 0.43111(10) 0.02239(19) Uani 1 2 d S T P
Cl2 Cl 0.49143(6) 0.0000 0.20563(11) 0.0348(3) Uani 1 2 d S T P
Cl3 Cl 0.11541(6) 0.0000 0.08950(12) 0.0319(2) Uani 1 2 d S T P
Np1 Np 0.5000 0.0000 0.5000 0.01803(7) Uani 1 4 d S T P
HN1 H 0.296(3) 0.0000 -0.327(4) 0.030(12) Uiso 1 2 d DS . P
loop_
_atom_site_aniso_label
_atom_site_aniso_U_11
_atom_site_aniso_U_22
_atom_site_aniso_U_33
_atom_site_aniso_U_23
_atom_site_aniso_U_13
_atom_site_aniso_U_12
C1 0.0182(18) 0.0257(19) 0.0227(19) 0.000 0.0026(15) 0.000
C2 0.0175(18) 0.0237(18) 0.0183(17) 0.000 0.0034(14) 0.000
C3 0.0142(17) 0.0185(17) 0.0240(18) 0.000 0.0044(14) 0.000
C4 0.0170(18) 0.0197(18) 0.0270(19) 0.000 -0.0028(15) 0.000
C5 0.031(2) 0.0201(19) 0.0236(19) 0.000 -0.0033(16) 0.000
N1 0.0293(18) 0.0194(15) 0.0205(16) 0.000 0.0099(14) 0.000
O1 0.0201(14) 0.0226(14) 0.0340(15) 0.000 -0.0003(11) 0.000
Cl1 0.0147(4) 0.0333(5) 0.0176(4) 0.000 0.0017(3) 0.000
Cl2 0.0172(5) 0.0704(8) 0.0164(4) 0.000 0.0036(3) 0.000
Cl3 0.0186(5) 0.0473(6) 0.0319(5) 0.000 0.0106(4) 0.000
Np1 0.01461(11) 0.02143(12) 0.01612(11) 0.000 0.00077(7) 0.000
loop_
_atom_type_symbol
_atom_type_description
_atom_type_scat_dispersion_real
_atom_type_scat_dispersion_imag
_atom_type_scat_source
C C 0.0033 0.0016 'International Tables Vol C Tables 4.2.6.8 and 6.1.1.4'
Cl Cl 0.1484 0.1585 'International Tables Vol C Tables 4.2.6.8 and 6.1.1.4'
H H 0.0000 0.0000 'International Tables Vol C Tables 4.2.6.8 and 6.1.1.4'
N N 0.0061 0.0033 'International Tables Vol C Tables 4.2.6.8 and 6.1.1.4'
Np Np -11.4937 4.1493 'International Tables Vol C Tables 4.2.6.8 and 6.1.1.4'
O O 0.0106 0.0060 'International Tables Vol C Tables 4.2.6.8 and 6.1.1.4'
loop_
_geom_angle_atom_site_label_1
_geom_angle_atom_site_label_2
_geom_angle_atom_site_label_3
_geom_angle
_geom_angle_site_symmetry_1
_geom_angle_site_symmetry_3
N1 C1 C2 119.9(4) . .
N1 C1 H1 120.1 . .
C2 C1 H1 120.1 . .
C1 C2 C3 118.4(3) . .
C1 C2 H2 120.8 . .
C3 C2 H2 120.8 . .
C4 C3 C2 121.6(4) . .
C4 C3 Cl3 119.3(3) . .
C2 C3 Cl3 119.1(3) . .
C5 C4 C3 117.3(3) . .
C5 C4 H4 121.3 . .
C3 C4 H4 121.3 . .
N1 C5 C4 120.3(3) . .
N1 C5 H5 119.8 . .
C4 C5 H5 119.8 . .
C1 N1 C5 122.5(3) . .
C1 N1 HN1 118(3) . .
C5 N1 HN1 120(3) . .
O1 Np1 O1 180.0 5_656 .
O1 Np1 Cl2 90.0 5_656 .
O1 Np1 Cl2 90.0 . .
O1 Np1 Cl2 90.0 5_656 5_656
O1 Np1 Cl2 90.0 . 5_656
Cl2 Np1 Cl2 180.0 . 5_656
O1 Np1 Cl1 90.0 5_656 5_656
O1 Np1 Cl1 90.0 . 5_656
Cl2 Np1 Cl1 90.20(3) . 5_656
Cl2 Np1 Cl1 89.80(3) 5_656 5_656
O1 Np1 Cl1 90.0 5_656 .
O1 Np1 Cl1 90.0 . .
Cl2 Np1 Cl1 89.80(3) . .
Cl2 Np1 Cl1 90.20(3) 5_656 .
Cl1 Np1 Cl1 180.0 5_656 .
loop_
_geom_bond_atom_site_label_1
_geom_bond_atom_site_label_2
_geom_bond_distance
_geom_bond_site_symmetry_2
C1 N1 1.345(5) .
C1 C2 1.368(5) .
C1 H1 0.9500 .
C2 C3 1.388(5) .
C2 H2 0.9500 .
C3 C4 1.387(5) .
C3 Cl3 1.719(4) .
C4 C5 1.381(6) .
C4 H4 0.9500 .
C5 N1 1.346(5) .
C5 H5 0.9500 .
N1 HN1 0.870(19) .
O1 Np1 1.748(3) .
Cl1 Np1 2.6883(11) .
Cl2 Np1 2.6313(12) .
Np1 O1 1.748(3) 5_656
Np1 Cl2 2.6313(12) 5_656
Np1 Cl1 2.6883(11) 5_656
loop_
_geom_hbond_atom_site_label_D
_geom_hbond_atom_site_label_H
_geom_hbond_atom_site_label_A
_geom_hbond_distance_DH
_geom_hbond_distance_HA
_geom_hbond_distance_DA
_geom_hbond_angle_DHA
_geom_hbond_site_symmetry_A
C1 H1 Cl2 0.95 2.76 3.452(4) 130.4 .
C1 H1 Cl2 0.95 2.66 3.450(4) 140.6 5_655
C2 H2 Cl1 0.95 2.86 3.763(4) 158.9 .
C2 H2 Cl2 0.95 2.96 3.544(4) 120.8 .
N1 HN1 Cl1 0.870(19) 2.34(2) 3.162(3) 158(4) 1_554
C1 H1 Cl2 0.95 2.76 3.452(4) 130.4 .
C1 H1 Cl2 0.95 2.66 3.450(4) 140.6 5_655
C2 H2 Cl1 0.95 2.86 3.763(4) 158.9 .
C2 H2 Cl2 0.95 2.96 3.544(4) 120.8 .
N1 HN1 Cl1 0.870(19) 2.34(2) 3.162(3) 158(4) 1_554
