#------------------------------------------------------------------------------
#$Date: 2017-06-28 02:37:52 +0300 (Wed, 28 Jun 2017) $
#$Revision: 198170 $
#$URL: file:///home/coder/svn-repositories/cod/cif/4/12/62/4126238.cif $
#------------------------------------------------------------------------------
#
# This file is available in the Crystallography Open Database (COD),
# http://www.crystallography.net/
#
# All data on this site have been placed in the public domain by the
# contributors.
#
data_4126238
loop_
_publ_author_name
'Sessler, Chanan D.'
'Rahm, Martin'
'Becker, Sabine'
'Goldberg, Jacob M.'
'Wang, Fang'
'Lippard, Stephen J.'
_publ_section_title
;
 CF2H, a Hydrogen Bond Donor.
;
_journal_name_full               'Journal of the American Chemical Society'
_journal_paper_doi               10.1021/jacs.7b04457
_journal_year                    2017
_chemical_formula_sum            'C6 H5 N O3'
_chemical_formula_weight         139.11
_chemical_name_common            1-OH
_space_group_crystal_system      monoclinic
_space_group_IT_number           14
_space_group_name_Hall           '-P 2ybc'
_space_group_name_H-M_alt        'P 1 21/c 1'
_symmetry_space_group_name_Hall  '-P 2ybc'
_symmetry_space_group_name_H-M   'P 1 21/c 1'
_atom_sites_solution_hydrogens   mixed
_audit_creation_method           SHELXL-2014/7
_cell_angle_alpha                90
_cell_angle_beta                 103.348(2)
_cell_angle_gamma                90
_cell_formula_units_Z            4
_cell_length_a                   6.3511(6)
_cell_length_b                   14.3305(14)
_cell_length_c                   6.6757(6)
_cell_measurement_reflns_used    4964
_cell_measurement_temperature    100(2)
_cell_measurement_theta_max      30.42
_cell_measurement_theta_min      2.84
_cell_volume                     591.17(10)
_computing_cell_refinement       'Bruker SAINT'
_computing_data_collection       'Bruker APEX2'
_computing_data_reduction        'Bruker SAINT'
_computing_molecular_graphics    'ShelXle (Huebschle, 2014)'
_computing_publication_material  Olex2.1
_computing_structure_refinement  'SHELXL-2014/7 (Sheldrick, 2014)'
_computing_structure_solution    'SHELXT 2014/4 (Sheldrick, 2014)'
_diffrn_ambient_temperature      100(2)
_diffrn_measured_fraction_theta_full 1.000
_diffrn_measured_fraction_theta_max 0.935
_diffrn_measurement_device_type  'Bruker APEX-II CCD'
_diffrn_measurement_method       'phi and omega scans'
_diffrn_radiation_type           MoK\a
_diffrn_radiation_wavelength     0.71073
_diffrn_reflns_av_R_equivalents  0.0259
_diffrn_reflns_av_unetI/netI     0.0172
_diffrn_reflns_Laue_measured_fraction_full 1.000
_diffrn_reflns_Laue_measured_fraction_max 0.935
_diffrn_reflns_limit_h_max       9
_diffrn_reflns_limit_h_min       -8
_diffrn_reflns_limit_k_max       20
_diffrn_reflns_limit_k_min       -20
_diffrn_reflns_limit_l_max       9
_diffrn_reflns_limit_l_min       -8
_diffrn_reflns_number            11483
_diffrn_reflns_point_group_measured_fraction_full 1.000
_diffrn_reflns_point_group_measured_fraction_max 0.935
_diffrn_reflns_theta_full        25.242
_diffrn_reflns_theta_max         30.624
_diffrn_reflns_theta_min         2.843
_diffrn_source                   'sealed tube'
_exptl_absorpt_coefficient_mu    0.128
_exptl_absorpt_correction_T_max  0.7461
_exptl_absorpt_correction_T_min  0.6901
_exptl_absorpt_correction_type   multi-scan
_exptl_absorpt_process_details   'Blessing, 1993'
_exptl_crystal_colour            yellow
_exptl_crystal_density_diffrn    1.563
_exptl_crystal_density_meas      ?
_exptl_crystal_density_method    'not measured'
_exptl_crystal_description       block
_exptl_crystal_F_000             288
_exptl_crystal_size_max          0.170
_exptl_crystal_size_mid          0.160
_exptl_crystal_size_min          0.120
_refine_diff_density_max         0.368
_refine_diff_density_min         -0.268
_refine_diff_density_rms         0.053
_refine_ls_extinction_method     none
_refine_ls_goodness_of_fit_ref   1.078
_refine_ls_hydrogen_treatment    mixed
_refine_ls_matrix_type           full
_refine_ls_number_parameters     95
_refine_ls_number_reflns         1710
_refine_ls_number_restraints     0
_refine_ls_restrained_S_all      1.078
_refine_ls_R_factor_all          0.0445
_refine_ls_R_factor_gt           0.0363
_refine_ls_shift/su_max          0.000
_refine_ls_shift/su_mean         0.000
_refine_ls_structure_factor_coef Fsqd
_refine_ls_weighting_details
'w=1/[\s^2^(Fo^2^)+(0.0550P)^2^+0.1629P] where P=(Fo^2^+2Fc^2^)/3'
_refine_ls_weighting_scheme      calc
_refine_ls_wR_factor_gt          0.0981
_refine_ls_wR_factor_ref         0.1045
_reflns_Friedel_coverage         0.000
_reflns_number_gt                1454
_reflns_number_total             1710
_reflns_threshold_expression     'I > 2\s(I)'
_cod_data_source_file            ja7b04457_si_002.cif
_cod_data_source_block           1-OH
_cod_depositor_comments
;
The following automatic conversions were performed:

'_exptl_crystal_density_meas' value 'not measured' was changed to '?'
- the value is perceived as not measured.

Automatic conversion script
Id: cif_fix_values 4973 2017-02-22 13:04:09Z antanas 
;
_cod_database_code               4126238
_shelx_shelxl_version_number     2014/7
_shelx_space_group_comment
;
The symmetry employed for this shelxl refinement is uniquely defined
by the following loop, which should always be used as a source of
symmetry information in preference to the above space-group names.
They are only intended as comments.
;
_shelx_estimated_absorpt_t_min   0.979
_shelx_estimated_absorpt_t_max   0.985
_shelx_res_file
;

    20160709_C6H4NO2OH_0m_a.res created by SHELXL-2014/7


TITL 20160709_C6H4NO2OH_0m_a.res in P2(1)/c
REM Old TITL 20160709_C6H4NO2OH_0m in P2(1)/c
REM SHELXT solution in P2(1)/c
REM R1 0.104,  Rweak 0.003,  Alpha 0.012,  Orientation as input
REM Formula found by SHELXT:  C7 O3
CELL  0.71073   6.3511  14.3305   6.6757   90.000  103.348   90.000
ZERR    4.000   0.0006   0.0014   0.0006    0.000    0.002    0.000
LATT  1
SYMM -X, 1/2+Y, 1/2-Z
SFAC C H N O
UNIT 24 20 4 12
TEMP -173.200
L.S. 10
BOND $H
LIST 4
ACTA
SIZE 0.17x0.16x0.12
FMAP 2
PLAN 5
HTAB
HTAB O1 O2
REM EQIV $1 -x+1, -y+1, -z+1
REM HTAB O1 O2_$1 ! long
WGHT    0.055000    0.162900
FVAR       0.63018
O1    4    0.385535    0.674855    0.541308    11.00000    0.01453    0.02246 =
         0.02909    0.00026    0.00135   -0.00351
H1    2    0.443007    0.616049    0.556324    11.00000    0.05459
N1    3    0.829328    0.603840    0.669463    11.00000    0.01795    0.01382 =
         0.02031    0.00019    0.00284   -0.00094
C1    1    0.558838    0.731812    0.590710    11.00000    0.01465    0.01840 =
         0.01635    0.00058    0.00272   -0.00092
O2    4    0.679444    0.545300    0.626899    11.00000    0.02286    0.01547 =
         0.03214   -0.00136    0.00161   -0.00596
C2    1    0.775121    0.702152    0.651533    11.00000    0.01573    0.01234 =
         0.01618   -0.00009    0.00219    0.00029
O3    4    1.019205    0.580798    0.727391    11.00000    0.01846    0.01724 =
         0.04085    0.00281    0.00301    0.00318
C3    1    0.945907    0.765741    0.699233    11.00000    0.01476    0.01564 =
         0.01891   -0.00049    0.00214   -0.00026
AFIX  43
H3    2    1.090948    0.744006    0.738068    11.00000   -1.20000
AFIX   0
C4    1    0.903326    0.860361    0.689783    11.00000    0.02099    0.01435 =
         0.02039   -0.00111    0.00329   -0.00227
AFIX  43
H4    2    1.018414    0.904182    0.722297    11.00000   -1.20000
AFIX   0
C5    1    0.688162    0.890911    0.631614    11.00000    0.02524    0.01495 =
         0.01930    0.00082    0.00427    0.00343
AFIX  43
H5    2    0.658038    0.955915    0.626352    11.00000   -1.20000
AFIX   0
C6    1    0.519178    0.828072    0.581807    11.00000    0.01814    0.01937 =
         0.02047    0.00172    0.00269    0.00480
AFIX  43
H6    2    0.374702    0.850343    0.541132    11.00000   -1.20000
REM #####
AFIX   0
HKLF 4

REM  20160709_C6H4NO2OH_0m_a.res in P2(1)/c
REM R1 =  0.0363 for    1454 Fo > 4sig(Fo)  and  0.0445 for all    1710 data
REM     95 parameters refined using      0 restraints

END

WGHT      0.0550      0.1629

REM Instructions for potential hydrogen bonds
HTAB O1 N1
HTAB O1 O2
EQIV $1 -x+1, -y+1, -z+1
HTAB O1 O2_$1

REM Highest difference peak  0.368,  deepest hole -0.268,  1-sigma level  0.053
Q1    1   0.7915  0.8696  0.6364  11.00000  0.05    0.37
Q2    1   0.8492  0.7355  0.6610  11.00000  0.05    0.34
Q3    1   0.6682  0.7171  0.6246  11.00000  0.05    0.33
Q4    1   0.9136  0.8144  0.6733  11.00000  0.05    0.31
Q5    1   0.5476  0.7819  0.6299  11.00000  0.05    0.27
;
_shelx_res_checksum              42553
_shelx_hkl_file
;
  -1   0   0    1.90    0.20
   1   0   0    2.00    0.20
   1   0   0    2.40    0.20
  -1   0   0    2.30    0.20
  -1   0   0    2.20    0.20
  -1   0   0    1.80    0.20
  -1   0   0    2.10    0.20
  -2   0   0  214.48    5.10
   2   0   0  224.58    4.80
   2   0   0  218.98    4.70
  -2   0   0  215.58    4.70
   2   0   0  211.48    5.20
  -2   0   0  214.38    5.20
  -2   0   0  217.48    5.00
  -3   0   0  276.27    6.00
  -3   0   0  267.07    6.60
   3   0   0  276.67    6.10
   3   0   0  287.77    6.20
  -3   0   0  272.97    6.80
  -3   0   0  277.57    6.50
   3   0   0  275.87    6.80
  -4   0   0    0.20    0.20
   4   0   0    0.20    0.30
  -4   0   0    0.30    0.20
  -4   0   0    0.20    0.20
  -4   0   0    0.20    0.30
   4   0   0    0.30    0.20
   5   0   0    6.00    0.60
  -5   0   0    5.20    0.80
  -5   0   0    5.00    0.60
   5   0   0    4.90    0.80
   6   0   0   21.50    1.20
  -6   0   0   22.10    1.60
  -6   0   0   22.10    1.20
   6   0   0   18.80    1.50
   7   0   0    5.20    0.80
   7   0   0    5.00    1.10
  -7   0   0    4.20    1.00
  -7   0   0    4.00    0.70
   8   0   0   11.60    1.60
  -8   0   0   14.00    1.10
   8   0   0   15.40    1.30
  -8   0   0   16.50    1.90
   0  -1   0   -1.00    0.10
   0  -1   0   -0.80    0.10
   0   1   0   -0.90    0.10
   0   1   0   -0.90    0.10
   1  -1   0 1144.79   24.90
  -1  -1   0 1200.78   24.20
   1  -1   0 1177.88   23.70
  -1  -1   0 1186.18   24.90
  -1  -1   0 1147.19   25.40
  -1  -1   0 1142.39   24.00
  -1  -1   0 1126.59   25.50
   1  -1   0 1127.29   25.10
   1   1   0 1184.08   24.20
   1   1   0 1155.48   24.30
  -1   1   0 1089.09   23.80
  -1   1   0 1130.19   23.70
  -1   1   0 1101.79   25.10
  -2  -1   0  300.07    6.90
   2  -1   0  303.67    6.60
  -2  -1   0  303.27    6.90
   2  -1   0  300.97    7.10
  -2  -1   0  303.17    6.50
  -2  -1   0  304.77    7.10
  -2  -1   0  314.97    6.90
  -2   1   0  302.27    7.00
   2   1   0  307.27    6.50
  -2   1   0  291.17    6.90
   2   1   0  314.77    6.50
  -2   1   0  300.07    7.00
   2   1   0  302.57    7.10
  -2   1   0  313.37    6.60
   3  -1   0    2.00    0.40
  -3  -1   0    1.70    0.40
  -3  -1   0    2.40    0.50
  -3  -1   0    2.50    0.30
  -3  -1   0    2.20    0.30
  -3  -1   0    2.00    0.30
   3  -1   0    1.80    0.30
  -3   1   0    2.20    0.50
   3   1   0    1.50    0.40
   3   1   0    1.90    0.30
  -3   1   0    1.90    0.30
   3   1   0    2.10    0.30
  -3   1   0    2.30    0.40
  -3   1   0    1.90    0.40
  -4  -1   0    2.40    0.30
   4  -1   0    2.60    0.40
  -4  -1   0    1.90    0.50
   4  -1   0    2.30    0.50
  -4  -1   0    2.00    0.40
  -4  -1   0    1.80    0.40
  -4  -1   0    2.50    0.40
  -4   1   0    1.80    0.50
  -4   1   0    1.60    0.30
  -4   1   0    1.90    0.40
   4   1   0    1.90    0.30
   4   1   0    2.00    0.50
   4   1   0    1.50    0.30
   5  -1   0   77.49    2.90
  -5  -1   0   78.99    3.00
  -5  -1   0   76.29    2.90
   5  -1   0   77.79    2.40
  -5  -1   0   74.69    2.40
   5   1   0   78.89    2.30
  -5   1   0   77.29    2.90
  -5   1   0   77.79    2.50
   5   1   0   77.19    2.90
  -6  -1   0   42.00    1.70
  -6  -1   0   41.30    2.20
   6  -1   0   45.30    2.30
   6  -1   0   45.60    1.80
   6   1   0   42.80    2.20
   6   1   0   41.20    1.70
  -6   1   0   43.00    2.30
  -6   1   0   41.20    1.80
   7  -1   0   61.89    2.40
  -7  -1   0   59.59    2.30
   7  -1   0   61.89    3.00
  -7  -1   0   61.89    3.00
  -7   1   0   63.69    2.50
  -7   1   0   63.19    3.10
   7   1   0   63.99    2.40
   8  -1   0   42.90    2.70
   8  -1   0   41.00    2.10
  -8  -1   0   40.00    2.70
  -8  -1   0   38.10    1.70
  -8   1   0   42.30    2.70
   8   1   0   35.50    1.90
  -8   1   0   40.40    2.00
   8   1   0   40.80    2.60
   0  -2   0  717.43   15.50
   0  -2   0  701.23   14.80
   0  -2   0  714.23   15.70
   0   2   0  722.63   15.70
   0   2   0  718.53   14.80
   0   2   0  696.53   14.80
  -1  -2   0  174.38    4.00
   1  -2   0  175.48    3.90
  -1  -2   0  179.98    4.10
  -1  -2   0  177.98    3.80
  -1  -2   0  173.88    3.90
  -1  -2   0  170.88    4.00
   1  -2   0  176.28    4.10
   1  -2   0  174.88    4.10
  -1   2   0  171.78    3.90
  -1   2   0  178.28    4.20
   1   2   0  176.48    3.80
   1   2   0  178.28    3.80
  -1   2   0  170.78    3.90
   1   2   0  174.88    3.80
  -1   2   0  176.38    4.00
  -2  -2   0  290.37    7.00
  -2  -2   0  307.07    6.70
   2  -2   0  293.57    7.00
  -2  -2   0  298.57    6.30
  -2  -2   0  288.27    6.70
  -2  -2   0  299.87    6.80
   2  -2   0  304.57    7.00
   2  -2   0  300.07    6.50
  -2   2   0  298.17    6.80
   2   2   0  297.37    6.40
  -2   2   0  305.17    6.50
   2   2   0  295.37    6.30
  -2   2   0  297.47    7.00
  -2   2   0  298.47    6.50
  -3  -2   0  292.67    6.70
   3  -2   0  281.87    7.10
   3  -2   0  287.37    7.00
  -3  -2   0  292.97    6.90
  -3  -2   0  285.37    7.10
  -3  -2   0  288.37    6.70
  -3  -2   0  295.27    6.20
   3  -2   0  282.97    6.50
  -3   2   0  285.97    6.50
   3   2   0  294.27    6.30
   3   2   0  293.47    7.10
   3   2   0  293.07    6.30
  -3   2   0  281.97    6.90
  -3   2   0  288.87    6.90
   4  -2   0    0.70    0.40
  -4  -2   0    1.30    0.30
  -4  -2   0    0.40    0.30
  -4  -2   0    0.90    0.20
  -4  -2   0    1.20    0.30
  -4  -2   0    1.00    0.40
   4  -2   0    0.90    0.30
  -4   2   0    0.90    0.30
  -4   2   0    0.60    0.30
   4   2   0    1.00    0.30
   4   2   0    1.10    0.40
  -4   2   0    0.50    0.30
   4   2   0    0.60    0.20
   5  -2   0   14.60    1.20
  -5  -2   0   16.00    1.30
  -5  -2   0   17.10    0.90
  -5  -2   0   17.00    1.30
   5  -2   0   17.20    1.00
   5   2   0   16.40    1.20
   5   2   0   14.80    0.90
  -5   2   0   16.60    1.20
  -5   2   0   17.70    1.10
  -6  -2   0  121.89    4.30
   6  -2   0  121.69    3.60
  -6  -2   0  125.39    4.20
   6  -2   0  122.89    4.20
  -6  -2   0  122.59    3.40
   6   2   0  113.79    4.20
  -6   2   0  115.99    3.80
  -6   2   0  122.59    4.20
   6   2   0  117.79    3.40
  -7  -2   0   30.60    1.40
   7  -2   0   28.10    1.60
  -7  -2   0   29.30    2.00
   7  -2   0   26.80    2.00
  -7   2   0   28.30    1.60
   7   2   0   26.50    1.90
  -7   2   0   28.70    1.90
   7   2   0   28.90    1.50
   8  -2   0   -0.20    0.50
   8  -2   0    0.10    0.70
  -8  -2   0    0.70    0.80
  -8  -2   0    0.30    0.40
   8   2   0    0.20    0.50
   8   2   0    0.50    0.80
  -8   2   0   -0.40    0.50
   0  -3   0   -0.30    0.10
   0  -3   0   -0.40    0.10
   0  -3   0   -0.30    0.10
   0   3   0   -0.30    0.10
   0   3   0   -0.30    0.10
   0   3   0   -0.20    0.20
   1  -3   0  453.45   10.10
  -1  -3   0  449.26    9.60
  -1  -3   0  442.16   10.00
   1  -3   0  445.06   10.00
  -1  -3   0  448.86    9.90
   1  -3   0  448.36    9.50
  -1  -3   0  447.96   10.00
  -1   3   0  444.06    9.50
   1   3   0  466.45    9.40
  -1   3   0  437.76    9.60
   1   3   0  447.06    9.40
  -1   3   0  447.36    9.60
  -1   3   0  447.76   10.10
   1   3   0  444.36    9.40
  -2  -3   0   47.30    1.30
   2  -3   0   49.90    1.60
  -2  -3   0   46.00    1.60
  -2  -3   0   48.70    1.50
  -2  -3   0   48.90    1.30
   2  -3   0   47.50    1.60
  -2  -3   0   45.50    1.30
   2  -3   0   51.19    1.50
  -2   3   0   49.50    1.50
   2   3   0   47.70    1.20
  -2   3   0   47.60    1.50
   2   3   0   47.70    1.20
  -2   3   0   49.10    1.60
   2   3   0   47.00    1.30
  -2   3   0   50.29    1.50
  -3  -3   0  142.59    3.80
  -3  -3   0  132.79    3.40
  -3  -3   0  135.39    3.80
  -3  -3   0  140.19    3.20
   3  -3   0  135.89    3.50
   3  -3   0  132.79    3.80
   3  -3   0  142.79    3.80
  -3  -3   0  143.29    3.40
  -3   3   0  132.29    3.70
  -3   3   0  132.99    3.70
   3   3   0  135.89    3.20
  -3   3   0  142.69    3.50
  -3   3   0  139.79    3.40
   3   3   0  140.69    3.20
  -4  -3   0   21.00    1.20
  -4  -3   0   23.50    0.90
  -4  -3   0   20.20    1.20
   4  -3   0   22.30    1.10
   4  -3   0   22.00    1.30
  -4  -3   0   22.50    0.80
  -4  -3   0   22.40    0.90
   4   3   0   21.90    0.90
  -4   3   0   21.70    1.10
   4   3   0   23.40    0.90
  -4   3   0   22.10    1.10
  -4   3   0   22.90    1.30
   4   3   0   22.90    1.30
  -5  -3   0  379.76    8.70
  -5  -3   0  374.56    9.30
  -5  -3   0  372.46    9.50
   5  -3   0  372.96    8.70
   5  -3   0  368.46    9.50
  -5   3   0  361.26    9.30
  -5   3   0  368.76    8.50
  -5   3   0  376.26    9.20
   5   3   0  377.66    9.50
  -6  -3   0   45.70    2.40
   6  -3   0   46.10    2.40
   6  -3   0   44.80    1.90
  -6  -3   0   44.50    1.60
  -6  -3   0   45.30    2.30
  -6   3   0   47.80    2.30
  -6   3   0   45.60    2.00
   6   3   0   45.00    1.70
   6   3   0   46.10    2.40
   7  -3   0   -0.40    0.40
  -7  -3   0   -0.10    0.30
   7  -3   0    0.20    0.60
  -7  -3   0    0.10    0.50
   7   3   0    0.60    0.60
  -7   3   0   -0.40    0.30
   7   3   0   -0.10    0.40
  -7   3   0    0.20    0.40
  -8  -3   0    1.00    0.40
   8  -3   0    1.00    0.80
  -8  -3   0    1.20    0.80
   8  -3   0    0.80    0.60
   8   3   0    0.40    0.70
   8   3   0    0.60    0.50
   0  -4   0  373.96    8.10
   0  -4   0  375.26    8.60
   0  -4   0  380.06    8.60
   0   4   0  383.46    8.10
   0   4   0  383.16    8.20
   0   4   0  386.06    8.60
  -1  -4   0   68.99    2.00
   1  -4   0   69.09    2.00
   1  -4   0   70.09    1.80
  -1  -4   0   69.49    1.70
  -1  -4   0   68.39    1.80
  -1  -4   0   66.49    1.80
   1  -4   0   69.39    2.00
   1   4   0   69.89    1.70
  -1   4   0   71.69    2.00
  -1   4   0   72.99    2.00
  -1   4   0   67.79    1.90
  -1   4   0   69.29    1.80
   1   4   0   71.79    1.70
   1   4   0   69.39    1.80
   2  -4   0    4.50    0.40
   2  -4   0    3.90    0.50
  -2  -4   0    4.00    0.30
  -2  -4   0    4.60    0.40
   2  -4   0    3.90    0.50
  -2  -4   0    3.60    0.30
  -2  -4   0    4.60    0.50
  -2   4   0    3.50    0.50
  -2   4   0    4.00    0.40
   2   4   0    3.70    0.30
  -2   4   0    3.30    0.40
   2   4   0    3.80    0.30
  -2   4   0    4.20    0.50
   2   4   0    3.60    0.30
  -3  -4   0    5.80    0.70
  -3  -4   0    5.40    0.40
   3  -4   0    6.10    0.70
   3  -4   0    6.10    0.60
  -3  -4   0    8.90    0.70
  -3  -4   0    5.50    0.40
   3  -4   0    4.60    0.50
  -3  -4   0    5.60    0.40
   3   4   0    5.60    0.40
  -3   4   0    5.80    0.60
  -3   4   0    5.40    0.50
  -3   4   0    5.10    0.60
  -3   4   0    5.70    0.60
   3   4   0    5.30    0.40
   3   4   0    5.10    0.40
   4  -4   0   26.50    1.40
  -4  -4   0   25.80    0.90
   4  -4   0   24.80    1.20
  -4  -4   0   25.50    0.90
  -4  -4   0   24.90    1.30
  -4  -4   0   25.20    1.40
   4   4   0   25.00    1.00
   4   4   0   25.20    1.00
  -4   4   0   24.80    1.20
  -4   4   0   24.60    1.30
   4   4   0   26.00    0.90
  -4   4   0   24.90    1.30
  -5  -4   0    0.80    0.50
   5  -4   0    0.60    0.50
   5  -4   0    0.10    0.30
  -5  -4   0    0.60    0.30
  -5  -4   0    0.70    0.50
  -5   4   0    0.20    0.30
  -5   4   0    0.40    0.40
  -5   4   0    0.00    0.40
   5   4   0    0.10    0.20
   5   4   0    0.70    0.50
   6  -4   0   31.20    2.00
   6  -4   0   33.60    1.70
  -6  -4   0   33.00    1.20
  -6  -4   0   31.60    1.90
  -6  -4   0   29.00    1.90
  -6   4   0   33.40    1.90
   6   4   0   32.10    1.90
   6   4   0   31.10    1.40
  -6   4   0   29.50    1.70
   7  -4   0    0.60    0.50
   7  -4   0    0.70    0.60
  -7  -4   0    0.60    0.30
  -7  -4   0    1.00    0.80
  -7  -4   0    0.70    0.60
   7   4   0    0.80    0.40
   7   4   0    0.90    0.50
  -7   4   0    1.30    0.40
  -7   4   0    0.60    0.50
   8  -4   0    9.00    1.50
   8  -4   0   10.90    1.30
  -8  -4   0   13.50    1.80
   8   4   0   11.20    1.10
   0  -5   0    0.00    0.20
   0  -5   0    0.00    0.10
   0   5   0    0.10    0.10
   0   5   0    0.00    0.20
   0   5   0   -0.30    0.10
   1  -5   0  274.87    6.50
  -1  -5   0  275.57    6.30
  -1  -5   0  272.27    5.90
   1  -5   0  270.67    6.50
  -1  -5   0  272.97    6.30
  -1  -5   0  269.37    6.50
   1  -5   0  268.17    6.10
   1   5   0  270.57    5.90
  -1   5   0  282.37    6.60
  -1   5   0  272.17    6.00
  -1   5   0  275.97    6.10
  -1   5   0  269.37    6.30
   1   5   0  273.67    6.10
   1   5   0  274.07    5.90
  -2  -5   0  733.03   15.80
   2  -5   0  739.03   16.60
   2  -5   0  745.23   15.70
  -2  -5   0  730.53   16.50
  -2  -5   0  758.82   16.20
   2  -5   0  714.93   16.50
  -2   5   0  728.83   16.60
   2   5   0  731.83   15.30
  -2   5   0  720.23   15.70
  -2   5   0  723.63   15.60
   2   5   0  736.63   15.40
   2   5   0  755.72   15.30
  -2   5   0  716.53   15.80
  -3  -5   0   18.30    0.70
  -3  -5   0   20.00    1.00
   3  -5   0   18.10    1.00
  -3  -5   0   18.60    1.10
   3  -5   0   18.60    1.10
  -3  -5   0   17.80    0.70
   3  -5   0   19.30    1.10
  -3   5   0   17.70    1.00
  -3   5   0   18.70    1.00
  -3   5   0   20.60    1.00
   3   5   0   17.90    0.70
   3   5   0   20.30    0.80
  -3   5   0   18.80    1.00
   3   5   0   20.30    0.70
   4  -5   0    1.70    0.50
  -4  -5   0    2.70    0.30
  -4  -5   0    2.80    0.60
  -4  -5   0    2.90    0.30
   4  -5   0    3.60    0.60
  -4  -5   0    1.70    0.50
   4   5   0    3.70    0.40
   4   5   0    3.70    0.40
  -4   5   0    3.60    0.60
   4   5   0    2.80    0.30
  -4   5   0    2.90    0.50
  -4   5   0    2.50    0.50
  -5  -5   0    1.80    0.60
   5  -5   0    1.80    0.50
   5  -5   0    1.90    0.60
  -5  -5   0    1.70    0.30
  -5  -5   0    0.90    0.30
  -5  -5   0    1.50    0.50
   5   5   0    1.60    0.60
  -5   5   0    2.20    0.50
   5   5   0    2.00    0.40
  -5   5   0    1.20    0.50
  -5   5   0    1.90    0.50
   6  -5   0    8.20    1.20
  -6  -5   0    7.70    1.10
  -6  -5   0    7.70    1.20
   6  -5   0    9.70    1.00
  -6  -5   0    9.80    0.60
   6   5   0    8.60    0.70
  -6   5   0    8.30    1.10
  -6   5   0    7.90    1.00
   6   5   0    7.70    1.10
  -7  -5   0    3.60    0.90
   7  -5   0    2.90    0.70
   7  -5   0    2.20    0.90
  -7  -5   0    1.90    0.90
  -7   5   0    3.10    0.80
   7   5   0    3.30    0.50
   7   5   0    2.30    0.70
  -7   5   0    2.50    0.60
  -8  -5   0    7.40    1.30
   8  -5   0    7.30    1.10
   8  -5   0    6.30    1.40
   8   5   0    4.20    0.80
   0  -6   0  220.78    5.50
   0  -6   0  227.48    5.60
   0   6   0  225.18    5.20
   0   6   0  229.08    5.30
   0   6   0  233.08    5.50
   1  -6   0  834.92   19.00
   1  -6   0  826.82   18.80
  -1  -6   0  813.72   18.80
  -1  -6   0  843.42   18.70
   1  -6   0  864.31   17.80
  -1  -6   0  847.22   18.70
  -1  -6   0  847.32   17.80
  -1   6   0  847.62   19.00
   1   6   0  851.11   17.70
  -1   6   0  864.01   17.90
  -1   6   0  855.01   18.00
   1   6   0  848.52   17.80
  -1   6   0  835.22   17.90
   1   6   0  843.42   17.70
  -2  -6   0   34.10    1.10
   2  -6   0   34.80    1.50
   2  -6   0   34.20    1.40
  -2  -6   0   34.90    1.10
  -2  -6   0   32.40    1.40
   2  -6   0   34.80    1.30
  -2  -6   0   32.70    1.20
  -2   6   0   34.30    1.40
   2   6   0   34.20    1.10
  -2   6   0   33.90    1.40
  -2   6   0   35.20    1.20
  -2   6   0   34.10    1.30
   2   6   0   36.00    1.10
   2   6   0   33.70    1.20
  -3  -6   0   75.39    2.00
  -3  -6   0   77.29    2.00
   3  -6   0   75.69    2.60
   3  -6   0   81.49    2.40
   3  -6   0   72.59    2.60
  -3  -6   0   76.59    2.40
  -3  -6   0   78.09    2.70
  -3   6   0   76.29    2.50
  -3   6   0   78.49    2.60
   3   6   0   76.69    2.10
  -3   6   0   76.89    2.40
   3   6   0   78.49    2.00
   3   6   0   79.49    2.00
  -3   6   0   79.79    2.40
   4  -6   0   71.49    2.40
  -4  -6   0   73.09    1.90
  -4  -6   0   71.09    2.50
   4  -6   0   65.39    2.60
  -4  -6   0   68.59    2.70
  -4  -6   0   71.79    1.90
  -4   6   0   67.09    2.50
  -4   6   0   70.59    2.40
  -4   6   0   69.89    2.60
   4   6   0   69.79    2.00
   5  -6   0    9.90    0.90
  -5  -6   0   10.10    0.50
  -5  -6   0    9.20    1.10
  -5  -6   0    9.60    0.50
   5  -6   0   10.40    1.20
  -5  -6   0    8.60    1.00
  -5   6   0    9.20    0.90
  -5   6   0   10.40    1.00
   5   6   0   10.60    0.70
  -5   6   0   10.80    1.10
   6  -6   0   25.00    1.50
  -6  -6   0   29.20    1.80
   6  -6   0   27.90    1.90
  -6  -6   0   26.10    1.80
   6   6   0   28.40    1.30
  -6   6   0   28.90    1.80
  -6   6   0   29.30    1.70
   6   6   0   29.50    1.90
   7  -6   0   48.30    2.70
  -7  -6   0   42.70    2.60
  -7  -6   0   46.40    2.60
   7  -6   0   44.10    2.20
  -7   6   0   50.09    2.60
  -7   6   0   43.70    2.30
   7   6   0   46.00    1.80
   8  -6   0   51.59    3.00
  -8  -6   0   56.89    3.10
   8  -6   0   54.89    2.70
  -8  -6   0   52.39    3.10
   8   6   0   57.09    2.20
   0  -7   0   -0.20    0.30
   0  -7   0   -0.20    0.20
   0   7   0    0.40    0.20
   0   7   0    0.10    0.20
   0   7   0   -0.10    0.30
   1  -7   0   91.49    2.80
  -1  -7   0   94.69    2.60
   1  -7   0   94.19    2.80
  -1  -7   0   91.19    2.80
  -1  -7   0   91.29    2.50
   1  -7   0   93.39    2.50
  -1  -7   0   90.79    2.10
   1   7   0   96.69    2.40
  -1   7   0   94.29    2.20
   1   7   0   90.39    2.40
  -1   7   0   92.89    2.80
  -1   7   0   92.59    2.60
  -1   7   0   93.49    2.80
   1   7   0   90.29    2.60
   2  -7   0   -0.30    0.20
   2  -7   0    0.40    0.20
  -2  -7   0    0.00    0.20
   2  -7   0    0.20    0.20
  -2  -7   0    0.50    0.20
  -2  -7   0    0.20    0.30
  -2  -7   0    0.20    0.20
  -2   7   0    0.40    0.30
   2   7   0    0.00    0.20
  -2   7   0   -0.10    0.20
   2   7   0    0.40    0.20
  -2   7   0    0.30    0.30
  -2   7   0    0.10    0.20
   2   7   0    0.30    0.20
  -3  -7   0  121.79    2.90
  -3  -7   0  111.29    3.60
  -3  -7   0  120.09    3.20
   3  -7   0  114.49    3.60
   3  -7   0  112.29    3.30
  -3  -7   0  115.99    2.90
   3  -7   0  113.49    3.50
   3   7   0  116.79    3.00
   3   7   0  121.19    2.90
  -3   7   0  111.29    3.50
   3   7   0  120.59    2.90
  -3   7   0  111.79    3.40
  -3   7   0  112.89    3.20
   4  -7   0   39.50    1.90
  -4  -7   0   36.40    1.90
  -4  -7   0   37.90    1.20
   4  -7   0   33.90    1.60
  -4  -7   0   36.20    1.70
  -4  -7   0   39.30    1.20
  -4   7   0   35.90    1.70
  -4   7   0   38.70    1.80
  -4   7   0   37.70    1.70
   4   7   0   38.80    1.30
   5  -7   0   12.80    1.00
   5  -7   0   13.60    1.30
  -5  -7   0   10.90    1.20
  -5  -7   0   12.70    1.20
  -5   7   0   12.30    1.10
  -5   7   0   11.70    1.10
  -5   7   0   12.60    1.20
   5   7   0   12.10    0.80
   6  -7   0    8.80    1.20
   6  -7   0    9.30    1.00
  -6  -7   0    8.60    1.20
  -6  -7   0    6.30    1.10
  -6   7   0    9.00    1.20
   6   7   0    9.00    0.70
  -6   7   0    8.30    1.10
   6   7   0    7.30    1.10
   7  -7   0    0.00    0.60
   7  -7   0    0.90    0.50
  -7  -7   0    0.70    0.70
  -7  -7   0    1.40    0.80
  -7   7   0    0.40    0.40
  -7   7   0    0.50    0.40
   8  -7   0   26.40    1.90
   0  -8   0   48.70    1.70
   0  -8   0   51.19    1.90
   0   8   0   51.49    1.70
   0   8   0   51.89    1.80
   0   8   0   52.09    1.90
  -1  -8   0  118.49    3.20
  -1  -8   0  123.39    3.30
   1  -8   0  118.99    3.20
   1  -8   0  116.19    3.50
   1  -8   0  121.49    3.50
  -1  -8   0  115.29    3.50
  -1   8   0  122.39    3.50
   1   8   0  120.19    3.10
  -1   8   0  123.99    3.30
   1   8   0  119.69    3.30
  -1   8   0  123.59    2.80
   1   8   0  121.59    3.10
  -1   8   0  119.39    3.40
  -2  -8   0    0.50    0.20
   2  -8   0    0.40    0.20
  -2  -8   0    0.20    0.20
  -2  -8   0    0.50    0.20
   2  -8   0    0.30    0.30
  -2  -8   0    0.00    0.30
   2  -8   0   -0.30    0.20
   2   8   0    0.10    0.20
  -2   8   0    0.20    0.30
   2   8   0    0.00    0.10
  -2   8   0    0.00    0.20
  -2   8   0    0.00    0.20
   2   8   0    0.20    0.20
  -2   8   0    0.30    0.20
  -3  -8   0   64.99    2.50
  -3  -8   0   66.19    1.90
   3  -8   0   68.59    2.50
   3  -8   0   66.49    2.30
   3  -8   0   65.89    2.50
  -3  -8   0   65.79    2.10
  -3  -8   0   68.39    1.90
   3   8   0   65.99    1.90
  -3   8   0   65.59    2.20
  -3   8   0   65.09    2.50
  -3   8   0   64.39    2.40
   3   8   0   70.19    2.10
   4  -8   0   21.80    1.50
  -4  -8   0   23.00    0.80
  -4  -8   0   23.80    1.30
  -4  -8   0   22.40    1.50
   4  -8   0   24.30    1.30
  -4  -8   0   22.90    0.80
  -4   8   0   20.70    1.30
   4   8   0   23.80    1.00
  -4   8   0   23.50    1.40
  -4   8   0   23.70    1.40
  -5  -8   0   30.60    1.70
   5  -8   0   31.40    1.90
  -5  -8   0   27.50    1.80
   5  -8   0   33.10    1.70
  -5   8   0   29.80    1.70
  -5   8   0   29.20    1.70
   5   8   0   29.90    1.20
  -5   8   0   31.70    1.70
   6  -8   0   15.40    1.20
  -6  -8   0   17.30    1.50
   6  -8   0   12.60    1.50
  -6  -8   0   13.60    1.50
  -6   8   0   10.90    1.20
  -6   8   0   13.40    1.40
   6   8   0   14.30    1.50
   6   8   0   14.40    0.90
  -6   8   0   16.00    1.30
  -7  -8   0    9.60    1.50
   7  -8   0    7.10    1.30
  -7  -8   0    6.70    1.20
  -7   8   0    8.70    1.20
   7   8   0    7.90    0.70
   0  -9   0   -0.10    0.20
   0  -9   0   -0.10    0.20
   0   9   0   -0.10    0.30
   0   9   0   -0.10    0.20
   0   9   0    0.00    0.30
   1  -9   0   23.30    1.30
  -1  -9   0   22.70    1.00
   1  -9   0   23.00    1.20
  -1  -9   0   20.10    1.20
  -1  -9   0   21.50    1.00
  -1   9   0   22.80    0.70
  -1   9   0   22.50    1.10
   1   9   0   22.60    1.10
  -1   9   0   21.50    1.20
  -1   9   0   22.20    1.20
   1   9   0   21.40    1.00
   2  -9   0    8.00    0.90
  -2  -9   0   10.60    0.60
  -2  -9   0    9.70    0.90
  -2  -9   0    7.80    0.60
   2  -9   0    9.00    0.70
   2  -9   0    9.10    0.90
  -2   9   0   10.20    0.90
  -2   9   0   10.20    0.90
   2   9   0    9.00    0.70
  -2   9   0    8.80    0.60
  -2   9   0   10.40    0.80
   2   9   0    8.60    0.60
  -3  -9   0  187.88    5.40
  -3  -9   0  187.18    4.50
  -3  -9   0  165.38    4.50
   3  -9   0  184.78    5.40
   3  -9   0  197.28    5.00
   3  -9   0  189.38    5.30
  -3   9   0  193.88    4.80
   3   9   0  190.48    4.70
   3   9   0  186.68    4.50
  -3   9   0  192.78    5.20
  -3   9   0  183.18    5.30
   4  -9   0   93.79    3.50
  -4  -9   0   96.99    2.40
  -4  -9   0   92.69    3.50
  -4  -9   0   94.39    2.40
   4  -9   0   92.89    3.10
  -4   9   0  103.59    3.20
  -4   9   0   94.39    3.40
  -4   9   0  100.09    3.30
   4   9   0   97.89    2.70
  -5  -9   0    7.30    1.10
   5  -9   0    6.30    1.10
   5   9   0    6.70    0.60
  -5   9   0    7.60    1.00
  -5   9   0    7.80    1.00
  -5   9   0    6.50    1.00
   6  -9   0    0.70    0.60
  -6  -9   0    0.50    0.60
  -6   9   0    0.10    0.50
  -6   9   0    0.70    0.50
   6   9   0    0.40    0.30
  -6   9   0    0.50    0.40
   7  -9   0    2.40    0.90
  -7  -9   0    4.00    1.10
   7   9   0    3.50    0.50
   0 -10   0   -0.10    0.20
   0 -10   0    0.10    0.30
   0  10   0    0.00    0.30
   0  10   0    0.00    0.20
  -1 -10   0   29.50    1.60
   1 -10   0   30.40    1.50
   1 -10   0   33.50    1.60
  -1 -10   0   29.20    1.30
  -1  10   0   26.50    1.40
   1  10   0   31.30    1.50
   1  10   0   30.30    1.30
  -1  10   0   30.90    1.40
  -2 -10   0   60.59    2.40
   2 -10   0   61.09    2.40
   2 -10   0   60.49    2.40
  -2 -10   0   63.99    2.00
   2  10   0   62.29    2.00
  -2  10   0   62.39    2.40
  -2  10   0   65.79    2.50
   2  10   0   60.29    2.20
  -2  10   0   65.39    2.30
  -3 -10   0   33.90    1.20
   3 -10   0   29.30    1.70
  -3 -10   0   33.70    1.80
   3 -10   0   33.10    1.70
   3  10   0   33.60    1.50
   3  10   0   33.20    1.30
  -3  10   0   33.50    1.40
  -3  10   0   32.30    1.80
  -3  10   0   34.20    1.80
   4 -10   0   23.90    1.70
  -4 -10   0   24.60    1.70
  -4 -10   0   27.60    0.90
   4  10   0   26.90    1.20
  -4  10   0   25.20    1.60
  -4  10   0   29.60    1.50
  -4  10   0   26.50    1.60
  -5 -10   0   53.09    2.70
   5 -10   0   53.79    2.70
  -5  10   0   57.79    2.50
  -5  10   0   54.09    2.60
   5  10   0   52.99    1.90
  -5  10   0   54.09    2.30
  -6 -10   0   12.00    1.50
   6 -10   0   12.80    1.50
  -6  10   0   10.70    1.20
  -6  10   0   11.20    1.30
  -6  10   0   13.40    1.40
   6  10   0   13.10    0.90
  -7 -10   0    1.00    0.80
   7 -10   0    0.60    0.70
  -7  10   0    0.90    0.50
   7  10   0    0.20    0.20
   0 -11   0    0.30    0.30
   0 -11   0    0.10    0.20
   0  11   0    0.20    0.30
   0  11   0   -0.20    0.20
   1 -11   0  148.09    4.50
  -1 -11   0  149.79    4.50
   1 -11   0  147.79    4.30
  -1 -11   0  146.49    4.10
  -1  11   0  138.99    4.30
   1  11   0  147.79    3.90
   1  11   0  149.29    4.20
  -2 -11   0    0.20    0.30
   2 -11   0    0.40    0.40
   2 -11   0    0.20    0.40
  -2 -11   0    0.40    0.40
  -2  11   0    0.00    0.30
   2  11   0   -0.20    0.20
   2  11   0    0.40    0.30
  -2  11   0    0.20    0.40
   3 -11   0   38.90    2.00
   3 -11   0   37.70    1.90
  -3 -11   0   35.50    1.90
   3  11   0   33.50    1.40
   3  11   0   38.20    1.60
  -3  11   0   35.70    1.90
   4 -11   0    0.40    0.50
  -4 -11   0    0.00    0.50
  -4 -11   0    0.20    0.20
   4  11   0    0.50    0.30
  -4  11   0    0.40    0.50
  -4  11   0    0.60    0.40
   5 -11   0   10.30    1.40
  -5 -11   0   11.50    1.40
  -5  11   0   11.00    1.30
   5  11   0   10.80    0.80
  -5  11   0   11.20    1.30
   6 -11   0   13.20    1.60
  -6 -11   0   15.70    1.70
  -6  11   0   16.90    1.60
   6  11   0   12.80    0.90
  -6  11   0   13.60    1.40
   7 -11   0    0.50    0.70
  -7 -11   0   -1.00    0.70
   7  11   0    0.20    0.20
   0 -12   0    7.80    1.00
   0 -12   0    7.00    0.80
   0  12   0   10.00    1.10
   0  12   0    8.30    0.80
   1 -12   0    2.20    0.60
  -1 -12   0    2.60    0.50
   1 -12   0    3.10    0.60
  -1 -12   0    2.40    0.60
   1  12   0    2.10    0.50
  -1  12   0    1.90    0.50
  -1  12   0    2.00    0.50
   1  12   0    2.10    0.50
  -2 -12   0  284.37    7.70
  -2 -12   0  290.47    7.00
   2 -12   0  283.07    7.70
   2 -12   0  277.97    7.60
   2  12   0  279.97    7.10
  -2  12   0  286.67    7.20
  -2  12   0  273.37    7.40
   2  12   0  287.47    6.80
  -3 -12   0   -0.10    0.30
   3 -12   0    1.00    0.50
  -3 -12   0    0.30    0.50
   3 -12   0    0.00    0.40
   3  12   0   -0.10    0.30
   3  12   0    0.50    0.30
  -3  12   0   -0.10    0.50
  -4 -12   0    6.50    0.40
  -4 -12   0    6.60    1.10
   4 -12   0    4.80    1.00
  -4  12   0    6.60    1.10
   4  12   0    5.70    0.60
  -5 -12   0   30.30    2.10
   5 -12   0   33.50    2.10
   5  12   0   31.20    1.40
  -5  12   0   30.50    2.00
  -6 -12   0    0.70    0.90
   6 -12   0    0.80    0.80
   6  12   0    0.40    0.30
  -6  12   0    0.90    0.70
   0 -13   0    0.00    0.30
   0 -13   0    0.20    0.40
   0  13   0    0.30    0.40
   0  13   0    0.30    0.40
  -1 -13   0   26.30    1.70
   1 -13   0   23.50    1.40
  -1 -13   0   26.20    1.40
   1 -13   0   26.90    1.70
  -1  13   0   23.40    1.60
   1  13   0   25.80    1.50
  -1  13   0   24.40    1.40
   1  13   0   23.90    1.30
  -2 -13   0   11.40    0.90
  -2 -13   0   11.70    1.30
   2 -13   0   13.30    1.10
   2 -13   0   11.60    1.30
   2  13   0   11.50    0.90
   2  13   0   13.80    1.10
  -2  13   0    9.50    1.20
  -2  13   0   13.20    1.20
  -3 -13   0   12.30    1.40
   3 -13   0   11.70    1.30
  -3 -13   0    9.90    0.70
   3 -13   0   10.70    1.20
   3  13   0   10.50    0.80
  -3  13   0   11.20    1.30
   4 -13   0   12.20    1.40
  -4 -13   0   12.30    1.50
  -4 -13   0   12.60    0.60
   4  13   0   11.70    0.90
  -4  13   0   12.60    1.40
   5 -13   0   -0.10    0.60
  -5 -13   0    0.40    0.60
  -5  13   0    0.00    0.60
   5  13   0   -0.20    0.30
  -6 -13   0   20.60    2.10
   6 -13   0   21.50    2.10
  -6  13   0   19.50    1.80
   6  13   0   19.70    1.10
   0 -14   0   78.69    2.90
   0 -14   0   76.39    3.20
   0  14   0   77.19    3.00
   0  14   0   81.69    2.80
  -1 -14   0   97.59    3.30
  -1 -14   0  101.39    3.80
   1 -14   0  106.09    3.60
   1 -14   0  104.39    3.80
   1  14   0  103.19    3.50
  -1  14   0  100.49    3.60
   1  14   0   98.49    3.20
  -1  14   0  100.79    3.40
  -2 -14   0   22.50    1.70
   2 -14   0   22.80    1.50
  -2 -14   0   23.10    1.30
   2 -14   0   23.60    1.70
  -2  14   0   21.30    1.40
   2  14   0   21.50    1.40
   2  14   0   23.50    1.30
  -2  14   0   23.00    1.70
   3 -14   0    0.00    0.40
  -3 -14   0    0.80    0.40
   3 -14   0    1.10    0.50
  -3 -14   0   -0.10    0.50
   3  14   0    0.60    0.40
  -3  14   0    0.30    0.60
  -4 -14   0   10.40    0.60
   4 -14   0   10.30    1.40
  -4 -14   0   11.40    1.50
  -4  14   0    9.40    1.30
   4  14   0    9.30    0.90
   5 -14   0    3.60    1.00
  -5 -14   0    7.00    1.30
  -5  14   0    4.10    1.00
   5  14   0    4.10    0.60
  -6 -14   0   38.30    2.70
  -6  14   0   39.90    2.50
   0 -15   0   -0.10    0.30
   0 -15   0    0.00    0.50
   0  15   0   -0.80    0.30
   0  15   0   -0.20    0.30
  -1 -15   0    9.60    1.00
   1 -15   0   13.40    1.40
   1 -15   0   12.10    1.20
  -1 -15   0   12.10    1.40
  -1  15   0   10.40    1.10
   1  15   0   11.30    1.20
   1  15   0   10.80    1.00
  -1  15   0   13.00    1.30
  -2 -15   0    2.00    0.70
   2 -15   0    1.80    0.70
  -2 -15   0    1.90    0.60
   2 -15   0    2.40    0.70
  -2  15   0    2.50    0.70
   2  15   0    2.00    0.60
   2  15   0    1.10    0.50
  -3 -15   0    7.80    0.70
  -3 -15   0    8.90    1.30
   3 -15   0    9.50    1.30
   3 -15   0    8.10    1.20
   3  15   0    7.00    0.80
  -3  15   0    8.60    1.30
  -4 -15   0   23.60    0.90
   4 -15   0   21.30    1.90
  -4 -15   0   21.70    2.00
   4  15   0   22.60    1.40
  -4  15   0   21.90    1.90
  -5 -15   0    0.10    0.80
   5 -15   0    0.70    0.80
  -5  15   0    0.50    0.80
   0 -16   0    7.10    1.20
   0 -16   0    6.20    0.90
   0  16   0    6.70    0.90
   0  16   0    6.50    1.10
  -1 -16   0    1.60    0.70
   1 -16   0    1.40    0.60
   1 -16   0    1.60    0.60
  -1 -16   0    0.90    0.40
   1  16   0    1.70    0.60
   1  16   0    1.00    0.50
  -1  16   0    1.30    0.50
  -1  16   0    1.10    0.60
   2 -16   0   -0.10    0.50
   2 -16   0   -0.40    0.40
  -2 -16   0    0.50    0.60
  -2 -16   0    0.30    0.40
  -2  16   0   -0.60    0.40
   2  16   0    0.20    0.50
   2  16   0    0.30    0.40
  -3 -16   0    0.50    0.40
   3 -16   0    0.10    0.60
  -3 -16   0    0.20    0.70
   3 -16   0   -0.10    0.50
  -3  16   0    0.30    0.60
   3  16   0    0.80    0.50
   4 -16   0    2.10    0.90
  -4 -16   0    1.20    0.80
  -4  16   0    1.70    0.90
   4  16   0    0.70    0.50
   5 -16   0    0.70    0.80
  -5 -16   0   -0.70    0.70
  -5  16   0   -0.60    0.60
   0 -17   0    0.90    0.60
   0 -17   0    0.50    0.40
   0  17   0   -0.50    0.40
   0  17   0    0.20    0.50
  -1 -17   0   30.40    2.10
   1 -17   0   32.60    2.20
  -1 -17   0   34.20    1.80
   1 -17   0   36.40    2.00
  -1  17   0   31.60    1.90
   1  17   0   29.10    1.80
   1  17   0   34.50    2.00
  -1  17   0   30.10    2.00
   2 -17   0   10.00    1.20
  -2 -17   0   11.10    1.10
   2 -17   0   12.70    1.50
  -2 -17   0   11.00    1.50
  -2  17   0    8.70    1.30
   2  17   0   10.40    1.10
   2  17   0   11.30    1.30
   3 -17   0   -0.10    0.60
  -3 -17   0    0.00    0.70
  -3 -17   0    0.90    0.40
  -3  17   0    0.20    0.70
   3  17   0    0.50    0.50
  -4 -17   0    0.40    0.80
   4 -17   0    1.90    0.90
   4  17   0    1.90    0.60
  -4  17   0    2.50    0.90
   0 -18   0    9.90    1.10
   0 -18   0    8.00    1.30
   0  18   0    9.60    1.20
  -1 -18   0   82.69    3.10
   1 -18   0   85.39    3.80
  -1 -18   0   85.99    3.80
   1  18   0   85.09    3.30
  -1  18   0   84.69    3.60
  -1  18   0   88.89    3.40
   1  18   0   87.89    3.50
  -2 -18   0    2.60    0.70
  -2 -18   0    1.80    0.80
   2 -18   0    2.90    0.90
   2  18   0    1.70    0.60
  -3 -18   0    0.40    0.40
   3 -18   0    0.10    0.60
  -3 -18   0    0.90    0.80
   3  18   0    0.60    0.50
  -3  18   0    0.30    0.70
   0 -19   0   -0.40    0.70
   0  19   0    1.50    0.70
  -1 -19   0   25.80    2.10
   1 -19   0   25.20    2.10
   1  19   0   24.30    1.70
  -2 -19   0   -0.80    0.70
  -2 -19   0    0.70    0.60
   2 -19   0    0.80    0.80
   2  19   0    0.80    0.60
   0 -20   0   -0.30    0.70
   0  20   0    0.30    0.60
   1  20   0    4.90    1.00
   8   0  -1    0.70    0.50
   8   0  -1    0.70    0.70
  -8   0   1    0.90    0.50
  -8   0   1    1.20    0.90
  -7   0   1   -0.20    0.50
  -7   0   1   -0.10    0.30
   7   0  -1    0.10    0.60
   7   0  -1    0.00    0.40
  -6   0   1   -0.10    0.30
   6   0  -1   -0.10    0.50
   6   0  -1   -0.10    0.30
  -6   0   1    0.40    0.50
   5   0  -1   -0.10    0.30
   5   0  -1    0.00    0.20
  -5   0   1    0.40    0.40
  -5   0   1   -0.20    0.20
  -4   0   1   -0.30    0.10
  -4   0   1    0.00    0.20
   4   0  -1    0.30    0.30
   4   0  -1   -0.40    0.20
  -4   0   1   -0.30    0.30
  -4   0   1   -0.30    0.20
   4   0  -1   -0.20    0.20
  -3   0   1   -0.20    0.20
  -3   0   1    0.00    0.20
   3   0  -1   -0.30    0.20
  -3   0   1   -0.10    0.10
  -3   0   1   -0.10    0.20
   3   0  -1    0.10    0.20
   3   0  -1    0.10    0.20
  -2   0   1   -0.10    0.10
  -2   0   1   -0.10    0.10
  -2   0   1   -0.30    0.10
   2   0  -1   -0.20    0.10
  -2   0   1   -0.10    0.20
   2   0  -1   -0.10    0.20
  -2   0   1   -0.20    0.10
   2   0  -1   -0.30    0.10
  -1   0   1   -0.10    0.10
  -1   0   1   -0.10    0.10
  -1   0   1   -0.10    0.10
   1   0  -1    0.00    0.10
   1   0  -1   -0.10    0.10
  -1   0   1    0.00    0.20
   1   0  -1    0.00    0.10
   0   0  -1   -0.40    0.10
   0   0   1   -0.30    0.10
   0   0  -1   -0.50    0.10
   0   0   1   -0.30    0.10
   0   0   1   -0.50    0.10
   0   0   1   -0.40    0.10
   0   0  -1   -0.50    0.10
  -1   0  -1   -0.10    0.10
  -1   0  -1    0.00    0.10
   1   0   1    0.00    0.10
  -1   0  -1    0.00    0.20
   1   0   1    1.10    0.20
   1   0   1    0.00    0.10
  -1   0  -1   -0.10    0.10
   2   0   1   -0.10    0.10
  -2   0  -1    0.10    0.10
   2   0   1    0.00    0.20
  -2   0  -1   -0.20    0.20
  -2   0  -1    0.00    0.10
   2   0   1    0.10    0.10
  -2   0  -1    0.00    0.20
  -3   0  -1   -0.40    0.20
   3   0   1    0.00    0.10
  -3   0  -1    0.10    0.20
   3   0   1   -0.30    0.20
  -3   0  -1    0.00    0.20
  -3   0  -1    0.00    0.20
   3   0   1    0.10    0.20
  -4   0  -1    0.00    0.20
  -4   0  -1    0.20    0.20
  -4   0  -1    0.40    0.30
  -4   0  -1   -0.30    0.20
   4   0   1   -0.10    0.20
   4   0   1   -0.30    0.20
   5   0   1    0.00    0.20
  -5   0  -1    0.40    0.40
  -5   0  -1   -0.30    0.20
   5   0   1   -0.40    0.30
   6   0   1    0.10    0.30
  -6   0  -1    0.20    0.30
  -6   0  -1    0.00    0.40
   6   0   1   -0.10    0.30
  -7   0  -1    0.10    0.40
  -7   0  -1    0.20    0.60
   7   0   1    0.40    0.40
   7   0   1    0.50    0.40
  -8   0  -1   -1.00    0.60
  -8   0  -1    0.00    0.40
   8   0   1    0.70    0.50
   8  -1  -1   -0.20    0.40
   8  -1  -1    0.70    0.70
  -8  -1   1    0.80    0.80
  -8  -1   1    0.70    0.50
  -8   1   1    0.10    0.70
   8   1  -1    0.90    0.80
   8   1  -1   -0.10    0.40
  -8   1   1    0.60    0.40
   7  -1  -1    0.40    0.50
   7  -1  -1    0.50    0.60
  -7  -1   1    0.10    0.40
  -7  -1   1    1.20    0.70
   7   1  -1   -0.10    0.60
   7   1  -1    0.00    0.40
  -7   1   1    1.00    0.40
  -7   1   1    0.10    0.50
  -6  -1   1    6.60    1.10
  -6  -1   1    6.50    0.80
   6  -1  -1    5.40    1.00
   6  -1  -1    7.40    0.80
   6   1  -1    7.10    1.00
  -6   1   1    4.80    1.00
   6   1  -1    5.60    0.70
  -6   1   1    6.10    0.80
   5  -1  -1  158.68    4.70
  -5  -1   1  153.98    4.70
  -5  -1   1  154.78    4.70
   5  -1  -1  155.48    4.20
  -5  -1   1  160.48    4.40
   5   1  -1  161.48    4.20
  -5   1   1  155.98    4.50
  -5   1   1  160.98    4.80
   5   1  -1  163.08    4.80
  -4  -1   1    9.10    0.90
   4  -1  -1    8.10    0.60
   4  -1  -1    9.70    0.70
  -4  -1   1    9.50    0.40
   4  -1  -1    8.50    0.80
  -4  -1   1    9.10    0.70
  -4  -1   1   10.40    0.80
   4   1  -1    8.30    0.80
  -4   1   1    8.40    0.90
  -4   1   1    9.30    0.70
  -4   1   1    9.50    0.50
   3  -1  -1  290.97    7.00
  -3  -1   1  294.17    7.00
  -3  -1   1  306.57    7.10
  -3  -1   1  287.17    6.90
  -3  -1   1  297.97    7.00
   3  -1  -1  291.47    7.10
   3  -1  -1  294.47    6.60
  -3   1   1  289.97    7.00
   3   1  -1  295.47    6.60
  -3   1   1  288.17    7.10
   3   1  -1  289.17    7.10
  -3   1   1  298.27    6.40
  -3   1   1  296.17    6.60
  -2  -1   1   26.30    0.90
   2  -1  -1   26.20    1.00
  -2  -1   1   26.50    1.00
   2  -1  -1   25.30    1.00
   2  -1  -1   25.50    0.90
  -2  -1   1   25.50    1.00
  -2  -1   1   26.50    1.00
  -2   1   1   26.40    0.80
  -2   1   1   25.80    1.00
  -2   1   1   27.00    1.00
  -2   1   1   26.20    0.90
  -2   1   1   26.30    1.00
   2   1  -1   26.20    1.00
   2   1  -1   27.00    0.90
   1  -1  -1   91.69    2.10
  -1  -1   1   89.89    2.20
  -1  -1   1   87.89    2.20
   1  -1  -1   88.49    2.20
   1  -1  -1   90.79    2.30
  -1  -1   1   90.59    2.10
   1  -1  -1   92.59    2.10
   1   1  -1   93.19    2.20
  -1   1   1   90.99    2.10
   1   1  -1   90.99    2.30
   1   1  -1   92.09    2.00
  -1   1   1   89.89    2.30
  -1   1   1   90.89    2.20
   0  -1   1  218.78    5.10
   0  -1   1  217.88    4.90
   0  -1   1  222.28    5.00
   0  -1  -1  221.78    5.10
   0  -1  -1  217.88    5.10
   0  -1  -1  221.58    5.10
   0  -1   1  222.88    4.80
   0   1   1  224.38    4.80
   0   1  -1  249.18    5.20
   0   1  -1  224.28    4.80
   0   1   1  223.18    4.90
   0   1   1  227.78    4.80
   0   1  -1  221.38    4.80
   1  -1   1   27.20    0.80
  -1  -1  -1   26.40    0.70
  -1  -1  -1   27.30    0.90
   1  -1   1   27.10    0.80
  -1  -1  -1   27.20    0.90
   1  -1   1   27.80    0.90
  -1  -1  -1   26.40    0.90
  -1   1  -1   26.00    0.90
   1   1   1   25.80    0.90
  -1   1  -1   28.20    0.90
  -1   1  -1   26.90    1.00
  -1   1  -1   25.30    0.90
  -2  -1  -1   78.59    2.30
   2  -1   1   82.69    2.40
  -2  -1  -1   79.99    2.00
  -2  -1  -1   82.49    2.00
  -2  -1  -1   82.99    2.10
  -2  -1  -1   81.39    2.30
   2  -1   1   84.99    2.10
   2  -1   1   80.39    2.00
   2   1   1   81.59    2.30
   2   1   1   82.19    1.90
  -2   1  -1   79.79    2.20
   2   1   1   83.39    1.90
  -2   1  -1   82.29    2.20
  -2   1  -1   83.89    2.20
  -3  -1  -1   32.70    1.20
  -3  -1  -1   30.30    1.40
   3  -1   1   34.90    1.10
   3  -1   1   29.40    1.10
  -3  -1  -1   28.40    1.40
   3  -1   1   34.30    1.40
  -3  -1  -1   30.90    1.00
   3   1   1   31.30    1.00
  -3   1  -1   33.70    1.20
  -3   1  -1   32.10    1.20
  -3   1  -1   30.20    1.40
   3   1   1   33.70    1.00
  -3   1  -1   30.20    1.20
   3   1   1   30.80    1.40
  -4  -1  -1  108.19    3.50
  -4  -1  -1  110.69    2.90
  -4  -1  -1  110.09    2.90
  -4  -1  -1  107.59    3.40
   4  -1   1  106.59    3.40
   4  -1   1  105.39    2.90
   4   1   1  113.79    2.80
   4   1   1  101.69    3.40
  -4   1  -1  108.59    3.00
  -4   1  -1  110.79    3.10
   4   1   1  108.69    2.80
   5  -1   1    1.40    0.50
  -5  -1  -1    0.70    0.30
  -5  -1  -1    1.80    0.60
   5  -1   1    0.80    0.30
  -5   1  -1    1.00    0.40
   5   1   1    0.70    0.30
   5   1   1    0.20    0.40
  -5   1  -1    0.80    0.50
  -5   1  -1    0.30    0.30
  -6  -1  -1    0.50    0.30
   6  -1   1    0.30    0.40
  -6  -1  -1    0.00    0.50
   6  -1   1    0.10    0.40
   6   1   1    0.10    0.30
  -6   1  -1    0.60    0.40
  -6   1  -1   -0.40    0.40
   6   1   1    0.70    0.50
   7  -1   1    3.40    0.70
   7  -1   1    3.20    0.80
  -7  -1  -1    3.40    0.50
  -7  -1  -1    1.80    0.80
   7   1   1    2.90    0.70
  -7   1  -1    2.40    0.90
   7   1   1    3.70    0.70
  -7   1  -1    3.30    0.70
  -8  -1  -1    1.10    0.90
  -8  -1  -1    0.30    0.40
   8  -1   1    1.10    0.60
  -8   1  -1    0.90    0.50
   8   1   1    0.60    0.50
  -8   1  -1    0.00    0.80
   8  -2  -1   -0.10    0.80
   8  -2  -1    0.50    0.50
  -8  -2   1    1.40    0.50
  -8  -2   1    1.90    0.90
  -8   2   1    0.80    0.40
  -8   2   1    0.80    0.50
   8   2  -1    0.50    0.70
  -7  -2   1   26.40    1.90
  -7  -2   1   32.40    1.60
   7  -2  -1   29.20    1.60
   7  -2  -1   29.80    2.00
  -7   2   1   32.70    2.00
   7   2  -1   31.10    1.60
  -7   2   1   26.60    1.60
   7   2  -1   25.70    1.90
   6  -2  -1   32.20    1.90
  -6  -2   1   30.30    1.80
  -6  -2   1   26.60    1.40
   6  -2  -1   32.80    1.60
  -6  -2   1   30.80    1.90
  -6   2   1   30.40    1.60
  -6   2   1   31.40    1.90
   6   2  -1   27.80    1.80
   6   2  -1   31.20    1.50
  -5  -2   1  161.98    4.50
   5  -2  -1  158.68    4.80
  -5  -2   1  173.28    5.00
  -5  -2   1  170.18    4.90
   5  -2  -1  160.08    4.40
  -5   2   1  168.78    4.90
  -5   2   1  168.28    4.70
   5   2  -1  162.18    4.90
  -4  -2   1    5.40    0.50
  -4  -2   1    3.20    0.40
   4  -2  -1    3.00    0.50
  -4  -2   1    1.90    0.50
   4  -2  -1    4.40    0.60
  -4  -2   1    2.60    0.50
   4  -2  -1    3.40    0.60
   4   2  -1    3.70    0.60
   4   2  -1    3.30    0.40
  -4   2   1    3.90    0.60
   4   2  -1    3.30    0.40
  -4   2   1    4.00    0.60
  -4   2   1    3.60    0.40
  -3  -2   1  113.59    3.00
  -3  -2   1  108.59    3.00
   3  -2  -1  110.39    2.90
   3  -2  -1  108.29    3.10
  -3  -2   1  110.09    3.20
  -3  -2   1  108.79    3.10
   3  -2  -1  112.69    3.10
  -3   2   1  112.99    2.90
  -3   2   1  111.59    2.80
   3   2  -1  111.09    2.80
   3   2  -1  110.99    2.80
  -3   2   1  108.79    3.10
   2  -2  -1   87.69    2.20
  -2  -2   1   86.69    2.30
  -2  -2   1   86.79    2.30
   2  -2  -1   88.89    2.40
  -2  -2   1   89.59    2.40
  -2  -2   1   89.59    2.40
  -2   2   1   86.79    2.20
  -2   2   1   88.49    2.40
  -2   2   1   82.89    2.20
   2   2  -1   86.79    2.20
  -2   2   1   81.99    2.40
   1  -2  -1   32.90    1.10
  -1  -2   1   32.80    1.00
  -1  -2   1   33.80    1.10
   1  -2  -1   32.40    1.00
  -1  -2   1   32.90    1.00
   1  -2  -1   33.50    1.00
   1   2  -1   34.40    1.00
  -1   2   1   33.00    1.00
  -1   2   1   34.20    1.00
  -1   2   1   34.70    1.00
   1   2  -1   33.70    0.90
   1   2  -1   35.00    1.10
   0  -2   1  225.38    5.10
   0  -2   1  248.88    5.30
   0  -2   1  240.78    5.00
   0  -2  -1  220.88    5.20
   0  -2   1  226.68    5.20
   0  -2  -1  225.78    5.10
   0  -2  -1  220.98    5.20
   0  -2  -1  227.88    5.00
   0   2   1  230.38    4.90
   0   2  -1  226.88    5.30
   0   2   1  230.98    5.00
   0   2   1  223.78    5.00
   0   2  -1  233.08    5.00
   0   2   1  230.18    4.90
  -1  -2  -1  158.48    3.60
  -1  -2  -1  159.88    3.80
   1  -2   1  162.88    3.90
   1  -2   1  158.28    3.80
  -1  -2  -1  157.78    3.70
   1  -2   1  158.78    3.60
  -1   2  -1  157.98    3.70
  -1   2  -1  156.38    3.70
  -1   2  -1  158.78    3.80
  -1   2  -1  153.98    3.60
   2  -2   1  243.48    5.90
   2  -2   1  240.68    5.40
  -2  -2  -1  245.48    5.70
  -2  -2  -1  240.58    5.80
  -2  -2  -1  240.88    5.40
   2   2   1  245.28    5.80
  -2   2  -1  240.68    5.80
  -2   2  -1  240.18    5.70
  -2   2  -1  248.88    5.60
  -2   2  -1  227.78    5.70
  -3  -2  -1  198.18    5.20
  -3  -2  -1  200.88    4.50
  -3  -2  -1  198.08    4.60
   3  -2   1  200.68    5.20
  -3  -2  -1  195.58    4.60
   3  -2   1  187.38    4.60
   3  -2   1  205.08    4.70
   3   2   1  198.78    5.20
  -3   2  -1  202.78    4.80
   3   2   1  196.78    4.40
  -3   2  -1  195.38    5.10
  -3   2  -1  195.78    5.00
   3   2   1  207.88    4.40
  -3   2  -1  197.28    4.90
  -4  -2  -1   44.50    1.30
  -4  -2  -1   45.50    1.50
  -4  -2  -1   45.50    1.30
   4  -2   1   41.40    1.90
   4  -2   1   42.30    1.50
  -4  -2  -1   43.60    1.90
  -4   2  -1   44.10    1.70
   4   2   1   44.70    1.40
  -4   2  -1   42.20    1.60
   4   2   1   43.70    1.40
   4   2   1   44.70    1.90
   5  -2   1  200.08    5.80
  -5  -2  -1  202.58    5.80
  -5  -2  -1  206.28    5.90
   5  -2   1  201.98    5.10
  -5  -2  -1  204.48    4.90
  -5   2  -1  203.28    5.20
   5   2   1  198.98    4.80
  -5   2  -1  193.38    5.70
  -5   2  -1  197.38    5.30
   5   2   1  210.88    5.90
  -6  -2  -1   29.60    1.90
   6  -2   1   32.70    1.90
  -6  -2  -1   28.60    1.10
   6  -2   1   28.90    1.50
   6   2   1   28.30    1.30
  -6   2  -1   29.30    1.80
   6   2   1   30.80    1.90
  -6   2  -1   29.30    1.50
  -7  -2  -1    0.30    0.30
   7  -2   1    0.50    0.40
   7  -2   1    0.10    0.40
  -7  -2  -1    0.10    0.60
  -7   2  -1    0.50    0.50
   7   2   1    0.40    0.40
  -7   2  -1    0.60    0.50
  -8  -2  -1   -0.10    0.70
   8  -2   1   -0.40    0.40
  -8   2  -1    0.00    0.50
   8   2   1    0.00    0.40
  -8  -3   1    0.90    0.50
  -8  -3   1    0.30    0.80
   8  -3  -1    0.60    0.70
   8  -3  -1    1.60    0.70
   8   3  -1    1.40    0.80
   8   3  -1    2.00    0.60
  -8   3   1    0.30    0.40
  -7  -3   1    0.20    0.40
   7  -3  -1    0.30    0.50
   7  -3  -1    0.30    0.50
  -7  -3   1    0.60    0.50
  -7  -3   1    0.60    0.60
  -7   3   1    0.30    0.40
   7   3  -1    0.00    0.40
   7   3  -1   -0.30    0.50
  -7   3   1    0.60    0.50
   6  -3  -1   78.49    3.10
  -6  -3   1   77.99    3.20
  -6  -3   1   76.39    2.60
  -6  -3   1   81.79    3.20
   6  -3  -1   76.49    2.70
  -6   3   1   80.29    3.10
   6   3  -1   77.19    3.10
  -6   3   1   77.69    2.90
   6   3  -1   75.19    2.50
   5  -3  -1  177.88    5.10
  -5  -3   1  179.68    4.70
   5  -3  -1  172.28    4.70
  -5  -3   1  181.28    5.20
  -5  -3   1  168.58    5.10
   5   3  -1  176.38    5.20
   5   3  -1  177.78    4.50
  -5   3   1  180.58    5.00
  -5   3   1  169.68    5.00
  -4  -3   1   15.10    1.10
  -4  -3   1   14.60    1.00
  -4  -3   1   17.30    0.90
  -4  -3   1   15.10    0.80
   4  -3  -1   15.90    1.10
   4  -3  -1   15.30    0.90
  -4   3   1   17.60    1.00
  -4   3   1   16.50    0.80
   4   3  -1   15.90    0.80
  -4   3   1   15.60    1.10
   3  -3  -1  143.59    3.80
  -3  -3   1  148.69    3.70
  -3  -3   1  137.79    3.80
   3  -3  -1  145.49    3.90
  -3  -3   1  142.89    3.90
   3  -3  -1  140.69    3.60
  -3  -3   1  137.79    3.60
   3   3  -1  140.79    3.40
   3   3  -1  143.09    3.40
  -3   3   1  143.19    3.80
  -3   3   1  142.99    3.50
  -3   3   1  134.39    3.80
  -2  -3   1  107.19    2.90
  -2  -3   1  110.09    3.00
   2  -3  -1  112.79    3.00
  -2  -3   1  112.69    2.90
   2  -3  -1  113.19    2.90
  -2  -3   1  111.29    2.90
   2  -3  -1  113.69    2.80
   2   3  -1  111.99    2.50
  -2   3   1  111.89    3.00
   2   3  -1  111.89    2.70
  -2   3   1  116.59    2.80
  -2   3   1  112.89    2.80
  -2   3   1  111.39    2.90
  -1  -3   1   22.70    0.90
   1  -3  -1   21.40    0.80
   1  -3  -1   23.90    0.90
   1  -3  -1   23.40    0.80
  -1  -3   1   22.40    0.80
  -1  -3   1   22.70    0.90
  -1  -3   1   23.90    0.80
   1   3  -1   22.50    0.70
  -1   3   1   22.70    0.80
  -1   3   1   23.70    0.80
   1   3  -1   24.50    0.80
   1   3  -1   23.10    0.90
  -1   3   1   23.10    0.90
   0  -3   1   -0.50    0.20
   0  -3  -1   -0.50    0.20
   0  -3   1   -0.80    0.10
   0  -3  -1   -0.50    0.10
   0  -3   1   -0.50    0.20
   0  -3   1   -0.50    0.20
   0  -3  -1   -0.20    0.10
   0  -3  -1   -0.60    0.20
   0   3  -1   -0.30    0.20
   0   3   1   -0.40    0.10
   0   3   1   -0.40    0.10
   0   3   1    0.20    0.20
   0   3   1   -0.70    0.20
   0   3  -1   -0.10    0.20
   0   3  -1   -0.70    0.20
  -1  -3  -1  104.69    2.60
  -1  -3  -1  105.19    2.70
   1  -3   1  104.69    2.80
   1  -3   1  111.69    2.80
  -1  -3  -1  103.19    2.60
   1  -3   1  107.39    2.60
  -1   3  -1  102.19    2.60
  -1   3  -1   99.79    2.80
  -1   3  -1  104.99    2.60
   2  -3   1    1.80    0.30
   2  -3   1    1.60    0.40
  -2  -3  -1    2.30    0.30
  -2  -3  -1    1.60    0.30
  -2  -3  -1    1.90    0.40
   2  -3   1    2.10    0.40
  -2   3  -1    2.30    0.30
  -2   3  -1    1.90    0.40
  -2   3  -1    2.00    0.40
  -2   3  -1    1.90    0.40
  -3  -3  -1   90.09    2.90
   3  -3   1   95.29    2.90
  -3  -3  -1   96.29    2.50
   3  -3   1   91.99    2.60
  -3  -3  -1   97.59    2.90
  -3   3  -1   93.49    2.80
   3   3   1   92.69    2.20
  -3   3  -1   95.19    2.70
   3   3   1   92.99    2.90
  -3   3  -1   91.09    2.70
  -3   3  -1   90.69    2.80
   3   3   1   96.29    2.20
  -4  -3  -1  292.67    7.60
   4  -3   1  299.07    7.10
   4  -3   1  304.37    7.80
  -4  -3  -1  316.37    7.00
  -4   3  -1  297.27    7.60
   4   3   1  303.07    6.70
   4   3   1  302.97    7.80
  -4   3  -1  298.57    7.50
  -4   3  -1  307.27    7.20
   4   3   1  321.07    6.70
  -5  -3  -1  178.18    5.40
  -5  -3  -1  175.08    5.30
   5  -3   1  181.18    5.40
   5  -3   1  181.18    4.80
  -5  -3  -1  183.08    4.20
  -5   3  -1  180.68    4.80
   5   3   1  180.38    4.40
   5   3   1  182.38    5.40
  -5   3  -1  181.68    5.00
  -5   3  -1  177.48    5.30
  -6  -3  -1    3.80    0.90
   6  -3   1    3.10    0.60
   6  -3   1    3.60    0.80
   6   3   1    4.10    0.50
   6   3   1    5.70    1.00
  -6   3  -1    3.00    0.80
  -6   3  -1    3.00    0.60
   7  -3   1   -0.70    0.30
  -7  -3  -1   -0.30    0.50
   7  -3   1   -0.50    0.30
  -7   3  -1    0.10    0.40
   7   3   1    0.20    0.20
  -7   3  -1    0.00    0.50
  -8  -3  -1   11.50    1.70
   8  -3   1    9.50    1.20
  -8   3  -1    9.00    1.10
   8   3   1   11.00    0.90
  -8  -4   1    0.00    0.40
   8  -4  -1   -0.60    0.50
  -8  -4   1    0.50    0.80
   8  -4  -1    0.70    0.80
   8   4  -1    0.30    0.70
   8   4  -1    0.10    0.50
   7  -4  -1    2.50    0.80
  -7  -4   1    3.20    0.90
   7  -4  -1    3.00    0.70
  -7  -4   1    3.80    0.60
  -7  -4   1    1.60    0.60
   7   4  -1    1.90    0.60
   7   4  -1    1.80    0.70
  -7   4   1    3.50    0.80
  -7   4   1    1.40    0.50
  -6  -4   1   67.79    2.40
  -6  -4   1   74.49    3.00
   6  -4  -1   71.39    2.90
  -6  -4   1   66.99    2.90
   6  -4  -1   65.29    2.50
  -6   4   1   67.79    2.90
   6   4  -1   67.59    2.30
  -6   4   1   71.39    2.80
   6   4  -1   67.59    3.00
   5  -4  -1   72.29    2.70
  -5  -4   1   61.99    2.60
  -5  -4   1   64.49    2.20
  -5  -4   1   66.59    2.60
   5  -4  -1   65.99    2.30
   5   4  -1   67.29    2.70
  -5   4   1   62.99    2.10
  -5   4   1   67.09    2.60
  -5   4   1   67.59    2.50
   5   4  -1   64.59    2.10
   4  -4  -1   29.90    1.50
   4  -4  -1   28.00    1.40
  -4  -4   1   29.40    1.50
  -4  -4   1   29.40    1.50
   4  -4  -1   31.70    1.40
  -4  -4   1   30.10    1.20
  -4   4   1   29.80    1.30
  -4   4   1   30.10    1.50
  -4   4   1   30.20    1.50
   4   4  -1   27.00    1.10
   3  -4  -1  335.27    8.40
   3  -4  -1  344.77    8.50
  -3  -4   1  345.07    8.50
  -3  -4   1  360.96    8.20
  -3  -4   1  355.36    8.20
   3  -4  -1  354.36    8.00
  -3  -4   1  346.17    8.20
  -3   4   1  383.56    8.50
  -3   4   1  349.67    8.00
   3   4  -1  350.16    7.40
   3   4  -1  346.57    7.70
  -3   4   1  350.86    8.20
  -3   4   1  351.26    7.90
   3   4  -1  341.77    7.70
   2  -4  -1   12.20    0.70
   2  -4  -1   13.20    0.70
  -2  -4   1   13.00    0.70
   2  -4  -1   11.10    0.70
  -2  -4   1   12.60    0.80
  -2  -4   1   12.30    0.70
  -2  -4   1   12.70    0.70
  -2   4   1   12.50    0.70
  -2   4   1   11.60    0.70
   2   4  -1   12.60    0.50
   2   4  -1   12.50    0.60
  -2   4   1   12.30    0.70
   2   4  -1   11.80    0.60
  -2   4   1   12.40    0.80
  -1  -4   1  815.22   18.10
  -1  -4   1  835.02   18.20
  -1  -4   1  834.92   17.20
   1  -4  -1  817.62   18.00
   1  -4  -1  825.02   18.20
  -1  -4   1  815.82   17.40
   1   4  -1  830.12   17.20
   1   4  -1  819.42   18.20
  -1   4   1  799.62   17.30
  -1   4   1  812.12   17.40
   1   4  -1  831.02   17.10
  -1   4   1  810.42   17.20
   0  -4  -1  497.15   11.00
   0  -4  -1  469.05   11.00
   0  -4  -1  501.75   11.00
   0  -4   1  487.75   10.50
   0  -4   1  499.35   10.60
   0  -4   1  481.05   11.20
   0   4   1  501.05   10.40
   0   4  -1  497.45   11.20
   0   4  -1  498.15   10.50
   0   4   1  493.25   10.40
   0   4  -1  500.55   10.60
   0   4   1  490.55   10.60
   0   4   1  502.45   10.50
   1  -4   1   24.70    0.90
   1  -4   1   24.20    1.10
  -1  -4  -1   24.10    0.90
  -1  -4  -1   23.70    1.00
   1  -4   1   30.10    1.10
  -1  -4  -1   25.50    1.00
   1   4   1   24.60    1.00
  -1   4  -1   26.70    0.90
  -1   4  -1   24.10    1.00
  -1   4  -1   26.40    1.10
  -1   4  -1   25.30    0.90
   2  -4   1  686.33   14.80
  -2  -4  -1  703.53   15.10
   2  -4   1  692.93   15.70
   2  -4   1  709.93   15.80
  -2  -4  -1  707.53   14.80
  -2  -4  -1  688.73   15.60
  -2   4  -1  710.73   15.20
  -2   4  -1  687.93   14.80
  -2   4  -1  683.13   15.80
  -2   4  -1  688.73   15.00
  -3  -4  -1    3.80    0.60
   3  -4   1    3.10    0.50
  -3  -4  -1    5.60    0.70
  -3  -4  -1    4.40    0.50
   3  -4   1    4.20    0.50
   3  -4   1    4.60    0.60
   3   4   1    4.10    0.20
  -3   4  -1    4.20    0.50
  -3   4  -1    4.30    0.60
   3   4   1    4.80    0.30
  -3   4  -1    4.50    0.60
   4  -4   1    2.10    0.50
   4  -4   1    2.20    0.50
  -4  -4  -1    2.50    0.50
  -4  -4  -1    1.60    0.50
  -4  -4  -1    2.00    0.40
  -4   4  -1    1.40    0.40
   4   4   1    1.30    0.20
   4   4   1    2.00    0.30
   4   4   1    2.40    0.50
  -4   4  -1    1.70    0.50
  -4   4  -1    1.30    0.40
   5  -4   1    3.30    0.70
   5  -4   1    4.60    0.60
  -5  -4  -1    3.60    0.80
  -5  -4  -1    2.50    0.70
  -5   4  -1    3.90    0.60
  -5   4  -1    4.50    0.70
   5   4   1    4.90    0.90
  -5   4  -1    4.50    0.80
   5   4   1    3.80    0.40
  -6  -4  -1   33.80    2.00
  -6  -4  -1   32.10    2.00
   6  -4   1   31.00    2.00
   6  -4   1   33.90    1.70
  -6   4  -1   33.30    1.70
   6   4   1   34.30    1.40
  -6   4  -1   35.90    2.00
   6   4   1   37.10    2.10
  -7  -4  -1    1.80    0.80
   7  -4   1    0.90    0.80
   7  -4   1    1.90    0.60
  -7   4  -1    1.00    0.40
  -7   4  -1    2.40    0.60
   7   4   1    2.00    0.40
  -8  -4  -1    3.30    1.10
   8  -4   1    1.50    0.70
  -8   4  -1    2.40    0.70
   8  -5  -1    4.90    1.20
  -8  -5   1    3.80    0.60
   8  -5  -1    4.40    0.90
  -8  -5   1    4.70    1.20
   8   5  -1    4.50    1.10
   8   5  -1    3.60    0.80
  -7  -5   1    0.30    0.50
  -7  -5   1    0.90    0.40
   7  -5  -1    0.20    0.50
  -7  -5   1   -0.20    0.50
   7  -5  -1    0.00    0.60
  -7   5   1   -0.40    0.40
  -7   5   1    0.00    0.40
   7   5  -1    0.20    0.40
   7   5  -1    0.90    0.60
   6  -5  -1   13.30    1.10
  -6  -5   1   14.90    1.40
   6  -5  -1   17.00    1.40
  -6  -5   1   15.60    1.00
  -6  -5   1   16.10    1.50
   6   5  -1   17.20    1.60
  -6   5   1   16.00    1.40
   6   5  -1   14.60    1.00
  -6   5   1   15.70    1.20
  -5  -5   1    9.40    0.70
  -5  -5   1   11.40    1.10
   5  -5  -1   10.30    0.90
   5  -5  -1    9.20    1.10
  -5  -5   1   10.50    1.10
  -5   5   1   12.40    0.90
  -5   5   1    8.70    0.90
   5   5  -1    9.70    0.70
  -5   5   1    9.50    1.00
   4  -5  -1  121.69    3.40
   4  -5  -1  118.89    3.70
   4  -5  -1  123.89    3.70
  -4  -5   1  116.79    3.60
  -4  -5   1  119.69    3.80
  -4  -5   1  119.59    3.20
  -4   5   1  117.49    3.30
   4   5  -1  114.59    3.10
  -4   5   1  116.99    3.60
  -4   5   1  119.79    3.70
   3  -5  -1  230.68    6.00
   3  -5  -1  231.18    5.90
  -3  -5   1  239.98    5.80
  -3  -5   1  237.68    5.70
  -3  -5   1  237.58    5.70
   3  -5  -1  242.78    5.60
  -3  -5   1  229.78    6.00
  -3   5   1  224.88    6.00
   3   5  -1  227.08    5.40
   3   5  -1  239.18    5.40
  -3   5   1  239.88    5.60
  -3   5   1  228.38    5.60
  -3   5   1  223.48    5.70
   3   5  -1  234.08    5.00
  -2  -5   1    8.10    0.70
  -2  -5   1    7.30    0.60
   2  -5  -1    7.50    0.60
   2  -5  -1    6.50    0.50
   2  -5  -1    7.70    0.60
  -2  -5   1    7.80    0.60
  -2  -5   1    7.20    0.50
   2   5  -1    6.80    0.50
  -2   5   1    8.00    0.70
  -2   5   1    8.50    0.60
  -2   5   1    7.30    0.60
  -2   5   1    7.40    0.60
   2   5  -1    6.50    0.50
   2   5  -1    6.50    0.40
   1  -5  -1  281.47    6.90
   1  -5  -1  287.47    6.80
  -1  -5   1  298.07    6.80
  -1  -5   1  292.47    6.40
   1  -5  -1  294.27    6.40
  -1  -5   1  287.57    6.90
  -1  -5   1  295.87    6.40
  -1   5   1  285.37    6.50
   1   5  -1  291.27    6.40
  -1   5   1  281.07    6.60
  -1   5   1  297.07    6.40
   1   5  -1  291.27    6.40
  -1   5   1  290.67    6.90
   1   5  -1  292.57    6.90
   0  -5   1  182.68    4.00
   0  -5  -1  175.78    4.30
   0  -5  -1  173.98    4.30
   0  -5  -1  171.58    4.30
   0  -5   1  181.58    4.20
   0  -5   1  182.98    4.50
   0   5  -1  184.38    4.30
   0   5  -1  179.88    4.20
   0   5  -1  177.08    4.50
   0   5   1  174.78    4.00
   0   5   1  176.18    4.30
   0   5   1  181.68    4.00
   0   5   1  180.18    4.00
  -1  -5  -1   18.70    0.70
   1  -5   1   18.40    0.80
  -1  -5  -1   17.80    0.60
  -1  -5  -1   18.40    0.60
   1  -5   1   17.80    0.90
   1  -5   1   17.90    1.00
  -1  -5  -1   17.70    0.90
  -1  -5  -1   18.80    0.90
  -1   5  -1   18.50    0.80
   1   5   1   17.70    0.60
  -1   5  -1   16.50    0.90
   1   5   1   17.50    0.60
  -1   5  -1   17.80    0.90
   1   5   1   19.20    0.90
  -1   5  -1   18.10    0.80
   2  -5   1  209.48    5.30
  -2  -5  -1  202.38    5.20
   2  -5   1  204.58    5.30
   2  -5   1  205.18    4.90
  -2  -5  -1  212.88    4.90
  -2  -5  -1  207.38    4.90
  -2   5  -1  202.88    5.00
   2   5   1  205.48    4.80
  -2   5  -1  193.68    5.00
  -2   5  -1  206.08    4.90
  -2   5  -1  208.48    5.30
  -3  -5  -1   20.90    1.20
  -3  -5  -1   20.40    1.10
   3  -5   1   21.50    1.10
  -3  -5  -1   21.60    1.00
   3  -5   1   20.10    1.00
   3  -5   1   19.10    1.20
   3   5   1   20.70    0.60
  -3   5  -1   19.60    1.10
   3   5   1   20.30    1.00
   3   5   1   20.70    0.60
  -3   5  -1   18.30    1.10
  -3   5  -1   21.10    1.10
  -4  -5  -1    3.50    0.50
  -4  -5  -1    2.60    0.60
   4  -5   1    4.30    0.80
   4  -5   1    2.50    0.50
  -4  -5  -1    4.50    0.70
   4   5   1    2.50    0.30
  -4   5  -1    2.00    0.50
   4   5   1    3.30    0.30
  -4   5  -1    2.90    0.50
  -4   5  -1    2.60    0.50
   4   5   1    3.80    0.50
  -5  -5  -1   49.10    2.20
  -5  -5  -1   48.80    2.30
   5  -5   1   49.90    2.40
   5  -5   1   49.50    2.00
  -5   5  -1   48.80    2.00
  -5   5  -1   48.30    2.10
  -5   5  -1   49.80    2.30
   5   5   1   47.60    1.50
   5   5   1   50.49    2.30
   6  -5   1   23.60    1.80
   6  -5   1   22.00    1.40
  -6  -5  -1   17.70    1.50
  -6  -5  -1   21.30    1.60
   6   5   1   21.20    1.60
   6   5   1   21.50    1.00
  -6   5  -1   22.90    1.60
  -6   5  -1   21.40    1.40
   7  -5   1    0.50    0.50
   7  -5   1   -0.40    0.60
  -7  -5  -1    1.00    0.70
  -7  -5  -1    0.50    0.70
  -7   5  -1    0.50    0.40
   7   5   1    0.30    0.20
  -7   5  -1    0.00    0.30
   8  -5   1    4.00    0.90
  -8  -5  -1    4.30    1.20
   8  -6  -1   14.70    1.80
  -8  -6   1   10.00    1.50
  -8  -6   1   12.90    0.80
   8  -6  -1   10.90    1.30
   8   6  -1    9.70    1.10
   8   6  -1    9.00    1.50
  -7  -6   1    1.40    0.70
  -7  -6   1    1.30    0.60
  -7  -6   1    1.60    0.40
   7  -6  -1    1.10    0.70
   7  -6  -1    1.40    0.70
  -7   6   1    3.00    0.70
  -7   6   1    2.30    0.70
   7   6  -1    1.20    0.50
   7   6  -1    1.80    0.80
   6  -6  -1   32.70    1.70
   6  -6  -1   30.90    1.90
  -6  -6   1   34.10    2.00
  -6  -6   1   33.40    1.40
  -6  -6   1   33.40    1.90
   6   6  -1   30.90    1.50
  -6   6   1   33.60    1.90
  -6   6   1   34.10    1.90
   6   6  -1   30.40    1.90
  -5  -6   1    7.60    1.00
  -5  -6   1    6.90    0.90
  -5  -6   1    6.40    0.60
   5  -6  -1    7.10    1.00
   5  -6  -1    7.40    0.80
  -5   6   1    8.80    1.00
  -5   6   1    8.10    0.80
  -5   6   1    7.50    1.00
   5   6  -1    6.30    0.70
  -4  -6   1   25.20    1.40
  -4  -6   1   26.30    1.10
   4  -6  -1   24.90    1.40
   4  -6  -1   22.70    1.40
  -4  -6   1   23.80    1.30
   4  -6  -1   23.40    1.20
  -4   6   1   24.20    1.30
  -4   6   1   24.00    1.30
  -4   6   1   20.50    1.30
   4   6  -1   22.10    1.00
  -3  -6   1   26.10    1.40
   3  -6  -1   27.90    1.20
  -3  -6   1   28.70    1.30
  -3  -6   1   27.80    1.10
   3  -6  -1   28.00    1.40
  -3  -6   1   29.70    1.20
   3  -6  -1   27.50    1.40
  -3   6   1   24.00    1.30
   3   6  -1   26.00    1.10
   3   6  -1   30.50    1.10
  -3   6   1   28.20    1.30
   3   6  -1   28.30    0.90
  -3   6   1   26.10    1.20
  -3   6   1   26.90    1.30
   2  -6  -1  234.98    5.50
  -2  -6   1  243.08    5.70
   2  -6  -1  241.98    5.90
  -2  -6   1  236.28    5.70
  -2  -6   1  247.08    5.50
  -2  -6   1  232.68    6.00
   2  -6  -1  226.58    5.90
  -2   6   1  233.48    5.90
  -2   6   1  241.58    5.60
  -2   6   1  240.48    5.50
   2   6  -1  241.88    5.40
  -2   6   1  226.58    5.70
   2   6  -1  227.88    5.40
   2   6  -1  232.78    5.30
  -1  -6   1   39.50    1.20
   1  -6  -1   40.60    1.30
   1  -6  -1   38.30    1.40
  -1  -6   1   39.20    1.50
   1  -6  -1   39.10    1.40
  -1  -6   1   38.10    1.40
   1   6  -1   39.40    1.30
   1   6  -1   38.40    1.30
  -1   6   1   38.80    1.10
   1   6  -1   39.50    1.40
  -1   6   1   40.60    1.40
  -1   6   1   38.40    1.30
  -1   6   1   35.40    1.40
   0  -6  -1  434.06    9.70
   0  -6   1  412.16    9.30
   0  -6  -1  408.16    9.70
   0  -6   1  420.36   10.00
   0  -6  -1  441.56    9.80
   0  -6   1  439.56    9.20
   0  -6   1  422.16    9.90
   0   6   1  420.36    9.20
   0   6   1  415.56    9.50
   0   6   1  426.66    9.10
   0   6   1  433.16    9.20
   0   6  -1  431.86    9.50
   0   6  -1  443.36   10.00
   0   6  -1  437.86    9.40
   1  -6   1  319.47    7.20
  -1  -6  -1  319.67    7.20
   1  -6   1  317.87    7.10
  -1  -6  -1  315.77    7.50
   1  -6   1  303.37    7.60
  -1  -6  -1  312.37    7.20
  -1  -6  -1  321.57    7.00
   1  -6   1  313.87    7.60
   1   6   1  315.57    6.80
  -1   6  -1  312.77    7.20
   1   6   1  323.07    7.00
  -1   6  -1  320.47    7.70
  -1   6  -1  315.37    7.00
   1   6   1  319.17    7.20
   1   6   1  314.57    6.80
  -2  -6  -1    2.30    0.40
   2  -6   1    1.10    0.40
  -2  -6  -1    2.10    0.50
   2  -6   1    2.70    0.50
   2  -6   1    2.10    0.40
  -2  -6  -1    2.30    0.40
  -2   6  -1    2.00    0.40
   2   6   1    2.60    0.40
  -2   6  -1    2.40    0.50
   2   6   1    2.40    0.20
   2   6   1    2.00    0.20
  -2   6  -1    2.10    0.50
  -2   6  -1    2.60    0.40
   3  -6   1  144.49    3.80
  -3  -6  -1  139.99    4.10
  -3  -6  -1  142.99    3.80
   3  -6   1  142.99    4.10
  -3  -6  -1  148.39    3.70
   3  -6   1  136.09    4.20
  -3   6  -1  143.79    4.00
   3   6   1  141.89    3.60
   3   6   1  143.09    3.20
  -3   6  -1  133.59    3.90
   3   6   1  139.59    3.10
  -3   6  -1  141.39    4.10
   4  -6   1   14.10    0.90
   4  -6   1   14.20    1.20
  -4  -6  -1   14.10    1.00
  -4  -6  -1   15.30    1.20
   4   6   1   14.80    0.60
  -4   6  -1   15.00    1.10
   4   6   1   15.20    0.60
   4   6   1   14.30    0.90
  -4   6  -1   15.30    1.10
  -4   6  -1   14.60    1.00
   5  -6   1   35.10    1.70
  -5  -6  -1   37.50    2.00
  -5  -6  -1   36.70    1.90
   5  -6   1   35.00    2.00
  -5   6  -1   37.80    1.90
   5   6   1   34.60    1.20
   5   6   1   40.10    2.00
  -5   6  -1   33.80    1.80
  -5   6  -1   37.50    1.80
   6  -6   1    3.50    0.70
  -6  -6  -1    5.30    1.00
  -6  -6  -1    4.60    1.00
   6  -6   1    2.70    0.80
  -6   6  -1    4.60    0.80
  -6   6  -1    5.10    1.00
   6   6   1    6.00    1.00
   7  -6   1    2.90    1.00
   7  -6   1    3.10    0.80
  -7  -6  -1    3.70    1.00
  -7  -6  -1    2.90    0.90
   7   6   1    4.00    0.50
  -7   6  -1    4.70    0.90
  -7   6  -1    3.60    0.80
  -8  -6  -1    9.00    1.50
   8  -6   1   10.70    1.30
  -8  -7   1   25.70    2.10
   8  -7  -1   24.20    2.20
   8   7  -1   23.50    1.50
   8   7  -1   22.30    2.10
  -7  -7   1   13.50    0.80
   7  -7  -1   12.00    1.50
  -7  -7   1   14.10    1.50
  -7   7   1   12.30    1.40
   7   7  -1   10.90    1.00
   7   7  -1   11.80    1.60
  -7   7   1   15.10    1.50
  -6  -7   1   20.30    1.10
   6  -7  -1   18.80    1.60
  -6  -7   1   22.00    1.70
   6  -7  -1   18.10    1.30
  -6  -7   1   19.60    1.50
  -6   7   1   19.10    1.40
   6   7  -1   19.10    1.10
  -6   7   1   20.30    1.50
   5  -7  -1    0.90    0.40
  -5  -7   1    2.10    0.60
  -5  -7   1    2.10    0.60
   5  -7  -1    2.70    0.70
  -5  -7   1    1.60    0.40
  -5   7   1    1.90    0.50
  -5   7   1    2.50    0.60
  -5   7   1    2.40    0.60
   5   7  -1    2.40    0.50
   4  -7  -1   42.60    2.00
  -4  -7   1   42.20    1.50
  -4  -7   1   41.10    1.80
  -4  -7   1   43.10    2.00
   4  -7  -1   45.00    2.00
   4  -7  -1   42.20    1.80
  -4   7   1   40.30    1.90
  -4   7   1   43.70    1.80
   4   7  -1   41.90    1.50
  -4   7   1   38.60    1.80
  -3  -7   1    0.00    0.20
  -3  -7   1    0.80    0.30
   3  -7  -1    0.50    0.30
  -3  -7   1    0.40    0.20
   3  -7  -1    0.30    0.30
  -3  -7   1    0.50    0.30
   3  -7  -1   -0.10    0.20
   3   7  -1    0.20    0.20
  -3   7   1    0.30    0.30
  -3   7   1    0.80    0.30
  -3   7   1    0.20    0.30
  -3   7   1    0.00    0.30
   3   7  -1    0.10    0.20
   2  -7  -1    1.10    0.40
   2  -7  -1    1.70    0.30
  -2  -7   1    0.80    0.30
  -2  -7   1    0.80    0.40
  -2  -7   1    0.90    0.30
   2  -7  -1    1.00    0.30
  -2  -7   1    1.20    0.30
   2   7  -1    1.70    0.30
  -2   7   1    0.80    0.30
  -2   7   1    1.50    0.40
   2   7  -1    1.50    0.30
   2   7  -1    1.00    0.30
  -2   7   1    1.80    0.40
  -2   7   1    1.10    0.40
   1  -7  -1  214.98    4.80
  -1  -7   1  209.08    4.60
  -1  -7   1  198.28    5.20
   1  -7  -1  203.88    5.20
   1  -7  -1  204.88    5.20
  -1   7   1  209.88    4.60
  -1   7   1  215.18    5.30
   1   7  -1  204.58    4.90
  -1   7   1  199.88    5.10
   1   7  -1  206.28    4.90
  -1   7   1  204.98    4.90
   0  -7  -1  240.28    5.80
   0  -7  -1  229.98    5.70
   0  -7   1  239.28    5.30
   0  -7   1  245.68    5.50
   0  -7   1  240.08    6.00
   0  -7   1  239.08    6.00
   0  -7  -1  232.98    5.90
   0   7  -1  237.88    5.60
   0   7   1  246.58    5.20
   0   7  -1  239.28    6.00
   0   7  -1  239.78    5.70
   0   7   1  235.88    5.70
   0   7   1  238.78    5.40
   0   7   1  230.38    5.40
   1  -7   1   65.29    2.20
  -1  -7  -1   62.99    1.70
  -1  -7  -1   62.59    2.10
  -1  -7  -1   61.49    1.70
  -1  -7  -1   64.09    1.80
   1  -7   1   63.39    1.80
   1  -7   1   62.59    2.20
   1  -7   1   63.89    2.00
   1   7   1   63.09    1.60
   1   7   1   60.69    1.70
  -1   7  -1   62.89    2.10
  -1   7  -1   63.29    1.80
  -1   7  -1   63.39    2.00
  -1   7  -1   65.89    2.20
   1   7   1   63.69    1.70
   1   7   1   59.09    2.00
   2  -7   1    7.00    0.70
  -2  -7  -1    4.70    0.60
  -2  -7  -1    5.70    0.50
   2  -7   1    5.90    0.70
   2  -7   1    3.80    0.60
  -2   7  -1    7.10    0.70
  -2   7  -1    5.40    0.70
   2   7   1    6.30    0.60
  -2   7  -1    6.30    0.60
   2   7   1    5.30    0.30
  -2   7  -1    4.80    0.50
   2   7   1    5.60    0.40
   3  -7   1    9.70    0.80
  -3  -7  -1    8.60    0.70
   3  -7   1    9.10    1.00
  -3  -7  -1    6.90    0.80
   3  -7   1    8.60    0.90
   3   7   1    7.90    0.40
  -3   7  -1    7.70    0.80
   3   7   1    8.30    0.40
  -3   7  -1    7.20    0.70
   3   7   1    7.40    0.70
  -3   7  -1    6.60    0.80
   4  -7   1    9.30    0.90
  -4  -7  -1    6.70    0.80
   4  -7   1    9.50    1.10
  -4  -7  -1    7.50    1.00
  -4   7  -1    9.20    0.90
   4   7   1    8.10    0.50
   4   7   1    9.20    0.80
  -4   7  -1    7.50    0.90
   4   7   1    8.50    0.50
  -4   7  -1    8.10    0.90
   5  -7   1    9.30    1.00
   5  -7   1    7.80    1.10
  -5  -7  -1    8.50    1.00
  -5  -7  -1    8.80    1.10
   5   7   1    8.20    0.60
  -5   7  -1    8.30    1.00
   5   7   1    7.80    1.10
  -5   7  -1    9.30    1.10
  -5   7  -1    8.50    1.00
  -6  -7  -1   17.60    1.70
   6  -7   1   17.60    1.30
  -6  -7  -1   17.10    1.50
   6  -7   1   15.50    1.60
  -6   7  -1   17.50    1.30
   6   7   1   17.10    0.90
   6   7   1   15.50    1.60
  -6   7  -1   18.00    1.40
  -6   7  -1   17.70    1.30
   7  -7   1   13.30    1.30
  -7  -7  -1   12.90    1.50
   7  -7   1   13.80    1.70
  -7  -7  -1   15.00    1.80
  -7   7  -1   14.30    1.40
   7   7   1   13.60    0.90
  -7   7  -1   14.00    1.50
   8  -7   1   43.60    2.40
  -8  -7  -1   45.80    2.90
   8  -8  -1    4.20    1.10
  -8  -8   1    2.80    1.10
  -7  -8   1    0.90    0.70
  -7  -8   1    2.80    0.40
  -7  -8   1    2.30    0.80
   7  -8  -1    1.50    0.80
   7   8  -1    1.90    0.60
  -7   8   1    3.00    0.80
  -7   8   1    3.20    0.80
   7   8  -1    1.20    0.80
   6  -8  -1    2.80    0.80
  -6  -8   1    2.00    0.40
  -6  -8   1    1.30    0.70
  -6  -8   1    2.60    0.70
   6   8  -1    2.30    0.50
  -6   8   1    2.80    0.70
  -6   8   1    3.30    0.80
  -5  -8   1   76.59    2.80
  -5  -8   1   67.89    2.20
  -5  -8   1   64.39    2.90
   5  -8  -1   71.59    2.90
  -5   8   1   69.49    2.60
  -5   8   1   70.49    2.70
  -5   8   1   67.09    2.80
   5   8  -1   67.09    2.30
  -4  -8   1   82.89    2.70
  -4  -8   1   74.09    3.00
  -4  -8   1   76.19    2.30
   4  -8  -1   73.79    2.60
   4  -8  -1   71.49    2.80
   4  -8  -1   78.89    2.90
  -4   8   1   75.99    2.60
   4   8  -1   74.39    2.30
  -4   8   1   74.09    2.80
  -4   8   1   76.79    2.70
   3  -8  -1   14.10    1.10
   3  -8  -1   15.50    1.00
  -3  -8   1   13.80    0.80
  -3  -8   1   15.00    1.10
  -3  -8   1   17.20    0.90
   3  -8  -1   16.20    1.10
  -3   8   1   15.50    1.10
   3   8  -1   15.50    0.90
  -3   8   1   15.00    0.90
   3   8  -1   16.40    0.80
  -3   8   1   17.40    1.00
  -3   8   1   14.90    1.10
  -2  -8   1   51.49    1.60
   2  -8  -1   49.60    1.90
   2  -8  -1   50.99    1.70
  -2  -8   1   46.30    1.70
  -2  -8   1   47.40    2.00
   2  -8  -1   47.40    1.90
  -2   8   1   49.20    1.90
  -2   8   1   50.99    1.60
  -2   8   1   51.39    2.00
  -2   8   1   48.90    1.80
   2   8  -1   48.40    1.60
   2   8  -1   50.99    1.70
  -1  -8   1  154.08    4.10
   1  -8  -1  148.89    4.10
  -1  -8   1  150.38    4.30
   1  -8  -1  147.49    4.10
  -1  -8   1  160.78    3.50
   1  -8  -1  154.58    3.80
   1   8  -1  146.89    3.90
   1   8  -1  152.88    4.10
  -1   8   1  157.28    4.20
   1   8  -1  151.08    3.80
  -1   8   1  148.59    4.10
  -1   8   1  144.79    3.90
  -1   8   1  152.68    3.50
   0  -8  -1  141.39    3.90
   0  -8   1  138.39    3.20
   0  -8   1  135.49    4.00
   0  -8  -1  136.09    3.70
   0  -8   1  138.89    3.90
   0  -8   1  138.79    3.50
   0  -8  -1  146.19    3.70
   0   8  -1  132.49    3.70
   0   8  -1  135.69    3.60
   0   8   1  141.99    3.80
   0   8   1  143.79    3.50
   0   8  -1  139.89    3.90
   0   8   1  139.29    3.50
  -1  -8  -1   25.30    1.00
   1  -8   1   23.90    0.90
   1  -8   1   21.70    1.20
   1  -8   1   27.00    1.20
  -1  -8  -1   24.30    0.90
  -1  -8  -1   25.60    1.30
   1  -8   1   24.30    1.30
   1   8   1   25.20    1.20
  -1   8  -1   24.70    1.30
  -1   8  -1   26.00    1.20
  -1   8  -1   24.10    1.30
  -1   8  -1   24.40    0.90
   1   8   1   26.30    0.80
   1   8   1   24.40    0.90
   1   8   1   25.50    0.90
   2  -8   1   28.50    1.50
  -2  -8  -1   29.30    0.90
   2  -8   1   29.50    1.30
   2  -8   1   27.40    1.40
  -2  -8  -1   27.20    1.40
  -2  -8  -1   30.80    1.10
  -2  -8  -1   28.70    0.90
  -2   8  -1   30.00    1.30
   2   8   1   29.50    1.30
  -2   8  -1   31.10    1.50
  -2   8  -1   27.30    1.40
   2   8   1   28.40    1.00
   2   8   1   31.60    1.00
  -2   8  -1   29.50    1.20
  -3  -8  -1  287.47    7.40
   3  -8   1  289.67    6.90
  -3  -8  -1  290.77    6.80
   3  -8   1  276.97    7.50
   3  -8   1  280.27    7.40
  -3   8  -1  268.87    7.40
   3   8   1  285.37    6.20
   3   8   1  284.77    6.20
   3   8   1  277.07    6.70
  -3   8  -1  288.07    6.90
  -3   8  -1  277.97    7.10
   4  -8   1  195.48    5.30
  -4  -8  -1  194.28    5.70
  -4  -8  -1  196.18    5.30
   4  -8   1  193.68    5.80
  -4   8  -1  194.68    5.40
  -4   8  -1  197.18    5.70
   4   8   1  199.08    4.50
  -4   8  -1  193.98    5.40
   5  -8   1    9.10    1.20
  -5  -8  -1   10.80    1.30
  -5  -8  -1   12.00    1.10
   5  -8   1    9.70    1.00
  -5   8  -1   11.60    1.20
  -5   8  -1   10.70    1.10
  -5   8  -1    9.30    1.10
   5   8   1   10.30    0.60
  -6  -8  -1    0.30    0.50
  -6  -8  -1    0.60    0.50
   6  -8   1    0.90    0.50
   6  -8   1   -0.50    0.50
   6   8   1    0.30    0.20
  -6   8  -1   -0.30    0.50
  -6   8  -1   -0.50    0.30
  -6   8  -1    1.00    0.50
   6   8   1    0.40    0.40
   7  -8   1   12.20    1.30
  -7  -8  -1   12.20    1.50
   7  -8   1   11.40    1.60
  -7  -8  -1   10.70    1.60
   7   8   1   11.70    0.80
  -7  -9   1    3.80    1.10
   7  -9  -1    4.50    1.10
   7   9  -1    3.90    0.70
  -7   9   1    7.30    1.10
  -7   9   1    4.70    0.90
   7   9  -1    4.80    1.20
  -6  -9   1   -0.20    0.50
  -6  -9   1    0.20    0.30
   6  -9  -1    0.00    0.50
  -6   9   1    0.20    0.40
  -6   9   1   -0.10    0.40
   6   9  -1   -0.20    0.30
  -5  -9   1    0.10    0.30
  -5  -9   1    0.10    0.50
  -5  -9   1    0.10    0.40
   5  -9  -1    0.40    0.50
  -5   9   1    0.40    0.40
  -5   9   1    0.30    0.40
  -5   9   1   -0.30    0.40
   5   9  -1    0.20    0.30
   4  -9  -1  418.66   10.40
  -4  -9   1  417.76    9.70
  -4  -9   1  410.96   10.50
   4  -9  -1  421.46   10.40
  -4   9   1  388.36   10.30
  -4   9   1  414.56    9.70
   4   9  -1  401.56    9.30
  -4   9   1  402.86    9.80
  -3  -9   1  296.07    8.00
  -3  -9   1  316.97    7.50
   3  -9  -1  302.77    7.90
   3  -9  -1  305.77    7.80
  -3   9   1  296.47    7.20
  -3   9   1  306.17    7.60
   3   9  -1  303.37    7.10
  -3   9   1  299.67    7.90
   3   9  -1  311.07    7.00
  -3   9   1  314.47    7.50
   2  -9  -1    3.00    0.60
  -2  -9   1    2.30    0.40
   2  -9  -1    2.70    0.50
  -2  -9   1    2.50    0.30
  -2  -9   1    2.90    0.60
   2   9  -1    3.60    0.50
   2   9  -1    3.10    0.50
  -2   9   1    3.30    0.60
  -2   9   1    2.60    0.60
  -2   9   1    3.70    0.40
  -2   9   1    3.20    0.50
   1  -9  -1    0.70    0.40
  -1  -9   1    0.10    0.30
  -1  -9   1    0.00    0.30
   1  -9  -1    0.30    0.30
  -1   9   1    0.70    0.30
   1   9  -1   -0.10    0.30
  -1   9   1    0.50    0.10
  -1   9   1    0.10    0.30
  -1   9   1    0.40    0.30
   1   9  -1    0.60    0.30
   0  -9   1   12.10    0.90
   0  -9   1   12.20    1.00
   0  -9  -1   12.50    0.90
   0  -9  -1   10.60    0.70
   0   9   1   12.30    0.90
   0   9   1   11.50    0.70
   0   9  -1   13.20    0.90
   0   9  -1   12.40    0.80
   0   9  -1   11.50    0.90
  -1  -9  -1    0.40    0.20
   1  -9   1    0.00    0.30
  -1  -9  -1    0.40    0.20
   1  -9   1    0.40    0.30
   1  -9   1    0.20    0.30
  -1  -9  -1    0.10    0.30
   1  -9   1    0.60    0.20
   1   9   1    0.20    0.10
   1   9   1    0.40    0.20
  -1   9  -1   -0.10    0.30
   1   9   1    0.10    0.20
  -1   9  -1    0.20    0.30
  -1   9  -1   -0.10    0.20
   1   9   1    0.30    0.30
   2  -9   1  101.69    3.40
   2  -9   1  105.49    3.20
  -2  -9  -1  108.99    3.50
  -2  -9  -1  109.99    2.70
   2  -9   1  107.49    3.50
  -2  -9  -1  111.99    2.70
  -2   9  -1  105.59    3.40
  -2   9  -1  109.59    2.90
  -2   9  -1  108.39    3.20
   2   9   1  113.89    2.70
  -2   9  -1  105.49    3.50
   2   9   1  108.19    3.20
   2   9   1  103.59    2.70
   3  -9   1  186.88    5.40
   3  -9   1  190.68    5.60
   3  -9   1  185.48    5.10
  -3  -9  -1  191.18    5.50
   3   9   1  188.28    4.40
   3   9   1  193.38    4.90
  -3   9  -1  195.68    5.00
  -3   9  -1  183.28    5.40
  -3   9  -1  189.28    5.30
  -4  -9  -1   42.10    2.10
   4  -9   1   42.80    2.20
   4  -9   1   44.70    2.00
   4   9   1   44.30    1.40
  -4   9  -1   43.00    2.10
  -4   9  -1   44.70    2.10
  -4   9  -1   41.70    1.90
   5  -9   1   -0.10    0.40
  -5  -9  -1    0.40    0.50
   5  -9   1    0.60    0.60
  -5   9  -1    0.50    0.50
  -5   9  -1   -0.30    0.40
   5   9   1    0.00    0.20
  -5   9  -1   -0.30    0.40
  -6  -9  -1   -0.50    0.50
   6  -9   1   -0.30    0.60
   6  -9   1    0.40    0.50
  -6   9  -1   -0.20    0.40
   6   9   1    0.20    0.20
  -6   9  -1    0.60    0.50
  -6   9  -1   -0.30    0.40
   7  -9   1    0.50    0.80
  -7  -9  -1   -0.20    0.70
  -7 -10   1    1.10    0.80
   7 -10  -1    1.00    0.80
  -7  10   1   -0.20    0.40
   7  10  -1    0.90    0.80
  -7  10   1    0.50    0.50
   7  10  -1    0.10    0.40
   6 -10  -1    0.50    0.60
  -6 -10   1    0.30    0.30
  -6 -10   1   -0.40    0.70
   6  10  -1    0.40    0.40
  -6  10   1    0.80    0.60
  -6  10   1    0.00    0.50
  -6  10   1    0.20    0.50
  -5 -10   1    0.90    0.30
   5 -10  -1    0.90    0.60
  -5 -10   1    0.80    0.50
   5  10  -1    1.40    0.40
  -5  10   1    0.90    0.60
  -5  10   1    0.80    0.50
  -5  10   1    0.30    0.50
   4 -10  -1   46.50    2.20
   4 -10  -1   45.30    2.20
  -4 -10   1   42.70    1.60
  -4 -10   1   46.20    2.30
  -4  10   1   42.50    2.10
   4  10  -1   40.90    1.70
  -4  10   1   45.40    2.20
  -4  10   1   43.90    1.80
  -3 -10   1   20.40    1.40
   3 -10  -1   18.00    1.30
  -3 -10   1   18.50    1.10
   3 -10  -1   22.70    1.40
   3  10  -1   22.60    1.10
  -3  10   1   23.20    1.40
   3  10  -1   19.90    1.10
  -3  10   1   21.20    1.30
  -3  10   1   21.40    1.10
   2 -10  -1  235.08    6.30
   2 -10  -1  234.68    6.30
  -2 -10   1  230.98    6.00
  -2 -10   1  235.58    6.50
  -2  10   1  237.58    6.20
   2  10  -1  237.08    5.80
   2  10  -1  240.78    5.70
  -2  10   1  235.38    5.90
  -1 -10   1   61.09    2.10
  -1 -10   1   61.89    2.40
   1 -10  -1   59.99    2.20
   1 -10  -1   57.49    2.20
   1  10  -1   63.39    2.20
  -1  10   1   57.19    2.20
   1  10  -1   55.79    2.00
  -1  10   1   58.09    2.00
   0 -10   1   69.69    2.60
   0 -10  -1   70.79    2.50
   0 -10  -1   70.69    2.30
   0 -10   1   71.89    2.50
   0  10   1   69.39    2.50
   0  10   1   70.19    2.20
   0  10  -1   72.89    2.50
   0  10  -1   67.49    2.30
  -1 -10  -1  326.47    8.30
  -1 -10  -1  325.17    7.80
   1 -10   1  341.57    8.50
   1 -10   1  323.57    8.30
  -1  10  -1  338.77    7.90
   1  10   1  328.47    7.90
   1  10   1  323.17    7.50
  -1  10  -1  332.27    8.40
  -1  10  -1  331.37    8.10
   2 -10   1    5.30    0.90
   2 -10   1    4.80    0.80
  -2 -10  -1    5.90    0.50
  -2 -10  -1    5.50    0.40
  -2 -10  -1    5.20    0.80
  -2  10  -1    4.50    0.70
   2  10   1    4.30    0.70
  -2  10  -1    5.20    0.50
   2  10   1    5.40    0.50
  -2  10  -1    3.50    0.70
  -2  10  -1    4.40    0.70
   3 -10   1  235.08    6.70
  -3 -10  -1  234.38    6.60
   3  10   1  236.28    5.50
  -3  10  -1  240.98    6.00
  -3  10  -1  234.38    6.50
  -3  10  -1  245.18    6.70
   3  10   1  243.08    6.00
   4 -10   1   28.90    1.80
  -4 -10  -1   29.60    1.80
   4  10   1   33.40    1.20
  -4  10  -1   32.50    1.60
  -4  10  -1   29.60    1.80
  -4  10  -1   29.30    1.80
   5 -10   1    8.10    1.20
  -5 -10  -1   10.40    1.30
  -5  10  -1   10.20    1.10
   5  10   1    8.70    0.60
  -5  10  -1    8.60    1.10
  -5  10  -1   10.20    1.20
  -6 -10  -1    0.20    0.60
   6 -10   1    0.50    0.70
   6  10   1    0.90    0.30
  -6  10  -1   -0.20    0.40
  -6  10  -1    0.20    0.50
  -6  10  -1    0.50    0.60
   7 -10   1    0.30    0.80
  -7 -10  -1    0.00    0.70
   7 -11  -1    0.30    0.70
  -7 -11   1    0.60    0.80
   7  11  -1    1.00    0.50
  -6 -11   1   28.70    2.20
   6 -11  -1   26.50    2.00
  -6 -11   1   30.00    1.10
   6  11  -1   26.50    1.50
  -6  11   1   28.70    1.90
  -5 -11   1   34.30    2.10
  -5 -11   1   32.30    1.30
   5 -11  -1   34.60    2.10
   5  11  -1   32.30    1.50
  -5  11   1   36.20    2.00
  -4 -11   1   25.10    1.80
   4 -11  -1   23.40    1.60
  -4 -11   1   24.60    1.20
  -4  11   1   23.90    1.60
   4  11  -1   23.70    1.30
   3 -11  -1    1.30    0.60
  -3 -11   1    0.90    0.50
   3 -11  -1    1.10    0.40
  -3 -11   1    0.90    0.40
  -3  11   1    1.80    0.50
   3  11  -1    1.40    0.40
   3  11  -1    1.50    0.50
  -3  11   1    0.30    0.40
   2 -11  -1  173.88    5.00
   2 -11  -1  171.28    5.00
  -2 -11   1  174.58    4.70
  -2 -11   1  170.58    5.20
   2  11  -1  169.68    4.60
   2  11  -1  178.38    4.50
  -2  11   1  174.48    4.70
  -2  11   1  168.58    5.00
   1 -11  -1   61.19    2.40
   1 -11  -1   59.99    2.20
  -1 -11   1   59.69    2.20
  -1 -11   1   59.39    2.50
   1  11  -1   60.79    2.10
  -1  11   1   64.49    2.50
   1  11  -1   60.69    2.20
  -1  11   1   59.19    2.10
   0 -11   1    0.10    0.30
   0 -11   1    0.10    0.30
   0 -11  -1    0.10    0.30
   0 -11  -1    0.40    0.30
   0  11  -1    0.00    0.20
   0  11  -1    0.30    0.30
   0  11   1    0.20    0.30
   0  11   1    0.40    0.30
   1 -11   1   37.10    1.80
  -1 -11  -1   39.10    1.50
   1 -11   1   40.20    2.00
  -1 -11  -1   38.00    1.80
  -1  11  -1   37.10    1.80
   1  11   1   35.90    1.50
   1  11   1   38.30    1.70
  -1  11  -1   40.70    1.70
  -2 -11  -1  152.78    4.70
   2 -11   1  148.49    4.60
  -2 -11  -1  154.68    3.80
   2 -11   1  153.68    4.80
   2  11   1  149.69    4.30
   2  11   1  151.48    3.90
  -2  11  -1  151.78    4.60
  -2  11  -1  153.88    4.70
   3 -11   1   10.90    1.20
  -3 -11  -1   10.90    1.20
  -3  11  -1    8.20    1.10
  -3  11  -1    9.60    1.10
   3  11   1    8.60    0.60
   3  11   1   12.00    0.90
  -4 -11  -1   33.90    2.00
   4 -11   1   31.30    2.00
  -4  11  -1   31.20    1.90
  -4  11  -1   35.00    2.00
   4  11   1   33.50    1.30
   5 -11   1   32.70    2.20
  -5 -11  -1   33.50    2.20
  -5  11  -1   35.90    2.10
  -5  11  -1   35.70    2.10
   5  11   1   35.10    1.30
  -6 -11  -1    0.50    0.60
   6 -11   1    0.50    0.70
  -6  11  -1    1.00    0.50
  -6  11  -1    0.80    0.60
   7 -12  -1   20.70    2.10
   6 -12  -1   -0.10    0.60
  -6 -12   1   -0.20    0.70
   6  12  -1   -0.20    0.40
  -6  12   1    0.50    0.70
  -5 -12   1    1.40    0.80
   5 -12  -1    2.40    0.80
  -5 -12   1    2.40    0.50
  -5  12   1    2.50    0.80
   5  12  -1    1.70    0.50
   4 -12  -1    9.90    1.20
  -4 -12   1    8.60    1.20
  -4 -12   1    9.00    0.80
  -4  12   1    8.50    1.20
   4  12  -1    9.00    0.90
  -3 -12   1   61.99    2.20
   3 -12  -1   62.39    2.60
   3 -12  -1   61.99    2.60
  -3 -12   1   58.99    2.70
   3  12  -1   61.09    2.20
  -3  12   1   60.59    2.60
   2 -12  -1  111.59    3.70
  -2 -12   1  112.59    3.90
  -2 -12   1  107.49    3.40
   2 -12  -1  109.19    3.70
  -2  12   1  104.39    3.70
   2  12  -1  104.39    3.20
  -2  12   1  110.99    3.40
   2  12  -1  110.79    3.40
   1 -12  -1   45.60    2.10
  -1 -12   1   47.70    2.00
   1 -12  -1   44.00    1.90
  -1 -12   1   43.90    2.20
  -1  12   1   43.10    2.10
  -1  12   1   46.80    1.90
   1  12  -1   47.10    1.90
   1  12  -1   44.30    1.90
   0 -12   1   24.10    1.40
   0 -12   1   24.10    1.50
   0 -12  -1   23.20    1.40
   0 -12  -1   23.00    1.20
   0  12   1   23.50    1.20
   0  12  -1   23.80    1.30
   0  12   1   22.90    1.40
   0  12  -1   25.70    1.50
  -1 -12  -1  132.89    4.20
   1 -12   1  136.39    4.40
   1 -12   1  133.59    4.20
  -1 -12  -1  139.89    3.80
   1  12   1  132.39    4.10
   1  12   1  127.69    3.60
  -1  12  -1  133.79    3.90
  -1  12  -1  134.09    4.20
  -2 -12  -1  123.59    4.10
   2 -12   1  126.49    4.10
  -2 -12  -1  128.79    3.30
   2 -12   1  126.59    4.30
  -2  12  -1  119.79    4.10
   2  12   1  125.79    3.80
   2  12   1  121.99    3.40
  -3 -12  -1    7.30    1.10
   3 -12   1    4.80    0.90
   3  12   1    4.30    0.50
   3  12   1    6.20    0.80
  -3  12  -1    4.60    0.90
  -4 -12  -1   10.20    1.30
   4 -12   1    8.40    1.20
  -4  12  -1    8.70    1.20
  -4  12  -1    9.90    1.20
   4  12   1    9.90    0.70
  -5 -12  -1    1.90    0.80
   5 -12   1    1.80    0.80
  -5  12  -1    2.10    0.70
   5  12   1    1.90    0.40
  -5  12  -1    1.80    0.70
  -6 -12  -1   26.80    2.10
   6 -12   1   27.50    2.20
  -6  12  -1   27.10    2.00
   6 -13  -1   16.80    1.80
  -6 -13   1   16.80    1.90
   6  13  -1   16.40    1.20
  -6  13   1   16.80    1.70
  -5 -13   1    5.60    1.20
  -5 -13   1    7.70    0.70
   5 -13  -1    6.90    1.20
   5  13  -1    5.30    0.80
  -5  13   1    6.70    1.20
  -4 -13   1   21.60    1.20
  -4 -13   1   24.10    1.80
   4 -13  -1   21.50    1.60
  -4  13   1   20.70    1.60
   4  13  -1   21.60    1.30
  -3 -13   1    1.40    0.60
  -3 -13   1    1.50    0.50
   3 -13  -1    2.40    0.70
   3 -13  -1    1.20    0.60
  -3  13   1    1.40    0.60
   3  13  -1    0.70    0.40
  -2 -13   1   99.39    3.30
   2 -13  -1  102.09    3.60
  -2 -13   1  102.49    3.80
   2 -13  -1  104.29    3.70
  -2  13   1   97.79    3.60
   2  13  -1  105.09    3.30
   2  13  -1  100.69    3.20
   1 -13  -1    9.10    0.90
  -1 -13   1   10.90    1.30
  -1 -13   1    8.70    0.90
   1 -13  -1    9.10    1.00
  -1  13   1    7.90    1.10
   1  13  -1   10.30    1.00
   1  13  -1   10.60    1.00
  -1  13   1    9.50    0.90
   0 -13  -1    6.50    0.80
   0 -13   1    7.20    0.90
   0 -13   1    6.70    1.00
   0 -13  -1    6.10    0.90
   0  13  -1    6.80    0.90
   0  13   1    6.40    0.70
   0  13  -1    8.60    1.00
   0  13   1    6.00    0.90
  -1 -13  -1   57.79    2.50
   1 -13   1   59.39    2.50
  -1 -13  -1   58.39    2.10
   1 -13   1   60.09    2.70
   1  13   1   58.69    2.10
  -1  13  -1   65.49    2.50
  -1  13  -1   61.09    2.60
   1  13   1   60.69    2.50
   2 -13   1   12.00    1.20
   2 -13   1    9.70    1.20
  -2 -13  -1    9.30    1.10
  -2 -13  -1   11.30    0.70
  -2  13  -1    9.00    1.20
   2  13   1    8.10    0.80
   2  13   1    9.50    1.00
  -3 -13  -1    2.40    0.70
   3 -13   1    1.90    0.70
   3  13   1    2.70    0.60
  -3  13  -1    3.40    0.80
   3  13   1    3.80    0.50
  -4 -13  -1   10.30    1.40
   4 -13   1   10.80    1.40
   4  13   1    9.00    0.70
  -4  13  -1    8.90    1.30
  -5 -13  -1    4.00    1.00
   5 -13   1    6.80    1.30
   5  13   1    6.00    0.60
  -5  13  -1    5.60    1.10
   6 -13   1   30.00    2.40
  -6 -13  -1   33.70    2.40
  -6  13  -1   33.60    2.30
   6 -14  -1    2.70    1.00
  -6 -14   1    0.70    0.80
  -6  14   1    1.50    0.90
   6  14  -1    1.80    0.60
   5 -14  -1    3.30    0.90
  -5 -14   1    4.50    1.20
  -5 -14   1    3.70    0.50
  -5  14   1    4.30    1.10
   5  14  -1    4.60    0.80
  -4 -14   1   18.90    1.10
  -4 -14   1   17.90    1.80
   4 -14  -1   16.70    1.60
   4  14  -1   18.40    1.20
  -4  14   1   15.50    1.60
  -3 -14   1    0.80    0.60
   3 -14  -1    0.20    0.50
   3 -14  -1    1.00    0.50
  -3 -14   1    0.40    0.40
   3  14  -1    0.50    0.40
  -3  14   1    1.20    0.60
  -2 -14   1   19.20    1.20
   2 -14  -1   24.70    1.60
   2 -14  -1   20.30    1.40
  -2 -14   1   17.00    1.60
   2  14  -1   20.80    1.30
  -2  14   1   19.40    1.30
  -2  14   1   19.30    1.60
   2  14  -1   20.20    1.40
   1 -14  -1    3.10    0.60
  -1 -14   1    2.10    0.80
  -1 -14   1    1.60    0.50
   1 -14  -1    1.40    0.60
  -1  14   1    1.60    0.60
   1  14  -1    2.00    0.50
   1  14  -1    2.20    0.60
  -1  14   1    1.90    0.50
   0 -14   1    0.40    0.50
   0 -14  -1    1.50    0.50
   0 -14   1    1.40    0.50
   0 -14  -1    0.50    0.50
   0  14   1    1.40    0.60
   0  14  -1    1.20    0.50
   0  14  -1    1.20    0.60
   0  14   1    0.80    0.40
  -1 -14  -1   14.20    1.00
   1 -14   1   14.40    1.20
  -1 -14  -1   12.90    1.30
   1 -14   1   13.00    1.40
  -1  14  -1   15.30    1.20
   1  14   1   14.20    1.30
   1  14   1   13.10    1.00
  -1  14  -1   13.30    1.30
   2 -14   1    8.30    1.20
   2 -14   1   10.00    1.20
  -2 -14  -1    6.90    0.70
  -2 -14  -1    9.00    1.20
   2  14   1    8.20    1.00
   2  14   1    6.70    0.70
  -2  14  -1    7.20    1.10
  -3 -14  -1    8.00    1.20
   3 -14   1    4.70    1.00
  -3  14  -1    5.80    1.10
   3  14   1    5.60    0.60
   4 -14   1    1.50    0.80
  -4 -14  -1    1.50    0.80
  -4  14  -1    1.30    0.80
   4  14   1    1.30    0.40
   5 -14   1    6.00    1.30
  -5 -14  -1    2.90    1.00
   5  14   1    2.50    0.50
  -5  14  -1    4.60    1.10
  -6  14  -1   13.20    1.70
   6 -15  -1    6.80    1.40
  -6  15   1    7.20    1.40
  -5 -15   1   43.40    2.80
   5 -15  -1   43.20    2.60
  -5 -15   1   44.40    1.60
   5  15  -1   44.40    2.10
  -5  15   1   43.00    2.60
   4 -15  -1    9.40    1.30
  -4 -15   1    9.90    0.90
  -4 -15   1   10.20    1.50
   4  15  -1    9.00    1.00
  -4  15   1    9.30    1.40
  -3 -15   1    4.80    0.80
   3 -15  -1    3.80    0.80
   3 -15  -1    3.90    0.90
  -3 -15   1    4.70    1.00
   3  15  -1    3.70    0.70
  -3  15   1    4.50    1.00
   2 -15  -1    1.90    0.70
  -2 -15   1    3.10    0.90
  -2 -15   1    3.40    0.60
   2 -15  -1    3.90    0.80
   2  15  -1    4.30    0.80
  -2  15   1    1.60    0.60
  -2  15   1    2.30    0.80
   2  15  -1    2.50    0.60
  -1 -15   1    2.60    0.80
  -1 -15   1    2.30    0.60
   1 -15  -1    1.50    0.70
   1 -15  -1    2.20    0.60
   1  15  -1    3.30    0.70
   1  15  -1    4.10    0.80
  -1  15   1    1.80    0.60
  -1  15   1    3.20    0.70
   0 -15   1    3.70    0.70
   0 -15   1    4.00    0.90
   0 -15  -1    3.00    0.60
   0 -15  -1    5.00    1.00
   0  15  -1    2.60    0.70
   0  15  -1    3.10    0.70
   0  15   1    2.80    0.70
   0  15   1    2.00    0.60
   1 -15   1    0.80    0.50
  -1 -15  -1    1.60    0.60
   1 -15   1    2.10    0.70
  -1 -15  -1    0.90    0.50
   1  15   1    1.10    0.60
  -1  15  -1    0.40    0.40
   1  15   1    1.40    0.50
  -1  15  -1    0.90    0.50
  -2 -15  -1    6.40    0.70
  -2 -15  -1    6.20    1.00
   2 -15   1    5.70    1.00
   2 -15   1    7.50    1.20
   2  15   1    5.00    0.70
   2  15   1    6.60    1.00
  -2  15  -1    4.50    0.90
  -3 -15  -1    4.50    1.00
   3 -15   1    6.20    1.10
   3  15   1    5.40    0.70
  -3  15  -1    5.80    1.10
   4 -15   1   65.79    3.40
  -4 -15  -1   73.19    3.40
  -4  15  -1   71.99    3.30
   4  15   1   67.79    2.40
  -5 -15  -1    2.50    0.90
   5 -15   1    2.30    0.90
  -5  15  -1    4.10    1.00
   5  15   1    2.80    0.50
  -5 -16   1   11.00    0.70
  -5 -16   1   10.80    1.70
   5 -16  -1   12.50    1.70
   5  16  -1   10.90    1.10
  -5  16   1   11.10    1.60
  -4 -16   1   86.69    2.80
  -4 -16   1   76.19    3.70
  -4  16   1   82.59    3.70
   4  16  -1   78.19    3.00
   3 -16  -1   11.90    1.40
  -3 -16   1    9.10    1.00
  -3 -16   1   10.60    1.50
   3 -16  -1   12.70    1.40
  -3  16   1   11.80    1.50
   3  16  -1   13.00    1.20
  -2 -16   1    0.90    0.50
   2 -16  -1    0.70    0.60
  -2 -16   1    0.80    0.70
   2 -16  -1    0.50    0.40
   2  16  -1    1.10    0.60
   2  16  -1    0.80    0.50
  -2  16   1    0.90    0.60
  -2  16   1    0.30    0.50
  -1 -16   1   20.40    1.40
  -1 -16   1   21.60    1.70
   1 -16  -1   21.10    1.70
   1 -16  -1   23.60    1.50
   1  16  -1   21.30    1.50
   1  16  -1   23.70    1.60
  -1  16   1   21.80    1.60
   0 -16   1    2.90    0.90
   0 -16   1    4.20    0.80
   0 -16  -1    3.80    0.70
   0 -16  -1    4.80    1.00
   0  16   1    4.10    0.90
   0  16  -1    3.20    0.70
   0  16   1    4.70    0.80
   0  16  -1    4.20    0.90
  -1 -16  -1    4.70    1.00
   1 -16   1    4.00    1.00
   1 -16   1    6.10    1.00
  -1 -16  -1    4.70    0.70
  -1  16  -1    6.80    1.00
   1  16   1    7.50    1.10
   1  16   1    5.90    0.90
   2 -16   1   25.80    2.00
   2 -16   1   29.30    1.90
  -2 -16  -1   29.50    1.40
  -2 -16  -1   29.30    2.00
   2  16   1   26.20    1.50
   2  16   1   29.70    1.80
  -2  16  -1   29.10    1.90
   3 -16   1   26.90    2.10
  -3 -16  -1   27.40    2.00
  -3  16  -1   26.10    2.00
   3  16   1   24.00    1.40
   4 -16   1   73.49    3.60
  -4 -16  -1   62.69    3.30
  -4  16  -1   66.29    3.30
  -5 -16  -1    0.80    0.80
  -5 -17   1   15.30    0.80
  -4 -17   1   21.70    1.30
   4 -17  -1   21.80    2.00
  -4 -17   1   20.80    2.10
  -4  17   1   21.60    2.00
   4  17  -1   19.00    1.40
  -3 -17   1    2.10    0.70
  -3 -17   1    0.10    0.70
   3 -17  -1    1.60    0.70
   3 -17  -1    2.40    0.90
  -3  17   1    1.30    0.90
   3  17  -1    1.50    0.60
  -2 -17   1    0.70    0.70
   2 -17  -1    0.00    0.50
   2 -17  -1    0.10    0.40
  -2 -17   1    1.10    0.40
  -2  17   1    0.30    0.40
   2  17  -1    0.60    0.50
  -1 -17   1    0.10    0.40
  -1 -17   1   -0.60    0.60
   1 -17  -1    0.20    0.30
   1 -17  -1    0.30    0.60
  -1  17   1   -0.60    0.40
   1  17  -1   -0.50    0.40
  -1  17   1    0.30    0.50
   1  17  -1   -0.30    0.40
   0 -17  -1    0.20    0.50
   0 -17   1    0.10    0.60
   0 -17  -1    0.00    0.30
   0 -17   1   -0.40    0.30
   0  17  -1    0.20    0.40
   0  17  -1   -0.20    0.40
   0  17   1   -0.30    0.50
   0  17   1   -0.10    0.40
  -1 -17  -1   21.60    1.40
   1 -17   1   26.10    1.70
   1 -17   1   18.50    1.80
  -1 -17  -1   22.70    1.80
  -1  17  -1   22.80    1.70
   1  17   1   20.70    1.40
   1  17   1   23.90    1.70
  -2 -17  -1    3.00    0.60
  -2 -17  -1    3.50    1.00
   2 -17   1    3.50    1.00
   2 -17   1    3.00    0.80
   2  17   1    1.90    0.70
  -2  17  -1    2.50    0.70
   2  17   1    3.50    0.80
   3 -17   1   14.30    1.80
  -3 -17  -1   18.40    1.90
   3  17   1   13.70    1.10
  -3  17  -1   12.10    1.60
   4 -17   1   33.10    2.40
  -4 -17  -1   36.50    2.50
   4 -18  -1    3.90    1.20
  -3 -18   1    3.10    0.70
  -3 -18   1    2.80    1.00
   3 -18  -1    2.40    1.00
   3  18  -1    1.40    0.70
  -3  18   1    1.40    0.80
   2 -18  -1   10.10    1.40
  -2 -18   1    8.70    1.50
   2  18  -1    8.70    1.10
  -1 -18   1   46.30    2.80
  -1 -18   1   44.40    2.20
   1 -18  -1   43.10    2.60
   1 -18  -1   47.40    2.30
  -1  18   1   46.10    2.50
   1  18  -1   42.80    2.20
   1  18  -1   44.70    2.40
   0 -18  -1   29.50    2.10
   0 -18  -1   22.50    1.50
   0 -18   1   29.80    2.20
   0  18   1   28.20    1.70
   0  18  -1   28.30    1.80
   1 -18   1    2.30    0.90
  -1 -18  -1    3.00    1.00
  -1 -18  -1    3.40    0.70
   1  18   1    3.20    0.80
   2 -18   1    4.00    1.10
  -2 -18  -1    3.80    1.00
  -2 -18  -1    4.60    0.70
   2 -18   1    7.10    1.10
   2  18   1    4.90    0.90
  -3 -18  -1    0.70    0.80
   3 -18   1    0.10    0.60
   3  18   1    0.10    0.40
  -3  18  -1   -1.10    0.60
   3 -19  -1   16.50    1.80
   2 -19  -1   51.29    2.90
  -2 -19   1   46.90    2.90
   2  19  -1   45.10    2.40
   1 -19  -1    0.60    0.70
  -1 -19   1    1.30    0.80
  -1  19   1    2.00    0.80
   1  19  -1    1.90    0.80
   0 -19  -1   -0.60    0.70
   0 -19   1    0.30    0.80
   0  19   1   -0.10    0.50
  -1 -19  -1   57.69    3.10
   1 -19   1   59.19    3.30
  -1 -19  -1   55.19    2.40
   1  19   1   53.49    2.50
  -2 -19  -1   16.70    1.10
   2 -19   1   14.80    1.80
  -2 -19  -1   11.90    1.70
   2 -20  -1   22.30    2.10
   1 -20  -1   11.10    1.70
  -1  20   1   10.00    1.40
   1  20  -1   10.40    1.40
   0 -20  -1   -1.40    0.70
   0  20   1   -0.70    0.60
  -1 -20  -1   26.50    2.20
  -8   0   2   71.79    3.50
  -8   0   2   69.89    2.90
   8   0  -2   71.29    2.90
   8   0  -2   69.39    3.40
   7   0  -2   99.79    3.40
  -7   0   2   97.79    3.50
  -7   0   2  100.29    3.90
   7   0  -2  102.99    3.90
  -6   0   2   19.50    1.50
  -6   0   2   18.60    1.30
   6   0  -2   21.10    1.30
   6   0  -2   19.80    1.40
   5   0  -2    5.50    0.70
  -5   0   2    6.80    0.90
  -5   0   2    5.60    0.80
   5   0  -2    7.60    0.90
  -5   0   2    7.10    0.80
  -4   0   2  158.08    4.40
  -4   0   2  153.88    4.50
   4   0  -2  157.08    4.40
  -4   0   2  156.68    3.50
   4   0  -2  155.48    4.10
  -4   0   2  165.68    4.40
   4   0  -2  164.78    4.40
  -3   0   2   14.10    0.80
  -3   0   2   13.60    0.90
  -3   0   2   13.40    0.50
   3   0  -2   14.00    0.80
  -3   0   2   15.50    0.80
  -3   0   2   15.80    0.90
   3   0  -2   14.50    0.80
   3   0  -2   13.20    0.80
   2   0  -2   48.20    1.50
  -2   0   2   46.40    1.60
  -2   0   2   47.30    1.30
   2   0  -2   48.50    1.30
  -2   0   2   49.00    1.60
  -2   0   2   49.40    1.50
  -2   0   2   45.30    1.40
  -1   0   2 9999.00  198.98
  -1   0   2 9364.26  202.48
   1   0  -2 9904.61  198.88
  -1   0   2 9824.52  210.48
  -1   0   2 9763.22  209.08
   1   0  -2 9263.27  198.08
   0   0  -2  375.56    8.60
   0   0   2  390.16    8.10
   0   0   2  389.76    8.50
   0   0  -2  374.66    8.60
   0   0   2  382.66    8.10
   0   0  -2  368.36    8.20
   0   0   2  373.66    8.40
   1   0   2   49.70    1.30
  -1   0  -2   46.00    1.40
  -1   0  -2   48.40    1.30
   1   0   2   43.40    1.50
   1   0   2   49.10    1.30
   1   0   2   46.80    1.40
  -2   0  -2   14.60    0.60
  -2   0  -2   13.90    0.90
   2   0   2   15.10    0.60
  -2   0  -2   14.60    0.80
  -2   0  -2   16.80    0.70
   2   0   2   16.70    0.90
   2   0   2   15.80    0.60
  -3   0  -2   37.40    1.70
   3   0   2   36.90    1.20
   3   0   2   35.20    1.50
   3   0   2   38.80    1.20
  -3   0  -2   37.50    1.20
  -3   0  -2   34.20    1.20
  -3   0  -2   36.50    1.50
   4   0   2   26.80    1.40
  -4   0  -2   23.60    1.20
  -4   0  -2   22.90    1.40
  -4   0  -2   25.40    1.00
   4   0   2   23.90    1.00
  -4   0  -2   22.60    1.00
   5   0   2    9.80    0.70
  -5   0  -2   10.00    0.70
  -5   0  -2   10.90    1.20
  -5   0  -2   11.70    0.90
   5   0   2   10.80    1.20
  -6   0  -2   58.69    2.90
   6   0   2   61.59    2.20
  -6   0  -2   64.39    2.00
   6   0   2   65.39    2.90
  -7   0  -2   71.39    3.50
  -7   0  -2   84.39    2.30
   7   0   2   74.79    2.70
   8  -1  -2   13.80    1.30
  -8  -1   2   12.40    1.70
   8  -1  -2   12.20    1.60
  -8  -1   2   12.90    1.10
   8   1  -2   13.10    1.30
  -8   1   2   12.50    1.20
   8   1  -2   14.10    1.70
  -8   1   2   11.90    1.60
  -7  -1   2    3.70    0.70
   7  -1  -2    2.40    0.80
  -7  -1   2    3.00    0.80
   7  -1  -2    3.50    0.70
  -7   1   2    2.60    0.80
   7   1  -2    2.90    0.80
   7   1  -2    2.30    0.60
  -7   1   2    3.10    0.70
  -6  -1   2   43.70    2.00
   6  -1  -2   41.40    2.10
   6  -1  -2   42.30    1.90
  -6  -1   2   38.70    2.20
  -6  -1   2   45.40    2.20
  -6   1   2   45.20    2.30
  -6   1   2   44.20    2.00
   6   1  -2   44.90    1.90
   6   1  -2   47.80    2.30
  -5  -1   2   15.30    1.10
  -5  -1   2   15.10    1.00
   5  -1  -2   14.60    1.10
  -5  -1   2   14.20    1.20
   5  -1  -2   12.80    0.90
  -5   1   2   16.50    1.20
   5   1  -2   15.70    1.10
  -5   1   2   13.50    1.00
   5   1  -2   14.60    0.90
   4  -1  -2    0.80    0.40
  -4  -1   2   -0.10    0.20
   4  -1  -2    1.00    0.30
  -4  -1   2    1.30    0.40
  -4  -1   2    0.40    0.30
   4  -1  -2    0.40    0.30
  -4   1   2    0.50    0.20
  -4   1   2    0.70    0.40
   4   1  -2    0.60    0.30
   4   1  -2    0.70    0.40
  -4   1   2    0.30    0.30
   4   1  -2    0.80    0.30
  -3  -1   2   89.19    2.00
  -3  -1   2   92.39    2.60
   3  -1  -2   88.79    2.50
  -3  -1   2   91.49    2.50
   3  -1  -2   85.99    2.50
  -3  -1   2   85.89    2.70
   3  -1  -2   87.49    2.70
  -3  -1   2   90.79    2.70
   3   1  -2   90.89    2.70
  -3   1   2   83.19    2.70
  -3   1   2   85.89    2.50
  -3   1   2   88.49    2.70
  -3   1   2   89.49    2.20
   3   1  -2   90.19    2.50
  -3   1   2   87.49    2.60
  -2  -1   2    7.40    0.50
  -2  -1   2    6.40    0.60
  -2  -1   2    6.30    0.50
   2  -1  -2    6.20    0.40
   2  -1  -2    6.30    0.40
  -2  -1   2    7.10    0.50
   2  -1  -2    7.40    0.50
   2  -1  -2    6.30    0.50
  -2   1   2    6.90    0.50
  -2   1   2    6.50    0.60
   2   1  -2    7.30    0.60
  -2   1   2    7.30    0.50
   2   1  -2    6.20    0.40
   2   1  -2    7.20    0.50
  -2   1   2    6.20    0.40
  -2   1   2    6.40    0.50
  -1  -1   2  776.52   16.60
  -1  -1   2  746.63   17.20
   1  -1  -2  758.52   17.00
   1  -1  -2  789.82   16.20
   1  -1  -2  765.42   17.20
  -1  -1   2  808.12   16.30
  -1  -1   2  758.42   16.90
   1  -1  -2  768.72   16.20
  -1   1   2  778.22   17.20
   1   1  -2  768.42   16.20
  -1   1   2  810.22   16.30
  -1   1   2  769.82   16.60
   1   1  -2  772.42   16.30
   0  -1   2 4011.30   86.59
   0  -1  -2 4268.87   90.39
   0  -1   2 4298.17   85.39
   0  -1  -2 4238.28   84.79
   0  -1   2 4030.30   89.99
   0  -1  -2 4107.49   89.89
   0  -1   2 4006.80   89.19
   0   1  -2 4145.19   85.19
   0   1   2 4142.69   90.09
   0   1   2 4111.09   85.09
   0   1  -2 4121.69   90.09
   0   1   2 4058.89   85.19
   0   1   2 3971.20   86.79
   0   1  -2 4293.37   84.89
   1  -1   2   55.69    1.70
  -1  -1  -2   56.09    1.50
   1  -1   2   56.99    1.50
  -1  -1  -2   55.09    1.50
   1  -1   2   55.09    1.50
   1  -1   2   57.29    1.80
  -1  -1  -2   54.89    1.80
  -1   1  -2   54.89    1.60
   1   1   2   55.69    1.60
   1   1   2   56.59    1.80
   1   1   2   58.99    1.40
  -1   1  -2   54.89    1.60
  -1   1  -2   54.99    1.70
   1   1   2   56.59    1.40
   2  -1   2   18.20    0.80
  -2  -1  -2   16.50    0.90
  -2  -1  -2   16.80    0.60
   2  -1   2   17.80    0.70
  -2  -1  -2   19.30    1.00
  -2  -1  -2   18.50    0.60
   2  -1   2   20.40    1.00
  -2   1  -2   16.60    0.80
   2   1   2   18.30    0.60
  -2   1  -2   17.50    1.00
  -2   1  -2   18.20    0.80
   2   1   2   18.50    0.60
  -2   1  -2   18.80    1.00
   2   1   2   18.10    0.90
  -3  -1  -2   13.70    0.50
   3  -1   2   13.10    0.70
  -3  -1  -2   13.30    0.80
   3  -1   2   14.10    0.70
  -3  -1  -2   12.40    0.50
   3  -1   2   12.30    0.90
  -3  -1  -2   13.20    0.90
  -3   1  -2   13.30    0.70
  -3   1  -2   13.50    0.70
   3   1   2   13.90    0.90
   3   1   2   13.50    0.60
   3   1   2   13.10    0.60
  -3   1  -2   12.30    0.80
  -3   1  -2   11.30    0.90
   4  -1   2    9.90    1.00
  -4  -1  -2   10.50    0.50
  -4  -1  -2   12.20    1.10
   4  -1   2   11.50    0.70
  -4  -1  -2   11.90    0.90
  -4   1  -2    9.70    1.00
  -4   1  -2   11.10    0.70
   4   1   2   12.40    1.00
   4   1   2   11.70    0.60
  -4   1  -2    9.10    0.80
  -5  -1  -2    6.20    0.50
  -5  -1  -2    4.70    0.70
   5  -1   2    7.30    1.00
  -5  -1  -2    5.40    0.90
   5  -1   2    6.60    0.70
   5   1   2    5.00    0.50
   5   1   2    7.60    1.00
  -5   1  -2    6.60    0.60
  -5   1  -2    5.80    0.90
  -5   1  -2    5.10    0.70
  -6  -1  -2   28.30    1.90
   6  -1   2   27.20    1.90
  -6  -1  -2   29.90    1.00
   6  -1   2   27.70    1.40
   6   1   2   31.70    1.90
  -6   1  -2   29.30    1.30
   6   1   2   27.50    1.30
  -6   1  -2   31.50    2.00
   7  -1   2   37.10    1.80
  -7  -1  -2   36.10    2.40
  -7   1  -2   35.60    1.50
   7   1   2   32.40    1.60
  -7   1  -2   31.20    2.20
  -8   1  -2    4.40    0.60
   9  -2  -2    1.40    0.80
  -8  -2   2   28.00    1.60
  -8  -2   2   28.20    2.20
   8  -2  -2   25.70    2.00
   8  -2  -2   26.10    1.70
   8   2  -2   21.80    2.00
  -8   2   2   26.00    1.90
   8   2  -2   26.00    1.60
  -8   2   2   25.20    1.70
  -7  -2   2   11.60    1.10
   7  -2  -2    8.20    1.20
  -7  -2   2   13.50    1.50
   7  -2  -2   10.40    1.10
  -7  -2   2   10.20    1.30
   7   2  -2   11.50    1.40
  -7   2   2   12.20    1.20
   7   2  -2   10.90    1.10
  -7   2   2    8.50    1.30
  -6  -2   2    4.20    0.80
  -6  -2   2    4.10    0.90
   6  -2  -2    5.20    0.80
   6  -2  -2    5.40    0.90
  -6  -2   2    5.30    0.80
  -6   2   2    5.50    0.90
   6   2  -2    4.00    0.90
  -6   2   2    6.00    1.00
   6   2  -2    4.50    0.70
   5  -2  -2   71.69    2.60
   5  -2  -2   72.09    2.40
  -5  -2   2   68.59    2.50
  -5  -2   2   69.09    2.70
  -5  -2   2   67.39    2.70
   5   2  -2   69.99    2.30
  -5   2   2   71.29    2.80
   5   2  -2   71.39    2.70
  -5   2   2   70.79    2.60
   4  -2  -2   87.99    2.90
   4  -2  -2   85.49    2.80
  -4  -2   2   87.79    2.90
   4  -2  -2   90.49    2.70
  -4  -2   2   87.49    2.90
  -4  -2   2   89.09    2.80
  -4   2   2   85.89    2.90
  -4   2   2   88.19    2.30
   4   2  -2   87.99    2.60
  -4   2   2   98.69    3.00
  -3  -2   2   11.40    0.70
   3  -2  -2   12.60    0.80
   3  -2  -2   10.80    0.80
   3  -2  -2   11.70    0.70
  -3  -2   2   12.30    0.80
  -3  -2   2   11.10    0.80
  -3  -2   2   12.20    0.90
  -3   2   2   11.50    0.80
   3   2  -2   11.60    0.80
  -3   2   2   11.50    0.60
  -3   2   2   11.60    0.80
  -3   2   2   12.20    0.90
   3   2  -2   11.60    0.70
   2  -2  -2   26.80    1.20
  -2  -2   2   30.40    1.20
   2  -2  -2   30.10    1.10
  -2  -2   2   30.40    1.10
  -2  -2   2   28.90    1.10
   2  -2  -2   30.00    1.00
  -2  -2   2   27.80    1.20
   2   2  -2   29.30    0.90
   2   2  -2   29.90    1.20
   2   2  -2   28.70    1.10
  -2   2   2   31.50    1.10
  -2   2   2   30.40    1.20
  -2   2   2   30.90    1.10
  -2   2   2   26.50    1.10
   1  -2  -2   79.39    2.10
  -1  -2   2   74.89    2.10
  -1  -2   2   78.39    2.10
   1  -2  -2   76.69    1.80
   1  -2  -2   79.19    2.00
  -1  -2   2   73.89    2.00
   1  -2  -2   77.39    2.20
   1   2  -2   75.59    2.00
  -1   2   2   79.39    2.20
  -1   2   2   81.19    2.20
   1   2  -2   78.29    2.20
  -1   2   2   80.39    2.00
   1   2  -2   78.59    2.10
  -1   2   2   78.99    2.10
   0  -2  -2  129.29    3.10
   0  -2  -2  129.89    3.00
   0  -2   2  132.19    3.10
   0  -2   2  131.19    3.30
   0  -2  -2  127.49    3.10
   0  -2  -2  124.89    3.20
   0  -2   2  130.59    3.20
   0  -2   2  127.89    3.20
   0   2  -2  129.99    3.20
   0   2   2  126.79    2.90
   0   2  -2  133.19    3.10
   0   2  -2  129.59    3.30
   0   2   2  133.19    3.20
   0   2   2  124.89    2.90
  -1  -2  -2  289.57    6.70
   1  -2   2  282.07    6.70
  -1  -2  -2  287.87    6.60
   1  -2   2  289.97    6.40
   1  -2   2  291.87    6.80
   1  -2   2  284.47    6.80
  -1  -2  -2  288.77    6.50
  -1  -2  -2  292.97    6.70
  -1  -2  -2  292.67    6.60
   1   2   2  293.87    6.20
  -1   2  -2  293.37    6.80
   1   2   2  298.47    6.20
   1   2   2  290.97    6.70
  -1   2  -2  287.67    6.60
  -1   2  -2  298.37    6.80
   1   2   2  290.77    6.70
  -2  -2  -2  291.77    6.70
   2  -2   2  276.17    6.80
   2  -2   2  275.97    6.30
  -2  -2  -2  275.97    6.70
  -2  -2  -2  274.37    6.40
   2  -2   2  280.37    6.30
   2   2   2  289.17    6.00
   2   2   2  275.97    6.70
  -2   2  -2  271.77    6.50
  -2   2  -2  280.47    6.70
  -2   2  -2  276.77    6.70
  -2   2  -2  283.47    6.60
  -3  -2  -2   59.79    2.20
   3  -2   2   61.09    1.80
  -3  -2  -2   61.49    2.20
   3  -2   2   59.99    1.80
   3  -2   2   54.69    2.10
  -3  -2  -2   60.09    2.00
  -3   2  -2   56.39    2.20
  -3   2  -2   57.59    1.90
   3   2   2   56.29    1.50
   3   2   2   59.99    2.10
   3   2   2   60.99    1.50
  -3   2  -2   58.69    2.00
   4  -2   2   62.29    2.50
  -4  -2  -2   62.89    2.20
   4  -2   2   62.49    2.00
  -4  -2  -2   68.69    2.60
   4   2   2   63.89    1.80
   4   2   2   67.99    2.50
  -4   2  -2   62.29    2.50
  -4   2  -2   61.89    2.20
  -4   2  -2   61.09    2.10
   4   2   2   67.99    1.80
  -5  -2  -2  243.98    7.00
   5  -2   2  255.27    6.20
   5  -2   2  250.27    7.10
  -5   2  -2  252.67    7.00
   5   2   2  245.58    5.80
  -5   2  -2  253.87    6.40
  -5   2  -2  254.77    6.40
   5   2   2  260.97    7.10
  -6  -2  -2   16.50    1.60
   6  -2   2   17.70    1.20
   6  -2   2   17.50    1.40
  -6   2  -2   17.00    1.10
   6   2   2   17.10    1.00
   6   2   2   17.10    1.60
  -6   2  -2   15.30    1.50
  -7  -2  -2   10.30    1.50
   7  -2   2    9.80    1.00
  -7   2  -2    9.10    0.90
  -7   2  -2   12.00    1.50
   7   2   2   11.60    0.80
   9  -3  -2    3.60    1.00
   8  -3  -2    1.50    0.60
  -8  -3   2    1.90    0.70
   8  -3  -2    1.10    0.70
  -8  -3   2    1.00    0.80
   8   3  -2    1.40    0.80
   8   3  -2    1.50    0.60
  -8   3   2    0.30    0.40
  -7  -3   2   20.90    1.70
  -7  -3   2   20.20    1.30
  -7  -3   2   22.40    1.70
   7  -3  -2   20.90    1.70
   7  -3  -2   21.50    1.40
   7   3  -2   20.70    1.70
   7   3  -2   18.30    1.30
  -7   3   2   21.30    1.50
  -7   3   2   22.20    1.70
   6  -3  -2  306.37    7.70
  -6  -3   2  312.07    8.00
   6  -3  -2  313.67    8.30
  -6  -3   2  314.17    8.50
  -6  -3   2  311.87    8.40
  -6   3   2  310.37    8.40
  -6   3   2  302.27    8.20
   6   3  -2  318.97    8.50
   5  -3  -2   -0.10    0.30
  -5  -3   2    0.50    0.30
  -5  -3   2    1.10    0.50
  -5  -3   2    0.50    0.40
   5  -3  -2    0.70    0.40
  -5   3   2    0.60    0.30
   5   3  -2    0.40    0.40
   5   3  -2    0.60    0.30
  -5   3   2    0.50    0.40
   4  -3  -2   14.70    1.00
  -4  -3   2   14.40    1.00
   4  -3  -2   15.30    1.00
  -4  -3   2   15.20    0.90
   4  -3  -2   15.60    0.90
  -4  -3   2   14.20    1.00
  -4   3   2   14.50    1.00
   4   3  -2   13.40    0.80
  -4   3   2   15.30    0.80
  -4   3   2   15.50    1.10
  -3  -3   2  177.08    4.20
   3  -3  -2  172.18    4.70
  -3  -3   2  172.48    4.60
   3  -3  -2  183.08    4.50
   3  -3  -2  174.58    4.30
  -3  -3   2  170.18    4.50
  -3  -3   2  170.88    4.60
  -3   3   2  179.28    4.60
  -3   3   2  178.78    4.20
  -3   3   2  174.28    4.70
   3   3  -2  178.78    4.60
  -3   3   2  171.18    4.40
   3   3  -2  173.38    4.30
   2  -3  -2  186.58    4.50
  -2  -3   2  189.58    4.70
  -2  -3   2  187.68    4.60
   2  -3  -2  185.78    4.80
   2  -3  -2  184.78    4.40
  -2  -3   2  186.38    4.70
  -2  -3   2  189.18    4.40
   2   3  -2  186.28    4.70
   2   3  -2  182.48    4.40
  -2   3   2  184.58    4.50
  -2   3   2  190.58    4.40
  -2   3   2  187.18    4.80
   2   3  -2  188.28    4.10
  -2   3   2  191.88    4.60
  -1  -3   2    3.90    0.40
   1  -3  -2    4.60    0.40
  -1  -3   2    4.20    0.40
   1  -3  -2    4.60    0.30
   1  -3  -2    3.80    0.40
   1  -3  -2    5.00    0.50
  -1  -3   2    4.10    0.40
  -1  -3   2    4.10    0.40
  -1   3   2    4.30    0.40
   1   3  -2    3.70    0.40
  -1   3   2    4.10    0.40
  -1   3   2    4.80    0.40
   1   3  -2    4.90    0.40
   1   3  -2    4.80    0.50
  -1   3   2    3.90    0.40
   0  -3  -2  246.28    5.70
   0  -3   2  251.57    5.90
   0  -3   2  254.67    5.60
   0  -3  -2  249.97    5.70
   0  -3   2  247.98    6.00
   0  -3  -2  247.78    5.80
   0  -3   2  252.07    5.80
   0  -3  -2  258.87    5.60
   0   3   2  248.48    5.40
   0   3   2  250.47    5.70
   0   3  -2  248.08    5.70
   0   3   2  248.28    5.40
   0   3  -2  254.37    6.00
   0   3  -2  243.28    5.60
   1  -3   2   47.40    1.50
   1  -3   2   48.60    1.60
   1  -3   2   47.00    1.60
   1  -3   2   48.10    1.60
  -1  -3  -2   49.40    1.50
  -1  -3  -2   48.60    1.60
  -1   3  -2   48.60    1.70
  -1   3  -2   49.40    1.50
  -1   3  -2   49.70    1.60
  -1   3  -2   46.50    1.60
   1   3   2   46.20    1.50
   2  -3   2  190.58    4.60
  -2  -3  -2  189.38    4.80
   2  -3   2  194.28    4.90
   2  -3   2  195.78    5.00
  -2  -3  -2  198.18    4.70
  -2  -3  -2  193.28    4.80
   2   3   2  184.58    4.80
  -2   3  -2  196.98    4.80
  -2   3  -2  186.28    4.80
  -2   3  -2  191.78    4.80
  -2   3  -2  182.28    4.80
  -3  -3  -2   46.20    1.70
  -3  -3  -2   44.80    1.80
   3  -3   2   41.40    1.50
   3  -3   2   46.50    1.90
  -3  -3  -2   41.20    1.80
   3   3   2   44.60    1.10
  -3   3  -2   45.20    1.90
   3   3   2   44.20    1.10
  -3   3  -2   45.90    1.70
  -3   3  -2   44.70    1.80
   3   3   2   45.00    1.80
  -4  -3  -2  148.09    4.40
   4  -3   2  141.89    4.40
  -4  -3  -2  147.69    3.90
   4  -3   2  138.59    3.80
  -4  -3  -2  144.89    4.40
  -4   3  -2  144.69    4.40
  -4   3  -2  146.89    4.10
   4   3   2  140.69    4.30
  -4   3  -2  147.49    4.10
   4   3   2  145.99    3.40
  -5  -3  -2   85.49    3.30
   5  -3   2   88.49    2.80
   5  -3   2   92.79    3.40
  -5   3  -2   92.09    3.40
  -5   3  -2   88.29    3.00
   5   3   2   93.69    3.40
   5   3   2   91.39    2.40
  -5   3  -2   91.39    3.00
   6  -3   2    4.60    0.70
   6  -3   2    7.40    1.10
  -6  -3  -2    4.30    1.00
  -6   3  -2    5.40    0.90
   6   3   2    5.00    1.00
  -6   3  -2    4.90    0.70
   6   3   2    5.70    0.60
  -7  -3  -2    0.50    0.70
   7  -3   2   -0.20    0.40
  -7   3  -2    0.40    0.40
  -7   3  -2   -0.40    0.50
   7   3   2    0.70    0.30
  -8  -4   2    1.10    0.80
  -8  -4   2    0.70    0.60
   8  -4  -2   -0.60    0.60
   8  -4  -2    0.30    0.60
   8   4  -2    0.00    0.80
   8   4  -2    0.70    0.60
  -7  -4   2   11.80    1.40
   7  -4  -2   13.80    1.50
  -7  -4   2   13.50    1.50
   7  -4  -2   14.10    1.30
  -7  -4   2   12.90    1.10
   7   4  -2   13.30    1.50
   7   4  -2   12.70    1.10
  -7   4   2   16.10    1.60
  -7   4   2   13.80    1.30
  -6  -4   2    0.10    0.40
  -6  -4   2    0.70    0.40
   6  -4  -2    0.30    0.50
   6  -4  -2    0.10    0.40
  -6  -4   2    0.90    0.60
  -6   4   2    0.10    0.40
  -6   4   2    0.20    0.40
   6   4  -2    0.60    0.40
   6   4  -2    0.30    0.60
   5  -4  -2   49.50    2.00
   5  -4  -2   50.99    2.20
  -5  -4   2   49.50    2.20
  -5  -4   2   51.69    2.00
  -5  -4   2   52.29    2.30
  -5   4   2   55.59    2.30
  -5   4   2   54.69    2.30
   5   4  -2   51.69    1.90
  -4  -4   2    0.70    0.40
   4  -4  -2    0.70    0.30
  -4  -4   2    0.80    0.30
   4  -4  -2    0.90    0.40
   4  -4  -2    0.80    0.30
  -4  -4   2    1.90    0.50
  -4   4   2    1.80    0.50
   4   4  -2    1.20    0.30
  -4   4   2    0.20    0.30
  -4   4   2    0.60    0.30
   3  -4  -2   63.49    2.00
  -3  -4   2   58.39    2.10
  -3  -4   2   62.99    2.10
   3  -4  -2   66.29    2.10
  -3  -4   2   60.49    2.10
   3  -4  -2   63.19    2.20
  -3   4   2   64.39    2.00
  -3   4   2   61.29    2.10
  -3   4   2   61.79    2.20
  -3   4   2   65.39    2.10
   3   4  -2   62.69    1.90
   3   4  -2   64.09    2.10
  -2  -4   2  145.19    3.80
   2  -4  -2  139.69    3.50
   2  -4  -2  141.79    3.50
  -2  -4   2  136.99    3.70
  -2  -4   2  141.49    3.60
   2  -4  -2  142.19    3.80
   2   4  -2  140.89    3.20
  -2   4   2  138.69    3.60
  -2   4   2  145.29    3.60
   2   4  -2  141.19    3.50
   2   4  -2  141.59    3.80
  -2   4   2  134.69    3.60
  -2   4   2  133.49    3.70
   1  -4  -2  129.39    3.40
   1  -4  -2  129.79    3.10
   1  -4  -2  128.09    3.40
  -1  -4   2  128.39    3.40
  -1  -4   2  131.39    3.30
  -1  -4   2  130.99    3.20
  -1   4   2  129.69    3.20
   1   4  -2  128.29    3.20
  -1   4   2  132.69    3.30
   1   4  -2  130.89    3.30
  -1   4   2  130.29    3.30
   1   4  -2  134.29    3.50
   0  -4  -2   27.40    0.90
   0  -4   2   25.20    1.10
   0  -4   2   24.10    1.10
   0  -4   2   24.50    1.00
   0  -4  -2   26.50    1.10
   0  -4   2   25.50    1.00
   0  -4  -2   26.00    0.90
   0  -4  -2   26.10    0.90
   0   4   2   26.00    1.10
   0   4  -2   25.10    1.10
   0   4   2   26.70    0.80
   0   4  -2   25.10    1.10
   0   4  -2   24.00    1.00
   0   4   2   26.30    0.80
   0   4   2   26.00    1.00
  -1  -4  -2   26.10    1.00
   1  -4   2   26.10    1.10
   1  -4   2   25.80    1.00
  -1  -4  -2   23.80    1.10
  -1  -4  -2   23.20    1.00
   1  -4   2   26.30    1.10
   1  -4   2   26.60    1.20
  -1   4  -2   25.40    1.20
  -1   4  -2   24.90    1.10
  -1   4  -2   22.60    1.10
  -1   4  -2   26.20    1.00
   1   4   2   24.20    1.00
   2  -4   2   86.79    2.80
   2  -4   2   86.59    2.50
   2  -4   2   94.39    2.70
  -2  -4  -2   92.39    2.70
  -2  -4  -2   88.09    2.60
  -2  -4  -2   90.89    2.60
  -2   4  -2   85.69    2.70
  -2   4  -2   90.89    2.70
  -2   4  -2   86.49    2.70
   3  -4   2    0.70    0.30
   3  -4   2    0.60    0.30
  -3  -4  -2    0.60    0.30
  -3  -4  -2    1.00    0.40
  -3  -4  -2    0.80    0.40
   3   4   2    0.70    0.30
  -3   4  -2    0.80    0.40
  -3   4  -2    0.00    0.30
  -3   4  -2    0.80    0.30
  -4  -4  -2    0.20    0.30
   4  -4   2    0.10    0.40
  -4  -4  -2   -0.50    0.30
   4  -4   2    0.10    0.30
  -4  -4  -2   -0.10    0.30
  -4   4  -2   -0.10    0.30
   4   4   2    0.10    0.10
  -4   4  -2   -0.10    0.20
  -4   4  -2   -0.10    0.30
   4   4   2   -0.10    0.30
   4   4   2    0.30    0.20
   5  -4   2   41.50    1.80
   5  -4   2   38.50    2.10
  -5  -4  -2   45.10    2.20
  -5  -4  -2   40.20    2.10
   5   4   2   41.00    2.10
   5   4   2   40.60    1.30
  -5   4  -2   40.80    1.80
  -5   4  -2   43.10    2.20
  -5   4  -2   41.30    1.90
  -6  -4  -2   16.50    1.60
   6  -4   2   20.20    1.30
   6  -4   2   20.60    1.60
  -6   4  -2   17.10    1.60
  -6   4  -2   19.60    1.30
   6   4   2   18.40    1.50
   6   4   2   18.20    0.90
   7  -4   2    7.20    1.00
  -7  -4  -2    8.40    1.40
  -7   4  -2    6.60    1.00
  -7   4  -2    6.40    1.10
   7   4   2    8.50    0.70
  -8  -5   2   24.00    2.10
  -8  -5   2   21.20    1.40
   8  -5  -2   20.50    2.00
   8   5  -2   20.60    1.50
   8   5  -2   21.70    2.10
  -7  -5   2    0.90    0.70
   7  -5  -2    0.60    0.60
  -7  -5   2   -0.20    0.40
  -7  -5   2   -0.10    0.40
   7  -5  -2    0.40    0.50
  -7   5   2    0.20    0.40
   7   5  -2    0.20    0.40
  -7   5   2    0.90    0.60
   7   5  -2   -0.10    0.60
   6  -5  -2    5.20    0.80
  -6  -5   2    6.30    0.80
  -6  -5   2    5.60    1.00
  -6  -5   2    5.40    1.00
   6  -5  -2    5.50    1.00
  -6   5   2    7.50    1.10
  -6   5   2    6.20    1.00
   6   5  -2    6.10    0.80
   6   5  -2    3.40    0.80
   5  -5  -2    3.90    0.70
  -5  -5   2    3.50    0.60
  -5  -5   2    3.50    0.70
  -5  -5   2    3.10    0.70
   5  -5  -2    3.50    0.60
  -5   5   2    3.20    0.70
  -5   5   2    5.00    0.80
   5   5  -2    3.30    0.60
  -5   5   2    2.30    0.50
   4  -5  -2    1.40    0.40
  -4  -5   2    1.10    0.40
   4  -5  -2    1.20    0.40
  -4  -5   2    1.10    0.40
  -4  -5   2    1.40    0.40
   4  -5  -2    1.00    0.40
  -4   5   2    0.80    0.30
   4   5  -2    1.00    0.30
  -4   5   2    0.90    0.40
  -4   5   2    0.40    0.30
   3  -5  -2  388.16    8.60
  -3  -5   2  373.46    9.10
  -3  -5   2  375.56    8.80
   3  -5  -2  390.46    8.90
  -3  -5   2  362.06    8.90
   3  -5  -2  364.66    9.10
  -3   5   2  366.46    8.80
   3   5  -2  380.16    9.00
   3   5  -2  386.26    7.90
  -3   5   2  371.96    8.60
  -3   5   2  364.56    9.10
  -3   5   2  380.66    8.70
   3   5  -2  379.86    8.50
  -2  -5   2   63.99    1.90
   2  -5  -2   58.99    1.80
  -2  -5   2   62.09    2.10
   2  -5  -2   60.39    1.90
  -2  -5   2   59.69    1.80
   2   5  -2   60.79    1.90
  -2   5   2   58.89    1.90
  -2   5   2   62.69    1.90
   2   5  -2   60.69    1.70
  -2   5   2   60.19    2.00
  -2   5   2   57.59    2.00
   2   5  -2   58.79    2.00
  -1  -5   2   76.59    2.40
  -1  -5   2   79.39    2.20
   1  -5  -2   78.09    2.30
   1  -5  -2   72.79    2.10
  -1  -5   2   82.49    2.20
  -1  -5   2   77.19    2.40
   1   5  -2   77.49    2.20
   1   5  -2   74.19    2.30
   1   5  -2   76.89    2.10
  -1   5   2   73.79    2.30
  -1   5   2   78.79    2.10
  -1   5   2   76.89    2.20
   0  -5  -2   47.90    1.70
   0  -5  -2   52.89    1.50
   0  -5  -2   47.90    1.50
   0  -5   2   48.50    1.70
   0  -5   2   54.09    1.70
   0  -5   2   49.80    1.80
   0  -5   2   51.79    1.60
   0  -5  -2   53.09    1.50
   0   5  -2   52.99    1.70
   0   5  -2   52.59    1.80
   0   5  -2   50.19    1.60
   0   5   2   50.49    1.50
   0   5   2   49.70    1.70
   0   5   2   50.89    1.40
   0   5   2   52.09    1.40
  -1  -5  -2   67.39    2.10
   1  -5   2   78.79    2.30
  -1  -5  -2   68.89    2.00
  -1  -5  -2   67.09    2.20
   1  -5   2   70.79    2.10
   1  -5   2   65.69    2.20
   1  -5   2   65.69    2.00
  -1   5  -2   66.59    2.20
  -1   5  -2   69.29    2.10
   1   5   2   67.29    2.20
   1   5   2   67.79    2.00
  -1   5  -2   74.59    2.10
   1   5   2   66.59    1.60
   1   5   2   66.39    1.60
  -1   5  -2   77.29    2.30
  -2  -5  -2    1.20    0.40
   2  -5   2    0.50    0.30
   2  -5   2    1.30    0.40
  -2  -5  -2    0.90    0.30
   2  -5   2    1.30    0.30
  -2  -5  -2    1.90    0.40
  -2   5  -2    0.80    0.30
  -2   5  -2    1.00    0.40
  -2   5  -2    0.90    0.30
  -2   5  -2    1.30    0.30
   3  -5   2    5.10    0.70
  -3  -5  -2    6.90    0.70
  -3  -5  -2    5.40    0.70
  -3  -5  -2    6.90    0.80
   3  -5   2    4.70    0.60
  -3   5  -2    5.60    0.70
  -3   5  -2    4.80    0.70
  -3   5  -2    7.30    0.80
  -4  -5  -2   14.80    1.10
  -4  -5  -2   15.40    1.20
  -4  -5  -2   16.40    1.00
   4  -5   2   16.40    1.30
   4  -5   2   16.40    1.00
  -4   5  -2   15.10    1.10
  -4   5  -2   16.80    1.10
   4   5   2   16.80    0.60
   4   5   2   16.60    1.20
  -4   5  -2   16.90    1.20
  -5  -5  -2    2.10    0.70
   5  -5   2    3.20    0.60
  -5  -5  -2    3.90    0.80
   5  -5   2    2.40    0.70
   5   5   2    3.80    0.40
  -5   5  -2    3.70    0.70
   5   5   2    3.70    0.80
  -5   5  -2    2.80    0.70
  -5   5  -2    3.20    0.60
   6  -5   2    0.50    0.40
  -6  -5  -2   -0.20    0.50
   6  -5   2    0.50    0.40
  -6  -5  -2    0.20    0.60
   6   5   2    1.60    0.70
  -6   5  -2    0.60    0.40
   6   5   2    0.60    0.30
  -6   5  -2    1.70    0.60
  -7  -5  -2   35.20    2.40
   7  -5   2   33.50    1.90
  -7   5  -2   31.10    1.70
   7   5   2   33.20    1.40
   8  -6  -2   36.50    2.50
  -8  -6   2   38.50    1.80
   8   6  -2   38.40    2.00
   8   6  -2   38.40    2.60
  -7  -6   2    4.40    1.00
  -7  -6   2    3.00    0.70
   7  -6  -2    3.00    0.80
  -7   6   2    1.70    0.60
   7   6  -2    3.50    1.00
   7   6  -2    2.80    0.60
  -7   6   2    2.70    0.70
  -6  -6   2   27.40    1.50
   6  -6  -2   29.50    1.80
  -6  -6   2   35.20    2.00
   6  -6  -2   31.40    1.70
  -6  -6   2   29.70    1.90
   6   6  -2   29.00    1.50
  -6   6   2   29.80    1.80
  -6   6   2   31.10    1.90
   5  -6  -2   14.60    1.20
  -5  -6   2   14.70    1.20
   5  -6  -2   15.30    1.10
  -5  -6   2   17.20    1.30
  -5  -6   2   14.90    1.00
   5   6  -2   16.70    1.00
  -5   6   2   18.10    1.10
  -5   6   2   16.70    1.20
  -5   6   2   15.20    1.20
  -4  -6   2    0.30    0.30
   4  -6  -2    1.40    0.40
   4  -6  -2    1.00    0.40
   4  -6  -2    1.50    0.40
  -4  -6   2    1.00    0.30
  -4  -6   2    1.00    0.40
  -4   6   2    1.10    0.40
   4   6  -2    0.60    0.30
  -4   6   2    0.60    0.40
  -4   6   2    0.60    0.40
   3  -6  -2  190.98    5.00
   3  -6  -2  186.38    5.20
  -3  -6   2  191.88    4.90
   3  -6  -2  196.58    4.80
  -3  -6   2  188.28    5.20
  -3   6   2  183.88    5.20
  -3   6   2  199.78    4.90
  -3   6   2  185.88    4.90
   3   6  -2  195.08    4.30
   3   6  -2  185.98    4.70
  -3   6   2  194.68    4.90
  -2  -6   2   32.20    1.20
  -2  -6   2   31.90    1.30
   2  -6  -2   30.90    1.40
  -2  -6   2   32.20    1.40
   2  -6  -2   32.50    1.30
  -2   6   2   31.20    1.30
  -2   6   2   32.80    1.20
   2   6  -2   29.90    1.20
   2   6  -2   34.30    1.40
   2   6  -2   32.00    1.10
  -2   6   2   30.90    1.40
  -2   6   2   34.00    1.40
   1  -6  -2  327.17    7.80
  -1  -6   2  331.17    8.00
   1  -6  -2  325.57    7.90
  -1  -6   2  340.47    7.50
   1  -6  -2  332.47    7.70
  -1  -6   2  344.77    7.50
  -1   6   2  321.47    7.40
  -1   6   2  325.57    7.90
   1   6  -2  333.07    8.00
  -1   6   2  335.67    7.40
   1   6  -2  334.77    7.50
   1   6  -2  340.37    7.50
  -1   6   2  320.17    7.70
   0  -6  -2  728.73   15.80
   0  -6   2  726.13   16.60
   0  -6   2  742.03   15.70
   0  -6   2  723.23   16.50
   0  -6  -2  685.73   16.20
   0  -6   2  741.23   15.70
   0  -6  -2  732.53   16.20
   0  -6  -2  746.53   16.20
   0   6   2  755.02   15.40
   0   6   2  734.83   15.40
   0   6  -2  728.83   15.60
   0   6   2  721.03   15.60
   0   6   2  720.73   15.80
   0   6  -2  737.23   15.70
   0   6  -2  718.23   16.60
   1  -6   2   26.20    1.10
   1  -6   2   24.50    1.20
  -1  -6  -2   22.00    1.00
  -1  -6  -2   20.90    1.10
  -1  -6  -2   21.10    0.60
  -1  -6  -2   21.90    1.00
  -1  -6  -2   21.10    0.60
   1  -6   2   24.40    1.20
   1  -6   2   27.00    1.10
  -1   6  -2   23.50    1.20
   1   6   2   20.90    0.70
  -1   6  -2   25.10    1.10
   1   6   2   22.30    0.70
  -1   6  -2   26.00    1.10
  -1   6  -2   24.70    1.20
   1   6   2   22.00    1.10
   1   6   2   22.70    1.00
  -2  -6  -2  309.17    7.20
  -2  -6  -2  317.77    7.20
  -2  -6  -2  309.87    7.50
   2  -6   2  306.77    7.20
   2  -6   2  320.57    7.70
   2  -6   2  302.87    7.70
   2  -6   2  305.17    7.30
   2   6   2  308.17    7.20
  -2   6  -2  290.27    7.30
  -2   6  -2  297.17    7.60
  -2   6  -2  303.87    7.30
   2   6   2  298.67    7.20
  -3  -6  -2   22.20    1.20
  -3  -6  -2   21.40    1.20
  -3  -6  -2   21.10    1.20
   3  -6   2   22.30    1.30
   3  -6   2   20.00    1.10
  -3   6  -2   19.60    1.20
  -3   6  -2   19.90    1.20
  -3   6  -2   20.70    1.30
   3   6   2   21.80    1.20
  -4  -6  -2    8.10    0.90
   4  -6   2    9.10    1.10
  -4  -6  -2    8.70    0.80
  -4  -6  -2    8.60    1.00
   4  -6   2   10.40    0.90
   4   6   2    8.50    1.00
  -4   6  -2    9.20    1.00
   4   6   2    8.10    0.80
  -4   6  -2    8.00    1.00
  -4   6  -2    7.90    0.90
   5  -6   2   75.39    3.10
   5  -6   2   73.39    2.70
  -5  -6  -2   75.59    3.00
  -5  -6  -2   76.89    3.10
   5   6   2   73.19    3.10
  -5   6  -2   76.29    2.90
  -5   6  -2   76.09    2.90
  -5   6  -2   76.99    3.10
  -6  -6  -2    9.10    1.30
  -6  -6  -2    9.80    1.30
   6  -6   2    9.00    1.30
   6  -6   2    8.80    1.00
   6   6   2    7.60    1.10
  -6   6  -2    9.90    1.20
  -6   6  -2    9.20    1.20
   6   6   2    7.40    0.60
  -6   6  -2    8.50    1.00
   7  -6   2    7.00    1.10
  -7  -6  -2    7.80    1.30
  -8  -7   2   25.70    2.10
   8  -7  -2   19.90    1.90
  -8  -7   2   22.30    1.30
   8   7  -2   20.60    2.10
  -7  -7   2    0.00    0.40
   7  -7  -2    0.80    0.60
  -7  -7   2    0.30    0.60
  -7   7   2    0.90    0.50
   7   7  -2    0.60    0.50
  -7   7   2    0.40    0.50
   7   7  -2    0.00    0.60
  -6  -7   2    7.80    1.10
   6  -7  -2    9.40    1.20
  -6  -7   2    7.60    1.10
  -6  -7   2    7.80    0.80
  -6   7   2    9.70    1.20
  -6   7   2    8.80    1.10
   6   7  -2    8.80    0.90
  -5  -7   2    2.60    0.50
  -5  -7   2    2.50    0.70
  -5  -7   2    2.00    0.70
   5  -7  -2    2.20    0.60
  -5   7   2    2.40    0.60
  -5   7   2    2.30    0.60
  -5   7   2    2.30    0.60
   5   7  -2    2.00    0.50
   4  -7  -2    1.40    0.40
   4  -7  -2    2.80    0.60
  -4  -7   2    3.70    0.60
   4  -7  -2    3.00    0.60
  -4  -7   2    3.10    0.70
  -4  -7   2    3.10    0.50
  -4   7   2    3.60    0.60
  -4   7   2    2.90    0.60
   4   7  -2    3.20    0.50
  -4   7   2    3.00    0.60
  -3  -7   2    0.80    0.30
  -3  -7   2    1.00    0.30
   3  -7  -2   -0.10    0.30
   3  -7  -2    0.20    0.30
   3  -7  -2    0.60    0.30
  -3  -7   2    0.40    0.40
  -3   7   2    0.90    0.30
   3   7  -2    0.40    0.30
  -3   7   2    1.50    0.40
   3   7  -2    0.50    0.20
  -3   7   2    0.20    0.30
  -3   7   2    0.80    0.30
   2  -7  -2   85.49    2.80
  -2  -7   2   84.79    2.80
   2  -7  -2   86.09    2.60
   2  -7  -2   89.69    2.50
  -2  -7   2   90.09    2.50
  -2   7   2   85.19    2.70
  -2   7   2   83.09    2.50
   2   7  -2   82.29    2.50
  -2   7   2   85.29    2.70
   2   7  -2   87.89    2.70
  -2   7   2   88.59    2.50
   2   7  -2   89.09    2.40
  -1  -7   2  235.38    5.40
   1  -7  -2  230.48    5.70
   1  -7  -2  238.38    5.60
  -1  -7   2  224.28    5.90
  -1  -7   2  233.98    5.50
   1  -7  -2  231.38    5.70
  -1  -7   2  230.28    5.90
   1   7  -2  230.68    5.50
  -1   7   2  242.68    5.30
   1   7  -2  230.18    5.50
  -1   7   2  224.38    5.40
  -1   7   2  222.68    5.70
   1   7  -2  237.38    5.90
  -1   7   2  209.58    5.70
   0  -7   2    0.10    0.30
   0  -7  -2    0.80    0.30
   0  -7   2    0.30    0.20
   0  -7   2    0.40    0.20
   0  -7  -2    0.60    0.20
   0  -7   2    0.40    0.30
   0  -7  -2    0.50    0.20
   0   7   2    0.20    0.30
   0   7  -2    0.40    0.30
   0   7  -2    0.90    0.30
   0   7   2    0.50    0.20
   0   7   2    0.40    0.20
   0   7   2    1.20    0.30
   0   7  -2    0.60    0.30
  -1  -7  -2  103.59    3.00
   1  -7   2   99.09    3.20
  -1  -7  -2  100.79    3.00
   1  -7   2  101.29    3.10
  -1  -7  -2  103.09    2.50
  -1  -7  -2   99.49    2.50
   1  -7   2  101.19    2.90
   1  -7   2  105.19    2.80
   1   7   2  103.29    2.50
   1   7   2   99.09    2.70
   1   7   2  101.29    3.00
  -1   7  -2  100.79    2.80
   1   7   2  101.49    2.50
  -1   7  -2  101.79    3.20
  -1   7  -2  107.59    2.90
   2  -7   2  138.19    3.70
  -2  -7  -2  125.69    3.70
   2  -7   2  133.59    4.00
   2  -7   2  129.49    3.90
   2  -7   2  133.89    3.60
  -2  -7  -2  133.99    3.50
  -2  -7  -2  130.59    3.80
   2   7   2  129.79    3.50
   2   7   2  131.69    2.90
  -2   7  -2  125.89    3.80
  -2   7  -2  128.59    3.60
  -2   7  -2  127.99    3.90
   2   7   2  126.49    3.60
   2   7   2  127.79    2.90
   3  -7   2   49.90    2.00
  -3  -7  -2   51.99    2.00
  -3  -7  -2   52.89    2.00
   3  -7   2   53.89    2.30
  -3  -7  -2   50.09    2.10
   3   7   2   52.09    2.00
  -3   7  -2   50.29    2.20
  -3   7  -2   50.19    2.10
  -3   7  -2   52.99    2.10
  -4  -7  -2    0.30    0.30
   4  -7   2    0.00    0.30
  -4  -7  -2    0.60    0.40
   4  -7   2    0.20    0.40
  -4  -7  -2    0.80    0.40
  -4   7  -2    0.30    0.40
   4   7   2    0.30    0.30
  -4   7  -2    0.50    0.40
  -4   7  -2   -0.10    0.40
   5  -7   2    4.40    0.90
   5  -7   2    3.70    0.70
  -5  -7  -2    4.70    0.90
  -5  -7  -2    3.80    0.80
   5   7   2    3.70    0.30
  -5   7  -2    4.20    0.80
  -5   7  -2    4.10    0.70
   5   7   2    3.90    0.80
  -5   7  -2    3.70    0.80
  -6  -7  -2    8.30    1.20
   6  -7   2    7.30    1.20
  -6  -7  -2    9.70    1.30
   6  -7   2    7.20    1.00
   6   7   2    7.40    0.50
   6   7   2    9.10    1.30
  -6   7  -2    7.60    1.00
  -6   7  -2    8.70    1.20
  -6   7  -2    8.90    1.20
  -7  -7  -2   79.59    3.60
  -7  -7  -2   65.79    3.50
   7  -7   2   76.19    3.10
  -8  -8   2   11.90    1.70
  -8  -8   2   12.20    1.00
   8  -8  -2   12.00    1.70
   7  -8  -2   10.60    1.40
  -7  -8   2   10.80    1.00
  -7  -8   2    9.40    1.30
  -7   8   2   11.10    1.40
  -7   8   2   10.60    1.30
   7   8  -2    9.50    1.50
   7   8  -2   11.30    1.10
  -6  -8   2    2.60    0.60
  -6  -8   2    1.90    0.70
   6  -8  -2    3.00    0.80
  -6  -8   2    3.60    0.80
  -6   8   2    1.80    0.60
  -6   8   2    2.40    0.70
   6   8  -2    2.90    0.60
  -5  -8   2    8.20    1.00
  -5  -8   2    8.30    1.10
   5  -8  -2    9.20    1.10
  -5  -8   2    7.50    0.80
  -5   8   2    9.00    1.10
  -5   8   2    8.40    1.00
  -5   8   2    6.40    0.90
   5   8  -2    8.20    0.80
  -4  -8   2   58.39    2.50
  -4  -8   2   50.99    2.00
   4  -8  -2   54.09    2.30
   4  -8  -2   49.80    2.20
  -4  -8   2   54.39    2.10
  -4   8   2   55.39    2.30
  -4   8   2   52.29    2.20
  -4   8   2   56.49    2.20
   4   8  -2   53.19    2.00
  -3  -8   2   47.00    1.80
   3  -8  -2   49.10    2.00
  -3  -8   2   49.90    2.10
  -3  -8   2   49.90    1.80
   3  -8  -2   46.10    1.90
  -3   8   2   44.60    1.90
  -3   8   2   47.80    1.80
   3   8  -2   48.20    1.50
  -3   8   2   44.90    2.00
  -3   8   2   47.80    1.90
   3   8  -2   47.80    1.80
  -2  -8   2    8.70    0.90
   2  -8  -2   10.60    0.80
  -2  -8   2    8.50    0.70
   2  -8  -2   10.80    0.80
  -2  -8   2   11.00    0.70
  -2   8   2    9.90    0.70
  -2   8   2    9.50    0.90
   2   8  -2    9.90    0.70
   2   8  -2    9.40    0.70
  -2   8   2   10.10    0.80
  -2   8   2   11.10    0.80
  -1  -8   2    0.10    0.30
   1  -8  -2    0.20    0.20
  -1  -8   2    0.40    0.20
   1  -8  -2    0.30    0.30
  -1  -8   2    0.50    0.20
  -1  -8   2    0.30    0.30
   1   8  -2    0.70    0.30
  -1   8   2    0.20    0.20
  -1   8   2    0.40    0.20
  -1   8   2    0.60    0.30
   1   8  -2    0.20    0.30
   1   8  -2    0.20    0.30
  -1   8   2    0.30    0.30
   0  -8   2   71.79    2.20
   0  -8  -2   73.69    2.10
   0  -8   2   68.69    2.40
   0  -8   2   73.89    2.10
   0  -8  -2   67.09    2.10
   0  -8   2   69.69    2.50
   0  -8  -2   75.59    2.30
   0   8   2   71.79    2.40
   0   8  -2   73.89    2.50
   0   8   2   71.29    1.90
   0   8  -2   71.49    2.40
   0   8   2   78.19    2.10
   0   8  -2   66.59    2.20
   0   8   2   69.49    2.10
  -1  -8  -2   22.50    1.20
   1  -8   2   22.00    1.00
  -1  -8  -2   23.50    0.80
   1  -8   2   22.00    1.10
  -1  -8  -2   22.50    0.80
   1  -8   2   22.30    1.30
   1  -8   2   23.00    1.30
   1   8   2   22.50    0.90
   1   8   2   22.20    0.90
   1   8   2   23.60    1.30
  -1   8  -2   23.40    1.30
   1   8   2   22.90    0.90
  -1   8  -2   24.90    1.20
  -1   8  -2   21.60    1.30
   2  -8   2    5.30    0.60
  -2  -8  -2    4.70    0.70
   2  -8   2    5.00    0.70
   2  -8   2    3.90    0.60
  -2  -8  -2    5.90    0.60
   2  -8   2    4.00    0.70
  -2  -8  -2    6.50    0.80
   2   8   2    5.50    0.60
  -2   8  -2    4.20    0.60
  -2   8  -2    4.40    0.70
  -2   8  -2    3.50    0.70
   2   8   2    5.30    0.30
   2   8   2    5.70    0.70
   2   8   2    4.40    0.30
   3  -8   2   98.99    3.50
   3  -8   2   99.99    3.10
  -3  -8  -2   99.99    3.00
  -3  -8  -2  104.19    3.20
  -3  -8  -2   94.99    3.30
   3   8   2   97.19    3.10
   3   8   2   99.89    2.30
  -3   8  -2  100.49    3.40
  -3   8  -2  100.39    3.40
  -3   8  -2   95.89    3.10
   4  -8   2   43.30    2.20
  -4  -8  -2   43.80    2.10
  -4  -8  -2   40.60    1.90
   4  -8   2   41.50    1.90
   4   8   2   45.20    1.90
  -4   8  -2   45.20    2.10
   4   8   2   44.40    1.20
   4   8   2   44.80    1.20
  -4   8  -2   43.00    2.10
  -4   8  -2   43.50    2.00
   5  -8   2    3.70    0.80
   5  -8   2    6.10    0.90
  -5  -8  -2    5.10    0.90
  -5  -8  -2    6.50    1.10
   5   8   2    4.90    0.40
  -5   8  -2    6.10    0.90
  -5   8  -2    5.10    0.90
  -5   8  -2    5.60    1.00
   5   8   2    5.60    1.00
  -6  -8  -2    0.10    0.60
  -6  -8  -2    1.90    0.70
   6  -8   2    2.10    0.70
  -6   8  -2    1.30    0.50
  -6   8  -2    1.50    0.60
  -6   8  -2    0.40    0.60
   6   8   2    1.80    0.30
  -7  -8  -2   14.30    1.80
   7  -8   2   12.10    1.40
   8  -9  -2   19.50    2.00
   7  -9  -2    0.20    0.60
  -7  -9   2    0.20    0.40
  -7   9   2   -0.20    0.40
   7   9  -2    0.20    0.50
  -7   9   2   -0.60    0.40
  -6  -9   2    7.00    1.10
  -6  -9   2    8.10    0.80
   6  -9  -2    8.50    1.20
   6   9  -2    8.60    0.90
  -6   9   2    8.50    1.10
  -6   9   2    9.20    1.20
   5  -9  -2  103.19    3.70
  -5  -9   2   94.19    3.40
  -5  -9   2   98.99    3.20
  -5  -9   2  102.29    3.80
  -5   9   2  103.59    3.80
   5   9  -2  102.39    3.20
  -5   9   2  107.09    3.50
  -5   9   2  106.49    3.50
   4  -9  -2  144.69    4.50
  -4  -9   2  145.49    4.60
  -4  -9   2  144.89    4.10
  -4  -9   2  127.99    4.00
   4  -9  -2  140.49    4.30
  -4   9   2  143.49    4.10
  -4   9   2  145.89    4.30
   4   9  -2  142.39    4.00
   3  -9  -2    1.10    0.40
   3  -9  -2    1.10    0.40
  -3  -9   2    1.70    0.40
  -3  -9   2    1.70    0.50
  -3  -9   2    1.20    0.50
  -3   9   2    1.00    0.40
  -3   9   2    1.10    0.40
  -3   9   2    1.10    0.50
   3   9  -2    1.30    0.40
   3   9  -2    2.20    0.50
  -2  -9   2   11.50    0.90
  -2  -9   2   14.60    1.10
   2  -9  -2   13.10    0.90
  -2  -9   2   11.60    0.70
   2  -9  -2   11.00    0.90
   2   9  -2   10.80    0.80
  -2   9   2   11.50    1.00
  -2   9   2   11.60    0.90
   2   9  -2   11.30    0.80
  -2   9   2   13.10    0.70
  -1  -9   2    0.20    0.30
   1  -9  -2    0.20    0.30
  -1  -9   2   -0.10    0.20
   1  -9  -2   -0.20    0.20
  -1  -9   2    0.20    0.30
   1   9  -2    0.10    0.20
  -1   9   2    0.00    0.30
  -1   9   2    0.70    0.30
   1   9  -2    0.00    0.30
  -1   9   2    0.10    0.20
   1   9  -2    0.20    0.30
   0  -9   2    0.20    0.20
   0  -9  -2    0.40    0.20
   0  -9   2    0.10    0.30
   0  -9  -2    0.30    0.30
   0  -9   2    0.50    0.30
   0   9  -2    0.10    0.30
   0   9  -2    0.40    0.30
   0   9   2    0.50    0.20
   0   9   2    0.30    0.20
   0   9   2    0.20    0.30
   0   9  -2    0.30    0.20
   1  -9   2    2.50    0.60
   1  -9   2    2.80    0.60
   1  -9   2    3.60    0.60
  -1  -9  -2    3.10    0.30
   1  -9   2    3.30    0.50
  -1  -9  -2    3.60    0.60
  -1  -9  -2    3.10    0.30
   1   9   2    2.70    0.40
  -1   9  -2    2.10    0.60
  -1   9  -2    3.00    0.50
   1   9   2    2.70    0.40
   1   9   2    2.90    0.40
  -1   9  -2    2.90    0.60
   1   9   2    2.50    0.60
   2  -9   2   82.19    2.80
   2  -9   2   87.19    3.00
  -2  -9  -2   83.89    2.90
   2  -9   2   84.99    3.10
   2  -9   2   85.29    2.60
   2   9   2   87.89    2.80
  -2   9  -2   82.39    3.00
  -2   9  -2   85.69    2.60
   2   9   2   86.09    2.20
   2   9   2   85.29    2.20
  -2   9  -2   84.19    3.00
   2   9   2   85.39    2.50
   3  -9   2   58.69    2.60
   3  -9   2   59.99    2.30
  -3  -9  -2   56.19    2.40
  -3   9  -2   60.29    2.30
  -3   9  -2   55.59    2.50
   3   9   2   62.09    2.30
   3   9   2   62.39    1.60
   3   9   2   60.29    1.60
   3   9   2   61.99    2.20
  -3   9  -2   63.99    2.60
   4  -9   2    5.00    0.80
   4  -9   2    6.90    1.10
  -4  -9  -2    4.40    0.80
   4   9   2    5.30    0.40
   4   9   2    6.60    0.80
  -4   9  -2    5.10    0.90
  -4   9  -2    5.70    0.80
  -4   9  -2    6.50    1.00
   5  -9   2    3.40    0.70
   5  -9   2    5.30    1.00
  -5  -9  -2    4.30    0.90
   5   9   2    2.60    0.70
   5   9   2    5.00    0.40
  -5   9  -2    5.40    0.90
  -5   9  -2    5.50    0.90
  -5   9  -2    4.80    0.90
  -6  -9  -2    1.00    0.70
   6  -9   2    1.30    0.70
  -6   9  -2    0.30    0.60
  -6   9  -2    0.70    0.50
  -6   9  -2    1.50    0.50
   7  -9   2    9.20    1.30
  -7  -9  -2   13.00    1.70
  -7 -10   2    1.50    0.50
   7 -10  -2    1.70    0.80
  -7  10   2    1.10    0.50
   7  10  -2    1.80    0.70
  -6 -10   2   34.00    2.10
   6 -10  -2   30.20    2.00
  -6 -10   2   31.60    1.50
   6  10  -2   32.00    1.70
  -6  10   2   32.40    1.90
  -5 -10   2    9.80    0.90
  -5 -10   2    9.10    1.20
   5 -10  -2    7.60    1.10
  -5  10   2   10.10    1.20
   5  10  -2    8.20    0.90
  -5  10   2   10.30    1.10
   4 -10  -2   16.00    1.20
  -4 -10   2   16.10    1.50
  -4 -10   2   16.70    1.10
   4 -10  -2   18.50    1.40
  -4  10   2   16.20    1.30
   4  10  -2   16.80    1.10
  -4  10   2   18.10    1.20
  -3 -10   2   98.19    3.50
   3 -10  -2   92.09    3.30
  -3 -10   2   99.29    3.20
   3 -10  -2   94.89    3.20
  -3  10   2   98.09    3.40
   3  10  -2   97.49    3.00
  -3  10   2   98.19    3.20
  -3  10   2  100.59    2.90
   2 -10  -2   12.40    0.90
  -2 -10   2   10.80    0.90
  -2 -10   2   11.60    1.10
   2 -10  -2   12.00    0.90
   2  10  -2   10.90    0.80
   2  10  -2   10.20    0.80
  -2  10   2   10.10    1.00
  -2  10   2   11.80    0.90
   1 -10  -2    2.30    0.50
  -1 -10   2    2.40    0.50
   1 -10  -2    1.90    0.40
  -1 -10   2    2.00    0.60
   1  10  -2    2.70    0.60
  -1  10   2    2.10    0.60
   1  10  -2    2.30    0.50
  -1  10   2    2.40    0.50
   0 -10   2   10.80    0.90
   0 -10  -2   12.10    0.80
   0 -10   2   12.70    1.00
   0 -10  -2   12.10    0.90
   0  10   2   11.60    0.80
   0  10  -2   12.30    0.90
   0  10   2   13.90    1.10
   0  10  -2   12.40    1.00
   0  10  -2   11.10    1.00
  -1 -10  -2   15.60    1.10
  -1 -10  -2   14.20    0.70
   1 -10   2   15.00    1.10
   1 -10   2   16.60    1.20
  -1 -10  -2   15.30    0.70
  -1  10  -2   16.20    1.20
  -1  10  -2   14.50    1.10
  -1  10  -2   15.30    1.00
   1  10   2   15.20    0.80
   1  10   2   15.60    1.10
   2 -10   2   47.70    2.10
   2 -10   2   46.20    2.20
  -2 -10  -2   45.80    2.00
  -2  10  -2   45.30    2.20
  -2  10  -2   47.20    2.20
   2  10   2   48.10    2.00
  -2  10  -2   46.90    1.80
   2  10   2   46.40    1.40
   3 -10   2   39.20    2.10
   3 -10   2   32.10    1.70
   3 -10   2   31.30    1.60
  -3 -10  -2   34.50    1.80
  -3  10  -2   35.00    1.90
  -3  10  -2   40.50    1.70
  -3  10  -2   33.30    1.90
   3  10   2   35.00    1.10
   3  10   2   39.50    1.80
  -4 -10  -2   69.79    2.90
   4 -10   2   61.29    2.90
   4 -10   2   64.39    2.70
   4  10   2   69.59    1.80
  -4  10  -2   70.89    2.70
  -4  10  -2   69.79    2.90
  -4  10  -2   67.69    2.90
   5 -10   2   31.60    2.00
  -5 -10  -2   28.90    1.90
   5  10   2   29.40    1.00
  -5  10  -2   28.90    1.90
  -5  10  -2   27.10    1.90
  -5  10  -2   26.70    1.70
  -6 -10  -2   -0.10    0.60
  -6  10  -2   -0.30    0.50
  -6  10  -2   -0.90    0.40
  -7 -11   2    7.60    0.80
   7 -11  -2    9.70    1.40
   7  11  -2    6.20    0.90
   6 -11  -2    5.00    1.00
  -6 -11   2    4.80    0.70
   6  11  -2    7.00    0.90
   5 -11  -2    0.20    0.50
  -5 -11   2    0.40    0.40
  -5 -11   2    0.20    0.50
   5  11  -2    0.40    0.40
  -5  11   2    0.10    0.50
  -4 -11   2    9.80    0.90
  -4 -11   2   11.70    1.30
   4 -11  -2    9.60    1.20
   4 -11  -2   11.30    1.20
  -4  11   2   12.20    1.30
   4  11  -2   11.10    1.00
   3 -11  -2    1.90    0.60
   3 -11  -2    1.70    0.50
  -3 -11   2    2.40    0.60
  -3 -11   2    2.60    0.70
  -3  11   2    2.40    0.70
  -3  11   2    1.70    0.50
   3  11  -2    2.90    0.60
   2 -11  -2  207.88    5.90
  -2 -11   2  225.38    6.30
   2 -11  -2  223.98    6.10
  -2 -11   2  221.38    6.00
   2  11  -2  218.28    5.70
   2  11  -2  225.18    5.60
  -2  11   2  225.68    5.80
  -2  11   2  215.08    6.00
   1 -11  -2   -0.30    0.20
  -1 -11   2    0.20    0.30
   1 -11  -2   -0.20    0.20
  -1 -11   2   -0.20    0.30
  -1  11   2    0.10    0.40
   1  11  -2   -0.10    0.30
  -1  11   2   -0.50    0.20
   1  11  -2    0.00    0.30
   0 -11   2   14.80    1.10
   0 -11   2   14.90    1.20
   0 -11  -2   13.30    0.90
   0 -11  -2   13.30    1.00
   0  11   2   12.50    1.10
   0  11   2   14.70    0.90
   0  11  -2   15.00    1.00
   0  11  -2   15.50    1.10
   1 -11   2   13.40    1.10
  -1 -11  -2   12.40    1.00
   1 -11   2   13.10    1.20
  -1 -11  -2   14.20    0.80
  -1  11  -2   11.40    0.90
   1  11   2   13.20    0.80
  -1  11  -2   13.10    1.20
   1  11   2   13.80    1.20
  -1  11  -2   12.20    1.10
   2 -11   2   83.99    3.30
   2 -11   2   87.89    3.20
  -2 -11  -2   87.69    3.10
  -2  11  -2   88.69    3.30
   2  11   2   88.29    3.00
   2  11   2   87.29    2.40
  -2  11  -2   88.79    3.30
  -3 -11  -2   13.30    1.30
   3 -11   2   12.90    1.40
  -3  11  -2   12.70    1.30
  -3  11  -2   11.00    1.20
   3  11   2   10.10    1.00
   3  11   2   11.40    0.70
   4 -11   2    2.60    0.80
  -4 -11  -2    2.80    0.80
  -4  11  -2    2.60    0.80
   4  11   2    1.90    0.30
  -4  11  -2    1.80    0.70
  -5 -11  -2    1.30    0.70
   5 -11   2    1.50    0.60
   5  11   2    1.20    0.30
  -5  11  -2    1.30    0.50
  -5  11  -2    0.90    0.70
  -6 -11  -2    1.30    0.80
  -6  11  -2    0.40    0.70
   7 -12  -2   12.20    1.60
  -7 -12   2   11.70    0.90
  -6 -12   2    0.70    0.50
   6 -12  -2   -0.30    0.50
   6  12  -2    0.90    0.50
  -6  12   2   -0.50    0.60
   5 -12  -2   14.40    1.50
  -5 -12   2   18.40    1.70
  -5 -12   2   18.30    1.20
   5  12  -2   18.20    1.30
  -5  12   2   17.00    1.50
  -4 -12   2    0.00    0.40
   4 -12  -2   -0.10    0.40
  -4 -12   2   -0.20    0.30
   4 -12  -2   -0.50    0.40
  -4  12   2    0.20    0.50
   4  12  -2    0.40    0.40
  -3 -12   2   55.49    2.70
   3 -12  -2   54.29    2.40
   3 -12  -2   58.39    2.50
  -3 -12   2   59.69    2.30
   3  12  -2   61.09    2.30
  -3  12   2   58.99    2.40
  -3  12   2   62.59    2.70
  -2 -12   2   58.29    2.60
   2 -12  -2   58.49    2.40
  -2 -12   2   59.69    2.40
   2 -12  -2   58.89    2.40
  -2  12   2   58.99    2.60
   2  12  -2   58.19    2.20
   2  12  -2   57.19    2.20
  -2  12   2   57.59    2.20
   1 -12  -2    1.70    0.50
   1 -12  -2    1.40    0.50
  -1 -12   2    1.70    0.60
  -1 -12   2    0.80    0.40
   1  12  -2    0.70    0.40
   1  12  -2    1.20    0.50
  -1  12   2    1.60    0.50
  -1  12   2    0.50    0.40
   0 -12   2    1.80    0.60
   0 -12  -2    1.60    0.40
   0 -12  -2    2.10    0.60
   0 -12   2    1.20    0.50
   0  12   2    2.00    0.60
   0  12   2    1.60    0.40
   0  12  -2    1.40    0.50
   0  12  -2    1.50    0.50
  -1 -12  -2  356.16    8.90
   1 -12   2  355.76    9.10
   1 -12   2  344.17    9.20
  -1 -12  -2  341.37    8.20
  -1  12  -2  349.87    8.80
   1  12   2  345.97    8.70
   1  12   2  329.97    8.00
   2 -12   2   -0.10    0.40
  -2 -12  -2    0.30    0.40
   2  12   2    0.20    0.40
  -2  12  -2    0.20    0.40
   2  12   2    0.00    0.20
  -3 -12  -2    1.90    0.70
   3 -12   2    0.60    0.50
   3  12   2    1.30    0.50
  -3  12  -2    2.60    0.70
  -3  12  -2    1.40    0.60
   3  12   2    1.40    0.30
   4 -12   2   66.79    3.20
  -4 -12  -2   65.89    3.00
   4  12   2   67.69    2.00
  -4  12  -2   67.69    3.10
  -4  12  -2   69.19    3.10
   5 -12   2    1.40    0.90
  -5 -12  -2    0.90    0.70
  -5  12  -2    1.00    0.50
  -5  12  -2    1.40    0.70
  -6 -12  -2   18.80    1.90
   6 -12   2   18.10    2.00
  -6  12  -2   20.00    1.90
   7 -13  -2    5.60    1.30
  -6 -13   2    0.70    0.50
   6 -13  -2    0.40    0.60
   6  13  -2    0.80    0.60
  -6  13   2    0.70    0.70
  -5 -13   2   16.40    1.20
   5 -13  -2   20.10    1.60
  -5  13   2   16.60    1.60
   5  13  -2   16.00    1.20
   4 -13  -2    6.20    1.00
   4 -13  -2    5.50    1.00
  -4 -13   2    5.70    1.10
  -4  13   2    7.20    1.20
   4  13  -2    5.20    0.80
  -3 -13   2    9.00    1.20
  -3 -13   2    9.30    1.00
   3 -13  -2   11.10    1.20
   3 -13  -2   10.50    1.20
   3  13  -2    9.10    1.00
  -3  13   2    8.10    1.20
  -3  13   2    8.70    1.00
   2 -13  -2   59.49    2.50
  -2 -13   2   60.39    2.80
   2 -13  -2   60.09    2.50
  -2 -13   2   60.09    2.40
   2  13  -2   58.59    2.30
  -2  13   2   56.09    2.60
   2  13  -2   60.99    2.40
  -2  13   2   56.89    2.30
  -1 -13   2   19.60    1.50
  -1 -13   2   21.00    1.30
   1 -13  -2   21.90    1.40
   1 -13  -2   22.50    1.30
  -1  13   2   23.20    1.30
   1  13  -2   20.50    1.30
   1  13  -2   24.40    1.40
  -1  13   2   22.70    1.50
   0 -13   2    6.00    1.00
   0 -13  -2    6.70    0.90
   0 -13   2    7.80    1.00
   0 -13  -2    4.90    0.70
   0  13  -2    5.60    0.90
   0  13   2    7.80    1.00
   0  13  -2    6.60    0.80
   0  13   2    6.30    0.80
  -1 -13  -2    3.10    0.70
   1 -13   2    3.50    0.80
   1 -13   2    2.80    0.70
  -1 -13  -2    2.40    0.50
   1  13   2    3.00    0.50
   1  13   2    3.00    0.70
  -1  13  -2    2.30    0.70
  -2 -13  -2   -0.30    0.40
   2 -13   2   -0.50    0.40
   2  13   2    0.00    0.40
  -2  13  -2   -0.20    0.40
   2  13   2    0.20    0.30
   3 -13   2    3.70    0.90
  -3 -13  -2    2.90    0.80
   3  13   2    4.50    0.80
  -3  13  -2    3.60    0.90
   3  13   2    3.70    0.50
  -4 -13  -2    3.70    0.90
   4 -13   2    1.20    0.80
  -4  13  -2    2.20    0.80
   4  13   2    1.70    0.30
  -5 -13  -2    5.00    1.10
   5 -13   2    5.10    1.20
  -5  13  -2    5.80    1.20
  -5  13  -2    7.10    1.20
  -6 -13  -2   34.50    2.50
  -6  13  -2   34.00    2.30
   6 -14  -2    4.70    1.10
  -6 -14   2    4.80    0.70
   6  14  -2    3.50    0.80
  -6  14   2    3.20    1.10
   5 -14  -2   10.80    1.40
  -5 -14   2    8.40    0.90
  -5  14   2    7.80    1.30
   5  14  -2   10.00    1.10
   4 -14  -2    5.00    1.00
  -4 -14   2    5.60    1.10
   4 -14  -2    4.60    0.90
   4  14  -2    4.60    0.80
  -4  14   2    2.90    0.90
  -3 -14   2   34.10    1.70
  -3 -14   2   32.50    2.10
   3 -14  -2   36.60    2.00
   3 -14  -2   32.50    1.90
  -3  14   2   30.10    2.00
   3  14  -2   31.50    1.70
  -3  14   2   34.50    1.90
   2 -14  -2   46.10    2.20
   2 -14  -2   40.70    2.10
  -2 -14   2   41.90    2.00
  -2 -14   2   43.70    2.40
   2  14  -2   40.20    2.00
  -2  14   2   44.50    2.00
   2  14  -2   47.40    2.10
  -2  14   2   41.30    2.30
  -1 -14   2   20.30    1.60
  -1 -14   2   21.30    1.40
   1 -14  -2   22.00    1.50
   1 -14  -2   20.50    1.30
   1  14  -2   21.30    1.40
  -1  14   2   21.90    1.60
  -1  14   2   20.30    1.30
   1  14  -2   18.70    1.40
   0 -14  -2   37.80    1.70
   0 -14   2   39.90    2.20
   0 -14   2   37.80    2.00
   0 -14  -2   37.40    2.00
   0  14   2   39.20    2.10
   0  14  -2   37.00    1.80
   0  14  -2   36.50    2.00
   0  14   2   38.90    1.70
  -1 -14  -2   13.00    1.30
   1 -14   2   13.50    1.50
  -1 -14  -2   12.80    0.90
   1 -14   2   14.80    1.40
  -1  14  -2   13.70    1.40
   1  14   2   12.70    1.00
   1  14   2   15.40    1.40
  -2 -14  -2    6.50    1.10
   2 -14   2    5.50    1.00
  -2  14  -2    4.70    0.90
   2  14   2    5.40    0.90
   2  14   2    4.60    0.60
  -3 -14  -2    0.10    0.50
   3 -14   2   -0.30    0.50
   3  14   2   -0.50    0.40
   3  14   2    0.00    0.20
  -3  14  -2    0.40    0.60
  -4 -14  -2    6.10    1.10
   4 -14   2    3.80    1.10
   4  14   2    4.70    0.50
  -4  14  -2    4.80    1.10
  -5 -14  -2    3.00    1.00
   5 -14   2    2.30    0.90
  -5  14  -2    4.10    1.10
  -6  15   2    2.90    1.10
  -5 -15   2    7.90    1.40
  -5 -15   2    8.20    0.90
   5 -15  -2    8.70    1.30
   5  15  -2    6.80    1.00
  -5  15   2    7.10    1.30
   4 -15  -2    1.40    0.70
   4 -15  -2    0.70    0.60
  -4 -15   2    2.00    0.90
   4  15  -2    2.30    0.70
  -4  15   2    2.50    0.90
  -3 -15   2    2.90    0.60
   3 -15  -2    3.90    0.80
  -3 -15   2    1.80    0.80
   3 -15  -2    1.60    0.60
   3  15  -2    2.90    0.70
  -3  15   2    3.00    0.90
   2 -15  -2    1.60    0.60
  -2 -15   2    3.70    0.90
   2 -15  -2    2.90    0.70
  -2 -15   2    2.20    0.60
   2  15  -2    1.90    0.60
   2  15  -2    1.90    0.60
  -2  15   2    2.30    0.80
  -2  15   2    4.00    0.80
  -1 -15   2   41.00    2.40
   1 -15  -2   45.00    2.20
  -1 -15   2   42.00    2.10
   1 -15  -2   41.90    2.00
   1  15  -2   43.10    2.10
  -1  15   2   42.00    2.00
   1  15  -2   41.70    2.00
  -1  15   2   39.20    2.20
   0 -15  -2   28.50    1.50
   0 -15  -2   29.80    1.80
   0 -15   2   31.50    1.80
   0 -15   2   32.40    2.10
   0  15   2   27.20    1.60
   0  15  -2   30.10    1.70
   0  15   2   32.60    1.90
   0  15  -2   33.00    1.90
   1 -15   2    8.70    1.30
   1 -15   2   11.00    1.20
  -1 -15  -2   10.80    0.80
  -1 -15  -2   10.60    1.20
   1  15   2   10.00    1.20
  -1  15  -2   10.50    1.30
   1  15   2    9.00    0.90
  -2 -15  -2   25.30    1.80
   2 -15   2   25.80    2.00
   2  15   2   28.30    1.80
  -2  15  -2   26.60    1.80
  -3 -15  -2   21.20    1.70
   3 -15   2   16.50    1.80
  -3  15  -2   22.50    2.00
   3  15   2   19.60    1.10
   4 -15   2    1.30    0.80
  -4 -15  -2    1.60    0.80
   4  15   2    0.80    0.30
  -4  15  -2    0.90    0.80
  -5 -15  -2    5.90    1.30
  -5 -16   2   -0.20    0.50
  -5 -16   2    1.50    0.80
  -5  16   2    0.40    0.80
   5  16  -2   -0.80    0.50
   4 -16  -2    1.70    0.80
   4 -16  -2    2.00    0.70
  -4 -16   2    1.30    0.90
  -4  16   2    1.60    0.90
   4  16  -2    2.40    0.70
  -3 -16   2    1.40    0.80
   3 -16  -2   -0.40    0.40
   3 -16  -2    0.80    0.60
  -3 -16   2    1.00    0.40
   3  16  -2    0.30    0.50
  -3  16   2    0.20    0.70
   2 -16  -2   -0.10    0.50
   2 -16  -2   -0.10    0.30
  -2 -16   2   -0.30    0.30
  -2 -16   2   -0.50    0.60
   2  16  -2   -0.20    0.40
  -2  16   2   -0.30    0.40
  -2  16   2   -0.80    0.50
   1 -16  -2   10.60    1.20
  -1 -16   2    7.70    1.00
  -1 -16   2    7.10    1.30
   1 -16  -2    7.90    0.90
   1  16  -2    8.40    1.10
  -1  16   2    6.80    1.10
  -1  16   2    8.10    1.00
   1  16  -2    7.90    1.10
   0 -16  -2    3.50    0.80
   0 -16   2    2.70    0.90
   0 -16  -2    2.50    0.60
   0 -16   2    4.00    0.80
   0  16   2    4.60    0.80
   0  16   2    4.50    0.90
   0  16  -2    4.00    0.80
   1 -16   2    0.90    0.70
  -1 -16  -2    2.20    0.70
  -1 -16  -2    1.30    0.50
   1 -16   2    0.80    0.50
   1  16   2    3.00    0.70
   1  16   2    0.80    0.50
  -1  16  -2    1.30    0.60
   2 -16   2    0.50    0.60
  -2 -16  -2   -0.20    0.50
   2  16   2    0.40    0.50
  -2  16  -2    0.30    0.40
   2  16   2    0.00    0.50
   3 -16   2    0.20    0.70
  -3 -16  -2    0.30    0.60
   3  16   2   -0.10    0.20
  -3  16  -2    0.40    0.70
   4 -16   2    0.50    0.80
  -4 -16  -2    0.80    0.70
  -4  16  -2    0.90    0.80
   4  16   2    0.40    0.20
  -4 -17   2    1.10    0.80
   4  17  -2    0.00    0.50
  -4  17   2    0.60    0.80
  -3 -17   2    2.00    1.00
   3  17  -2    2.40    0.80
  -3  17   2    2.70    1.00
   2 -17  -2    8.30    1.10
  -2 -17   2    9.00    1.50
   2 -17  -2    9.20    1.30
  -2 -17   2   14.00    1.20
   2  17  -2   11.00    1.20
  -2  17   2    9.90    1.40
   1 -17  -2   24.00    1.50
  -1 -17   2   25.30    2.10
   1 -17  -2   25.40    1.80
  -1 -17   2   27.10    1.70
  -1  17   2   22.90    1.70
   1  17  -2   23.80    1.70
   1  17  -2   27.20    1.80
   0 -17   2   44.80    2.30
   0 -17   2   43.00    2.70
   0 -17  -2   48.50    2.50
   0 -17  -2   42.70    2.00
   0  17   2   41.40    2.30
   0  17  -2   43.10    2.40
  -1 -17  -2   13.70    1.00
   1 -17   2   11.20    1.60
  -1 -17  -2   12.50    1.40
   1 -17   2   13.00    1.40
   1  17   2   12.40    1.20
  -1  17  -2   15.00    1.60
  -2 -17  -2    6.40    1.20
   2 -17   2    4.70    1.10
   2  17   2    4.50    0.80
  -2  17  -2    6.30    1.10
   3 -17   2    0.80    0.80
  -3 -17  -2    0.80    0.80
  -3  17  -2   -0.30    0.60
  -4 -17  -2    0.50    0.80
  -3 -18   2    1.10    0.80
  -3  18   2    1.90    0.90
   3  18  -2    1.70    0.70
  -2 -18   2   53.99    3.10
   2  18  -2   52.89    2.60
  -1 -18   2    0.60    0.80
   1  18  -2    0.70    0.60
  -1  18   2    1.30    0.70
   0 -18  -2   32.10    1.80
   0 -18   2   31.70    2.30
   1 -18   2   10.00    1.30
   1 -18   2    8.40    1.50
  -1 -18  -2    8.80    0.90
   1  18   2    9.10    1.10
   2 -18   2    0.80    0.80
   2  18   2    0.40    0.50
   2  19  -2   49.70    2.60
  -1 -19   2   12.60    1.80
  -1  19   2   12.40    1.40
   0 -19  -2    0.80    0.60
   0 -19   2    0.00    0.70
   0  19   2    0.60    0.60
  -1 -19  -2   23.10    1.40
   9   0  -3   -0.30    0.60
  -8   0   3    0.20    0.40
  -8   0   3   -0.20    0.70
   8   0  -3    1.00    0.60
   8   0  -3   -0.10    0.60
  -7   0   3    0.00    0.40
  -7   0   3    0.10    0.60
   7   0  -3    0.10    0.40
   7   0  -3   -0.90    0.40
  -6   0   3   -0.20    0.40
  -6   0   3    0.00    0.40
   6   0  -3    0.20    0.50
   6   0  -3   -0.60    0.30
   5   0  -3    0.10    0.30
  -5   0   3   -0.20    0.30
  -5   0   3   -0.50    0.30
  -5   0   3   -0.40    0.20
   5   0  -3   -0.10    0.30
  -4   0   3   -0.40    0.20
  -4   0   3    0.10    0.30
   4   0  -3   -0.20    0.30
   4   0  -3    0.00    0.20
  -4   0   3    0.20    0.30
   4   0  -3    0.30    0.30
   3   0  -3   -0.10    0.20
  -3   0   3   -0.10    0.20
  -3   0   3   -0.10    0.20
   3   0  -3   -0.10    0.20
   3   0  -3    0.10    0.20
   3   0  -3    0.30    0.20
  -3   0   3    0.00    0.20
  -3   0   3    0.00    0.20
  -3   0   3    0.20    0.20
   2   0  -3   -0.20    0.20
  -2   0   3    0.00    0.20
   2   0  -3    0.20    0.20
  -2   0   3    0.10    0.30
   2   0  -3   -0.10    0.20
  -2   0   3    0.50    0.20
  -2   0   3   -0.10    0.20
   1   0  -3   -0.70    0.20
   1   0  -3   -0.60    0.20
   1   0  -3   -0.50    0.30
  -1   0   3   -1.10    0.30
  -1   0   3   -0.60    0.30
  -1   0   3   -0.70    0.10
  -1   0   3   -0.70    0.20
   0   0  -3    0.00    0.20
   0   0   3   -0.10    0.20
   0   0   3    0.10    0.20
   0   0  -3    0.10    0.20
   0   0  -3   -0.10    0.10
   0   0   3   -0.20    0.10
  -1   0  -3    0.00    0.20
   1   0   3   -0.10    0.10
   1   0   3    0.10    0.20
  -1   0  -3    0.00    0.20
  -1   0  -3    0.30    0.30
   1   0   3    0.20    0.20
   1   0   3   -0.10    0.10
  -1   0  -3    0.00    0.20
   2   0   3    0.10    0.20
  -2   0  -3    0.20    0.20
  -2   0  -3   -0.10    0.20
  -2   0  -3    0.20    0.20
   2   0   3    0.20    0.30
   2   0   3   -0.20    0.10
  -2   0  -3   -0.10    0.20
   2   0   3    0.10    0.20
   3   0   3    0.10    0.30
  -3   0  -3    0.10    0.20
  -3   0  -3   -0.20    0.30
   3   0   3    0.00    0.10
  -3   0  -3    0.10    0.20
  -3   0  -3   -0.50    0.20
   4   0   3   -0.20    0.40
   4   0   3    0.20    0.20
  -4   0  -3    0.40    0.40
  -4   0  -3   -0.10    0.30
  -4   0  -3    0.30    0.20
   5   0   3    0.20    0.20
  -5   0  -3   -0.20    0.20
  -5   0  -3    0.60    0.60
  -5   0  -3   -0.20    0.40
   5   0   3    0.60    0.50
   6   0   3    0.50    0.40
   6   0   3    0.30    0.20
  -6   0  -3    0.60    0.70
  -7   0  -3   -0.40    0.70
   9  -1  -3   -0.30    0.60
   8  -1  -3    0.50    0.70
   8  -1  -3    1.80    0.70
  -8  -1   3    1.10    0.90
  -8  -1   3    0.40    0.40
   8   1  -3    1.00    0.60
  -8   1   3    0.50    0.40
   8   1  -3    0.80    0.70
   7  -1  -3   12.90    1.40
   7  -1  -3   11.80    1.20
  -7  -1   3   10.60    1.40
  -7  -1   3   12.00    1.20
   7   1  -3   12.30    1.40
   7   1  -3   13.00    1.20
  -7   1   3   12.50    1.30
  -7   1   3   10.60    1.40
  -6  -1   3   62.19    2.60
   6  -1  -3   57.79    2.30
  -6  -1   3   62.39    2.80
   6  -1  -3   61.99    2.60
  -6  -1   3   59.79    2.50
  -6   1   3   55.09    2.50
   6   1  -3   59.09    2.40
  -6   1   3   55.89    2.70
   6   1  -3   59.89    2.60
  -5  -1   3   36.40    1.70
  -5  -1   3   31.60    1.60
   5  -1  -3   32.00    1.60
  -5  -1   3   32.00    1.80
   5  -1  -3   34.00    1.60
   5   1  -3   32.40    1.60
  -5   1   3   33.50    1.70
  -5   1   3   30.90    1.70
   4  -1  -3  111.19    3.60
   4  -1  -3  121.89    3.40
  -4  -1   3  117.39    3.40
  -4  -1   3  112.39    3.60
  -4  -1   3  113.79    3.50
   4  -1  -3  120.39    3.40
   4   1  -3  115.09    3.30
   4   1  -3  119.39    3.40
  -4   1   3  115.49    3.60
  -4   1   3  118.09    2.90
  -4   1   3  114.49    3.60
   4   1  -3  115.69    3.60
   3  -1  -3    4.30    0.60
  -3  -1   3    5.40    0.60
   3  -1  -3    4.60    0.50
  -3  -1   3    5.20    0.60
  -3  -1   3    5.40    0.70
   3  -1  -3    5.30    0.50
  -3  -1   3    5.20    0.40
  -3  -1   3    5.80    0.50
  -3   1   3    4.80    0.50
   3   1  -3    5.40    0.40
  -3   1   3    4.80    0.40
   3   1  -3    4.30    0.60
  -3   1   3    4.50    0.60
  -3   1   3    4.30    0.60
   3   1  -3    4.50    0.50
  -3   1   3    5.10    0.70
   2  -1  -3    1.40    0.40
   2  -1  -3    1.70    0.30
   2  -1  -3    0.70    0.30
  -2  -1   3    1.10    0.30
  -2  -1   3    1.50    0.40
  -2  -1   3    1.20    0.30
  -2  -1   3    1.20    0.40
   2  -1  -3    1.20    0.20
  -2   1   3    1.70    0.40
   2   1  -3    1.40    0.30
   2   1  -3    2.60    0.50
  -2   1   3    1.80    0.40
  -2   1   3    1.10    0.20
   2   1  -3    1.40    0.30
  -2   1   3    0.90    0.30
   1  -1  -3   57.49    1.80
  -1  -1   3   59.59    1.80
  -1  -1   3   61.59    1.90
  -1  -1   3   58.59    1.60
   1  -1  -3   60.29    1.90
   1  -1  -3   57.39    1.70
  -1  -1   3   57.99    2.00
  -1   1   3   59.29    2.00
   1   1  -3   56.49    1.80
   1   1  -3   60.89    1.80
  -1   1   3   58.29    1.80
  -1   1   3   59.69    1.90
   1   1  -3   57.69    1.90
   0  -1   3   56.69    1.80
   0  -1   3   54.19    1.70
   0  -1   3   58.19    1.60
   0  -1   3   54.99    1.90
   0  -1  -3   53.69    1.70
   0  -1  -3   52.79    1.80
   0  -1  -3   52.79    1.60
   0   1  -3   53.29    1.80
   0   1   3   53.59    1.90
   0   1   3   54.79    1.40
   0   1  -3   52.49    1.80
   0   1   3   53.19    1.60
   0   1   3   55.59    1.60
   1  -1   3    2.30    0.30
  -1  -1  -3    2.30    0.30
  -1  -1  -3    1.40    0.40
   1  -1   3    1.70    0.30
   1  -1   3    2.40    0.50
   1  -1   3    2.50    0.30
  -1  -1  -3    2.10    0.30
  -1  -1  -3    2.60    0.50
   1   1   3    2.00    0.30
   1   1   3    2.10    0.50
  -1   1  -3    2.30    0.40
  -1   1  -3    2.00    0.30
  -1   1  -3    2.50    0.50
  -1   1  -3    1.80    0.30
   1   1   3    2.00    0.30
   1   1   3    2.00    0.30
  -2  -1  -3   71.19    2.50
   2  -1   3   71.09    2.00
   2  -1   3   71.79    2.30
  -2  -1  -3   69.99    2.30
   2  -1   3   70.69    2.00
   2  -1   3   69.29    2.50
  -2  -1  -3   69.39    1.90
  -2  -1  -3   74.19    1.90
  -2   1  -3   68.49    2.10
   2   1   3   77.09    1.90
   2   1   3   74.09    2.50
  -2   1  -3   70.89    2.40
   2   1   3   70.59    1.90
   2   1   3   68.89    2.20
  -2   1  -3   71.49    2.50
  -2   1  -3   76.39    2.10
   3  -1   3    3.90    0.60
   3  -1   3    3.30    0.40
  -3  -1  -3    3.40    0.30
  -3  -1  -3    4.00    0.60
  -3  -1  -3    3.90    0.30
  -3  -1  -3    3.60    0.60
  -3   1  -3    3.70    0.60
  -3   1  -3    3.70    0.40
   3   1   3    2.50    0.50
  -3   1  -3    3.30    0.60
   3   1   3    3.50    0.40
   3   1   3    3.90    0.40
  -4  -1  -3    2.10    0.60
   4  -1   3    2.30    0.60
  -4  -1  -3    1.40    0.50
   4  -1   3    1.90    0.40
  -4   1  -3    2.30    0.60
  -4   1  -3    1.50    0.50
  -4   1  -3    2.10    0.40
   4   1   3    2.30    0.60
   4   1   3    2.10    0.40
   5  -1   3    3.30    0.60
  -5  -1  -3    4.20    0.70
   5  -1   3    3.40    0.80
  -5  -1  -3    3.80    0.90
   5   1   3    3.80    0.50
  -5   1  -3    3.70    0.70
  -5   1  -3    4.30    0.50
   5   1   3    4.20    0.80
  -5   1  -3    3.80    0.80
   6  -1   3   17.10    1.40
  -6  -1  -3   15.50    1.70
   6  -1   3   15.30    1.10
   6   1   3   16.10    1.00
  -6   1  -3   14.60    1.60
   6   1   3   17.10    1.60
  -6   1  -3   17.20    0.90
  -7  -1  -3   -0.40    0.70
   7  -1   3    0.20    0.40
  -7   1  -3    1.40    0.80
  -8  -2   3    6.00    1.20
   8  -2  -3    3.50    1.00
   8  -2  -3    5.70    1.00
  -8   2   3    7.40    1.20
   8   2  -3    5.60    1.00
  -7  -2   3    4.70    0.80
   7  -2  -3    5.70    0.90
  -7  -2   3    4.60    1.00
   7  -2  -3    4.00    0.90
  -7  -2   3    4.00    0.90
   7   2  -3    4.70    1.00
   7   2  -3    3.50    0.80
  -7   2   3    4.40    0.90
  -7   2   3    4.70    0.90
   6  -2  -3  127.79    4.00
   6  -2  -3  128.19    4.20
  -6  -2   3  139.19    4.40
  -6  -2   3  132.99    4.20
  -6  -2   3  128.99    4.50
   6   2  -3  131.59    4.00
  -6   2   3  133.89    4.40
   6   2  -3  134.09    4.40
  -6   2   3  127.49    4.40
  -5  -2   3   46.50    2.00
   5  -2  -3   42.20    1.80
  -5  -2   3   41.30    2.10
  -5  -2   3   41.70    1.90
   5  -2  -3   40.70    1.80
   5   2  -3   39.30    1.90
  -5   2   3   42.20    2.00
   5   2  -3   42.20    1.80
  -5   2   3   42.00    2.10
   4  -2  -3    2.40    0.50
  -4  -2   3    2.00    0.50
  -4  -2   3    1.80    0.50
   4  -2  -3    2.20    0.50
  -4  -2   3    1.80    0.50
   4  -2  -3    2.80    0.50
  -4   2   3    2.20    0.50
   4   2  -3    2.80    0.50
  -4   2   3    1.60    0.50
  -4   2   3    2.30    0.40
  -4   2   3    1.60    0.50
   4   2  -3    1.80    0.50
  -3  -2   3   19.30    1.00
   3  -2  -3   19.50    1.10
  -3  -2   3   20.00    1.00
   3  -2  -3   20.70    1.00
  -3  -2   3   19.40    1.10
  -3  -2   3   19.20    1.10
   3  -2  -3   20.70    0.90
  -3   2   3   21.40    1.10
   3   2  -3   18.50    1.00
  -3   2   3   19.70    1.10
   3   2  -3   19.40    1.10
  -3   2   3   20.40    0.90
   3   2  -3   20.10    0.70
  -3   2   3   18.80    1.10
   2  -2  -3   18.20    1.00
   2  -2  -3   18.50    0.90
  -2  -2   3   17.80    0.90
   2  -2  -3   19.30    0.70
   2  -2  -3   18.60    0.90
  -2  -2   3   18.60    0.90
  -2  -2   3   18.90    1.00
   2   2  -3   17.20    0.80
  -2   2   3   19.30    0.90
   2   2  -3   19.90    1.00
  -2   2   3   18.90    1.00
  -2   2   3   19.40    0.90
  -2   2   3   19.20    1.00
   2   2  -3   20.10    0.90
  -1  -2   3  194.08    5.00
  -1  -2   3  201.58    4.70
   1  -2  -3  195.48    4.90
   1  -2  -3  201.48    4.80
  -1  -2   3  192.88    4.70
  -1  -2   3  197.28    4.90
  -1   2   3  203.38    4.90
  -1   2   3  199.38    4.90
   1   2  -3  191.28    4.70
  -1   2   3  195.28    4.60
   1   2  -3  202.58    4.70
   0  -2   3    2.70    0.50
   0  -2   3    3.30    0.50
   0  -2   3    2.30    0.30
   0  -2  -3    2.10    0.40
   0  -2  -3    2.50    0.30
   0  -2  -3    2.40    0.30
   0  -2   3    2.60    0.40
   0   2  -3    3.30    0.50
   0   2   3    2.50    0.50
   0   2  -3    2.80    0.30
   0   2   3    3.00    0.30
   0   2  -3    2.80    0.40
   0   2   3    2.50    0.20
   0   2   3    2.60    0.30
   1  -2   3   17.30    1.00
   1  -2   3   18.70    0.90
  -1  -2  -3   18.20    0.70
  -1  -2  -3   17.70    1.00
   1  -2   3   17.90    0.80
  -1  -2  -3   17.80    0.70
  -1   2  -3   18.30    1.00
   1   2   3   17.40    1.00
  -1   2  -3   17.40    0.90
  -1   2  -3   19.70    0.90
   1   2   3   18.70    0.70
   1   2   3   18.30    0.70
  -1   2  -3   18.20    1.00
   1   2   3   18.30    0.80
  -2  -2  -3   94.69    3.10
   2  -2   3  101.59    2.70
   2  -2   3   99.09    3.10
   2  -2   3  100.59    3.00
   2  -2   3   98.69    2.70
   2   2   3  102.29    2.40
   2   2   3  100.19    2.90
  -2   2  -3   97.59    3.00
  -2   2  -3   97.79    2.80
   2   2   3  101.09    2.40
   2   2   3   97.79    3.10
  -2   2  -3  102.29    2.80
   3  -2   3   11.20    0.90
  -3  -2  -3   12.80    0.90
  -3  -2  -3    9.90    1.00
   3  -2   3   11.10    0.70
  -3   2  -3   11.20    0.80
   3   2   3   11.60    0.90
  -3   2  -3   12.20    1.00
   3   2   3   11.10    0.50
   3   2   3   11.80    0.60
  -3   2  -3   12.50    1.00
   4  -2   3  365.26    8.30
  -4  -2  -3  357.16    8.60
   4  -2   3  368.46    9.20
  -4  -2  -3  360.06    9.10
   4   2   3  362.16    7.90
  -4   2  -3  365.06    9.20
  -4   2  -3  345.87    8.70
   4   2   3  357.76    9.10
  -4   2  -3  351.86    8.60
  -5  -2  -3    5.10    0.80
   5  -2   3    6.30    1.00
  -5  -2  -3    3.80    0.90
   5  -2   3    4.40    0.60
   5   2   3    5.80    1.00
   5   2   3    5.20    0.50
  -5   2  -3    5.10    0.60
  -5   2  -3    4.50    0.80
  -5   2  -3    5.00    0.90
  -6  -2  -3    3.20    0.90
   6  -2   3    3.50    0.70
   6  -2   3    3.00    0.80
  -6   2  -3    2.90    0.60
   6   2   3    2.70    0.50
   6   2   3    3.20    0.80
  -6   2  -3    2.30    0.70
  -7  -2  -3    1.20    0.80
   7  -2   3    0.90    0.50
   7   2   3    1.20    0.40
  -7   2  -3    0.60    0.40
  -8  -3   3    0.40    0.40
   8  -3  -3   -0.20    0.60
  -8  -3   3    0.60    0.80
  -8   3   3   -0.10    0.30
   8   3  -3    1.30    0.70
   8   3  -3    1.20    0.80
   7  -3  -3    3.40    0.80
   7  -3  -3    3.20    0.80
  -7  -3   3    4.00    1.00
  -7  -3   3    3.20    0.70
  -7  -3   3    3.20    0.80
  -7   3   3    1.80    0.70
   7   3  -3    2.40    0.90
  -7   3   3    2.20    0.70
   7   3  -3    2.60    0.70
  -6  -3   3    2.20    0.60
   6  -3  -3    4.00    0.80
  -6  -3   3    3.20    0.80
   6  -3  -3    4.80    0.80
  -6  -3   3    2.70    0.80
   6   3  -3    1.80    0.50
  -6   3   3    5.30    0.90
  -6   3   3    3.50    0.80
   6   3  -3    2.90    0.80
  -5  -3   3   71.39    2.90
   5  -3  -3   70.49    2.50
  -5  -3   3   75.09    2.70
   5  -3  -3   70.99    2.60
  -5  -3   3   75.19    2.80
   5   3  -3   72.39    2.50
  -5   3   3   74.79    2.80
  -5   3   3   71.29    2.80
   4  -3  -3   72.29    2.30
  -4  -3   3   65.99    2.50
   4  -3  -3   71.29    2.60
  -4  -3   3   63.19    2.40
  -4  -3   3   65.49    2.40
   4  -3  -3   68.19    2.30
  -4   3   3   69.79    2.10
  -4   3   3   69.59    2.50
  -4   3   3   69.79    2.40
  -4   3   3   65.79    2.50
   4   3  -3   65.49    2.30
  -3  -3   3  193.88    5.20
  -3  -3   3  197.78    5.30
  -3  -3   3  199.38    4.90
  -3  -3   3  199.68    5.20
   3  -3  -3  202.58    4.90
   3  -3  -3  204.48    4.90
   3  -3  -3  189.38    5.30
  -3   3   3  199.88    5.10
  -3   3   3  199.78    5.20
  -3   3   3  191.88    5.30
   3   3  -3  202.48    4.40
   3   3  -3  204.98    5.00
  -3   3   3  205.88    4.90
   3   3  -3  202.18    5.30
   2  -3  -3   61.09    2.00
   2  -3  -3   61.69    1.60
  -2  -3   3   60.89    1.90
  -2  -3   3   59.29    2.10
  -2  -3   3   63.59    2.10
  -2  -3   3   61.79    1.90
   2  -3  -3   62.09    2.10
   2  -3  -3   62.99    1.90
   2   3  -3   64.99    1.80
  -2   3   3   57.69    2.00
   2   3  -3   63.39    2.00
  -2   3   3   61.09    2.00
   2   3  -3   64.09    2.10
  -2   3   3   60.29    2.10
  -2   3   3   61.29    2.00
  -1  -3   3   10.60    0.70
  -1  -3   3   10.00    0.60
   1  -3  -3   10.60    0.70
   1  -3  -3   10.50    0.70
  -1  -3   3   10.80    0.80
   1  -3  -3   10.10    0.70
  -1  -3   3   10.30    0.70
  -1   3   3   10.50    0.70
   1   3  -3   10.10    0.70
   1   3  -3   10.90    0.70
  -1   3   3   10.60    0.70
  -1   3   3   10.40    0.60
   1   3  -3    9.30    0.70
   0  -3  -3  155.48    3.80
   0  -3   3  155.88    4.10
   0  -3   3  154.58    3.90
   0  -3  -3  152.78    3.80
   0  -3  -3  153.58    3.50
   0  -3   3  157.58    3.90
   0  -3  -3  148.79    4.00
   0  -3   3  149.99    4.00
   0   3  -3  162.08    3.80
   0   3   3  155.98    3.50
   0   3   3  150.88    3.60
   0   3   3  152.38    3.60
   0   3  -3  155.88    4.10
   0   3  -3  152.08    3.90
   0   3   3  150.98    4.00
   1  -3   3   87.49    2.60
  -1  -3  -3   88.09    2.70
  -1  -3  -3   86.09    2.20
   1  -3   3   90.59    2.60
   1  -3   3   84.59    2.40
  -1  -3  -3   85.29    2.10
  -1  -3  -3   87.29    2.30
   1  -3   3   86.99    2.70
   1   3   3   88.09    2.70
   1   3   3   88.49    2.10
  -1   3  -3   85.79    2.60
  -1   3  -3   88.19    2.70
   1   3   3   89.29    2.30
  -1   3  -3   87.49    2.70
   1   3   3   86.99    2.10
  -2  -3  -3  255.97    6.50
   2  -3   3  270.47    6.60
   2  -3   3  258.17    6.50
  -2  -3  -3  254.07    6.30
   2  -3   3  261.77    6.10
  -2  -3  -3  269.37    6.40
  -2   3  -3  253.37    6.40
   2   3   3  261.67    5.60
   2   3   3  266.37    5.60
  -2   3  -3  265.97    6.60
   2   3   3  249.28    6.30
   2   3   3  259.27    6.50
  -2   3  -3  251.17    6.40
   3  -3   3   69.49    2.50
   3  -3   3   70.99    2.20
  -3  -3  -3   60.89    2.50
  -3  -3  -3   67.59    2.40
   3   3   3   70.49    2.60
   3   3   3   70.29    1.70
  -3   3  -3   66.79    2.60
  -3   3  -3   67.29    2.30
   3   3   3   69.29    2.40
  -3   3  -3   70.29    2.50
   3   3   3   68.99    1.70
  -4  -3  -3   46.20    2.00
  -4  -3  -3   46.80    2.20
   4  -3   3   52.09    1.90
   4  -3   3   48.90    2.20
  -4   3  -3   49.80    2.30
  -4   3  -3   47.10    1.90
   4   3   3   49.20    1.40
   4   3   3   50.89    2.10
  -4   3  -3   49.50    2.10
  -5  -3  -3    1.90    0.80
   5  -3   3    3.40    0.80
   5  -3   3    2.70    0.60
  -5   3  -3    3.60    0.80
   5   3   3    3.00    0.40
  -5   3  -3    3.00    0.80
   5   3   3    2.40    0.70
  -5   3  -3    2.90    0.60
   6  -3   3    0.90    0.50
  -6  -3  -3    0.50    0.70
   6   3   3    0.30    0.50
   6   3   3    0.60    0.30
  -6   3  -3    0.60    0.40
  -6   3  -3   -0.50    0.40
   7  -3   3    1.50    0.60
  -7  -3  -3    1.70    0.80
  -7   3  -3    1.50    0.60
   7   3   3    1.50    0.40
   8  -4  -3    1.10    0.70
  -8  -4   3    0.40    0.70
   8   4  -3    1.10    0.80
   8   4  -3    0.30    0.60
  -7  -4   3   50.19    2.70
  -7  -4   3   44.60    2.40
  -7  -4   3   46.80    2.20
   7  -4  -3   44.20    2.40
   7   4  -3   40.80    2.40
  -7   4   3   50.89    2.50
  -7   4   3   43.90    2.50
   6  -4  -3   75.89    2.90
  -6  -4   3   82.29    3.20
  -6  -4   3   80.99    3.30
  -6  -4   3   80.89    3.00
   6  -4  -3   77.89    3.00
  -6   4   3   83.39    3.20
  -6   4   3   81.59    3.30
   6   4  -3   76.99    2.80
   6   4  -3   81.59    3.20
  -5  -4   3   44.00    2.10
  -5  -4   3   45.10    2.00
   5  -4  -3   48.60    2.00
  -5  -4   3   46.80    2.20
   5  -4  -3   47.40    2.00
  -5   4   3   47.80    2.20
   5   4  -3   42.50    1.90
  -5   4   3   47.40    2.20
  -4  -4   3   10.00    0.90
  -4  -4   3   11.70    1.00
   4  -4  -3   14.30    1.00
   4  -4  -3   11.00    0.80
  -4  -4   3   12.80    1.00
   4  -4  -3   13.40    0.90
  -4   4   3   10.30    0.90
  -4   4   3   10.80    1.00
   4   4  -3   10.00    0.80
  -4   4   3   13.80    0.90
  -4   4   3   10.80    1.00
  -3  -4   3   83.39    2.70
   3  -4  -3   85.79    2.50
  -3  -4   3   83.09    2.70
  -3  -4   3   85.69    2.70
   3  -4  -3   86.69    2.80
   3  -4  -3   81.49    2.40
  -3   4   3   83.79    2.80
   3   4  -3   85.09    2.10
  -3   4   3   80.39    2.70
  -3   4   3   91.99    2.70
  -3   4   3   84.59    2.50
   3   4  -3   79.49    2.50
   3   4  -3   85.89    2.80
   2  -4  -3  160.08    3.90
  -2  -4   3  164.58    4.10
  -2  -4   3  159.58    4.20
  -2  -4   3  155.98    4.20
  -2  -4   3  150.48    4.30
   2  -4  -3  152.78    4.30
   2  -4  -3  158.88    3.80
   2  -4  -3  159.18    4.10
  -2   4   3  152.48    4.00
   2   4  -3  160.18    3.80
  -2   4   3  159.08    4.20
  -2   4   3  153.98    4.10
   2   4  -3  159.28    4.00
  -2   4   3  162.78    4.30
   2   4  -3  161.88    4.40
   1  -4  -3   73.09    2.20
   1  -4  -3   74.09    1.80
  -1  -4   3   74.39    2.20
   1  -4  -3   71.29    2.30
  -1  -4   3   72.09    2.20
  -1  -4   3   71.39    2.30
   1  -4  -3   75.69    2.20
   1   4  -3   73.59    2.20
  -1   4   3   71.69    2.30
  -1   4   3   71.89    2.20
  -1   4   3   68.99    2.10
   1   4  -3   72.99    2.20
   1   4  -3   72.79    2.40
   0  -4   3  102.79    3.00
   0  -4  -3  105.79    2.60
   0  -4  -3  107.09    2.80
   0  -4   3  108.69    3.10
   0  -4  -3   99.79    2.70
   0  -4   3  106.99    3.00
   0  -4  -3  105.89    3.10
   0  -4   3  105.99    2.90
   0   4  -3  107.39    3.00
   0   4   3  110.79    2.70
   0   4   3  107.39    2.60
   0   4   3  106.09    3.00
   0   4  -3  105.69    2.80
  -1  -4  -3  106.39    2.50
   1  -4   3  103.09    3.00
   1  -4   3  102.29    2.90
   1  -4   3  105.49    3.10
   1  -4   3  100.79    3.10
  -1  -4  -3  104.19    2.50
  -1  -4  -3  103.69    3.10
  -1  -4  -3  108.29    2.80
  -1   4  -3  104.89    3.10
  -1   4  -3  103.79    3.10
  -1   4  -3  112.59    2.80
   1   4   3  104.59    2.40
   1   4   3  100.89    2.50
  -1   4  -3  104.59    3.10
   1   4   3  105.89    2.80
   1   4   3  109.39    3.10
  -2  -4  -3    0.90    0.40
   2  -4   3    1.00    0.40
   2  -4   3    0.80    0.30
  -2  -4  -3    0.70    0.40
   2  -4   3    1.40    0.40
  -2  -4  -3    0.40    0.30
   2   4   3    1.30    0.40
   2   4   3    0.70    0.10
  -2   4  -3    0.60    0.30
  -2   4  -3    0.50    0.30
   2   4   3    0.60    0.30
  -2   4  -3    0.90    0.40
  -3  -4  -3   26.80    1.40
   3  -4   3   28.00    1.50
   3  -4   3   26.80    1.50
  -3  -4  -3   27.00    1.50
  -3  -4  -3   29.40    1.40
   3  -4   3   27.90    1.30
  -3   4  -3   30.40    1.60
   3   4   3   25.80    1.30
  -3   4  -3   25.80    1.50
  -3   4  -3   27.20    1.30
   3   4   3   28.90    1.50
   3   4   3   27.10    0.80
  -4  -4  -3   32.40    1.60
   4  -4   3   31.70    1.50
  -4  -4  -3   30.30    1.70
   4  -4   3   31.70    1.80
  -4  -4  -3   29.10    1.70
  -4   4  -3   30.60    1.50
   4   4   3   34.00    1.00
  -4   4  -3   30.50    1.70
  -4   4  -3   30.30    1.80
   4   4   3   31.70    1.00
   4   4   3   35.40    1.80
  -5  -4  -3  125.19    4.30
   5  -4   3  113.79    3.70
   5   4   3  121.89    3.00
   5   4   3  125.39    4.20
  -5   4  -3  128.49    4.40
  -5   4  -3  119.59    3.80
  -5   4  -3  120.39    4.00
   6  -4   3    0.10    0.40
  -6  -4  -3    0.10    0.60
   6   4   3    0.10    0.20
   6   4   3    0.50    0.50
  -6   4  -3    0.40    0.40
  -6   4  -3    0.00    0.40
   7  -4   3    2.30    0.70
  -7  -4  -3    4.50    1.10
  -7   4  -3    4.50    0.90
  -7   4  -3    3.40    0.70
  -8  -5   3    2.30    1.00
   8  -5  -3    1.80    0.80
   8   5  -3    2.00    0.90
   8   5  -3    2.60    0.80
  -7  -5   3    1.10    0.50
   7  -5  -3   -0.40    0.50
  -7   5   3    0.00    0.40
  -7   5   3    0.00    0.50
   7   5  -3    0.50    0.60
   7   5  -3    0.60    0.50
   6  -5  -3   51.09    2.30
  -6  -5   3   46.20    2.40
  -6  -5   3   49.90    2.50
  -6  -5   3   47.20    2.10
   6   5  -3   48.20    2.10
  -6   5   3   49.80    2.40
  -6   5   3   48.30    2.40
  -5  -5   3   33.70    1.70
   5  -5  -3   32.70    1.70
  -5  -5   3   35.20    1.90
  -5  -5   3   36.80    1.90
   5   5  -3   33.70    1.60
  -5   5   3   32.70    1.80
  -5   5   3   33.90    1.80
  -4  -5   3   37.30    1.70
  -4  -5   3   36.50    1.60
   4  -5  -3   36.10    1.80
   4  -5  -3   30.70    1.50
   4  -5  -3   38.40    1.60
  -4  -5   3   32.80    1.70
  -4   5   3   37.20    1.80
   4   5  -3   32.80    1.50
  -4   5   3   35.50    1.50
  -4   5   3   34.70    1.70
  -4   5   3   35.60    1.60
   3  -5  -3    9.30    0.70
   3  -5  -3    9.40    0.70
   3  -5  -3    9.40    0.90
  -3  -5   3    9.80    0.80
  -3  -5   3    9.80    0.80
   3   5  -3   10.20    0.80
  -3   5   3   10.40    0.80
   3   5  -3    9.00    0.80
  -3   5   3   10.70    0.80
   3   5  -3    9.60    0.50
  -3   5   3   10.40    0.80
  -3   5   3   10.20    0.90
  -2  -5   3   79.09    2.40
  -2  -5   3   73.69    2.50
   2  -5  -3   81.09    2.10
   2  -5  -3   77.69    2.30
   2  -5  -3   74.29    2.50
  -2  -5   3   76.59    2.50
  -2  -5   3   77.19    2.50
   2   5  -3   77.39    2.20
  -2   5   3   75.19    2.40
   2   5  -3   76.39    2.40
  -2   5   3   75.99    2.40
   2   5  -3   77.89    2.60
  -2   5   3   77.39    2.40
  -2   5   3   80.49    2.50
   1  -5  -3    4.30    0.30
   1  -5  -3    4.10    0.40
  -1  -5   3    3.30    0.50
  -1  -5   3    3.90    0.50
   1  -5  -3    3.30    0.50
  -1  -5   3    4.00    0.50
  -1  -5   3    3.20    0.50
   1  -5  -3    3.70    0.50
   1   5  -3    2.70    0.50
   1   5  -3    3.70    0.50
  -1   5   3    3.90    0.50
  -1   5   3    4.40    0.60
   1   5  -3    3.70    0.50
  -1   5   3    4.40    0.50
   0  -5   3    7.60    0.70
   0  -5   3    8.90    0.70
   0  -5   3    9.20    0.70
   0  -5  -3    8.90    0.50
   0  -5  -3    7.70    0.80
   0  -5  -3    9.10    0.50
   0  -5   3    8.40    0.70
   0  -5  -3    7.90    0.50
   0   5  -3    6.80    0.70
   0   5   3    8.20    0.50
   0   5   3    8.30    0.80
   0   5  -3    8.70    0.70
   0   5  -3    8.20    0.80
   0   5   3    9.00    0.70
   0   5   3    9.00    0.50
   1  -5   3   64.29    2.10
   1  -5   3   66.79    2.30
  -1  -5  -3   64.19    1.90
   1  -5   3   63.69    2.20
   1  -5   3   64.49    2.20
  -1  -5  -3   61.49    2.20
   1   5   3   63.39    2.10
  -1   5  -3   65.19    2.00
   1   5   3   64.09    1.60
  -1   5  -3   64.59    2.30
  -1   5  -3   66.89    2.30
   1   5   3   65.09    1.60
   2  -5   3   51.79    1.90
   2  -5   3   51.69    2.00
  -2  -5  -3   51.29    1.80
  -2  -5  -3   52.39    2.00
  -2  -5  -3   47.80    1.90
   2  -5   3   52.09    2.00
   2   5   3   51.49    2.00
  -2   5  -3   48.80    2.00
   2   5   3   52.69    1.80
  -2   5  -3   54.99    2.10
  -2   5  -3   52.79    2.00
  -3  -5  -3   32.50    1.50
   3  -5   3   31.70    1.70
  -3  -5  -3   32.30    1.60
   3  -5   3   31.20    1.50
   3  -5   3   32.10    1.70
  -3  -5  -3   30.90    1.60
  -3   5  -3   30.70    1.60
   3   5   3   33.90    1.60
  -3   5  -3   30.80    1.50
   3   5   3   30.20    1.60
  -3   5  -3   31.80    1.70
  -4  -5  -3   16.20    1.20
  -4  -5  -3   14.10    1.20
  -4  -5  -3   17.30    1.30
   4  -5   3   18.90    1.40
   4  -5   3   15.70    1.10
   4   5   3   17.00    1.20
   4   5   3   15.80    0.60
  -4   5  -3   16.50    1.10
  -4   5  -3   16.50    1.30
  -4   5  -3   14.60    1.30
  -5  -5  -3   30.30    1.90
   5  -5   3   32.20    2.00
   5  -5   3   29.80    1.60
  -5   5  -3   34.70    1.70
   5   5   3   31.10    1.10
  -5   5  -3   33.50    1.90
  -5   5  -3   34.40    2.00
   5   5   3   33.80    1.90
   6  -5   3   -0.10    0.40
  -6  -5  -3   -0.10    0.50
  -6   5  -3    0.70    0.50
  -6   5  -3   -0.50    0.30
   6   5   3    0.40    0.20
  -6   5  -3    0.30    0.50
   7  -5   3    8.20    1.10
  -7  -5  -3    9.40    1.50
  -7   5  -3    5.60    0.90
   8  -6  -3    4.10    1.10
  -8  -6   3    2.50    1.00
  -8  -6   3    2.10    0.70
   8   6  -3    1.80    1.00
   8   6  -3    2.50    0.70
  -7  -6   3   10.70    1.10
  -7  -6   3   11.10    1.40
   7  -6  -3   11.50    1.40
   7   6  -3   10.60    1.10
  -7   6   3   12.90    1.50
  -7   6   3   11.20    1.40
   7   6  -3   10.80    1.40
   6  -6  -3    7.30    1.00
  -6  -6   3    7.90    1.10
  -6  -6   3    7.70    0.90
  -6  -6   3    8.40    1.20
  -6   6   3    6.90    1.00
  -6   6   3    7.60    1.10
   6   6  -3    7.50    0.90
  -5  -6   3   -0.20    0.30
  -5  -6   3    0.70    0.50
  -5  -6   3    0.40    0.40
   5  -6  -3    0.10    0.30
  -5   6   3   -0.10    0.40
   5   6  -3    0.20    0.30
  -5   6   3    0.30    0.30
  -5   6   3    0.20    0.40
   4  -6  -3   52.69    2.20
  -4  -6   3   49.10    2.10
  -4  -6   3   50.59    2.20
   4  -6  -3   47.90    1.90
  -4  -6   3   50.29    2.00
  -4   6   3   46.10    2.00
  -4   6   3   46.70    2.10
   4   6  -3   46.40    1.90
  -4   6   3   51.39    2.00
  -4   6   3   51.29    2.10
  -3  -6   3   89.79    3.00
  -3  -6   3   90.69    3.00
   3  -6  -3   88.49    3.00
  -3  -6   3   92.39    2.90
   3  -6  -3   95.49    2.70
  -3   6   3   93.29    2.90
   3   6  -3   87.29    2.80
  -3   6   3   90.39    2.90
  -3   6   3   94.19    2.90
   3   6  -3   89.99    2.40
  -2  -6   3    9.60    0.70
   2  -6  -3    9.30    0.60
   2  -6  -3    9.40    0.80
  -2  -6   3    8.90    0.80
  -2  -6   3   10.30    0.80
  -2  -6   3   10.20    0.80
   2   6  -3    8.10    0.60
   2   6  -3    8.80    0.70
  -2   6   3    9.70    0.80
  -2   6   3    8.90    0.80
  -2   6   3    8.80    0.80
  -2   6   3    9.40    0.70
   2   6  -3    9.30    0.80
  -1  -6   3  392.46    8.80
   1  -6  -3  376.16    9.00
  -1  -6   3  386.86    9.20
   1  -6  -3  386.96    9.10
   1  -6  -3  382.16    8.90
  -1  -6   3  376.16    9.30
  -1  -6   3  380.86    8.70
   1  -6  -3  388.16    8.70
   1   6  -3  387.96    8.70
  -1   6   3  385.06    8.70
   1   6  -3  392.26    9.40
   1   6  -3  375.66    8.70
  -1   6   3  368.56    8.90
  -1   6   3  384.26    8.60
   0  -6   3  160.68    4.20
   0  -6   3  158.28    4.40
   0  -6  -3  154.38    4.00
   0  -6   3  160.08    4.50
   0  -6  -3  158.48    4.40
   0  -6   3  163.28    4.20
   0  -6  -3  166.08    4.00
   0   6   3  165.28    4.40
   0   6  -3  157.88    4.30
   0   6  -3  163.98    4.20
   0   6   3  162.88    3.80
   0   6  -3  165.08    4.50
   0   6   3  162.88    3.90
   0   6   3  160.38    4.10
  -1  -6  -3   24.10    1.10
   1  -6   3   21.90    1.10
  -1  -6  -3   24.00    1.30
   1  -6   3   25.40    1.30
   1  -6   3   23.50    1.30
   1  -6   3   24.00    1.20
   1   6   3   24.10    0.80
   1   6   3   23.30    1.30
  -1   6  -3   24.90    1.30
  -1   6  -3   26.40    1.30
   1   6   3   23.50    1.10
   1   6   3   24.30    0.80
  -2  -6  -3  131.49    3.80
   2  -6   3  144.59    4.20
  -2  -6  -3  135.19    3.90
   2  -6   3  137.49    4.00
  -2  -6  -3  136.59    3.90
   2  -6   3  135.49    3.80
  -2   6  -3  139.89    4.10
  -2   6  -3  134.19    3.90
  -2   6  -3  136.79    4.10
   2   6   3  138.39    3.90
  -3  -6  -3    8.20    0.80
  -3  -6  -3    7.50    0.90
   3  -6   3    7.20    0.90
   3  -6   3    6.70    0.80
   3  -6   3    7.90    1.00
  -3  -6  -3    8.60    0.90
  -3   6  -3    6.10    0.90
  -3   6  -3    8.00    0.90
   3   6   3    8.40    0.90
  -3   6  -3    7.80    0.80
   3   6   3    7.10    0.80
  -4  -6  -3   15.90    1.20
   4  -6   3   17.80    1.20
   4  -6   3   15.70    1.30
  -4  -6  -3   18.90    1.30
  -4  -6  -3   15.20    1.20
  -4   6  -3   17.60    1.30
  -4   6  -3   16.90    1.20
  -4   6  -3   17.40    1.30
   4   6   3   20.40    1.30
  -5  -6  -3    0.70    0.50
   5  -6   3   -0.40    0.40
  -5  -6  -3    0.20    0.50
   5  -6   3    0.20    0.40
  -5   6  -3   -0.10    0.30
  -5   6  -3   -0.10    0.40
   5   6   3    0.80    0.50
   5   6   3    0.10    0.20
  -5   6  -3   -0.70    0.30
  -6  -6  -3    1.60    0.70
   6  -6   3    0.30    0.50
  -6   6  -3    0.90    0.50
   6   6   3    0.90    0.20
  -6   6  -3    1.80    0.70
  -6   6  -3    1.00    0.40
  -7  -6  -3    2.80    1.10
   7  -6   3    2.20    0.80
  -8  -7   3    5.10    0.90
   8  -7  -3    6.90    1.30
  -8  -7   3    5.20    1.20
   8   7  -3    5.80    1.00
   8   7  -3    7.70    1.50
   7  -7  -3   11.10    1.40
  -7  -7   3   11.30    1.50
  -7  -7   3   12.70    1.00
  -7   7   3   12.60    1.40
   7   7  -3   10.30    1.50
  -7   7   3   12.30    1.50
   7   7  -3   12.80    1.20
  -6  -7   3   -0.10    0.30
  -6  -7   3    0.40    0.50
  -6  -7   3    0.20    0.60
   6  -7  -3   -0.20    0.40
   6   7  -3    0.70    0.50
  -6   7   3   -0.20    0.40
  -6   7   3    0.80    0.60
  -5  -7   3   33.10    1.80
  -5  -7   3   34.10    1.90
  -5  -7   3   32.00    1.60
   5  -7  -3   29.60    1.60
  -5   7   3   32.80    1.80
   5   7  -3   34.10    1.60
  -5   7   3   31.30    1.60
  -5   7   3   35.40    1.90
  -4  -7   3    0.70    0.40
  -4  -7   3    0.00    0.30
   4  -7  -3   -0.60    0.30
  -4  -7   3    0.40    0.30
   4  -7  -3    0.70    0.40
  -4   7   3    0.30    0.30
  -4   7   3   -0.20    0.30
  -4   7   3    0.60    0.30
  -4   7   3    0.10    0.30
   4   7  -3    0.30    0.30
  -3  -7   3   12.30    1.00
  -3  -7   3   12.00    0.90
  -3  -7   3   13.10    1.00
   3  -7  -3   12.40    1.00
   3  -7  -3   11.30    0.80
  -3   7   3   14.10    1.00
  -3   7   3   11.90    0.90
   3   7  -3   10.80    0.80
  -3   7   3   11.90    1.00
   3   7  -3   12.20    0.70
   2  -7  -3   56.19    1.70
  -2  -7   3   50.39    1.90
  -2  -7   3   48.90    2.00
  -2  -7   3   51.59    2.10
   2  -7  -3   54.69    2.00
   2   7  -3   53.49    1.80
   2   7  -3   53.49    1.90
  -2   7   3   52.19    1.90
  -2   7   3   50.69    1.80
  -2   7   3   49.60    2.00
   2   7  -3   51.89    2.10
   1  -7  -3   66.19    2.00
  -1  -7   3   68.39    2.20
  -1  -7   3   63.69    2.40
   1  -7  -3   65.39    2.20
  -1  -7   3   64.19    2.40
  -1  -7   3   72.09    2.20
   1   7  -3   67.29    2.20
  -1   7   3   65.99    2.10
  -1   7   3   66.79    2.40
   1   7  -3   70.79    2.30
   1   7  -3   66.19    2.40
  -1   7   3   67.09    2.10
   0  -7  -3  179.78    4.40
   0  -7   3  180.68    4.60
   0  -7   3  176.78    4.90
   0  -7  -3  172.18    4.40
   0  -7   3  184.28    5.00
   0  -7   3  181.28    4.60
   0  -7  -3  172.48    4.80
   0  -7  -3  175.48    4.40
   0   7   3  179.38    4.50
   0   7  -3  175.28    4.60
   0   7  -3  183.38    4.80
   0   7   3  185.58    4.20
   0   7   3  176.78    4.80
   0   7  -3  175.08    5.00
   0   7   3  184.58    4.30
   1  -7   3    6.70    0.80
   1  -7   3    5.60    0.70
  -1  -7  -3    7.20    0.80
   1  -7   3    5.90    0.70
  -1  -7  -3    5.90    0.60
   1  -7   3    5.50    0.80
   1   7   3    6.60    0.70
   1   7   3    6.10    0.40
  -1   7  -3    7.10    0.80
   1   7   3    6.50    0.40
   1   7   3    4.80    0.70
  -1   7  -3    6.60    0.80
   2  -7   3    1.90    0.50
   2  -7   3    0.90    0.40
  -2  -7  -3    1.10    0.40
  -2  -7  -3    1.20    0.40
  -2  -7  -3    1.60    0.40
   2  -7   3    0.90    0.40
   2   7   3    1.50    0.40
   2   7   3    1.20    0.40
  -2   7  -3    0.90    0.50
   2   7   3    1.30    0.20
  -2   7  -3    1.50    0.40
  -2   7  -3    1.20    0.40
   2   7   3    1.50    0.20
   3  -7   3   14.80    1.20
  -3  -7  -3   16.10    1.10
  -3  -7  -3   12.90    1.10
  -3  -7  -3   13.70    1.10
   3  -7   3   13.30    1.20
   3  -7   3   14.80    1.10
   3   7   3   12.80    1.00
  -3   7  -3   14.70    1.10
   3   7   3   14.70    1.00
  -3   7  -3   12.20    1.20
   3   7   3   14.70    1.10
  -3   7  -3   16.20    1.20
   4  -7   3    0.50    0.40
  -4  -7  -3    0.30    0.40
  -4  -7  -3    0.30    0.40
   4  -7   3    0.30    0.40
  -4  -7  -3    0.20    0.40
   4  -7   3    0.50    0.50
   4   7   3    0.10    0.40
  -4   7  -3    0.70    0.50
   4   7   3    1.00    0.50
  -4   7  -3    0.20    0.40
  -4   7  -3   -0.10    0.40
   4   7   3    0.40    0.50
  -5  -7  -3   15.90    1.50
   5  -7   3   14.00    1.20
   5  -7   3   14.40    1.50
  -5  -7  -3   14.40    1.40
  -5   7  -3   14.00    1.20
   5   7   3   14.00    1.40
  -5   7  -3   13.90    1.40
  -5   7  -3   14.60    1.40
   6  -7   3    5.70    1.00
  -6  -7  -3    4.50    1.00
  -6  -7  -3    4.50    1.10
  -6   7  -3    4.70    0.90
  -6   7  -3    5.30    1.00
   6   7   3    4.60    0.40
  -6   7  -3    4.10    0.70
  -7  -7  -3   22.10    2.10
   7  -7   3   20.80    1.60
  -8  -8   3    0.90    0.90
   8   8  -3    2.40    1.00
   8   8  -3    1.30    0.70
  -7  -8   3    1.10    0.70
  -7  -8   3    0.00    0.40
   7  -8  -3   -0.60    0.40
   7   8  -3    0.40    0.50
  -7   8   3    0.50    0.50
  -6  -8   3    7.00    0.90
   6  -8  -3    7.20    1.00
  -6  -8   3    6.10    1.10
  -6  -8   3    5.80    1.00
  -6   8   3    5.90    1.00
   6   8  -3    4.60    0.80
  -5  -8   3    0.30    0.50
   5  -8  -3    0.90    0.50
  -5  -8   3    0.10    0.40
  -5  -8   3    1.10    0.60
  -5   8   3    0.10    0.40
   5   8  -3   -0.30    0.30
  -5   8   3    0.40    0.50
  -4  -8   3  159.88    4.60
   4  -8  -3  165.68    4.60
  -4  -8   3  166.48    5.00
   4  -8  -3  157.38    4.90
  -4  -8   3  156.98    4.60
  -4   8   3  162.48    4.60
  -4   8   3  158.88    4.60
   4   8  -3  160.58    4.50
  -3  -8   3   74.19    2.70
   3  -8  -3   75.49    2.80
   3  -8  -3   77.29    2.50
  -3  -8   3   74.29    2.80
  -3  -8   3   74.39    2.50
  -3   8   3   73.69    2.60
  -3   8   3   72.99    2.50
   3   8  -3   75.49    2.20
   3   8  -3   73.29    2.50
  -3   8   3   76.49    2.70
  -2  -8   3   44.70    2.00
   2  -8  -3   44.30    1.60
  -2  -8   3   40.90    1.80
  -2  -8   3   45.60    1.70
   2  -8  -3   42.80    1.80
  -2   8   3   44.10    1.70
   2   8  -3   42.70    1.70
   2   8  -3   43.30    1.60
  -2   8   3   41.10    1.90
  -2   8   3   46.50    1.70
   1  -8  -3   52.09    1.90
  -1  -8   3   54.69    2.20
  -1  -8   3   55.19    1.90
  -1  -8   3   56.99    2.20
   1  -8  -3   56.79    1.80
  -1   8   3   57.39    1.80
   1   8  -3   52.69    2.10
  -1   8   3   53.09    2.10
   1   8  -3   53.69    2.00
   1   8  -3   55.89    2.00
  -1   8   3   53.19    1.90
   0  -8   3   16.10    1.00
   0  -8   3   15.10    1.10
   0  -8  -3   15.30    0.80
   0  -8   3   14.80    1.10
   0  -8  -3   17.50    0.80
   0  -8   3   16.70    0.90
   0  -8  -3   16.00    0.90
   0   8   3   16.30    0.80
   0   8  -3   17.10    1.00
   0   8  -3   14.40    1.00
   0   8   3   15.60    1.10
   0   8   3   15.40    0.90
   0   8  -3   16.40    1.10
  -1  -8  -3   26.80    1.30
   1  -8   3   31.40    1.50
   1  -8   3   31.60    1.40
   1  -8   3   29.40    1.50
   1  -8   3   30.80    1.60
  -1  -8  -3   25.40    1.50
  -1   8  -3   31.30    1.60
  -1   8  -3   29.70    1.50
   1   8   3   27.70    1.20
   1   8   3   27.50    1.50
   1   8   3   27.80    1.00
   1   8   3   26.70    1.00
   2  -8   3  201.38    5.40
  -2  -8  -3  205.88    5.50
   2  -8   3  214.48    5.50
  -2  -8  -3  189.78    5.50
   2  -8   3  218.08    5.90
  -2  -8  -3  207.78    5.30
   2   8   3  205.88    4.50
  -2   8  -3  196.48    5.70
  -2   8  -3  204.48    5.80
   2   8   3  207.98    5.30
   2   8   3  202.28    5.50
   2   8   3  204.58    4.50
  -2   8  -3  196.38    5.40
   3  -8   3  128.09    4.30
   3  -8   3  131.89    4.10
   3  -8   3  125.99    3.90
  -3  -8  -3  131.19    3.90
  -3  -8  -3  129.59    4.00
  -3  -8  -3  126.19    4.00
   3   8   3  134.99    3.90
   3   8   3  134.09    4.00
  -3   8  -3  130.29    4.20
  -3   8  -3  127.99    4.20
  -3   8  -3  135.09    4.10
   4  -8   3   33.40    2.00
   4  -8   3   30.30    1.80
  -4  -8  -3   31.80    1.70
  -4  -8  -3   31.20    1.80
   4  -8   3   27.50    1.60
  -4  -8  -3   31.90    1.80
  -4   8  -3   33.20    1.80
  -4   8  -3   33.30    1.90
   4   8   3   31.90    1.80
   4   8   3   31.90    1.80
  -4   8  -3   29.40    1.90
   4   8   3   33.40    1.70
  -5  -8  -3    0.80    0.60
  -5  -8  -3    1.50    0.60
   5  -8   3    0.30    0.50
   5   8   3    0.90    0.60
  -5   8  -3    0.70    0.50
  -5   8  -3    0.90    0.60
   5   8   3    1.30    0.60
  -5   8  -3    0.80    0.50
  -6  -8  -3    9.10    1.40
   6  -8   3    5.60    1.00
  -6  -8  -3    7.20    1.20
  -6   8  -3    7.90    1.20
  -7  -9   3    1.40    0.60
   7   9  -3    0.60    0.60
  -7   9   3    0.20    0.50
  -6  -9   3    0.00    0.50
  -6  -9   3    0.00    0.30
   6  -9  -3    0.50    0.50
  -6  -9   3    0.10    0.50
  -6   9   3   -0.10    0.50
   6   9  -3   -0.20    0.40
  -5  -9   3  192.08    5.50
  -5  -9   3  190.08    5.60
   5  -9  -3  191.98    5.70
  -5  -9   3  194.28    6.10
  -5   9   3  208.38    5.70
  -5   9   3  205.88    5.60
   5   9  -3  194.18    5.40
  -4  -9   3  121.09    3.80
   4  -9  -3  129.09    4.20
  -4  -9   3  121.49    4.20
  -4  -9   3  122.19    3.90
   4  -9  -3  130.69    3.90
   4   9  -3  122.99    3.80
  -4   9   3  125.19    3.80
  -4   9   3  124.49    4.00
  -3  -9   3    1.70    0.50
  -3  -9   3    2.10    0.60
   3  -9  -3    2.80    0.60
  -3  -9   3    2.20    0.60
   3  -9  -3    2.20    0.50
   3   9  -3    1.70    0.50
  -3   9   3    2.30    0.60
  -3   9   3    2.50    0.50
  -3   9   3    1.60    0.50
   2  -9  -3    7.10    0.80
  -2  -9   3    5.40    0.80
  -2  -9   3    7.80    0.70
   2  -9  -3    6.70    0.70
  -2  -9   3    6.50    0.90
  -2   9   3    6.80    0.80
   2   9  -3    7.10    0.70
   2   9  -3    7.70    0.80
  -2   9   3    6.30    0.90
  -2   9   3    7.40    0.70
  -1  -9   3    0.70    0.40
  -1  -9   3    0.70    0.40
   1  -9  -3    0.80    0.30
  -1  -9   3    1.40    0.40
   1  -9  -3    1.40    0.40
  -1   9   3    1.00    0.30
   1   9  -3    0.70    0.40
  -1   9   3    1.20    0.40
  -1   9   3    1.30    0.50
   1   9  -3    1.70    0.50
   1   9  -3    0.70    0.40
   0  -9   3    0.50    0.40
   0  -9   3   -0.10    0.30
   0  -9  -3    0.30    0.30
   0  -9   3    0.40    0.30
   0  -9  -3   -0.10    0.20
   0   9   3    0.60    0.30
   0   9   3    0.40    0.30
   0   9  -3    0.10    0.30
   0   9   3    0.30    0.30
   0   9  -3    0.00    0.30
   0   9  -3    0.00    0.30
   1  -9   3   -0.20    0.20
  -1  -9  -3   -0.10    0.10
   1  -9   3    0.00    0.30
   1  -9   3   -0.30    0.30
   1  -9   3   -0.20    0.30
  -1  -9  -3    0.30    0.30
  -1  -9  -3    0.50    0.20
  -1   9  -3   -0.20    0.30
   1   9   3    0.80    0.30
   1   9   3    0.00    0.20
  -1   9  -3    0.10    0.30
   1   9   3    0.10    0.30
  -2  -9  -3   -0.10    0.40
   2  -9   3    0.80    0.50
   2  -9   3    0.30    0.40
  -2  -9  -3    0.30    0.30
   2  -9   3    0.20    0.30
   2   9   3   -0.20    0.30
  -2   9  -3    0.20    0.40
   2   9   3   -0.10    0.30
  -2   9  -3   -0.50    0.30
   2   9   3   -0.10    0.20
  -2   9  -3   -0.50    0.30
   3  -9   3  259.27    7.50
   3  -9   3  270.37    6.90
  -3  -9  -3  265.87    7.20
   3  -9   3  265.67    7.00
  -3  -9  -3  272.27    7.00
  -3   9  -3  261.97    7.40
   3   9   3  260.77    6.80
  -3   9  -3  266.47    7.30
   3   9   3  266.77    5.70
   3   9   3  275.37    7.00
  -3   9  -3  273.27    7.00
  -4  -9  -3   11.40    1.20
  -4  -9  -3   10.70    1.10
   4  -9   3   10.70    1.30
   4  -9   3   11.40    1.20
   4  -9   3   14.40    1.40
  -4   9  -3   14.80    1.30
  -4   9  -3   12.90    1.40
   4   9   3   14.30    1.30
  -4   9  -3   14.00    1.30
   4   9   3   12.50    1.20
   4   9   3   14.30    1.20
  -5  -9  -3    1.60    0.70
   5  -9   3    1.10    0.60
   5  -9   3    1.30    0.70
  -5   9  -3    1.70    0.70
   5   9   3    1.30    0.60
  -5   9  -3    1.80    0.60
  -5   9  -3    1.20    0.50
  -6  -9  -3    4.00    1.10
   6  -9   3    6.90    1.30
   6  -9   3    4.90    1.00
  -6   9  -3    4.50    1.10
  -7 -10   3    1.30    0.60
   7  10  -3    1.30    0.70
  -6 -10   3   12.00    1.00
   6  10  -3   12.40    1.20
  -6  10   3   13.90    1.40
  -5 -10   3    2.60    0.60
   5 -10  -3    3.20    0.70
  -5 -10   3    3.20    0.80
  -5  10   3    2.80    0.70
   5  10  -3    1.60    0.60
  -5  10   3    3.50    0.80
   4 -10  -3  123.49    4.10
  -4 -10   3  132.79    4.60
   4 -10  -3  142.29    4.60
  -4 -10   3  136.89    4.20
  -4  10   3  141.99    4.10
  -4  10   3  142.69    4.40
   4  10  -3  134.29    4.10
  -3 -10   3   12.20    1.00
   3 -10  -3   13.90    1.00
   3 -10  -3   13.20    1.10
  -3 -10   3   14.60    1.30
  -3  10   3   13.70    1.10
  -3  10   3   10.70    1.20
   3  10  -3   12.60    1.00
   2 -10  -3   91.59    2.90
  -2 -10   3   93.79    3.30
   2 -10  -3   87.09    3.00
   2  10  -3   90.09    2.80
  -2  10   3   89.49    3.20
  -2  10   3   86.49    2.90
   2  10  -3   88.59    2.90
   1 -10  -3   33.20    1.50
  -1 -10   3   34.90    1.80
  -1 -10   3   31.20    1.60
   1 -10  -3   33.10    1.50
   1  10  -3   33.40    1.60
   1  10  -3   31.50    1.50
  -1  10   3   33.30    1.50
  -1  10   3   33.00    1.80
   0 -10  -3   99.89    2.90
   0 -10  -3  104.99    3.10
   0 -10   3   97.59    3.40
   0 -10   3   98.39    3.50
   0  10  -3  100.79    3.30
   0  10  -3   89.29    3.10
   0  10  -3  107.59    3.50
   0  10   3  103.19    2.90
   0  10   3   99.19    3.40
   1 -10   3    0.20    0.40
  -1 -10  -3    0.10    0.20
  -1 -10  -3    0.00    0.20
  -1 -10  -3    0.50    0.40
   1 -10   3   -0.20    0.30
   1 -10   3    0.30    0.30
  -1  10  -3    0.30    0.40
   1  10   3    0.10    0.20
  -1  10  -3    0.00    0.40
   1  10   3    0.10    0.40
  -2 -10  -3  134.29    4.00
   2 -10   3  113.69    3.70
   2 -10   3  120.29    4.20
  -2  10  -3  134.19    4.30
  -2  10  -3  124.29    4.10
   2  10   3  129.49    4.00
   2  10   3  124.29    3.10
   3 -10   3   50.99    2.20
  -3 -10  -3   52.49    2.30
   3 -10   3   46.50    2.20
   3 -10   3   49.30    2.50
  -3  10  -3   48.40    2.40
  -3  10  -3   51.59    2.50
   3  10   3   50.99    1.40
   3  10   3   53.39    2.30
  -3  10  -3   52.39    2.20
   4 -10   3   15.10    1.50
   4 -10   3   17.90    1.40
   4 -10   3   17.50    1.40
  -4 -10  -3   15.30    1.40
   4  10   3   19.30    1.40
  -4  10  -3   15.40    1.60
  -4  10  -3   19.10    1.50
  -4  10  -3   16.40    1.30
   5 -10   3    4.40    0.90
  -5 -10  -3    3.20    0.90
   5 -10   3    4.60    1.00
  -5  10  -3    5.10    0.90
  -5  10  -3    4.30    0.80
  -5  10  -3    3.10    0.90
  -6 -10  -3    1.00    0.80
  -6  10  -3    1.10    0.80
  -7 -11   3    7.30    1.00
   7  11  -3    6.60    1.10
  -6 -11   3    0.90    0.50
   6  11  -3    0.70    0.50
  -5 -11   3    0.20    0.50
  -5 -11   3    0.80    0.40
   5  11  -3    0.20    0.50
  -5  11   3    1.40    0.70
   4 -11  -3    2.80    0.70
  -4 -11   3    2.10    0.70
   4  11  -3    1.70    0.50
  -4  11   3    3.10    0.80
   3 -11  -3  145.79    4.60
  -3 -11   3  143.99    4.80
  -3 -11   3  147.69    4.50
  -3  11   3  150.48    4.40
   3  11  -3  147.39    4.30
  -3  11   3  145.89    4.60
   2 -11  -3  114.59    3.70
  -2 -11   3  109.79    3.70
  -2 -11   3  115.69    4.00
   2  11  -3  113.09    3.40
  -2  11   3  114.79    3.80
  -2  11   3  108.59    3.50
   2  11  -3  115.29    3.60
  -1 -11   3   16.20    1.20
  -1 -11   3   12.50    1.20
   1 -11  -3   16.30    1.00
   1 -11  -3   11.20    0.90
   1  11  -3   13.20    1.10
  -1  11   3   16.20    1.30
  -1  11   3   14.70    1.00
   1  11  -3   14.60    1.10
   0 -11   3    5.60    0.90
   0 -11  -3    5.60    0.60
   0 -11  -3    7.20    0.80
   0 -11   3    6.70    0.90
   0  11  -3    6.40    0.90
   0  11   3    6.50    0.90
   0  11  -3    4.70    0.70
   0  11   3    7.00    0.70
   1 -11   3  354.66    9.40
  -1 -11  -3  359.26    8.20
   1 -11   3  353.86    9.30
  -1 -11  -3  363.86    8.90
   1  11   3  349.37    8.10
  -1  11  -3  351.76    9.00
  -1  11  -3  370.36    9.50
   1  11   3  362.96    9.00
   2 -11   3    2.10    0.70
  -2 -11  -3    1.90    0.60
  -2  11  -3    2.80    0.70
  -2  11  -3    3.00    0.80
   2  11   3    2.80    0.40
   2  11   3    1.30    0.60
  -3 -11  -3   -0.20    0.40
   3 -11   3   -0.30    0.30
  -3  11  -3   -0.70    0.50
   3  11   3    0.00    0.20
  -3  11  -3    0.10    0.50
   3  11   3    0.10    0.40
   4 -11   3    1.60    0.60
  -4 -11  -3    1.20    0.60
   4  11   3    1.80    0.20
  -4  11  -3    2.60    0.70
  -4  11  -3   -0.30    0.50
  -5 -11  -3    1.60    0.80
  -5  11  -3    0.60    0.70
  -6  11  -3   18.70    1.90
  -6 -12   3   13.10    1.20
   6  12  -3   15.00    1.40
  -5 -12   3   11.20    1.10
   5  12  -3   11.20    1.10
  -5  12   3    9.20    1.30
   4 -12  -3    3.00    0.80
  -4 -12   3    3.00    0.80
  -4  12   3    2.00    0.80
   4  12  -3    2.30    0.60
  -3 -12   3   15.40    1.20
   3 -12  -3   15.70    1.30
  -3 -12   3   13.20    1.40
  -3  12   3   13.00    1.20
  -3  12   3   13.20    1.40
   3  12  -3   13.90    1.20
  -2 -12   3  118.69    3.90
   2 -12  -3  114.99    3.80
  -2 -12   3  109.39    4.10
  -2  12   3  120.29    3.70
  -2  12   3  117.79    4.00
   2  12  -3  121.39    3.60
   2  12  -3  111.19    3.60
  -1 -12   3   12.60    1.20
   1 -12  -3    8.80    0.90
  -1 -12   3   10.60    1.20
   1  12  -3   10.70    1.00
  -1  12   3   12.30    1.00
  -1  12   3   11.00    1.20
   1  12  -3   10.00    1.00
   0 -12  -3   45.00    1.70
   0 -12   3   50.29    2.30
   0 -12   3   46.30    2.30
   0  12   3   46.10    1.80
   0  12   3   46.70    2.20
   0  12  -3   44.80    2.10
  -1 -12  -3   48.00    1.50
   1 -12   3   48.50    2.40
   1  12   3   51.49    2.30
   1  12   3   42.50    1.70
  -1  12  -3   46.90    2.30
  -2 -12  -3   25.60    1.60
   2 -12   3   25.90    1.70
  -2  12  -3   24.90    1.70
   2  12   3   26.80    1.10
   2  12   3   28.30    1.70
  -2  12  -3   23.60    1.70
  -3 -12  -3   25.80    1.70
   3 -12   3   29.00    1.90
   3  12   3   26.70    1.10
  -3  12  -3   24.10    1.90
   3  12   3   29.10    1.70
  -3  12  -3   29.00    1.90
  -4 -12  -3    7.60    1.10
  -4  12  -3    7.80    1.30
  -4  12  -3    8.40    1.20
   4  12   3    8.10    0.50
  -5  12  -3   24.90    2.20
  -6 -13   3    5.30    0.90
   6  13  -3    4.00    0.90
  -5 -13   3   16.40    1.20
   5  13  -3   20.10    1.40
  -5  13   3   18.10    1.70
  -4 -13   3   -0.10    0.40
   4 -13  -3    1.20    0.50
  -4 -13   3    0.20    0.40
   4  13  -3    0.60    0.50
  -4  13   3   -0.50    0.50
  -3 -13   3   75.09    3.00
  -3 -13   3   78.39    3.30
   3 -13  -3   75.29    3.10
  -3  13   3   78.09    3.30
  -3  13   3   72.99    2.90
   3  13  -3   75.49    2.90
   2 -13  -3    8.10    1.00
  -2 -13   3    8.00    1.20
  -2 -13   3    8.20    1.00
  -2  13   3    7.20    1.10
   2  13  -3    8.30    1.00
   2  13  -3    7.80    0.90
  -2  13   3    6.40    0.90
   1 -13  -3    3.20    0.60
  -1 -13   3    2.80    0.70
  -1 -13   3    3.10    0.70
  -1  13   3    2.30    0.70
  -1  13   3    2.70    0.60
   1  13  -3    3.10    0.70
   1  13  -3    3.80    0.70
   0 -13   3   28.30    1.70
   0 -13  -3   24.60    1.30
   0 -13   3   27.00    1.80
   0  13  -3   27.40    1.60
   0  13   3   28.60    1.80
   0  13   3   26.70    1.40
  -1 -13  -3   24.60    1.00
   1 -13   3   21.10    1.60
   1  13   3   24.70    1.60
  -1  13  -3   24.00    1.60
   1  13   3   23.50    1.20
   2 -13   3    3.80    0.90
   2  13   3    4.60    0.90
   2  13   3    3.80    0.50
  -2  13  -3    3.90    0.80
   3 -13   3    6.10    1.10
   3  13   3    7.90    0.60
  -3  13  -3   10.60    1.40
   3  13   3   10.00    1.20
  -4  13  -3    0.60    0.70
  -4  13  -3    0.40    0.50
  -5  13  -3   14.70    1.80
   6  14  -3    1.00    0.70
  -5 -14   3   22.70    1.40
  -5  14   3   21.60    1.90
   5  14  -3   19.00    1.50
   4 -14  -3    0.30    0.40
  -4 -14   3   -0.30    0.30
  -4  14   3    0.20    0.70
   4  14  -3    0.00    0.40
  -3 -14   3    9.90    1.30
  -3 -14   3   10.70    1.20
   3 -14  -3   10.60    1.20
  -3  14   3    8.70    1.30
  -3  14   3    9.20    1.10
   3  14  -3   11.30    1.20
   2 -14  -3    3.40    0.70
  -2 -14   3    2.80    0.70
  -2 -14   3    2.70    0.70
   2  14  -3    3.70    0.70
   2  14  -3    2.10    0.60
  -2  14   3    3.10    0.90
  -2  14   3    2.20    0.60
  -1 -14   3    0.50    0.40
   1 -14  -3    0.40    0.30
  -1 -14   3    0.70    0.50
  -1  14   3    0.30    0.40
   1  14  -3    0.90    0.50
   1  14  -3    1.10    0.50
  -1  14   3    1.00    0.60
   0 -14   3    3.10    0.80
   0 -14  -3    2.50    0.50
   0 -14   3    1.00    0.50
   0  14   3    1.60    0.50
   0  14  -3    2.10    0.60
   0  14   3    2.70    0.80
  -1 -14  -3   20.50    0.90
   1 -14   3   20.20    1.60
   1  14   3   17.00    1.10
   1  14   3   20.50    1.60
  -1  14  -3   20.80    1.50
   2 -14   3    0.60    0.50
   2  14   3    0.80    0.60
   2  14   3    0.70    0.30
  -2  14  -3    0.60    0.50
   3  14   3    0.60    0.50
   3  14   3    0.20    0.30
  -3  14  -3    0.00    0.70
  -4  14  -3   24.90    2.20
  -6  15   3    4.50    1.20
  -5  15   3   -0.80    0.60
   5  15  -3    0.50    0.60
   4 -15  -3   12.50    1.40
  -4 -15   3   11.70    1.20
   4  15  -3   12.70    1.30
  -4  15   3   13.00    1.60
   3 -15  -3   12.70    1.30
  -3 -15   3   10.90    1.20
   3  15  -3   11.50    1.20
  -3  15   3   11.80    1.50
  -3  15   3    9.90    1.20
   2 -15  -3    0.20    0.40
  -2 -15   3    0.10    0.40
  -2 -15   3    0.10    0.40
  -2  15   3    0.20    0.40
  -2  15   3    0.70    0.70
   2  15  -3    0.50    0.50
  -1 -15   3    0.60    0.50
   1 -15  -3   -0.30    0.20
  -1 -15   3    0.30    0.40
   1  15  -3    0.20    0.40
  -1  15   3   -0.10    0.40
  -1  15   3    0.20    0.40
   0 -15   3    2.70    0.80
   0 -15   3    3.70    0.80
   0 -15  -3    2.30    0.60
   0  15   3    2.70    0.70
   0  15   3    2.90    0.60
   0  15  -3    2.10    0.60
  -1 -15  -3    5.00    0.50
   1 -15   3    3.50    0.90
   1  15   3    5.40    0.80
   1  15   3    5.00    0.90
  -1  15  -3    4.30    0.90
   2  15   3    0.40    0.50
   2  15   3    0.00    0.20
  -2  15  -3   -0.30    0.30
   3  15   3   33.30    1.40
  -3  15  -3   28.00    2.10
  -4  15  -3   11.20    1.60
   5  16  -3   94.89    3.70
  -5  16   3   98.59    4.20
   4  16  -3    0.20    0.60
  -4  16   3    0.50    0.80
  -3 -16   3    1.20    0.50
   3  16  -3    0.60    0.50
  -3  16   3    1.30    0.70
  -3  16   3    0.50    0.80
   2 -16  -3   11.50    1.20
  -2 -16   3    9.60    1.20
  -2  16   3    8.80    1.40
  -2  16   3   12.30    1.30
   2  16  -3    9.70    1.20
  -1 -16   3    0.10    0.40
   1 -16  -3    0.00    0.30
  -1  16   3    0.50    0.50
   1  16  -3   -0.30    0.40
  -1  16   3    0.10    0.50
   0 -16   3   17.90    1.50
   0 -16  -3   14.40    1.10
   0  16   3   14.30    1.20
   0  16  -3   13.70    1.40
  -1 -16  -3    8.00    0.70
  -1  16  -3    8.70    1.20
   1  16   3    7.50    0.90
   1  16   3    7.00    1.10
  -2  16  -3    9.10    1.30
   2  16   3   10.60    0.80
   3  16   3   96.89    2.90
   4  17  -3    7.50    1.20
  -4  17   3    9.60    1.50
   3  17  -3    3.80    0.90
  -3  17   3    2.30    0.90
  -2  17   3    2.20    0.70
   2  17  -3    2.40    0.80
  -2  17   3    2.10    0.90
  -1 -17   3    5.80    1.00
   1 -17  -3    4.90    0.80
   1  17  -3    3.50    0.80
  -1  17   3    5.80    1.00
  -1  17   3    5.50    1.00
   0 -17   3   27.50    1.90
   0 -17  -3   26.60    1.50
   0  17   3   29.10    1.70
   0  17   3   28.40    2.00
  -1 -17  -3    2.90    0.50
   1  17   3    1.90    0.60
   3  18  -3    2.20    0.80
  -2  18   3   29.50    2.00
  -1  18   3   14.10    1.40
   0 -18  -3    0.40    0.50
   0  18   3    0.20    0.50
  -1 -18  -3   21.70    1.00
  -2  19   3    4.40    1.00
  -1  19   3    3.70    0.90
  -1 -19  -3   14.90    0.80
  -8   0   4   49.80    3.00
   8   0  -4   53.29    2.80
   7   0  -4   16.90    1.50
  -7   0   4   16.10    1.40
   7   0  -4   15.60    1.40
  -7   0   4   15.20    1.70
  -6   0   4   18.20    1.40
   6   0  -4   17.10    1.30
   6   0  -4   19.30    1.30
  -6   0   4   19.70    1.60
   5   0  -4    9.80    1.00
  -5   0   4    8.20    1.10
  -5   0   4    9.20    1.00
   5   0  -4    9.80    0.90
  -5   0   4    9.30    0.90
   4   0  -4    4.70    0.60
  -4   0   4    3.60    0.60
  -4   0   4    4.00    0.70
   4   0  -4    3.20    0.60
   4   0  -4    3.90    0.60
  -4   0   4    3.80    0.70
   3   0  -4   83.89    2.50
  -3   0   4   81.29    2.80
  -3   0   4   78.69    2.60
   3   0  -4   81.39    2.30
   3   0  -4   80.09    2.80
  -3   0   4   78.79    2.70
  -3   0   4   81.09    2.30
   3   0  -4   82.29    2.30
   2   0  -4  677.73   14.90
  -2   0   4  689.93   15.50
  -2   0   4  719.93   15.10
  -2   0   4  699.53   15.10
  -2   0   4  668.93   15.90
   2   0  -4  678.33   16.00
   2   0  -4  697.13   14.90
   1   0  -4 1063.69   25.00
   1   0  -4 1073.59   23.70
   1   0  -4 1165.48   23.50
  -1   0   4 1137.29   24.20
  -1   0   4 1106.19   23.60
  -1   0   4 1157.88   25.10
   0   0   4  188.78    5.10
   0   0  -4  191.48    5.00
   0   0  -4  196.18    4.90
   0   0   4  206.88    4.50
   0   0   4  183.88    4.60
   0   0  -4  187.28    4.90
  -1   0  -4    3.60    0.60
  -1   0  -4    3.50    0.40
   1   0   4    3.20    0.60
   1   0   4    3.30    0.40
  -1   0  -4    3.50    0.40
   1   0   4    4.30    0.40
   2   0   4   47.50    1.70
  -2   0  -4   43.20    1.90
   2   0   4   47.70    2.00
  -2   0  -4   45.00    2.00
   2   0   4   44.60    1.50
  -2   0  -4   45.20    1.50
   3   0   4    0.70    0.40
   3   0   4    0.70    0.40
  -3   0  -4   -0.20    0.40
  -3   0  -4    0.00    0.20
  -3   0  -4    0.30    0.40
   3   0   4    0.00    0.20
   4   0   4   21.60    1.60
  -4   0  -4   18.60    1.40
  -4   0  -4   18.70    1.50
  -4   0  -4   20.10    0.80
   4   0   4   20.30    1.40
   4   0   4   19.60    1.00
  -5   0  -4   92.59    3.80
  -5   0  -4  100.29    3.50
   5   0   4   97.19    3.60
   5   0   4   99.09    3.90
   5   0   4   94.79    2.90
   6   0   4   92.69    3.00
  -6   0  -4   95.29    4.10
   6   0   4   89.99    3.90
  -8  -1   4   14.50    1.80
  -8   1   4   16.10    1.80
   8   1  -4   14.50    1.70
   8   1  -4   16.10    1.50
  -7  -1   4    0.00    0.60
   7  -1  -4    0.40    0.60
  -7  -1   4    0.30    0.40
  -7   1   4    0.30    0.50
  -7   1   4    0.50    0.50
   7   1  -4    0.50    0.50
   7   1  -4    0.00    0.50
   6  -1  -4    0.90    0.50
   6  -1  -4   -0.20    0.40
  -6  -1   4    0.80    0.50
  -6  -1   4    0.70    0.50
  -6  -1   4    0.30    0.50
  -6   1   4    0.20    0.40
   6   1  -4    0.70    0.40
   6   1  -4    0.70    0.50
  -6   1   4    0.50    0.50
   5  -1  -4    0.20    0.30
  -5  -1   4   -0.20    0.30
  -5  -1   4    0.30    0.40
   5  -1  -4    0.10    0.40
  -5  -1   4    0.30    0.50
  -5   1   4    0.40    0.30
   5   1  -4   -0.50    0.30
  -5   1   4    0.60    0.40
  -4  -1   4    1.90    0.40
   4  -1  -4    1.10    0.40
  -4  -1   4    1.90    0.60
   4  -1  -4    1.40    0.50
  -4  -1   4    1.70    0.50
   4  -1  -4    2.30    0.60
   4   1  -4    2.20    0.50
   4   1  -4    2.10    0.50
  -4   1   4    1.70    0.50
  -4   1   4    2.00    0.60
   4   1  -4    2.50    0.60
   3  -1  -4    7.80    0.70
   3  -1  -4    7.80    0.70
  -3  -1   4    7.50    0.80
   3  -1  -4    5.80    0.70
  -3  -1   4    6.40    0.70
  -3  -1   4    7.70    0.60
  -3  -1   4    5.70    0.80
   3  -1  -4    6.90    0.50
  -3   1   4    7.90    0.70
  -3   1   4    7.20    0.50
   3   1  -4    7.30    0.70
   3   1  -4    6.30    0.60
  -3   1   4    7.00    0.70
  -3   1   4    6.50    0.80
   3   1  -4    7.10    0.80
  -3   1   4    8.10    0.80
  -2  -1   4  184.88    5.10
  -2  -1   4  193.68    4.80
  -2  -1   4  188.78    5.10
   2  -1  -4  190.78    4.40
  -2  -1   4  197.38    4.60
   2  -1  -4  199.98    4.70
   2  -1  -4  188.38    4.80
   2  -1  -4  186.78    5.10
   2   1  -4  194.38    4.80
  -2   1   4  197.78    5.10
  -2   1   4  191.58    4.80
   2   1  -4  184.68    5.10
   2   1  -4  188.48    4.70
  -2   1   4  191.18    5.10
   1  -1  -4 1743.73   37.20
  -1  -1   4 1760.22   37.30
  -1  -1   4 1797.52   38.50
  -1  -1   4 1840.42   39.50
   1  -1  -4 1758.62   39.40
  -1  -1   4 1761.62   38.10
  -1   1   4 1874.81   39.40
  -1   1   4 1729.83   37.20
   1   1  -4 1744.33   37.20
  -1   1   4 1826.62   38.20
   1   1  -4 1891.41   37.20
   1   1  -4 1690.43   39.40
   0  -1   4   16.50    0.90
   0  -1   4   17.00    0.80
   0  -1   4   18.10    1.00
   0  -1  -4   18.60    0.90
   0  -1  -4   16.20    0.90
   0   1   4   17.80    0.90
   0   1   4   18.40    0.60
   0   1   4   16.90    1.10
   0   1   4   17.30    0.80
   1  -1   4   95.49    2.70
   1  -1   4   95.69    2.70
  -1  -1  -4   88.89    2.90
  -1  -1  -4   95.99    2.60
   1  -1   4   95.79    3.10
  -1  -1  -4  100.59    2.60
   1   1   4   92.19    2.60
   1   1   4  105.09    2.60
   1   1   4   90.09    3.00
   1   1   4   95.29    2.60
  -1   1  -4   88.79    3.00
  -1   1  -4   96.09    2.80
   2  -1   4    1.30    0.50
  -2  -1  -4    1.80    0.30
  -2  -1  -4    0.90    0.40
  -2  -1  -4    2.10    0.30
   2  -1   4    1.30    0.30
  -2  -1  -4    1.50    0.50
   2  -1   4    1.80    0.40
   2   1   4    1.20    0.40
  -2   1  -4    2.20    0.50
   2   1   4    1.20    0.40
  -2   1  -4    1.90    0.60
   2   1   4    1.70    0.30
  -2   1  -4    1.70    0.40
   3  -1   4   -0.10    0.30
  -3  -1  -4   -0.30    0.40
  -3  -1  -4    0.90    0.50
   3  -1   4   -0.70    0.30
  -3  -1  -4   -0.10    0.20
  -3  -1  -4    0.00    0.20
   3  -1   4    0.60    0.40
   3   1   4    0.30    0.40
  -3   1  -4    0.20    0.40
   3   1   4    0.20    0.30
  -3   1  -4   -0.40    0.20
  -3   1  -4    0.00    0.30
   3   1   4    0.10    0.20
  -4  -1  -4   14.90    1.30
   4  -1   4   17.00    1.30
   4  -1   4   15.30    1.00
  -4  -1  -4   15.00    1.40
   4  -1   4   16.60    1.50
   4   1   4   14.70    1.20
  -4   1  -4   14.60    1.40
  -4   1  -4   17.30    0.90
  -4   1  -4   15.90    1.30
   4   1   4   16.80    1.40
   4   1   4   16.90    0.90
   5  -1   4    4.60    1.10
   5  -1   4    4.90    0.90
   5  -1   4    5.70    0.70
  -5  -1  -4    5.50    1.10
  -5  -1  -4    4.90    0.90
   5   1   4    4.00    0.90
  -5   1  -4    5.40    1.10
  -5   1  -4    4.50    0.90
   5   1   4    6.80    1.00
   5   1   4    4.30    0.60
  -5   1  -4    5.00    0.50
   6  -1   4    0.80    0.80
   6  -1   4    0.30    0.40
  -6  -1  -4    0.30    0.70
   6   1   4    0.50    0.50
  -6   1  -4   -0.20    0.70
   6   1   4    1.00    0.30
  -8  -2   4    0.40    0.80
   8   2  -4    0.60    0.70
   8   2  -4    0.60    0.60
   7  -2  -4   14.10    1.40
  -7  -2   4   10.30    1.40
  -7  -2   4   14.20    1.50
  -7  -2   4   11.70    1.30
  -7   2   4   11.90    1.40
   7   2  -4   11.60    1.20
   7   2  -4   12.60    1.40
  -7   2   4   10.10    1.40
  -6  -2   4  121.79    4.10
  -6  -2   4  116.79    4.30
   6  -2  -4  112.69    3.90
  -6  -2   4  125.09    4.10
   6   2  -4  120.29    4.10
   6   2  -4  124.29    3.90
  -6   2   4  124.29    4.40
  -6   2   4  123.29    4.20
  -5  -2   4   14.60    1.20
  -5  -2   4   13.60    1.30
   5  -2  -4   13.10    1.00
  -5  -2   4   14.60    1.10
  -5   2   4   12.20    1.20
   5   2  -4   13.10    1.10
  -5   2   4   15.40    1.20
   5   2  -4   13.60    1.00
   4  -2  -4    0.90    0.40
  -4  -2   4    0.60    0.40
  -4  -2   4    0.40    0.30
   4  -2  -4    0.70    0.40
  -4  -2   4    0.40    0.40
   4  -2  -4    0.40    0.30
   4   2  -4    1.10    0.40
  -4   2   4    0.40    0.30
  -4   2   4    0.50    0.40
   4   2  -4    1.20    0.50
  -4   2   4    0.50    0.40
  -4   2   4    0.20    0.30
   3  -2  -4  104.59    3.10
  -3  -2   4  114.49    3.30
   3  -2  -4  108.69    3.50
   3  -2  -4  110.49    2.90
  -3  -2   4  108.89    3.40
  -3  -2   4  111.09    3.10
   3  -2  -4  112.49    3.10
  -3  -2   4  111.39    3.50
   3   2  -4  111.09    3.20
   3   2  -4  112.79    2.90
  -3   2   4  112.59    3.50
  -3   2   4  106.49    3.50
  -3   2   4  115.49    3.10
  -3   2   4  112.59    3.30
   2  -2  -4   12.50    0.90
  -2  -2   4   14.00    1.00
  -2  -2   4   15.60    0.80
  -2  -2   4   16.80    1.00
   2  -2  -4   13.00    0.90
  -2   2   4   13.20    0.90
  -2   2   4   12.40    1.00
  -2   2   4   13.90    0.90
   2   2  -4   12.60    0.90
   2   2  -4   14.40    0.80
   2   2  -4   13.70    0.90
   1  -2  -4    4.60    0.70
  -1  -2   4    4.00    0.50
   1  -2  -4    4.80    0.60
  -1  -2   4    5.20    0.40
  -1  -2   4    5.50    0.60
  -1  -2   4    4.30    0.60
   1   2  -4    3.80    0.60
   1   2  -4    4.90    0.50
  -1   2   4    5.80    0.60
   1   2  -4    5.40    0.60
  -1   2   4    5.10    0.70
  -1   2   4    5.50    0.60
   0  -2  -4    1.40    0.40
   0  -2   4    3.10    0.40
   0  -2   4    2.90    0.50
   0  -2   4    2.90    0.50
   0  -2  -4    2.30    0.40
   0  -2  -4    3.50    0.40
   0  -2   4    4.70    0.70
   0   2   4    2.40    0.50
   0   2  -4    2.60    0.50
   0   2  -4    2.40    0.50
   0   2   4    2.70    0.40
   0   2   4    2.60    0.20
   0   2   4    2.70    0.40
   1  -2   4   32.00    1.60
   1  -2   4   32.00    1.30
   1  -2   4   30.40    1.30
  -1  -2  -4   33.70    1.10
  -1  -2  -4   31.90    1.10
   1   2   4   32.10    1.10
   1   2   4   31.40    1.10
  -1   2  -4   29.10    1.30
  -1   2  -4   28.70    1.50
   1   2   4   32.50    1.50
   1   2   4   30.70    1.10
  -2  -2  -4   79.89    2.00
  -2  -2  -4   78.89    2.00
   2  -2   4   77.19    2.40
  -2  -2  -4   77.09    2.70
   2  -2   4   74.59    2.80
   2  -2   4   78.69    2.60
  -2  -2  -4   78.49    2.80
   2   2   4   77.09    2.40
  -2   2  -4   75.79    2.80
  -2   2  -4   74.99    2.50
   2   2   4   74.99    2.80
  -2   2  -4   77.99    2.80
   2   2   4   75.69    2.10
   3  -2   4   23.10    1.50
  -3  -2  -4   26.50    1.60
  -3  -2  -4   24.40    1.50
   3  -2   4   23.70    1.20
   3  -2   4   25.10    1.40
  -3   2  -4   23.10    1.50
  -3   2  -4   22.40    1.20
   3   2   4   24.20    1.30
  -3   2  -4   23.10    1.50
   3   2   4   26.60    1.00
   3   2   4   26.30    1.60
  -4  -2  -4  136.49    4.50
  -4  -2  -4  138.29    4.20
   4  -2   4  132.29    4.30
   4  -2   4  131.59    4.50
   4  -2   4  128.79    3.80
   4   2   4  138.39    4.30
   4   2   4  133.49    3.40
  -4   2  -4  131.89    3.80
   4   2   4  139.39    4.60
  -4   2  -4  136.49    4.30
  -4   2  -4  128.89    4.50
  -5  -2  -4   27.30    1.70
   5  -2   4   27.60    1.80
  -5  -2  -4   27.80    1.90
   5  -2   4   26.00    1.40
   5  -2   4   29.20    2.00
  -5   2  -4   25.70    1.30
  -5   2  -4   25.60    1.70
   5   2   4   25.00    1.80
   5   2   4   26.60    1.20
   5   2   4   27.20    1.70
  -5   2  -4   24.00    1.80
  -6  -2  -4   18.10    1.90
   6  -2   4   22.90    1.40
   6  -2   4   21.90    2.10
  -6   2  -4   20.40    1.70
   6   2   4   19.80    1.10
   6   2   4   23.50    1.80
  -6   2  -4   22.80    1.10
  -8  -3   4    6.10    1.30
   8   3  -4    7.10    1.30
   8   3  -4    5.70    1.00
  -8   3   4    7.80    1.20
  -7  -3   4  125.79    4.30
  -7  -3   4  127.79    4.50
  -7  -3   4  126.59    4.70
  -7   3   4  118.19    4.60
  -7   3   4  123.89    4.50
   7   3  -4  132.19    4.60
   7   3  -4  123.69    4.20
  -6  -3   4   19.40    1.40
  -6  -3   4   16.20    1.60
  -6  -3   4   18.00    1.40
   6  -3  -4   11.40    1.20
  -6   3   4   18.40    1.50
   6   3  -4   18.20    1.50
  -6   3   4   18.80    1.50
   6   3  -4   20.20    1.30
  -5  -3   4    4.80    0.80
  -5  -3   4    3.60    0.70
   5  -3  -4    4.50    0.70
  -5  -3   4    4.70    0.90
  -5   3   4    3.80    0.80
   5   3  -4    4.80    0.70
  -5   3   4    3.40    0.70
  -4  -3   4   87.59    3.00
  -4  -3   4   89.79    2.90
   4  -3  -4   89.29    3.10
  -4  -3   4   85.79    3.10
  -4   3   4   78.99    2.80
  -4   3   4   88.99    3.10
  -4   3   4   91.09    2.70
  -4   3   4   84.49    3.00
   4   3  -4   79.79    2.80
   3  -3  -4   20.80    1.30
  -3  -3   4   24.60    1.30
  -3  -3   4   26.00    1.30
   3  -3  -4   24.20    1.20
  -3  -3   4   23.40    1.20
  -3  -3   4   22.50    1.30
  -3   3   4   24.20    1.30
  -3   3   4   23.30    1.30
   3   3  -4   24.70    1.00
   3   3  -4   24.80    1.20
  -3   3   4   26.40    1.30
   3   3  -4   25.40    1.40
  -3   3   4   23.70    1.40
   2  -3  -4    0.60    0.30
  -2  -3   4    0.20    0.30
  -2  -3   4    0.50    0.40
   2  -3  -4    0.40    0.30
  -2  -3   4    0.40    0.30
  -2  -3   4    0.20    0.20
  -2   3   4    0.30    0.30
  -2   3   4    0.30    0.30
   2   3  -4    0.50    0.30
  -2   3   4    0.30    0.30
  -2   3   4    0.70    0.30
   2   3  -4    0.10    0.30
   2   3  -4    0.40    0.20
  -1  -3   4   60.49    2.20
  -1  -3   4   61.89    2.10
   1  -3  -4   58.39    2.00
  -1  -3   4   55.49    2.10
  -1  -3   4   61.69    1.90
   1  -3  -4   59.29    2.10
  -1   3   4   58.39    2.10
   1   3  -4   63.59    2.10
   1   3  -4   58.99    2.20
   1   3  -4   64.59    2.00
  -1   3   4   57.89    1.90
   0  -3   4  113.79    3.40
   0  -3   4  115.19    3.20
   0  -3   4  110.39    3.20
   0  -3  -4  112.99    3.10
   0  -3  -4  112.89    3.10
   0  -3   4  120.29    3.40
   0  -3  -4  114.89    3.40
   0   3   4  117.39    3.40
   0   3  -4  113.19    3.40
   0   3   4  118.79    3.00
   0   3  -4  115.19    3.40
   0   3   4  114.29    3.00
   1  -3   4   76.89    2.40
   1  -3   4   80.89    2.50
  -1  -3  -4   78.49    2.70
  -1  -3  -4   81.29    2.10
  -1  -3  -4   82.89    2.20
   1  -3   4   78.39    2.70
  -1   3  -4   80.59    2.60
   1   3   4   81.09    2.20
   1   3   4   82.69    2.20
   1   3   4   76.99    2.10
  -1   3  -4   79.99    2.70
   1   3   4   79.79    2.70
  -2  -3  -4   11.70    1.00
   2  -3   4   10.60    0.80
   2  -3   4   11.30    0.90
   2  -3   4    9.30    1.00
  -2  -3  -4   13.20    1.00
  -2   3  -4   11.60    1.10
   2   3   4   11.00    0.80
   2   3   4   10.40    0.60
  -2   3  -4   12.00    1.10
   2   3   4   10.20    1.00
  -2   3  -4   11.10    0.80
   2   3   4   10.60    0.60
  -3  -3  -4    3.50    0.70
  -3  -3  -4    3.50    0.70
   3  -3   4    4.80    0.60
   3  -3   4    5.80    0.80
   3  -3   4    3.90    0.80
  -3   3  -4    5.20    0.90
  -3   3  -4    4.40    0.80
   3   3   4    5.40    0.80
   3   3   4    5.10    0.40
  -3   3  -4    4.80    0.60
   3   3   4    5.00    0.70
   4  -3   4  111.29    4.10
  -4  -3  -4  119.09    3.80
   4  -3   4  116.69    3.50
  -4  -3  -4  110.29    4.00
   4  -3   4  120.79    4.00
   4   3   4  116.69    3.00
  -4   3  -4  114.39    3.50
  -4   3  -4  116.89    3.90
   4   3   4  115.79    4.10
  -4   3  -4  114.09    4.10
   4   3   4  121.59    3.90
  -5  -3  -4   20.70    1.80
   5  -3   4   23.70    1.40
   5  -3   4   23.30    1.70
  -5  -3  -4   22.30    1.60
   5  -3   4   22.00    1.80
   5   3   4   22.80    1.60
   5   3   4   23.50    1.00
   5   3   4   23.50    1.80
  -5   3  -4   23.40    1.30
  -5   3  -4   23.20    1.70
  -5   3  -4   23.40    1.70
   6  -3   4    8.10    1.00
   6  -3   4    5.40    1.20
  -6  -3  -4    7.60    1.40
  -6   3  -4    7.50    0.80
  -6   3  -4    7.70    1.20
   6   3   4    7.50    0.70
  -8  -4   4    0.70    0.80
  -8   4   4   -0.60    0.40
   8   4  -4    1.40    0.90
   8   4  -4    0.40    0.60
  -7  -4   4    1.00    0.80
  -7  -4   4    0.50    0.50
  -7  -4   4    1.00    0.60
   7   4  -4    0.30    0.70
  -7   4   4    0.80    0.60
  -7   4   4    1.00    0.60
  -6  -4   4   47.30    2.50
  -6  -4   4   47.70    2.30
  -6  -4   4   44.70    2.30
  -6   4   4   44.60    2.30
   6   4  -4   45.30    2.30
   6   4  -4   44.20    2.10
  -6   4   4   47.70    2.40
  -5  -4   4    0.60    0.50
  -5  -4   4    1.70    0.50
  -5  -4   4    0.60    0.50
  -5   4   4    0.80    0.40
   5   4  -4    1.20    0.50
  -5   4   4    0.90    0.50
   4  -4  -4   23.30    1.50
  -4  -4   4   25.40    1.60
  -4  -4   4   22.60    1.40
  -4  -4   4   28.50    1.40
  -4   4   4   25.20    1.30
  -4   4   4   26.60    1.50
  -4   4   4   27.90    1.50
   4   4  -4   25.70    1.40
  -4   4   4   25.10    1.40
  -3  -4   4   42.40    1.80
  -3  -4   4   42.70    1.70
   3  -4  -4   41.60    1.80
  -3  -4   4   43.90    1.90
   3   4  -4   41.20    1.40
  -3   4   4   40.90    1.70
  -3   4   4   40.70    1.80
   3   4  -4   41.20    1.70
  -3   4   4   38.30    1.80
  -3   4   4   41.30    1.70
   3   4  -4   45.60    1.90
  -2  -4   4   20.30    1.10
  -2  -4   4   16.50    1.00
  -2  -4   4   15.80    1.10
  -2  -4   4   17.20    1.10
   2  -4  -4   19.00    1.10
   2  -4  -4   18.30    1.10
  -2   4   4   17.70    1.10
   2   4  -4   18.20    1.10
  -2   4   4   17.70    1.10
   2   4  -4   18.30    1.00
  -2   4   4   17.10    1.00
   2   4  -4   17.60    0.90
   1  -4  -4   26.40    1.20
  -1  -4   4   28.70    1.30
  -1  -4   4   26.50    1.20
  -1  -4   4   26.20    1.40
  -1  -4   4   27.20    1.40
   1  -4  -4   28.60    1.40
  -1   4   4   25.70    1.20
   1   4  -4   26.70    1.30
  -1   4   4   27.10    1.30
  -1   4   4   27.50    1.40
   1   4  -4   26.70    1.40
   1   4  -4   28.80    1.20
   0  -4   4    5.90    0.60
   0  -4  -4    6.20    0.80
   0  -4   4    5.20    0.70
   0  -4   4    6.70    0.70
   0  -4  -4    6.70    0.50
   0  -4  -4    6.00    0.50
   0  -4   4    6.20    0.60
   0   4  -4    5.90    0.70
   0   4   4    5.60    0.50
   0   4  -4    6.30    0.70
   0   4   4    5.60    0.70
   0   4   4    5.90    0.50
   1  -4   4   71.79    2.60
  -1  -4  -4   71.79    2.60
   1  -4   4   73.89    2.40
   1  -4   4   70.99    2.30
  -1  -4  -4   70.69    1.90
  -1  -4  -4   72.89    1.90
   1   4   4   71.89    2.50
  -1   4  -4   71.29    2.50
   1   4   4   71.89    2.00
   1   4   4   70.69    1.90
   1   4   4   67.89    2.00
  -1   4  -4   73.09    2.60
   2  -4   4    9.60    1.00
  -2  -4  -4    9.50    1.00
   2  -4   4    9.50    0.80
  -2  -4  -4   10.30    1.00
   2  -4   4    9.80    0.90
   2   4   4   11.70    0.80
   2   4   4    9.60    0.50
  -2   4  -4   10.00    0.80
   2   4   4    9.20    1.00
   2   4   4   11.30    0.60
  -2   4  -4    8.80    1.00
  -2   4  -4    9.20    1.00
   3  -4   4    3.90    0.70
  -3  -4  -4    3.90    0.80
   3  -4   4    3.30    0.60
  -3  -4  -4    3.90    0.80
   3  -4   4    3.20    0.70
  -3   4  -4    3.40    0.70
   3   4   4    4.20    0.70
  -3   4  -4    2.30    0.60
  -3   4  -4    3.50    0.60
   3   4   4    3.80    0.30
   3   4   4    3.50    0.60
   4  -4   4   34.10    2.10
  -4  -4  -4   35.20    1.90
   4  -4   4   38.40    2.00
   4  -4   4   38.30    1.80
  -4  -4  -4   40.60    2.20
  -4   4  -4   37.50    2.00
   4   4   4   36.70    2.10
   4   4   4   39.50    1.90
  -4   4  -4   37.80    2.10
   4   4   4   36.70    1.20
  -4   4  -4   37.50    1.70
   5  -4   4   46.90    2.40
   5  -4   4   44.20    2.00
  -5  -4  -4   44.70    2.40
   5  -4   4   40.80    2.40
   5   4   4   44.50    1.50
  -5   4  -4   43.70    2.30
   5   4   4   39.30    2.30
  -5   4  -4   39.90    2.30
  -5   4  -4   45.10    2.00
   5   4   4   42.30    2.20
   6  -4   4    1.00    0.60
  -6  -4  -4    1.70    0.80
   6  -4   4    2.00    0.90
  -6   4  -4    1.90    0.60
  -6   4  -4    2.00    0.80
  -6   4  -4    2.60    0.70
  -8  -5   4    2.30    0.90
   8   5  -4    1.40    0.70
   8   5  -4    2.10    1.00
  -7  -5   4   -0.20    0.30
  -7  -5   4    0.40    0.70
  -7   5   4    0.40    0.50
  -7   5   4    0.30    0.40
   7   5  -4    0.20    0.60
   7   5  -4   -0.40    0.40
  -6  -5   4    0.40    0.60
  -6  -5   4   -0.20    0.40
  -6  -5   4    0.40    0.40
  -6   5   4    0.00    0.50
  -6   5   4    0.40    0.50
   6   5  -4    0.20    0.40
  -5  -5   4   12.60    1.20
  -5  -5   4   14.90    1.20
  -5  -5   4   10.80    1.20
   5   5  -4   12.00    1.10
  -5   5   4   13.30    1.30
  -5   5   4   12.10    1.20
   4  -5  -4   46.50    2.10
  -4  -5   4   39.00    1.80
  -4  -5   4   40.10    2.00
  -4  -5   4   43.30    1.90
  -4   5   4   41.20    1.90
  -4   5   4   42.70    2.00
   4   5  -4   41.10    1.80
  -4   5   4   42.80    1.80
  -3  -5   4   22.80    1.40
   3  -5  -4   25.00    1.40
  -3  -5   4   24.60    1.30
   3   5  -4   21.90    1.20
  -3   5   4   23.90    1.30
  -3   5   4   27.00    1.40
   3   5  -4   25.90    1.10
   3   5  -4   25.80    1.50
  -3   5   4   21.70    1.20
   2  -5  -4    6.20    0.70
   2  -5  -4    5.60    0.70
  -2  -5   4    6.10    0.70
  -2  -5   4    5.30    0.60
  -2  -5   4    5.50    0.70
  -2  -5   4    5.80    0.80
  -2   5   4    5.90    0.70
   2   5  -4    5.90    0.70
  -2   5   4    4.90    0.70
   2   5  -4    5.60    0.60
  -2   5   4    4.30    0.70
   2   5  -4    5.70    0.70
  -1  -5   4    8.00    0.70
   1  -5  -4    5.70    0.80
  -1  -5   4    5.60    0.70
  -1  -5   4    6.80    0.80
   1  -5  -4    4.90    0.60
  -1  -5   4    5.80    0.60
  -1   5   4    6.80    0.80
  -1   5   4    5.50    0.60
   1   5  -4    7.20    0.80
   1   5  -4    6.50    0.70
  -1   5   4    5.90    0.70
   1   5  -4    5.30    0.70
   0  -5   4   37.70    1.60
   0  -5  -4   38.20    1.30
   0  -5   4   35.50    1.60
   0  -5   4   40.90    1.70
   0  -5  -4   34.80    1.70
   0  -5   4   37.40    1.60
   0  -5  -4   35.10    1.30
   0   5   4   32.40    1.50
   0   5   4   36.20    1.30
   0   5  -4   34.20    1.60
   0   5  -4   37.90    1.70
   1  -5   4   30.20    1.50
   1  -5   4   30.30    1.50
  -1  -5  -4   29.80    1.60
   1  -5   4   28.60    1.40
  -1  -5  -4   29.50    0.90
  -1  -5  -4   29.90    0.90
  -1   5  -4   30.00    1.50
   1   5   4   31.20    1.10
   1   5   4   31.80    1.50
  -1   5  -4   31.90    1.50
   1   5   4   31.70    1.10
   1   5   4   31.50    1.20
  -2  -5  -4   42.20    1.90
  -2  -5  -4   39.80    1.90
   2  -5   4   41.60    2.00
   2  -5   4   43.10    1.80
   2  -5   4   45.90    1.90
   2   5   4   42.40    1.60
  -2   5  -4   38.90    1.90
  -2   5  -4   45.30    2.00
   2   5   4   41.50    1.20
   2   5   4   43.20    1.20
  -2   5  -4   40.60    1.80
   2   5   4   43.80    1.90
   3  -5   4   28.10    1.60
  -3  -5  -4   26.00    1.60
  -3  -5  -4   28.60    1.70
   3  -5   4   29.30    1.50
   3  -5   4   27.20    1.70
   3   5   4   28.00    1.40
  -3   5  -4   25.30    1.40
  -3   5  -4   27.50    1.70
   3   5   4   28.30    0.90
  -3   5  -4   27.80    1.70
   3   5   4   28.70    1.60
   4  -5   4   -0.10    0.40
   4  -5   4    0.10    0.40
   4  -5   4    0.00    0.50
  -4  -5  -4    0.00    0.50
  -4  -5  -4   -0.20    0.50
  -4   5  -4   -0.10    0.40
  -4   5  -4    0.30    0.50
  -4   5  -4    0.30    0.40
   4   5   4    0.60    0.50
   4   5   4    0.40    0.40
   4   5   4    0.30    0.20
   5  -5   4    5.20    0.90
  -5  -5  -4    5.20    1.10
   5  -5   4    5.50    0.90
   5  -5   4    6.00    1.20
   5   5   4    6.40    1.10
  -5   5  -4    4.40    0.80
  -5   5  -4    4.70    1.00
   5   5   4    6.40    0.50
  -5   5  -4    4.60    1.00
   5   5   4    5.90    0.90
  -6  -5  -4   19.00    1.90
   6  -5   4   18.80    2.00
   6  -5   4   21.50    1.50
  -6   5  -4   19.10    1.80
  -6   5  -4   21.60    1.50
  -8  -6   4    6.70    1.30
   8   6  -4    5.80    1.30
  -7  -6   4   19.00    1.80
  -7  -6   4   19.40    1.40
   7   6  -4   18.00    1.70
  -7   6   4   20.20    1.60
   7   6  -4   19.10    1.50
  -6  -6   4    1.00    0.60
  -6  -6   4    0.50    0.40
  -6  -6   4   -0.50    0.40
  -6   6   4   -0.10    0.40
   6   6  -4   -0.40    0.40
  -5  -6   4    0.20    0.40
  -5  -6   4    1.40    0.60
  -5  -6   4    0.00    0.40
  -5   6   4    1.00    0.50
   5   6  -4    0.30    0.40
  -4  -6   4   67.89    2.70
  -4  -6   4   68.59    2.70
   4  -6  -4   68.49    2.80
  -4  -6   4   72.09    2.70
   4   6  -4   67.09    2.50
  -4   6   4   71.09    2.60
  -4   6   4   74.19    2.60
  -4   6   4   70.69    2.70
  -3  -6   4   15.10    1.10
  -3  -6   4   16.80    1.20
  -3  -6   4   17.10    1.20
   3  -6  -4   16.40    1.20
  -3   6   4   16.00    1.10
   3   6  -4   17.90    0.90
  -3   6   4   16.20    1.10
  -3   6   4   16.30    1.10
   3   6  -4   15.90    1.10
  -2  -6   4  231.68    6.30
  -2  -6   4  230.68    6.00
  -2  -6   4  229.08    6.00
   2  -6  -4  231.18    6.10
  -2   6   4  228.78    5.80
  -2   6   4  238.58    6.00
  -2   6   4  233.78    6.00
   2   6  -4  232.48    5.90
   2   6  -4  233.98    6.30
   2   6  -4  232.28    5.70
  -1  -6   4   60.79    2.20
   1  -6  -4   63.29    2.10
  -1  -6   4   59.59    2.20
   1  -6  -4   66.09    2.40
  -1  -6   4   58.49    2.30
  -1  -6   4   59.59    2.20
   1   6  -4   60.79    2.40
  -1   6   4   59.19    2.30
  -1   6   4   67.89    2.20
   1   6  -4   58.69    2.10
  -1   6   4   62.09    2.00
   1   6  -4   57.49    2.10
   0  -6   4    1.70    0.40
   0  -6  -4    1.10    0.40
   0  -6   4    1.40    0.50
   0  -6   4    1.50    0.40
   0  -6   4    1.30    0.40
   0  -6  -4    1.70    0.30
   0  -6  -4    1.70    0.30
   0   6  -4    1.80    0.50
   0   6  -4    1.00    0.40
   0   6   4    1.20    0.40
   0   6   4    1.90    0.50
   0   6   4    0.90    0.30
   1  -6   4  103.59    3.30
   1  -6   4  105.99    3.20
   1  -6   4  101.59    3.30
  -1  -6  -4  104.69    3.40
   1   6   4  105.89    2.70
   1   6   4  103.59    3.30
   1   6   4  104.39    3.40
  -1   6  -4  104.29    3.40
  -1   6  -4  102.39    3.40
  -2  -6  -4   -0.20    0.30
   2  -6   4    0.00    0.30
   2  -6   4   -0.10    0.40
   2  -6   4    0.00    0.30
   2   6   4   -0.10    0.10
  -2   6  -4    0.00    0.30
  -2   6  -4    0.10    0.40
   2   6   4   -0.10    0.30
  -2   6  -4    0.30    0.30
   2   6   4   -0.10    0.30
   2   6   4    0.10    0.20
   3  -6   4   18.30    1.20
  -3  -6  -4   16.50    1.30
  -3  -6  -4   19.70    1.40
   3  -6   4   21.40    1.50
   3  -6   4   20.00    1.40
  -3   6  -4   17.90    1.20
   3   6   4   18.50    0.70
   3   6   4   17.50    1.30
  -3   6  -4   17.80    1.40
  -3   6  -4   20.70    1.40
   3   6   4   18.70    1.20
   3   6   4   19.70    0.70
   4  -6   4   33.90    2.00
  -4  -6  -4   33.00    2.00
  -4  -6  -4   34.10    1.90
   4  -6   4   33.50    1.70
   4  -6   4   34.30    2.00
   4   6   4   32.10    1.90
  -4   6  -4   33.10    2.00
  -4   6  -4   32.80    2.00
   4   6   4   33.90    1.00
   4   6   4   33.20    1.80
  -4   6  -4   34.40    1.80
   5  -6   4    1.00    0.70
  -5  -6  -4    0.10    0.50
   5  -6   4    1.10    0.50
   5  -6   4   -0.20    0.40
  -5   6  -4    0.20    0.50
  -5   6  -4   -0.60    0.30
  -5   6  -4   -0.40    0.40
   5   6   4    0.60    0.50
   5   6   4    0.30    0.20
   5   6   4    0.00    0.40
   6  -6   4    5.30    1.20
  -6  -6  -4    4.70    1.20
   6  -6   4    4.40    0.90
  -6   6  -4    4.30    1.10
  -6   6  -4    2.80    0.80
  -8  -7   4    6.80    1.40
   8   7  -4   10.70    1.70
   8   7  -4   10.40    1.30
  -7   7   4   -0.30    0.40
   7   7  -4    2.90    0.90
  -6  -7   4    0.80    0.50
  -6  -7   4    0.10    0.40
  -6  -7   4    1.90    0.80
   6   7  -4    1.90    0.60
  -6   7   4    1.60    0.70
  -5  -7   4    3.10    0.70
  -5  -7   4    2.10    0.70
   5  -7  -4    2.90    0.70
  -5  -7   4    2.90    0.70
  -5   7   4    4.20    0.80
  -5   7   4    1.30    0.50
   5   7  -4    2.80    0.70
   4  -7  -4   18.50    1.30
  -4  -7   4   18.90    1.40
  -4  -7   4   18.30    1.30
  -4  -7   4   19.40    1.30
  -4   7   4   22.90    1.40
  -4   7   4   17.00    1.20
   4   7  -4   17.90    1.20
  -4   7   4   19.40    1.30
  -3  -7   4    0.20    0.30
  -3  -7   4    0.00    0.30
   3  -7  -4    0.00    0.30
  -3  -7   4    0.40    0.40
  -3   7   4   -0.10    0.30
  -3   7   4    0.00    0.30
  -3   7   4    0.10    0.30
   3   7  -4    0.10    0.30
   2  -7  -4   79.59    2.70
  -2  -7   4   81.29    2.90
  -2  -7   4   79.19    2.70
  -2  -7   4   77.79    2.80
   2   7  -4   77.29    2.90
  -2   7   4   80.89    2.70
   2   7  -4   81.79    2.50
  -2   7   4   81.29    2.70
   2   7  -4   82.89    2.70
  -2   7   4   80.99    2.80
  -1  -7   4    0.10    0.30
   1  -7  -4    0.40    0.30
  -1  -7   4    0.10    0.30
   1  -7  -4    0.40    0.30
  -1  -7   4   -0.20    0.30
  -1  -7   4    0.40    0.30
  -1   7   4    0.20    0.30
  -1   7   4    0.60    0.30
   1   7  -4    0.30    0.30
  -1   7   4    0.00    0.40
   1   7  -4    0.50    0.30
   1   7  -4    0.40    0.30
   0  -7   4  205.78    5.70
   0  -7   4  203.48    5.40
   0  -7   4  204.58    5.60
   0  -7  -4  204.38    5.60
   0  -7  -4  206.48    5.10
   0  -7   4  205.08    5.40
   0   7  -4  201.18    5.70
   0   7   4  203.08    5.30
   0   7   4  204.18    4.90
   0   7   4  204.48    5.60
   0   7  -4  204.68    5.50
   1  -7   4   12.80    1.00
  -1  -7  -4   13.80    1.10
   1  -7   4    9.80    1.00
   1  -7   4   12.50    1.10
   1   7   4   12.90    0.70
   1   7   4   12.90    1.00
  -1   7  -4   11.50    1.10
  -1   7  -4   12.40    1.00
   1   7   4   13.00    1.10
   2  -7   4    0.80    0.50
  -2  -7  -4    1.30    0.50
   2  -7   4    0.40    0.40
   2  -7   4   -0.20    0.30
   2   7   4    0.40    0.30
   2   7   4    0.40    0.40
   2   7   4   -0.10    0.10
  -2   7  -4   -0.20    0.30
  -2   7  -4    0.20    0.40
  -3  -7  -4    0.40    0.40
   3  -7   4    0.20    0.40
   3  -7   4    0.60    0.40
   3  -7   4    0.50    0.50
  -3  -7  -4   -0.30    0.40
   3   7   4    0.10    0.40
  -3   7  -4    0.10    0.50
  -3   7  -4    0.10    0.40
   3   7   4   -0.10    0.30
   3   7   4    0.30    0.40
  -3   7  -4    0.50    0.50
  -4  -7  -4    0.50    0.50
   4  -7   4    0.80    0.50
  -4  -7  -4    1.00    0.60
   4  -7   4    0.00    0.50
   4  -7   4    0.90    0.50
   4   7   4    0.60    0.40
   4   7   4   -0.20    0.50
   4   7   4    1.70    0.60
  -4   7  -4    1.00    0.50
  -4   7  -4    0.70    0.60
  -4   7  -4    0.30    0.40
   5  -7   4    0.70    0.50
   5  -7   4   -0.20    0.50
  -5  -7  -4    0.50    0.60
   5   7   4    0.30    0.40
  -5   7  -4    0.70    0.60
  -5   7  -4   -0.40    0.30
  -5   7  -4   -0.20    0.30
   6  -7   4   30.40    1.90
  -6  -7  -4   27.40    2.20
   6  -7   4   30.90    2.30
  -6   7  -4   30.80    2.20
  -8  -8   4    1.30    1.00
  -7  -8   4    1.90    0.80
  -7   8   4    0.50    0.50
   7   8  -4    0.40    0.60
  -6  -8   4    4.20    0.80
  -6  -8   4    4.30    0.90
  -6  -8   4    7.40    1.20
  -6   8   4    6.90    1.10
   6   8  -4    5.00    0.90
  -5  -8   4    1.20    0.60
  -5  -8   4    2.50    0.70
  -5  -8   4    3.20    0.80
   5  -8  -4    3.90    0.80
  -5   8   4    3.00    0.70
  -5   8   4    3.40    0.80
   5   8  -4    2.80    0.60
   4  -8  -4   40.70    2.10
  -4  -8   4   40.70    2.10
  -4  -8   4   45.10    2.10
  -4  -8   4   37.10    1.90
   4   8  -4   38.40    1.80
  -4   8   4   39.10    1.90
  -4   8   4   43.50    2.00
  -4   8   4   38.50    1.90
  -3  -8   4   -0.20    0.30
   3  -8  -4    0.20    0.30
  -3  -8   4   -0.20    0.30
  -3  -8   4    0.50    0.40
   3   8  -4    0.30    0.30
  -3   8   4    0.40    0.40
  -3   8   4   -0.10    0.30
  -3   8   4   -0.30    0.30
  -2  -8   4   34.30    1.60
   2  -8  -4   34.30    1.60
  -2  -8   4   32.90    1.70
  -2  -8   4   33.80    1.70
  -2   8   4   35.10    1.60
  -2   8   4   32.00    1.60
   2   8  -4   33.50    1.50
  -2   8   4   35.20    1.80
   2   8  -4   33.20    1.60
   1  -8  -4   -0.20    0.20
  -1  -8   4    0.50    0.40
  -1  -8   4   -0.20    0.30
  -1  -8   4    0.10    0.30
  -1   8   4    0.00    0.40
  -1   8   4    0.00    0.30
   1   8  -4    0.10    0.30
   1   8  -4    0.00    0.30
   1   8  -4   -0.20    0.20
  -1   8   4   -0.20    0.30
   0  -8   4    1.80    0.60
   0  -8   4    1.50    0.50
   0  -8  -4    1.20    0.30
   0  -8  -4    1.00    0.50
   0  -8   4    1.00    0.40
   0  -8   4    1.50    0.50
   0   8   4    1.70    0.50
   0   8  -4    1.70    0.50
   0   8  -4    2.40    0.60
   0   8   4    1.00    0.50
   0   8   4    1.20    0.40
   1  -8   4    0.20    0.30
   1  -8   4    0.60    0.40
  -1  -8  -4    0.40    0.40
   1  -8   4    0.80    0.40
   1   8   4    0.20    0.40
  -1   8  -4    0.10    0.30
   1   8   4    0.30    0.40
  -1   8  -4    0.50    0.40
   1   8   4    0.40    0.20
   2  -8   4  127.89    3.90
  -2  -8  -4  127.39    4.10
   2  -8   4  120.09    4.10
   2  -8   4  125.39    3.90
   2   8   4  128.69    3.80
   2   8   4  122.99    4.00
   2   8   4  126.09    3.00
  -2   8  -4  123.49    4.10
  -2   8  -4  120.09    4.10
  -3  -8  -4   20.00    1.40
   3  -8   4   19.60    1.40
   3  -8   4   16.90    1.40
  -3  -8  -4   17.80    1.40
   3  -8   4   19.60    1.50
   3   8   4   21.30    1.40
  -3   8  -4   16.50    1.30
  -3   8  -4   17.50    1.40
  -3   8  -4   17.40    1.60
   3   8   4   18.00    1.40
  -4  -8  -4    6.40    1.00
  -4  -8  -4    5.00    0.90
   4  -8   4    5.80    1.10
   4  -8   4    4.40    0.90
   4  -8   4    8.00    1.00
   4   8   4    5.90    1.00
  -4   8  -4    5.50    0.90
  -4   8  -4    7.40    1.10
  -4   8  -4    4.30    0.90
   4   8   4    7.60    1.00
   5  -8   4   13.20    1.50
  -5  -8  -4    9.00    1.30
   5  -8   4   10.90    1.20
   5   8   4   11.30    1.30
  -5   8  -4   10.90    1.50
  -5   8  -4    9.90    1.20
  -5   8  -4   10.30    1.30
   6  -8   4   -1.00    0.60
   6  -8   4    0.70    0.60
  -6   8  -4    0.40    0.70
  -7  -9   4    6.30    0.90
   7   9  -4    6.70    1.10
  -6  -9   4   63.09    2.90
  -6  -9   4   52.99    2.40
  -6  -9   4   60.79    2.80
   6   9  -4   52.89    2.50
  -6   9   4   54.29    2.70
  -5  -9   4   69.19    2.90
  -5  -9   4   70.69    2.80
  -5  -9   4   70.19    3.10
   5  -9  -4   62.49    2.90
  -5   9   4   68.89    2.80
  -5   9   4   69.69    2.90
   5   9  -4   67.69    2.70
  -4  -9   4   19.10    1.40
   4  -9  -4   20.70    1.50
  -4  -9   4   17.10    1.30
  -4  -9   4   18.70    1.30
   4   9  -4   20.10    1.30
  -4   9   4   21.10    1.40
  -4   9   4   19.40    1.30
  -4   9   4   17.10    1.30
  -3  -9   4    2.10    0.50
  -3  -9   4    1.80    0.60
  -3  -9   4    1.70    0.60
   3  -9  -4    1.30    0.50
  -3   9   4    2.20    0.60
  -3   9   4    1.80    0.50
   3   9  -4    2.30    0.60
  -3   9   4    1.40    0.50
   2  -9  -4    1.10    0.40
  -2  -9   4    1.10    0.40
  -2  -9   4    1.40    0.50
  -2  -9   4    0.60    0.40
  -2   9   4    1.40    0.50
  -2   9   4    0.80    0.40
  -2   9   4    0.20    0.40
   2   9  -4    0.60    0.40
   2   9  -4    1.10    0.40
  -1  -9   4    2.20    0.60
  -1  -9   4    1.20    0.50
   1  -9  -4    1.90    0.40
  -1  -9   4    1.90    0.50
  -1   9   4    1.40    0.60
   1   9  -4    3.00    0.70
  -1   9   4    1.20    0.40
  -1   9   4    1.70    0.50
   1   9  -4    2.10    0.50
   0  -9   4    1.10    0.40
   0  -9  -4    1.00    0.30
   0  -9  -4    1.20    0.50
   0  -9   4    1.50    0.50
   0  -9   4    0.90    0.50
   0   9   4    1.60    0.50
   0   9  -4    0.80    0.50
   0   9  -4    1.10    0.50
   0   9   4    1.30    0.40
   0   9   4    0.60    0.30
  -1  -9  -4    6.60    1.00
   1  -9   4    8.40    0.90
   1  -9   4    7.90    0.90
   1  -9   4    5.90    0.90
  -1   9  -4    6.40    1.00
   1   9   4    8.00    0.80
   1   9   4    7.40    0.60
   1   9   4    6.90    1.00
  -1   9  -4    6.60    0.90
  -2  -9  -4   46.30    2.30
   2  -9   4   46.90    2.10
   2  -9   4   45.20    2.10
   2  -9   4   41.70    2.20
   2   9   4   47.60    1.40
   2   9   4   46.50    2.00
  -2   9  -4   48.20    2.40
   2   9   4   48.90    2.30
  -2   9  -4   46.50    2.20
   3  -9   4    0.50    0.50
   3  -9   4    0.60    0.50
  -3  -9  -4    0.00    0.50
   3  -9   4    0.30    0.40
  -3   9  -4    0.50    0.50
  -3   9  -4    0.70    0.60
   3   9   4    0.30    0.20
   3   9   4    1.30    0.60
   3   9   4    0.20    0.40
  -3   9  -4    1.40    0.60
   4  -9   4   24.30    1.70
   4  -9   4   21.80    1.50
   4  -9   4   22.30    1.70
  -4  -9  -4   22.90    1.60
  -4   9  -4   22.70    1.60
   4   9   4   23.50    1.60
  -4   9  -4   20.20    1.50
  -4   9  -4   21.60    1.90
   5  -9   4    7.80    1.30
   5  -9   4    7.90    1.10
  -5   9  -4    7.20    1.10
  -5   9  -4    6.90    1.20
   6  -9   4    3.30    1.00
   6  -9   4    3.00    1.10
  -6   9  -4    4.20    1.10
   7  10  -4   13.00    1.40
  -6 -10   4    1.60    0.50
   6  10  -4    1.80    0.70
  -5 -10   4   11.20    1.20
  -5 -10   4    9.10    1.20
   5 -10  -4   11.00    1.40
  -5  10   4    9.10    1.20
   5  10  -4    9.30    1.10
  -5  10   4    9.90    1.10
   4 -10  -4   79.39    3.20
  -4 -10   4   76.79    3.20
   4  10  -4   79.09    2.90
  -4  10   4   61.29    2.70
  -4  10   4   75.19    3.00
  -3 -10   4    0.00    0.40
   3 -10  -4    1.30    0.50
  -3 -10   4    0.80    0.40
   3  10  -4   -0.10    0.30
  -3  10   4    0.50    0.50
  -3  10   4    0.60    0.40
  -2 -10   4   13.30    1.20
  -2 -10   4   13.80    1.30
   2 -10  -4   12.90    1.00
   2  10  -4   12.60    1.10
  -2  10   4   11.50    1.20
  -2  10   4   10.30    1.00
   2  10  -4   13.40    1.00
  -1 -10   4    1.20    0.60
  -1 -10   4    0.90    0.50
   1 -10  -4    0.90    0.40
   1  10  -4    1.60    0.50
  -1  10   4    1.50    0.60
  -1  10   4    1.50    0.50
   0 -10  -4    1.00    0.30
   0 -10   4    0.20    0.30
   0 -10   4    1.60    0.50
   0 -10   4    0.80    0.50
   0  10   4    0.30    0.50
   0  10   4    1.40    0.40
   0  10  -4    1.70    0.50
   0  10  -4    1.60    0.60
   1 -10   4   35.80    2.00
   1 -10   4   32.70    1.70
  -1  10  -4   35.10    2.00
   1  10   4   34.40    1.40
  -1  10  -4   39.20    2.00
   2 -10   4   29.30    1.80
  -2 -10  -4   28.70    1.80
   2 -10   4   32.50    1.70
   2  10   4   33.00    1.80
  -2  10  -4   29.20    1.80
   2  10   4   27.90    1.10
  -2  10  -4   24.60    1.70
  -3 -10  -4   67.19    2.90
   3 -10   4   67.89    2.80
   3 -10   4   61.99    2.90
   3 -10   4   64.39    2.80
   3  10   4   66.79    2.80
  -3  10  -4   60.89    2.80
   3  10   4   66.49    1.70
  -3  10  -4   65.49    3.10
   4 -10   4   31.50    1.90
   4 -10   4   28.80    1.90
  -4  10  -4   32.50    2.00
  -4  10  -4   35.60    2.00
  -4  10  -4   31.20    2.10
   4  10   4   30.70    1.90
   5 -10   4    0.50    0.60
   5 -10   4   -0.80    0.70
  -5  10  -4   -0.70    0.60
   7  11  -4    1.10    0.70
   6  11  -4    0.60    0.60
  -5 -11   4    2.50    0.60
   5 -11  -4    0.10    0.50
  -5 -11   4    0.20    0.50
  -5  11   4    1.50    0.70
   5  11  -4    1.60    0.60
   4 -11  -4    1.10    0.50
  -4 -11   4    1.20    0.60
  -4 -11   4    1.10    0.60
   4  11  -4    1.70    0.60
  -4  11   4    0.60    0.60
  -3 -11   4  104.59    3.80
  -3 -11   4  104.89    3.90
   3 -11  -4  110.79    3.80
  -3  11   4  113.79    3.70
   3  11  -4  108.59    3.60
  -3  11   4  110.39    3.90
  -2 -11   4    7.80    1.10
   2 -11  -4    7.40    0.90
  -2 -11   4    8.80    1.10
   2  11  -4    9.80    1.00
  -2  11   4    8.60    0.90
   2  11  -4    6.70    0.90
  -2  11   4    7.70    1.10
  -1 -11   4    0.50    0.50
  -1 -11   4    0.20    0.40
   1 -11  -4    0.00    0.30
  -1  11   4   -0.40    0.30
  -1  11   4    0.00    0.50
   1  11  -4   -0.40    0.30
   0 -11   4   28.00    1.70
   0 -11  -4   27.80    1.20
   0  11  -4   28.80    1.70
   0  11   4   28.20    1.40
   0  11   4   28.20    1.80
   1 -11   4  103.19    3.80
  -1  11  -4  102.89    3.80
   1  11   4  107.59    3.80
  -1  11  -4  110.29    3.90
   1  11   4  105.09    3.00
   2 -11   4   29.50    1.90
   2  11   4   23.70    1.10
   2  11   4   20.40    1.60
  -2  11  -4   26.20    1.70
  -2  11  -4   30.10    1.90
   3 -11   4    0.40    0.40
   3  11   4   -0.40    0.20
  -3  11  -4   -0.50    0.60
   3  11   4    0.20    0.50
  -3  11  -4   -0.10    0.50
  -4  11  -4    1.60    0.60
  -4  11  -4    1.50    0.80
  -5  11  -4    4.70    1.20
   6  12  -4   18.70    1.60
  -5 -12   4    0.80    0.40
   5 -12  -4    1.20    0.70
  -5  12   4    0.40    0.60
   5  12  -4    1.20    0.60
   4 -12  -4    3.60    0.80
  -4 -12   4    1.50    0.60
  -4 -12   4    3.20    0.80
  -4  12   4    2.50    0.90
   4  12  -4    2.40    0.70
  -3 -12   4   77.39    3.30
   3 -12  -4   80.69    3.10
  -3 -12   4   81.29    3.20
  -3  12   4   75.19    3.20
  -3  12   4   80.29    3.00
   3  12  -4   75.89    3.00
   2 -12  -4   34.80    1.80
  -2 -12   4   29.80    1.80
  -2 -12   4   34.70    2.00
   2  12  -4   26.80    1.70
  -2  12   4   31.90    1.70
   2  12  -4   36.50    1.80
  -2  12   4   32.10    2.00
  -1 -12   4    0.70    0.50
  -1 -12   4   -0.10    0.40
   1 -12  -4    1.10    0.40
  -1  12   4    0.80    0.60
  -1  12   4   -0.30    0.30
   1  12  -4    0.40    0.40
   0 -12  -4   95.49    2.80
   0 -12   4   94.89    3.60
   0  12  -4   99.19    3.60
   0  12   4  100.49    3.70
   0  12   4   95.49    3.00
   1 -12   4   10.70    1.30
  -1  12  -4   11.40    1.30
   1  12   4   12.30    0.80
   1  12   4   10.70    1.30
   2 -12   4    0.70    0.50
   2  12   4    0.20    0.20
  -2  12  -4    0.70    0.50
  -2  12  -4   -0.20    0.50
   2  12   4    0.20    0.40
  -3  12  -4   28.40    2.10
   3  12   4   27.60    1.80
   3  12   4   28.80    1.10
  -3  12  -4   33.60    2.10
  -4  12  -4   -0.20    0.70
  -4  12  -4    0.20    0.40
   6  13  -4    4.90    1.00
   5 -13  -4    2.90    0.80
  -5 -13   4    1.00    0.50
   5  13  -4    1.80    0.70
  -5  13   4    2.60    0.90
   4 -13  -4    0.10    0.40
  -4 -13   4    0.40    0.50
  -4  13   4   -0.70    0.60
   4  13  -4    0.00    0.50
   3 -13  -4   11.20    1.20
  -3 -13   4   11.90    1.30
  -3 -13   4   10.30    1.30
  -3  13   4   13.10    1.30
   3  13  -4   14.90    1.30
  -3  13   4   15.00    1.60
  -2 -13   4    9.20    1.20
   2 -13  -4    7.20    0.90
  -2 -13   4    7.70    1.20
  -2  13   4    8.60    1.00
   2  13  -4   10.60    1.10
  -2  13   4    7.40    1.20
  -1 -13   4   19.60    1.50
   1 -13  -4   19.30    1.20
  -1 -13   4   20.70    1.60
  -1  13   4   19.00    1.30
  -1  13   4   19.30    1.70
   1  13  -4   20.90    1.50
   0 -13   4   27.00    1.80
   0 -13  -4   25.10    1.20
   0  13   4   23.30    1.70
   0  13  -4   24.40    1.60
   0  13   4   24.60    1.40
   1 -13   4   12.40    1.40
   1  13   4   13.60    1.50
   1  13   4   14.20    0.90
  -1  13  -4   12.90    1.40
   2  13   4    3.80    0.80
  -2  13  -4    4.10    0.80
   2  13   4    3.30    0.50
  -3  13  -4    3.20    0.80
   3  13   4    1.90    0.70
  -3  13  -4    3.30    1.00
  -4  13  -4    1.40    0.90
  -5  14   4    0.20    0.70
   5  14  -4   -0.20    0.50
   4 -14  -4   11.20    1.30
  -4 -14   4   10.40    1.20
   4  14  -4    9.50    1.20
  -4  14   4   11.50    1.50
  -3 -14   4    8.00    1.10
   3 -14  -4    7.70    1.10
   3  14  -4    6.50    1.10
  -3  14   4    7.10    1.10
  -3  14   4    7.60    1.30
  -2 -14   4    2.10    0.70
  -2 -14   4    0.80    0.60
   2 -14  -4    1.80    0.50
  -2  14   4    2.60    0.70
  -2  14   4    3.10    0.90
  -1 -14   4    2.70    0.70
  -1 -14   4    3.30    0.90
   1 -14  -4    4.90    0.80
  -1  14   4    4.50    0.80
  -1  14   4    4.70    0.90
   1  14  -4    5.10    0.90
   0 -14  -4   30.60    1.40
   0 -14   4   28.60    1.90
   0  14  -4   30.00    1.90
   0  14   4   29.00    1.50
   0  14   4   32.00    2.00
  -1  14  -4    4.10    0.90
   1  14   4    5.50    0.70
   1  14   4    4.70    1.00
   2  14   4    9.60    1.30
   2  14   4    7.80    0.60
  -2  14  -4    7.80    1.20
  -3  14  -4    5.30    1.20
   5  15  -4   13.00    1.50
  -5  15   4   12.10    1.70
   4  15  -4    5.20    1.00
  -4  15   4    6.00    1.30
   3 -15  -4    5.00    0.90
  -3 -15   4    2.70    0.70
  -3  15   4    2.60    1.00
  -3  15   4    3.40    0.80
  -2 -15   4   47.20    2.50
   2 -15  -4   47.20    2.20
  -2  15   4   45.90    2.30
  -2  15   4   44.00    2.60
  -1 -15   4   13.70    1.50
   1 -15  -4   15.90    1.20
   1  15  -4   17.10    1.50
  -1  15   4   16.40    1.70
  -1  15   4   15.00    1.30
   0 -15  -4   14.10    1.00
   0  15   4   12.10    1.40
   0  15  -4   13.30    1.40
   0  15   4   13.50    1.20
  -1  15  -4   18.20    1.70
   1  15   4   17.10    1.10
   2  15   4    1.70    0.40
  -4  16   4    0.80    0.90
   4  16  -4    0.80    0.70
  -3  16   4    0.20    0.50
  -3  16   4    0.90    0.80
   2 -16  -4    5.60    0.90
  -2 -16   4    7.10    1.10
  -2  16   4    4.50    0.90
  -2  16   4    4.10    1.10
  -1 -16   4    1.60    0.60
   1 -16  -4    1.80    0.60
  -1  16   4    1.00    0.60
   1  16  -4    1.40    0.60
  -1  16   4    1.00    0.60
   0 -16  -4    1.50    0.50
   0  16   4    1.10    0.60
   0  16   4    1.20    0.50
   1  16   4    0.00    0.30
   2  16   4    0.50    0.30
  -3  17   4    0.50    0.70
  -3  17   4    1.50    0.80
  -2  17   4   42.00    2.70
  -2  17   4   40.90    2.20
   1 -17  -4   20.00    1.40
  -1  17   4   21.80    1.60
   0 -17  -4    3.90    0.60
   0  17   4    3.70    0.80
   1  17   4   12.00    1.10
  -2  18   4    4.00    1.00
  -8   0   5    0.10    0.70
  -7   0   5    0.20    0.80
  -7   0   5    0.30    0.40
  -6   0   5    0.10    0.50
  -6   0   5    0.40    0.60
  -5   0   5    0.30    0.50
  -5   0   5    0.10    0.30
  -4   0   5    0.00    0.40
   4   0  -5   -0.20    0.40
  -4   0   5    0.00    0.40
  -3   0   5    0.10    0.40
   3   0  -5   -0.50    0.20
   3   0  -5   -0.40    0.30
  -3   0   5    0.20    0.30
  -3   0   5    0.00    0.30
   2   0  -5   -0.40    0.30
   2   0  -5   -0.20    0.30
  -2   0   5   -0.10    0.30
  -2   0   5    0.30    0.40
   1   0  -5    0.30    0.30
   1   0  -5    0.00    0.30
  -1   0   5    0.30    0.40
  -1   0   5    0.30    0.30
   0   0  -5   -0.10    0.30
   0   0   5   -0.10    0.20
   0   0  -5    0.10    0.20
   0   0   5   -0.10    0.30
   1   0   5    0.00    0.30
  -1   0  -5    0.00    0.30
  -1   0  -5   -0.20    0.20
   1   0   5    0.30    0.30
   2   0   5    0.10    0.30
  -2   0  -5    0.00    0.40
  -2   0  -5   -0.10    0.20
   2   0   5    0.00    0.30
   3   0   5    0.60    0.50
   3   0   5    0.00    0.30
  -3   0  -5   -0.60    0.40
  -3   0  -5    0.30    0.30
  -3   0  -5    0.60    0.60
   3   0   5   -0.10    0.20
  -4   0  -5    0.00    0.60
  -4   0  -5   -0.10    0.20
   4   0   5    0.40    0.30
   4   0   5   -0.40    0.30
  -4   0  -5    0.30    0.60
   4   0   5   -0.20    0.40
   5   0   5   -0.40    0.40
   5   0   5    0.00    0.20
  -5   0  -5    0.20    0.70
  -5   0  -5   -0.30    0.50
  -6   0  -5    0.00    0.70
  -8  -1   5    7.50    1.50
  -7  -1   5   11.70    1.40
  -7  -1   5    9.70    1.50
  -7   1   5    9.70    1.40
  -7   1   5   12.20    1.40
  -6  -1   5   46.40    2.50
  -6  -1   5   50.59    2.50
  -6   1   5   46.60    2.40
  -6   1   5   51.99    2.60
  -5  -1   5   11.30    1.20
  -5  -1   5    9.20    1.20
  -5   1   5   10.60    1.30
  -5   1   5   10.80    1.20
   4  -1  -5    1.70    0.40
  -4  -1   5    0.60    0.50
  -4  -1   5    1.00    0.50
   4  -1  -5    0.90    0.50
   4   1  -5    2.20    0.60
  -4   1   5    1.60    0.60
  -4   1   5    1.30    0.50
   3  -1  -5    0.60    0.40
   3  -1  -5    0.10    0.30
  -3  -1   5   -0.20    0.40
  -3  -1   5    0.20    0.40
  -3  -1   5    0.00    0.30
  -3   1   5    0.00    0.40
  -3   1   5    0.00    0.30
  -3   1   5    0.10    0.30
   3   1  -5    0.90    0.40
   3   1  -5    0.40    0.30
  -2  -1   5    2.70    0.50
   2  -1  -5    2.40    0.50
  -2  -1   5    3.30    0.70
   2  -1  -5    3.20    0.60
   2   1  -5    3.50    0.60
  -2   1   5    3.60    0.70
  -2   1   5    3.50    0.60
   2   1  -5    4.20    0.60
   1  -1  -5   46.50    1.90
  -1  -1   5   50.29    2.10
   1  -1  -5   47.10    1.90
  -1  -1   5   43.50    1.80
  -1   1   5   44.70    1.80
  -1   1   5   48.80    2.10
   1   1  -5   49.90    2.00
   1   1  -5   44.90    1.90
   0  -1   5    5.60    0.60
   0  -1  -5    4.30    0.70
   0  -1   5    4.20    0.70
   0  -1  -5    4.60    0.60
   0   1   5    5.20    0.60
   0   1  -5    5.60    0.70
   0   1  -5    6.30    0.80
   0   1   5    4.80    0.70
   1  -1   5   32.80    1.80
   1  -1   5   30.80    1.40
  -1  -1  -5   29.10    1.30
  -1  -1  -5   32.90    1.70
   1  -1   5   33.00    1.30
  -1   1  -5   31.50    1.70
   1   1   5   30.30    1.70
  -1   1  -5   31.20    1.40
   1   1   5   30.40    1.30
   2  -1   5    3.10    0.70
  -2  -1  -5    5.00    0.80
   2  -1   5    3.60    0.60
  -2  -1  -5    4.30    0.50
   2  -1   5    4.50    0.70
  -2   1  -5    3.30    0.70
   2   1   5    4.30    0.80
  -2   1  -5    3.70    0.50
   2   1   5    4.50    0.50
  -3  -1  -5    3.40    0.80
  -3  -1  -5    5.60    0.40
   3  -1   5    3.20    0.80
  -3  -1  -5    3.70    0.80
   3  -1   5    4.60    0.60
   3  -1   5    4.20    0.70
   3   1   5    5.70    0.60
  -3   1  -5    3.70    0.90
  -3   1  -5    5.00    0.90
  -3   1  -5    5.00    0.60
   3   1   5    4.80    0.90
  -4  -1  -5   27.50    1.80
   4  -1   5   23.00    1.30
   4  -1   5   19.40    1.80
  -4  -1  -5   23.10    1.80
   4  -1   5   22.00    1.50
   4   1   5   22.10    1.10
  -4   1  -5   22.40    1.70
   4   1   5   22.60    1.70
  -4   1  -5   21.70    1.00
  -4   1  -5   25.10    1.70
   5  -1   5   13.70    1.10
  -5  -1  -5   13.40    1.50
  -5  -1  -5   15.20    1.80
   5  -1   5   13.70    1.70
   5   1   5   14.10    0.90
   5   1   5   11.80    1.50
  -5   1  -5   15.20    1.60
  -5   1  -5   12.70    1.60
  -6  -1  -5   -0.50    0.70
  -8  -2   5    2.10    1.00
  -7  -2   5   24.70    2.20
  -7  -2   5   31.30    1.90
  -7   2   5   27.50    2.00
  -7   2   5   28.80    2.00
  -6  -2   5   16.40    1.70
  -6  -2   5   18.40    1.50
  -6   2   5   17.70    1.50
  -6   2   5   18.10    1.70
  -5  -2   5    3.60    0.80
  -5  -2   5    3.00    0.80
  -5   2   5    2.20    0.60
   4  -2  -5   68.69    2.70
  -4  -2   5   71.49    2.30
  -4  -2   5   61.59    2.70
  -4  -2   5   65.19    2.70
  -4   2   5   62.29    2.70
   4   2  -5   66.99    2.70
   3  -2  -5   25.00    1.30
  -3  -2   5   24.80    1.60
  -3  -2   5   21.00    1.40
   3  -2  -5   25.20    1.50
  -3  -2   5   23.10    1.30
  -3   2   5   24.20    1.30
   3   2  -5   23.40    1.40
  -3   2   5   24.10    1.30
  -3   2   5   24.60    1.50
   3   2  -5   25.80    1.20
  -2  -2   5   19.80    1.20
   2  -2  -5   19.50    1.20
  -2  -2   5   19.80    1.30
   2  -2  -5   17.50    1.10
  -2   2   5   18.10    1.10
   2   2  -5   16.60    1.20
   2   2  -5   17.70    1.10
  -2   2   5   20.70    1.30
  -1  -2   5    1.30    0.50
   1  -2  -5    1.10    0.40
   1  -2  -5    0.00    0.30
  -1  -2   5    1.30    0.40
   1   2  -5    0.80    0.40
  -1   2   5    0.60    0.30
  -1   2   5    0.60    0.40
   1   2  -5    1.10    0.40
   0  -2   5    3.20    0.50
   0  -2  -5    3.70    0.50
   0  -2   5    3.30    0.70
   0  -2  -5    3.70    0.70
   0  -2   5    4.50    0.50
   0   2  -5    4.70    0.70
   0   2   5    3.90    0.60
   0   2  -5    3.10    0.60
   0   2   5    3.30    0.60
  -1  -2  -5    0.00    0.20
   1  -2   5    0.30    0.40
  -1  -2  -5    0.00    0.40
   1  -2   5   -0.20    0.30
   1  -2   5    0.20    0.30
   1   2   5    0.20    0.30
  -1   2  -5    0.10    0.30
  -1   2  -5   -0.40    0.20
   1   2   5    0.40    0.40
  -2  -2  -5   34.40    1.80
   2  -2   5   32.40    1.90
  -2  -2  -5   36.20    1.20
   2  -2   5   32.00    1.50
   2  -2   5   35.40    1.60
   2   2   5   37.00    1.90
   2   2   5   32.20    1.30
  -2   2  -5   32.20    1.50
  -2   2  -5   33.50    1.80
   3  -2   5  178.58    4.80
  -3  -2  -5  184.48    5.60
  -3  -2  -5  184.58    5.40
   3  -2   5  176.48    5.60
   3  -2   5  185.58    5.20
  -3   2  -5  176.18    4.80
   3   2   5  174.48    5.50
   3   2   5  179.58    4.40
  -3   2  -5  182.88    5.60
  -3   2  -5  168.28    5.30
  -4  -2  -5    1.50    0.70
  -4  -2  -5    1.70    0.70
   4  -2   5    1.30    0.60
   4  -2   5    2.00    0.50
   4  -2   5    2.00    0.80
   4   2   5    2.30    0.70
  -4   2  -5    2.10    0.50
  -4   2  -5    1.20    0.70
   4   2   5    2.00    0.40
  -4   2  -5    1.90    0.70
   5  -2   5    2.60    0.70
   5  -2   5    3.90    1.10
  -5  -2  -5    4.60    1.10
  -5  -2  -5    4.40    1.00
   5   2   5    3.80    0.50
  -5   2  -5    2.90    0.50
  -5   2  -5    3.60    0.90
  -5   2  -5    2.40    0.80
   5   2   5    3.00    0.90
  -6  -2  -5    0.50    0.80
  -8  -3   5    0.90    0.90
  -8   3   5    1.60    0.70
  -7  -3   5   11.60    1.40
  -7  -3   5   10.60    1.50
  -7   3   5    9.90    1.40
  -6  -3   5  111.79    4.30
  -6  -3   5  124.09    4.20
  -6  -3   5  111.89    3.90
  -6   3   5  114.09    4.30
  -5  -3   5    1.50    0.70
  -5  -3   5    1.40    0.50
  -5  -3   5    0.30    0.40
  -5   3   5    0.80    0.50
   4  -3  -5   31.10    1.70
  -4  -3   5   33.80    1.50
  -4  -3   5   30.30    1.70
  -4  -3   5   34.40    1.90
  -4   3   5   26.70    1.40
  -4   3   5   30.50    1.80
   3  -3  -5    2.50    0.60
  -3  -3   5    3.20    0.70
  -3  -3   5    1.90    0.60
  -3  -3   5    1.40    0.40
   3  -3  -5    2.50    0.60
  -3   3   5    1.40    0.60
   3   3  -5    1.80    0.40
  -3   3   5    1.50    0.50
   3   3  -5    1.40    0.50
  -3   3   5    2.30    0.50
  -2  -3   5   11.70    1.00
  -2  -3   5   12.30    1.10
   2  -3  -5   12.50    0.90
  -2  -3   5   13.80    0.80
  -2  -3   5   14.40    1.00
   2  -3  -5   13.80    1.00
   2   3  -5   12.40    1.00
  -2   3   5   10.70    1.00
   2   3  -5   11.90    0.90
  -2   3   5   14.00    1.00
  -2   3   5   12.80    0.90
  -1  -3   5   17.20    1.20
  -1  -3   5   18.70    0.90
   1  -3  -5   18.20    1.20
   1  -3  -5   17.70    1.00
  -1  -3   5   17.30    1.10
   1   3  -5   18.10    1.20
  -1   3   5   16.90    1.20
  -1   3   5   19.10    1.10
   1   3  -5   18.50    1.20
   0  -3  -5    8.20    0.70
   0  -3  -5    7.20    0.90
   0  -3   5    8.30    0.80
   0  -3   5    8.10    1.00
   0  -3   5    9.30    0.70
   0   3  -5    7.20    0.90
   0   3  -5    7.60    0.80
   0   3   5    6.70    0.90
   0   3   5    7.40    0.70
   1  -3   5  113.69    3.30
  -1  -3  -5  111.29    3.00
  -1  -3  -5  108.19    3.60
   1  -3   5  114.09    3.30
   1  -3   5  108.79    3.70
  -1   3  -5  108.29    3.40
  -1   3  -5  110.79    3.60
   1   3   5  112.99    3.70
   1   3   5  104.59    3.00
   2  -3   5    1.50    0.40
   2  -3   5    2.20    0.60
   2  -3   5    2.00    0.50
  -2  -3  -5    1.90    0.60
  -2   3  -5    1.10    0.60
   2   3   5    2.00    0.40
   2   3   5    3.20    0.70
  -2   3  -5    1.50    0.50
  -3  -3  -5    0.80    0.60
   3  -3   5    1.10    0.50
  -3  -3  -5    2.30    0.70
   3  -3   5    1.40    0.60
   3  -3   5    1.80    0.80
  -3   3  -5    1.60    0.50
   3   3   5    1.50    0.40
  -3   3  -5    1.60    0.70
  -3   3  -5    1.20    0.60
   3   3   5    0.70    0.50
  -4  -3  -5   63.49    2.80
   4  -3   5   64.89    2.50
  -4  -3  -5   63.89    3.00
   4  -3   5   61.89    2.70
   4  -3   5   62.79    3.00
   4   3   5   67.99    3.00
  -4   3  -5   64.09    2.90
  -4   3  -5   64.39    3.00
  -4   3  -5   60.89    2.30
   4   3   5   66.19    2.00
  -5  -3  -5    1.30    0.80
   5  -3   5    0.80    0.80
  -5  -3  -5    0.30    0.60
   5  -3   5    1.50    0.60
  -5   3  -5    1.50    0.50
   5   3   5    1.40    0.30
  -5   3  -5    0.40    0.60
  -5   3  -5    1.40    0.50
   5   3   5    1.60    0.70
  -6  -3  -5    0.10    0.60
  -6   3  -5   -0.10    0.40
  -8  -4   5    4.50    1.20
  -7  -4   5   14.80    1.50
  -7  -4   5   11.40    1.60
  -7   4   5   10.20    1.40
  -6  -4   5    1.70    0.60
  -6  -4   5    0.80    0.70
  -6  -4   5    0.40    0.60
  -6   4   5    1.00    0.60
  -5  -4   5   -0.40    0.40
  -5  -4   5   -0.30    0.40
  -5  -4   5   -0.20    0.40
  -5   4   5    0.30    0.50
   4  -4  -5   83.89    3.10
  -4  -4   5   82.09    2.80
  -4  -4   5   77.79    3.10
  -4  -4   5   74.19    3.00
  -4   4   5   80.79    2.70
  -4   4   5   78.49    3.10
  -4   4   5   81.19    2.90
   3  -4  -5   -0.10    0.30
   3  -4  -5    0.10    0.30
  -3  -4   5   -0.20    0.30
  -3  -4   5    0.60    0.40
  -3  -4   5    0.70    0.40
  -3   4   5    0.60    0.40
  -3   4   5    0.10    0.30
   3   4  -5    0.60    0.30
  -3   4   5    0.90    0.40
   3   4  -5    0.00    0.30
   2  -4  -5   20.30    1.30
  -2  -4   5   19.50    1.20
  -2  -4   5   20.40    1.30
  -2  -4   5   21.30    1.10
  -2  -4   5   22.40    1.40
   2  -4  -5   20.40    1.20
   2   4  -5   22.10    1.40
  -2   4   5   20.90    1.20
  -2   4   5   20.70    1.30
   2   4  -5   21.90    1.20
  -2   4   5   19.50    1.30
   1  -4  -5   40.40    1.90
  -1  -4   5   39.50    1.60
   1  -4  -5   38.90    1.60
  -1  -4   5   40.50    1.90
  -1  -4   5   37.10    1.70
  -1   4   5   36.90    1.60
   1   4  -5   42.00    1.80
  -1   4   5   42.00    1.90
   1   4  -5   37.50    1.80
   0  -4   5    0.10    0.30
   0  -4   5    0.80    0.30
   0  -4  -5    0.50    0.40
   0  -4  -5    0.50    0.30
   0  -4   5    0.40    0.40
   0   4   5    0.80    0.40
   0   4  -5    0.40    0.40
   0   4  -5    0.90    0.40
   0   4   5    0.20    0.30
  -1  -4  -5   11.20    0.60
   1  -4   5   11.50    0.90
  -1  -4  -5   11.00    1.20
   1  -4   5   13.40    1.20
   1  -4   5   10.10    0.90
   1   4   5   10.10    0.70
  -1   4  -5   11.90    1.00
  -1   4  -5   11.80    1.20
   1   4   5   10.30    1.10
   2  -4   5    0.10    0.40
   2  -4   5    0.40    0.40
  -2  -4  -5    0.60    0.50
   2  -4   5   -0.30    0.30
   2   4   5    0.30    0.20
  -2   4  -5    0.80    0.50
  -2   4  -5    0.30    0.40
   2   4   5    0.90    0.40
   3  -4   5   24.70    1.60
  -3  -4  -5   29.00    1.80
  -3  -4  -5   25.10    1.70
   3  -4   5   24.70    1.80
   3  -4   5   29.40    1.50
   3   4   5   27.00    1.70
  -3   4  -5   21.80    1.70
  -3   4  -5   23.80    1.70
  -3   4  -5   27.20    1.50
   3   4   5   26.40    1.10
   4  -4   5   95.19    3.30
   4  -4   5  100.29    3.70
  -4  -4  -5   94.29    3.80
  -4  -4  -5   96.49    3.60
   4  -4   5   92.99    3.80
  -4   4  -5   91.39    3.20
   4   4   5   93.09    2.60
   4   4   5   94.49    3.70
  -4   4  -5   95.79    3.80
  -4   4  -5   96.39    3.70
  -5  -4  -5   -0.40    0.60
   5  -4   5    0.50    0.50
  -5  -4  -5    0.20    0.60
   5  -4   5    0.60    0.80
  -5   4  -5   -0.40    0.40
  -5   4  -5    0.00    0.50
   5   4   5   -0.50    0.30
  -5   4  -5    0.10    0.60
  -6   4  -5    0.20    0.80
  -8  -5   5   -0.70    0.80
  -7  -5   5   44.50    2.30
  -7  -5   5   42.90    2.60
  -7   5   5   44.70    2.50
  -6  -5   5    0.40    0.50
  -6  -5   5    0.40    0.50
  -6  -5   5    1.10    0.70
  -6   5   5    1.50    0.60
   6   5  -5    1.60    0.60
  -5  -5   5    1.10    0.50
  -5  -5   5    1.20    0.50
  -5  -5   5    0.40    0.60
   5  -5  -5    2.20    0.60
  -5   5   5    1.10    0.60
   5   5  -5    1.80    0.70
  -4  -5   5    2.00    0.60
  -4  -5   5    2.10    0.60
   4  -5  -5    2.30    0.70
  -4  -5   5    2.10    0.50
  -4   5   5    2.30    0.60
  -4   5   5    2.30    0.60
  -4   5   5    1.80    0.50
   3  -5  -5   33.80    1.70
  -3  -5   5   30.70    1.70
  -3  -5   5   34.00    1.60
  -3   5   5   29.50    1.60
   3   5  -5   31.10    1.40
  -3   5   5   33.10    1.80
   3   5  -5   32.90    1.80
  -3   5   5   29.60    1.60
  -2  -5   5   44.20    1.90
   2  -5  -5   49.20    2.00
  -2  -5   5   51.99    1.90
  -2  -5   5   48.90    2.20
  -2  -5   5   49.10    2.20
   2  -5  -5   49.90    2.10
  -2   5   5   49.10    2.10
  -2   5   5   51.79    2.10
   2   5  -5   45.80    1.90
   2   5  -5   47.80    2.20
  -2   5   5   50.99    2.00
  -1  -5   5    4.80    0.60
  -1  -5   5    5.20    0.80
   1  -5  -5    5.00    0.60
   1  -5  -5    4.50    0.80
  -1  -5   5    3.90    0.70
  -1   5   5    3.20    0.60
   1   5  -5    4.70    0.70
   1   5  -5    5.10    0.80
  -1   5   5    5.10    0.80
  -1   5   5    4.30    0.70
   0  -5  -5   45.40    1.60
   0  -5  -5   44.10    2.10
   0  -5   5   42.00    1.80
   0  -5   5   44.40    1.80
   0  -5   5   43.50    2.00
   0   5  -5   40.20    1.90
   0   5   5   42.50    1.90
   0   5  -5   41.50    1.90
   0   5   5   44.00    1.60
  -1  -5  -5   82.49    2.10
   1  -5   5   85.69    2.80
   1  -5   5   80.39    3.00
  -1  -5  -5   79.79    3.00
  -1  -5  -5   84.99    2.20
   1  -5   5   83.49    2.80
  -1   5  -5   79.89    2.90
   1   5   5   79.49    3.00
   1   5   5   83.09    2.40
  -1   5  -5   79.29    3.00
   2  -5   5   41.70    1.90
   2  -5   5   44.50    2.20
  -2  -5  -5   40.20    2.10
   2  -5   5   41.20    1.90
   2   5   5   40.70    1.40
   2   5   5   40.70    2.10
  -2   5  -5   42.00    1.90
  -2   5  -5   40.40    2.10
   3  -5   5    0.00    0.40
   3  -5   5    0.00    0.40
  -3  -5  -5   -0.60    0.40
   3  -5   5    0.80    0.60
  -3   5  -5   -0.40    0.30
   3   5   5   -0.50    0.40
  -3   5  -5   -0.10    0.40
  -3   5  -5    0.20    0.50
   3   5   5   -0.10    0.20
   4  -5   5    5.90    0.90
  -4  -5  -5    6.20    1.10
   4  -5   5    3.70    0.90
  -4  -5  -5    5.70    1.00
   4  -5   5    7.00    1.10
  -4   5  -5    3.20    0.90
   4   5   5    5.00    0.90
  -4   5  -5    5.10    1.00
  -4   5  -5    4.20    0.70
   4   5   5    6.50    0.50
   5  -5   5    8.10    1.10
  -5  -5  -5    5.80    1.20
   5  -5   5    7.70    1.30
  -5   5  -5    6.60    1.10
  -5   5  -5    8.00    1.30
   5   5   5    9.80    1.30
  -5   5  -5    7.20    1.00
  -6   5  -5    3.20    1.10
  -8  -6   5    0.10    0.80
  -7  -6   5   10.60    1.60
   7   6  -5    8.70    1.20
   7   6  -5   11.10    1.50
  -6  -6   5    0.40    0.50
  -6  -6   5    0.20    0.50
  -6  -6   5    0.40    0.70
   6   6  -5   -0.10    0.40
  -6   6   5   -0.40    0.40
  -5  -6   5   18.30    1.40
  -5  -6   5   15.90    1.40
   5  -6  -5   18.30    1.50
  -5  -6   5   18.60    1.50
  -5   6   5   17.10    1.40
   5   6  -5   14.90    1.30
  -4  -6   5   15.10    1.20
  -4  -6   5   19.90    1.40
   4  -6  -5   18.20    1.40
  -4  -6   5   17.40    1.20
  -4   6   5   18.30    1.30
  -4   6   5   16.90    1.30
  -4   6   5   17.40    1.40
  -3  -6   5   17.10    1.20
   3  -6  -5   17.40    1.20
  -3  -6   5   16.00    1.30
  -3  -6   5   16.90    1.30
  -3   6   5   17.10    1.20
  -3   6   5   14.50    1.20
  -3   6   5   16.20    1.30
  -2  -6   5  118.99    3.90
   2  -6  -5  114.59    3.70
  -2  -6   5  119.39    3.80
  -2  -6   5  120.49    3.60
   2  -6  -5  121.09    3.80
  -2   6   5  118.89    3.80
  -2   6   5  118.09    3.80
   2   6  -5  120.89    3.50
  -2   6   5  115.09    3.50
   2   6  -5  114.69    3.90
   1  -6  -5   18.20    1.30
  -1  -6   5   18.60    1.20
  -1  -6   5   17.10    1.10
  -1  -6   5   18.10    1.30
   1  -6  -5   18.00    1.10
   1   6  -5   19.60    1.20
  -1   6   5   17.80    1.30
  -1   6   5   19.10    1.10
   1   6  -5   21.20    1.40
  -1   6   5   18.10    1.20
   0  -6  -5   29.60    1.70
   0  -6  -5   36.20    1.40
   0  -6   5   34.90    1.70
   0  -6   5   33.90    1.60
   0  -6   5   31.10    1.70
   0   6   5   34.60    1.70
   0   6  -5   31.90    1.70
   0   6  -5   33.80    1.70
   0   6   5   33.40    1.80
   0   6   5   33.30    1.40
   1  -6   5   38.80    1.80
  -1  -6  -5   37.30    2.00
   1  -6   5   37.90    2.00
   1  -6   5   42.30    1.90
   1   6   5   43.50    2.00
  -1   6  -5   38.10    1.90
  -1   6  -5   39.90    2.00
   1   6   5   39.60    1.40
   2  -6   5    0.60    0.40
   2  -6   5    1.30    0.50
   2  -6   5    1.10    0.60
  -2  -6  -5    1.30    0.60
  -2   6  -5    1.30    0.50
   2   6   5    1.30    0.50
  -2   6  -5    0.90    0.60
   2   6   5    0.90    0.30
   3  -6   5   10.90    1.10
   3  -6   5   10.90    1.40
  -3  -6  -5    9.90    1.20
   3  -6   5    9.20    1.10
   3   6   5   10.40    1.20
  -3   6  -5    9.60    1.00
   3   6   5   10.40    0.60
  -3   6  -5    9.60    1.30
  -4  -6  -5    5.40    1.10
   4  -6   5    4.40    0.90
  -4  -6  -5    4.90    1.00
   4  -6   5    4.40    1.00
   4  -6   5    3.80    0.80
   4   6   5    5.40    1.00
  -4   6  -5    3.50    0.90
   4   6   5    4.70    0.40
  -4   6  -5    4.60    0.90
  -4   6  -5    5.30    0.80
  -5  -6  -5   13.70    1.60
   5  -6   5    8.30    1.10
   5  -6   5   12.30    1.60
  -5   6  -5   12.30    1.20
  -7  -7   5   -0.30    0.80
   7   7  -5    0.30    0.60
   7   7  -5    0.80    0.80
  -6  -7   5    5.90    1.10
  -6  -7   5    7.30    1.10
  -6  -7   5    6.80    1.10
  -6   7   5    4.80    1.00
   6   7  -5    6.90    1.10
  -5  -7   5    0.10    0.40
  -5  -7   5    0.40    0.50
   5  -7  -5   -0.30    0.40
  -5  -7   5   -0.40    0.50
  -5   7   5    0.80    0.50
   5   7  -5    0.00    0.40
  -4  -7   5    1.30    0.50
  -4  -7   5    0.70    0.60
  -4  -7   5    0.80    0.50
   4  -7  -5    1.30    0.60
  -4   7   5    1.40    0.50
  -4   7   5    0.40    0.40
  -4   7   5    0.20    0.50
  -3  -7   5    5.00    0.80
  -3  -7   5    4.80    0.90
  -3  -7   5    3.90    0.80
   3  -7  -5    5.40    0.80
  -3   7   5    5.60    0.80
  -3   7   5    4.00    0.80
  -3   7   5    4.80    0.80
   2  -7  -5    6.40    0.80
  -2  -7   5    6.60    0.80
   2  -7  -5    5.60    0.90
  -2  -7   5    6.50    0.90
  -2  -7   5    6.30    0.90
  -2   7   5    5.90    0.90
   2   7  -5    5.90    0.90
   2   7  -5    6.60    0.80
  -2   7   5    5.50    0.80
  -2   7   5    5.70    0.80
  -1  -7   5  132.99    4.20
   1  -7  -5  140.19    4.00
   1  -7  -5  141.69    4.40
  -1  -7   5  140.09    4.20
  -1   7   5  139.29    4.20
  -1   7   5  141.09    3.90
   1   7  -5  146.09    4.20
  -1   7   5  140.59    4.40
   1   7  -5  137.99    4.50
   0  -7  -5    0.50    0.50
   0  -7   5    0.70    0.40
   0  -7   5    0.90    0.50
   0  -7  -5    1.20    0.30
   0  -7   5    1.10    0.50
   0   7   5    0.30    0.50
   0   7  -5    1.20    0.50
   0   7  -5    0.80    0.40
   0   7   5    1.30    0.40
   0   7   5    0.80    0.40
   1  -7   5    3.10    0.60
   1  -7   5    3.20    0.70
  -1  -7  -5    3.30    0.80
   1  -7   5    3.70    0.80
   1   7   5    2.30    0.70
   1   7   5    3.00    0.70
  -1   7  -5    3.60    0.70
  -1   7  -5    3.00    0.70
   1   7   5    3.10    0.40
  -2  -7  -5    8.70    1.10
   2  -7   5   11.20    1.10
   2  -7   5    9.20    1.00
   2  -7   5   10.50    1.20
   2   7   5   10.80    1.20
  -2   7  -5    9.10    1.10
   2   7   5    9.90    1.20
   2   7   5    8.90    0.60
  -2   7  -5    8.70    1.20
   3  -7   5    4.40    0.90
   3  -7   5    5.00    0.90
   3  -7   5    4.20    0.80
  -3  -7  -5    5.60    1.00
  -3   7  -5    4.40    0.80
   3   7   5    4.40    0.40
   3   7   5    4.30    0.90
  -3   7  -5    3.10    0.90
  -4  -7  -5    6.30    1.10
  -4  -7  -5    6.60    1.10
   4  -7   5    4.70    0.90
   4  -7   5    6.20    1.10
   4   7   5    5.90    1.00
  -4   7  -5    4.60    0.80
   4   7   5    5.60    0.40
  -4   7  -5    3.60    1.00
  -4   7  -5    5.90    1.00
   5  -7   5    1.30    0.60
  -5  -7  -5    1.00    0.80
   5  -7   5    1.60    0.80
  -5   7  -5    0.90    0.80
  -7  -8   5    1.10    0.80
   7   8  -5    0.10    0.60
  -6  -8   5    4.80    1.00
  -6  -8   5    5.10    0.90
   6   8  -5    4.80    0.90
  -6   8   5    5.90    1.00
  -5  -8   5  159.48    5.20
  -5  -8   5  158.98    5.20
  -5  -8   5  162.88    5.20
   5   8  -5  158.28    4.90
  -5   8   5  169.48    5.20
  -4  -8   5   37.70    2.00
  -4  -8   5   35.70    2.00
  -4  -8   5   36.90    2.00
  -4   8   5   38.00    2.00
  -4   8   5   36.70    2.00
  -4   8   5   39.10    2.00
  -3  -8   5    6.50    0.90
  -3  -8   5    5.90    1.00
   3  -8  -5    6.20    0.90
  -3  -8   5    5.70    0.90
  -3   8   5    6.70    0.90
  -3   8   5    5.80    0.90
  -3   8   5    5.90    0.90
   2  -8  -5   25.40    1.40
  -2  -8   5   25.70    1.50
  -2  -8   5   24.20    1.60
  -2  -8   5   25.60    1.50
  -2   8   5   25.20    1.50
  -2   8   5   27.30    1.50
   2   8  -5   25.30    1.40
  -2   8   5   29.20    1.70
  -1  -8   5    5.10    0.80
   1  -8  -5    3.90    0.80
  -1  -8   5    6.10    0.90
   1  -8  -5    3.80    0.60
   1   8  -5    2.50    0.70
   1   8  -5    5.70    0.80
  -1   8   5    4.40    0.90
  -1   8   5    4.50    0.70
  -1   8   5    5.20    0.70
   0  -8  -5    0.20    0.50
   0  -8   5   -0.20    0.30
   0  -8   5    0.90    0.40
   0  -8   5    0.60    0.50
   0  -8  -5    0.10    0.30
   0   8  -5    0.10    0.40
   0   8   5    0.80    0.40
   0   8   5    0.20    0.50
   0   8   5    0.10    0.30
   0   8  -5    0.50    0.40
   1  -8   5   32.00    1.80
   1  -8   5   32.60    1.80
  -1  -8  -5   28.30    1.80
   1  -8   5   30.50    1.70
   1   8   5   31.40    1.80
   1   8   5   32.80    1.70
  -1   8  -5   35.30    1.90
   1   8   5   31.30    1.30
  -1   8  -5   29.40    1.80
  -2  -8  -5    6.00    1.00
   2  -8   5    5.90    0.90
   2  -8   5    5.90    0.90
   2  -8   5    4.90    0.90
  -2   8  -5    5.70    1.00
  -2   8  -5    5.50    0.90
   2   8   5    6.40    0.50
   2   8   5    6.10    1.00
   2   8   5    6.60    1.00
  -3  -8  -5   75.39    3.20
   3  -8   5   79.09    3.00
   3  -8   5   79.79    3.30
   3  -8   5   81.79    3.30
   3   8   5   73.89    2.00
  -3   8  -5   73.69    3.10
   3   8   5   78.89    3.20
   3   8   5   79.49    3.10
  -3   8  -5   77.49    3.40
   4  -8   5    0.80    0.60
  -4  -8  -5    0.40    0.60
   4  -8   5    1.70    0.80
  -4   8  -5    1.50    0.80
   4   8   5    0.80    0.50
  -4   8  -5    1.40    0.50
   4   8   5    0.60    0.50
  -4   8  -5    1.00    0.50
   5  -8   5    1.00    0.60
   5  -8   5    3.10    1.00
  -5   8  -5    2.20    1.00
   7   9  -5    1.10    0.70
  -6  -9   5   31.00    2.10
  -6   9   5   31.90    2.00
   6   9  -5   30.60    1.90
  -5  -9   5    1.70    0.60
   5  -9  -5    2.40    0.70
  -5  -9   5    1.80    0.70
  -5  -9   5    0.50    0.60
  -5   9   5    1.70    0.70
   5   9  -5    0.60    0.60
  -5   9   5    1.80    0.70
  -4  -9   5   55.29    2.60
  -4  -9   5   58.69    2.70
  -4  -9   5   58.99    2.70
   4  -9  -5   56.49    2.70
  -4   9   5   63.89    2.60
  -4   9   5   60.59    2.70
  -4   9   5   59.79    2.60
   3  -9  -5    1.00    0.50
  -3  -9   5    0.20    0.50
  -3  -9   5    0.10    0.50
  -3  -9   5    1.30    0.50
  -3   9   5    0.70    0.60
  -3   9   5    0.80    0.50
  -3   9   5    1.10    0.50
  -2  -9   5   -0.30    0.40
   2  -9  -5    0.60    0.40
  -2  -9   5   -0.20    0.40
  -2  -9   5   -0.10    0.30
   2   9  -5    0.00    0.40
  -2   9   5   -0.40    0.40
  -2   9   5    0.50    0.40
  -2   9   5    0.30    0.40
  -1  -9   5    0.40    0.40
  -1  -9   5    0.30    0.40
   1  -9  -5    0.80    0.40
  -1   9   5    0.40    0.40
   1   9  -5    2.00    0.60
  -1   9   5    1.30    0.50
  -1   9   5    0.30    0.50
   1   9  -5    0.00    0.40
   0  -9   5    8.20    1.00
   0  -9   5   10.50    1.10
   0  -9  -5    7.00    1.10
   0  -9  -5    7.80    0.60
   0   9   5    8.20    1.10
   0   9   5    8.30    0.90
   0   9   5    6.50    0.70
   0   9  -5    8.00    1.10
   0   9  -5    9.70    1.10
  -1  -9  -5   29.30    1.90
   1  -9   5   25.80    1.60
   1  -9   5   18.80    1.40
   1  -9   5   25.50    1.60
   1   9   5   26.00    1.50
   1   9   5   25.30    1.70
  -1   9  -5   23.90    1.70
  -1   9  -5   28.00    1.70
   1   9   5   27.00    1.20
   2  -9   5  314.87    8.20
  -2  -9  -5  313.77    8.50
   2  -9   5  322.97    8.40
   2  -9   5  307.97    8.60
   2   9   5  313.57    8.40
  -2   9  -5  314.47    8.50
   2   9   5  326.57    8.20
  -2   9  -5  306.47    8.60
   2   9   5  309.47    7.10
  -3  -9  -5   22.80    1.70
   3  -9   5   27.00    1.90
   3  -9   5   27.00    1.80
   3  -9   5   24.90    1.70
  -3   9  -5   23.10    1.90
   3   9   5   24.80    1.70
   3   9   5   27.40    1.00
  -3   9  -5   27.40    1.80
   4  -9   5    1.30    0.70
  -4  -9  -5    0.20    0.70
   4  -9   5    0.60    0.60
   4   9   5    1.10    0.60
  -4   9  -5    1.00    0.80
   5  -9   5    0.30    0.80
   5  -9   5    0.20    0.70
  -5   9  -5    0.90    0.80
   7  10  -5    3.70    1.00
   6  10  -5    6.80    1.10
   5 -10  -5  110.09    4.30
  -5 -10   5  116.19    4.10
  -5 -10   5  108.49    4.20
  -5  10   5  115.49    4.10
   5  10  -5  108.19    3.90
  -4 -10   5    4.60    0.90
   4 -10  -5    6.10    1.00
  -4  10   5    6.80    1.10
  -4  10   5    4.70    0.90
  -3 -10   5   83.09    3.30
   3 -10  -5   79.99    3.10
  -3 -10   5   86.69    3.30
  -3  10   5   78.29    3.00
  -3  10   5   76.79    3.20
  -2 -10   5    0.80    0.50
   2 -10  -5    1.70    0.50
  -2 -10   5    0.30    0.40
  -2  10   5    0.80    0.50
  -2  10   5    1.20    0.60
   2  10  -5    1.40    0.50
   1 -10  -5    9.80    0.90
  -1 -10   5   14.80    1.20
  -1 -10   5    8.60    1.00
   1  10  -5   11.20    1.10
  -1  10   5   11.50    1.30
  -1  10   5   11.40    1.00
   0 -10   5    7.70    1.00
   0 -10  -5    6.20    0.60
   0 -10   5    6.20    0.90
   0  10   5    6.60    1.10
   0  10   5    6.10    0.70
   0  10  -5    6.90    1.00
   0  10  -5    6.50    1.00
   1 -10   5   -0.20    0.40
  -1 -10  -5    0.30    0.50
   1 -10   5    0.10    0.50
  -1  10  -5    0.40    0.50
   1  10   5    0.80    0.50
   1  10   5    0.10    0.30
  -1  10  -5    0.10    0.40
  -2 -10  -5    2.80    0.90
   2 -10   5    1.50    0.60
   2 -10   5    2.90    0.80
  -2  10  -5    3.20    0.80
   2  10   5    1.30    0.30
   2  10   5    2.40    0.70
  -2  10  -5    2.00    0.70
  -3 -10  -5    1.20    0.60
   3 -10   5    0.60    0.60
  -3  10  -5    1.80    0.60
  -3  10  -5    1.20    0.80
   3  10   5    0.70    0.50
   3  10   5    0.90    0.30
  -4 -10  -5    1.10    0.80
   4 -10   5    1.80    0.90
  -4  10  -5    2.40    0.90
   6  11  -5    9.10    1.30
  -5 -11   5    1.20    0.50
   5 -11  -5    0.20    0.60
  -5  11   5    0.90    0.70
  -4 -11   5   18.00    1.60
   4 -11  -5   17.70    1.50
  -4  11   5   15.40    1.40
   3 -11  -5   28.20    1.70
  -3 -11   5   29.80    1.90
  -3 -11   5   27.10    1.80
  -3  11   5   26.90    1.70
  -3  11   5   25.10    1.90
  -2 -11   5   45.00    2.40
   2 -11  -5   47.20    2.10
  -2 -11   5   45.60    2.30
  -2  11   5   44.60    2.10
  -2  11   5   42.90    2.40
   2  11  -5   48.80    2.20
  -1 -11   5    5.40    1.00
   1 -11  -5    6.00    0.80
   1  11  -5    6.60    1.00
  -1  11   5    5.50    0.80
  -1  11   5    5.20    1.10
   0 -11   5  214.28    6.40
   0 -11  -5  213.78    5.30
   0  11  -5  214.78    6.20
   0  11   5  211.08    5.50
   0  11   5  214.68    6.40
   1 -11   5    1.50    0.60
  -1  11  -5    1.70    0.70
   1  11   5    1.50    0.40
   1  11   5    0.90    0.60
  -1  11  -5    1.10    0.60
  -2 -11  -5   11.40    1.50
   2 -11   5   10.60    1.30
   2  11   5   11.70    0.80
  -2  11  -5   12.40    1.40
   2  11   5   11.70    1.40
  -2  11  -5   13.20    1.50
  -3 -11  -5   12.20    1.50
  -3  11  -5   13.20    1.40
   3  11   5   17.30    1.60
  -3  11  -5   13.20    1.70
  -4  11  -5   14.10    1.80
   5 -12  -5    0.50    0.50
  -5  12   5   -0.10    0.60
   4 -12  -5    0.80    0.50
  -4 -12   5    0.20    0.50
  -4  12   5    0.50    0.70
  -3 -12   5  142.79    4.90
   3 -12  -5  133.59    4.60
  -3 -12   5  147.09    5.00
  -3  12   5  148.29    4.60
  -3  12   5  135.29    4.80
   2 -12  -5    2.10    0.50
  -2 -12   5    3.30    0.80
  -2 -12   5    1.80    0.70
  -2  12   5    2.80    0.70
  -2  12   5    2.10    0.80
   1 -12  -5    6.50    0.80
  -1 -12   5    7.00    1.10
   1  12  -5    8.00    1.10
  -1  12   5    6.10    0.90
  -1  12   5    5.40    1.10
   0 -12   5    4.60    0.90
   0 -12  -5    3.70    0.50
   0  12   5    1.50    0.60
   0  12  -5    2.70    0.70
   0  12   5    1.90    0.50
   1 -12   5   76.09    3.30
   1  12   5   79.99    3.40
  -1  12  -5   80.49    3.40
   1  12   5   81.99    2.60
   2  12   5    8.50    0.70
  -2  12  -5    7.60    1.20
   2  12   5    6.40    1.10
  -2  12  -5    8.20    1.20
  -3  12  -5    1.80    0.80
  -3  12  -5    2.00    0.60
  -5  13   5    1.40    0.90
  -4 -13   5   22.00    1.70
   4 -13  -5   19.00    1.50
  -4  13   5   21.20    1.90
   3 -13  -5    8.90    1.10
  -3 -13   5    9.70    1.30
  -3  13   5    8.80    1.20
  -3  13   5   10.20    1.40
   2 -13  -5    5.50    0.80
  -2 -13   5    5.30    1.00
  -2 -13   5    6.60    1.10
  -2  13   5    4.50    0.80
  -2  13   5    5.90    1.20
  -1 -13   5   11.40    1.30
   1 -13  -5   11.20    1.00
  -1  13   5   14.20    1.60
   1  13  -5   13.00    1.30
  -1  13   5   11.00    1.10
   0 -13  -5   21.80    1.00
   0 -13   5   20.60    1.60
   0  13  -5   24.20    1.70
   0  13   5   23.10    1.70
   0  13   5   21.10    1.40
   1  13   5   10.70    1.30
   1  13   5    8.00    0.80
  -1  13  -5    7.20    1.10
   2  13   5    1.20    0.30
  -2  13  -5    0.90    0.50
  -5  14   5    3.60    1.10
  -4  14   5    4.30    1.10
   3 -14  -5    1.60    0.60
  -3 -14   5    0.90    0.60
  -3  14   5    0.50    0.70
  -3  14   5    1.30    0.70
   2 -14  -5    1.80    0.50
  -2 -14   5    2.10    0.70
  -2  14   5    1.30    0.90
  -2  14   5    1.30    0.60
   1 -14  -5    0.10    0.50
   1  14  -5    0.60    0.50
  -1  14   5   -1.00    0.60
  -1  14   5    0.10    0.40
   0 -14  -5   19.60    1.00
   0  14   5   17.60    1.30
   0  14   5   17.40    1.70
   1  14   5   -0.30    0.20
  -4  15   5    5.70    1.30
  -3  15   5    0.30    0.80
  -3  15   5    0.30    0.60
  -2 -15   5    3.20    0.80
  -2  15   5    1.80    0.70
  -2  15   5    1.60    0.80
   1 -15  -5   -0.20    0.50
  -1  15   5    0.10    0.50
  -1  15   5    0.00    0.40
   0 -15  -5    0.50    0.40
   0  15   5    0.90    0.60
  -3  16   5    1.00    0.70
  -2  16   5   -0.50    0.80
  -2  16   5   -0.20    0.50
   1 -16  -5    6.80    0.90
  -1  16   5    7.10    1.10
   0 -16  -5    0.00    0.30
   0  16   5    0.60    0.50
  -7   0   6    1.10    0.90
  -6   0   6    0.90    0.80
  -5   0   6    5.00    1.00
   4   0  -6   21.60    1.50
  -4   0   6   16.50    1.60
   3   0  -6   23.30    1.30
   3   0  -6   21.60    1.50
  -3   0   6   20.20    1.60
  -3   0   6   20.90    1.40
  -2   0   6  635.24   14.50
   2   0  -6  651.83   14.50
   2   0  -6  629.84   15.30
  -2   0   6  638.44   15.10
   1   0  -6  322.37    8.20
  -1   0   6  311.27    7.80
  -1   0   6  326.57    8.40
   1   0  -6  316.37    8.10
   0   0   6    3.90    0.60
   0   0  -6    4.50    0.70
   0   0   6    4.10    0.80
   0   0  -6    2.80    0.70
  -1   0  -6    0.00    0.30
   1   0   6    0.20    0.30
   1   0   6    0.30    0.40
  -1   0  -6    0.10    0.40
   2   0   6    1.10    0.40
  -2   0  -6    1.30    0.40
   2   0   6    1.00    0.60
  -2   0  -6    0.80    0.60
   3   0   6    3.30    0.80
   3   0   6    3.60    0.70
  -3   0  -6    3.60    0.50
  -3   0  -6    3.40    0.90
   4   0   6   11.30    0.90
  -4   0  -6   11.00    1.50
   4   0   6   10.00    1.40
  -5   0  -6   13.50    1.80
  -5   0  -6   14.40    1.70
  -7  -1   6   12.80    1.70
  -7   1   6    9.10    1.30
  -6  -1   6    6.00    1.20
  -6   1   6   10.30    1.40
  -5  -1   6   -0.70    0.50
  -5   1   6   -0.10    0.50
   4  -1  -6    0.80    0.50
  -4  -1   6   -0.30    0.60
  -4   1   6   -0.10    0.50
   4   1  -6    0.70    0.40
  -3  -1   6    2.50    0.80
   3  -1  -6    1.30    0.60
  -3  -1   6    2.30    0.60
   3  -1  -6    0.60    0.40
  -3   1   6    1.10    0.60
   3   1  -6    1.30    0.50
   3   1  -6    1.90    0.50
  -3   1   6    2.10    0.60
  -2  -1   6  240.38    6.40
   2  -1  -6  251.47    6.80
   2  -1  -6  257.67    6.60
  -2  -1   6  250.07    6.90
   2   1  -6  243.88    6.80
   2   1  -6  250.77    6.50
  -2   1   6  245.08    6.80
  -2   1   6  238.08    6.40
  -1  -1   6   96.89    3.20
  -1  -1   6  100.19    3.60
   1  -1  -6  103.39    3.50
   1  -1  -6  104.19    3.40
  -1   1   6  104.29    3.30
   1   1  -6  104.29    3.50
  -1   1   6  111.69    3.80
   1   1  -6  104.49    3.50
   0  -1   6   22.30    1.30
   0  -1   6   21.20    1.50
   0  -1  -6   23.10    1.30
   0  -1  -6   21.50    1.50
   0   1   6   21.20    1.20
   0   1  -6   20.70    1.30
   0   1  -6   23.50    1.50
   0   1   6   19.80    1.40
   1  -1   6    0.00    0.30
   1  -1   6    0.40    0.50
  -1  -1  -6   -0.10    0.50
  -1  -1  -6    0.00    0.30
   1   1   6    0.30    0.30
  -1   1  -6   -0.50    0.40
  -1   1  -6    0.00    0.30
   1   1   6    0.00    0.50
   2  -1   6   -0.50    0.40
  -2  -1  -6   -0.10    0.50
   2  -1   6    0.00    0.40
  -2  -1  -6    0.00    0.30
   2   1   6    0.10    0.40
  -2   1  -6    0.30    0.40
  -2   1  -6   -0.40    0.40
   2   1   6    0.00    0.30
   3  -1   6   22.90    1.40
   3  -1   6   23.30    1.80
  -3  -1  -6   22.30    1.70
  -3   1  -6   23.60    1.20
  -3   1  -6   27.00    1.90
   3   1   6   21.00    1.20
   3   1   6   23.50    1.80
   4  -1   6   30.50    2.30
   4  -1   6   29.60    1.60
  -4  -1  -6   39.90    2.30
   4   1   6   37.40    2.30
   4   1   6   33.10    1.50
  -4   1  -6   34.20    1.20
  -4   1  -6   31.60    2.10
   5  -1   6   10.10    1.00
  -5  -1  -6    9.90    1.50
  -5  -1  -6   10.40    1.70
  -5   1  -6    9.20    1.50
   5   1   6    9.40    0.90
  -5   1  -6   10.10    1.60
  -7  -2   6   53.49    3.10
  -7  -2   6   54.69    2.80
  -7   2   6   50.99    2.90
  -6  -2   6    0.00    0.70
  -6   2   6    0.70    0.60
  -5  -2   6    1.70    0.70
  -5   2   6    1.10    0.60
  -4  -2   6   51.59    2.60
   4  -2  -6   51.59    2.40
  -4   2   6   51.29    2.50
  -3  -2   6    6.20    1.10
   3  -2  -6    8.30    1.10
   3  -2  -6    8.30    1.00
  -3   2   6    9.50    1.00
  -3   2   6    8.60    1.10
   3   2  -6    9.80    0.90
   3   2  -6    8.30    1.10
  -3   2   6    7.50    1.00
   2  -2  -6   32.60    1.80
   2  -2  -6   31.80    1.70
  -2  -2   6   29.00    1.60
  -2  -2   6   27.60    1.70
  -2   2   6   28.80    1.60
  -2   2   6   36.20    1.90
   2   2  -6   27.70    1.60
   2   2  -6   29.40    1.70
   1  -2  -6   30.00    1.60
  -1  -2   6   31.30    1.60
  -1  -2   6   30.50    1.90
   1  -2  -6   34.60    1.80
   1   2  -6   31.90    1.70
  -1   2   6   36.20    1.90
  -1   2   6   32.60    1.60
   1   2  -6   35.50    1.80
   0  -2  -6    2.30    0.70
   0  -2   6    1.80    0.60
   0  -2   6    1.70    0.50
   0  -2  -6    2.00    0.50
   0   2   6    2.30    0.50
   0   2  -6    2.10    0.60
   0   2  -6    2.20    0.50
   0   2   6    2.70    0.70
  -1  -2  -6   63.19    2.10
   1  -2   6   61.49    2.30
  -1  -2  -6   57.19    2.60
  -1   2  -6   61.89    2.70
   1   2   6   65.49    2.80
  -1   2  -6   61.59    2.40
   1   2   6   62.09    2.20
  -2  -2  -6    1.60    0.30
   2  -2   6    0.90    0.60
   2  -2   6    1.20    0.50
  -2  -2  -6    0.90    0.60
   2   2   6    1.50    0.40
  -2   2  -6    1.10    0.50
  -2   2  -6    2.30    0.70
   2   2   6    2.00    0.70
   3  -2   6   15.50    1.20
   3  -2   6   14.10    1.60
  -3  -2  -6   14.10    1.50
   3   2   6   16.40    1.60
   3   2   6   17.90    1.00
  -3   2  -6   17.90    1.70
  -3   2  -6   17.00    1.10
  -4  -2  -6   51.29    2.70
   4  -2   6   53.99    3.00
   4  -2   6   57.39    2.40
  -4   2  -6   58.89    3.00
   4   2   6   57.09    2.90
  -4   2  -6   59.19    2.00
   4   2   6   53.59    2.00
   5  -2   6    3.90    0.80
   5  -2   6    4.10    1.20
  -5  -2  -6    3.70    1.20
  -5  -2  -6    5.60    1.20
   5   2   6    5.00    0.60
  -5   2  -6    5.60    1.20
  -7  -3   6   29.50    2.00
  -7  -3   6   27.10    2.20
  -6  -3   6   20.70    2.00
  -6  -3   6   22.80    1.80
  -6   3   6   22.40    1.70
  -5  -3   6   17.70    1.70
  -5   3   6   16.20    1.60
   4  -3  -6    1.50    0.60
   4  -3  -6    1.50    0.50
  -4  -3   6    2.90    0.80
  -4   3   6    1.90    0.70
   3  -3  -6    3.70    0.70
   3  -3  -6    1.80    0.60
  -3  -3   6    2.40    0.80
   3   3  -6    2.40    0.60
  -3   3   6    2.10    0.60
  -3   3   6    3.20    0.70
  -3   3   6    2.90    0.80
   3   3  -6    2.90    0.60
  -2  -3   6   13.30    1.30
   2  -3  -6   15.10    1.20
   2  -3  -6   15.20    1.20
  -2  -3   6   13.50    1.10
  -2   3   6   15.30    1.10
   2   3  -6   15.00    1.20
   2   3  -6   14.70    1.10
  -2   3   6   15.20    1.30
  -1  -3   6   37.40    2.00
   1  -3  -6   45.70    1.90
  -1  -3   6   45.20    2.00
   1  -3  -6   43.60    2.10
  -1   3   6   42.10    2.10
  -1   3   6   40.90    1.80
   1   3  -6   39.50    2.00
   1   3  -6   43.00    2.00
   0  -3   6    8.10    1.10
   0  -3  -6    9.00    0.80
   0  -3  -6    9.90    1.20
   0  -3   6   10.10    1.00
   0   3   6   10.30    1.10
   0   3  -6   10.20    1.10
   0   3   6    9.10    0.90
   0   3  -6    8.30    0.90
   1  -3   6    0.50    0.40
  -1  -3  -6    1.00    0.60
   1  -3   6    0.50    0.50
  -1  -3  -6    0.50    0.30
  -1   3  -6    0.50    0.50
  -1   3  -6    1.00    0.40
   1   3   6    0.20    0.30
   1   3   6    0.20    0.50
  -2  -3  -6    5.80    1.00
   2  -3   6    6.20    0.80
   2  -3   6    6.90    1.20
  -2   3  -6    6.40    1.10
   2   3   6    6.60    1.10
  -2   3  -6    7.60    0.90
   2   3   6    7.20    0.70
   3  -3   6   65.89    3.20
  -3  -3  -6   67.39    3.00
   3  -3   6   67.39    2.60
  -3   3  -6   69.29    2.60
   3   3   6   73.49    3.20
  -3   3  -6   70.89    3.20
   3   3   6   69.39    2.30
  -4  -3  -6   20.50    1.80
   4  -3   6   16.40    1.30
   4  -3   6   16.90    1.90
   4   3   6   15.80    0.90
   4   3   6   16.40    1.70
  -4   3  -6   16.60    1.10
  -4   3  -6   17.70    1.80
  -5  -3  -6   21.50    2.10
  -5  -3  -6   15.20    1.80
   5   3   6   16.40    1.00
  -5   3  -6   15.80    1.80
  -5   3  -6   16.40    1.00
  -7  -4   6   25.60    2.30
  -7  -4   6   25.00    1.80
  -6  -4   6    8.80    1.20
  -6  -4   6    5.10    1.20
  -6   4   6    6.90    1.10
  -5  -4   6    1.90    0.70
  -5  -4   6    0.90    0.60
   5  -4  -6    1.10    0.50
  -5   4   6    0.90    0.60
  -4  -4   6    0.80    0.60
   4  -4  -6    1.00    0.60
  -4   4   6    0.60    0.40
  -4   4   6    0.60    0.50
  -4   4   6    1.00    0.50
   3  -4  -6    8.60    1.10
   3  -4  -6   10.40    1.10
  -3  -4   6   10.30    1.30
  -3   4   6    9.60    1.10
   3   4  -6   10.70    0.90
  -3   4   6    9.50    1.00
   3   4  -6    9.10    1.10
  -3   4   6    9.80    1.20
   2  -4  -6   12.30    1.00
  -2  -4   6   12.80    1.10
   2  -4  -6   11.30    1.20
  -2  -4   6   11.70    1.30
  -2   4   6   10.60    1.20
   2   4  -6   12.40    1.10
   2   4  -6   11.60    1.20
  -2   4   6   11.90    1.20
  -2   4   6   13.10    1.10
   1  -4  -6    0.40    0.30
  -1  -4   6    0.20    0.30
   1  -4  -6    0.00    0.40
  -1  -4   6    0.00    0.40
  -1   4   6   -0.10    0.30
   1   4  -6   -0.10    0.30
  -1   4   6    0.40    0.40
   1   4  -6   -0.10    0.30
   0  -4  -6   18.40    1.40
   0  -4   6   16.60    1.40
   0  -4   6   16.80    1.20
   0  -4  -6   16.70    1.00
   0   4  -6   16.50    1.30
   0   4   6   18.00    1.10
   0   4   6   17.50    1.40
   0   4  -6   16.90    1.20
   1  -4   6    0.90    0.50
   1  -4   6    1.30    0.60
  -1  -4  -6    1.50    0.70
  -1  -4  -6    2.00    0.40
   1   4   6    1.10    0.40
   1   4   6    1.00    0.60
  -1   4  -6    1.20    0.50
  -1   4  -6    1.10    0.60
  -2  -4  -6    0.20    0.60
   2  -4   6    1.60    0.70
   2  -4   6    0.50    0.40
   2   4   6    0.40    0.50
  -2   4  -6   -0.20    0.30
   2   4   6    0.50    0.30
  -2   4  -6    0.90    0.70
   3  -4   6   13.80    1.60
   3  -4   6   17.00    1.30
  -3  -4  -6   14.80    1.60
   3   4   6   14.80    1.50
  -3   4  -6   15.90    1.70
  -3   4  -6   16.10    1.20
   3   4   6   14.10    0.90
   4  -4   6   37.30    2.00
   4  -4   6   38.80    2.60
  -4  -4  -6   40.10    2.40
  -4   4  -6   39.30    2.40
  -4   4  -6   39.40    1.90
   4   4   6   36.60    1.50
  -5  -4  -6    1.10    0.90
  -5  -4  -6    1.30    0.90
  -5   4  -6   -0.90    0.70
  -7  -5   6    2.20    1.00
  -6  -5   6    9.10    1.30
  -6  -5   6    6.60    1.30
  -6   5   6    7.70    1.20
  -5  -5   6    3.40    0.90
  -5  -5   6    3.20    0.80
   5  -5  -6    3.00    0.80
  -5   5   6    3.70    0.90
  -4  -5   6   53.49    2.60
   4  -5  -6   50.29    2.50
  -4   5   6   48.90    2.50
  -4   5   6   46.00    2.30
  -4   5   6   51.09    2.20
   3  -5  -6    4.10    0.80
  -3  -5   6    3.40    0.80
   3  -5  -6    4.60    0.80
   3   5  -6    4.00    0.80
  -3   5   6    4.70    0.80
  -3   5   6    5.50    1.00
  -3   5   6    4.20    0.80
   2  -5  -6   10.10    1.20
   2  -5  -6    8.50    1.00
  -2  -5   6    7.50    1.10
  -2   5   6    8.30    0.90
   2   5  -6   10.60    1.00
  -2   5   6    9.90    1.10
  -2   5   6   10.10    1.10
   2   5  -6    9.50    1.10
  -1  -5   6   21.10    1.50
   1  -5  -6   20.20    1.20
   1  -5  -6   23.30    1.60
  -1  -5   6   21.00    1.40
   1   5  -6   23.40    1.50
   1   5  -6   22.80    1.40
  -1   5   6   21.30    1.50
  -1   5   6   20.20    1.30
  -1   5   6   20.60    1.50
   0  -5  -6   21.70    1.50
   0  -5   6   19.80    1.30
   0  -5  -6   20.60    1.10
   0  -5   6   20.00    1.50
   0   5   6   20.80    1.20
   0   5  -6   21.90    1.40
   0   5  -6   19.50    1.40
   0   5   6   18.70    1.40
  -1  -5  -6   45.30    2.30
   1  -5   6   42.80    2.00
   1  -5   6   45.20    2.40
  -1  -5  -6   46.80    1.40
  -1   5  -6   42.70    2.10
   1   5   6   46.60    1.70
   1   5   6   45.50    2.30
  -1   5  -6   44.70    2.30
   2  -5   6    8.00    1.20
  -2  -5  -6    6.00    1.10
   2  -5   6    7.70    1.00
   2   5   6    7.40    0.70
  -2   5  -6    7.20    0.90
  -2   5  -6    8.40    1.30
   2   5   6    7.30    1.10
   3  -5   6    3.10    0.90
  -3  -5  -6    0.20    0.50
   3  -5   6    2.40    0.70
  -3   5  -6    1.80    0.80
   3   5   6    2.60    0.40
  -3   5  -6    1.50    0.50
   3   5   6    2.00    0.70
  -4  -5  -6    7.20    1.30
   4  -5   6    6.20    1.30
   4  -5   6    5.10    0.90
   4   5   6    7.20    1.10
  -4   5  -6    7.40    1.40
  -4   5  -6    6.50    1.00
  -5   5  -6    0.00    0.70
  -7  -6   6    0.10    0.70
  -6  -6   6   -0.60    0.60
  -6  -6   6   -0.50    0.50
  -6   6   6    0.40    0.40
  -5  -6   6    5.70    1.00
   5  -6  -6    5.50    1.00
  -5  -6   6    4.60    1.00
  -5   6   6    5.20    1.00
  -4  -6   6    3.00    0.80
   4  -6  -6    4.40    0.90
  -4   6   6    4.40    0.90
  -4   6   6    4.10    0.90
  -4   6   6    3.90    0.80
  -3  -6   6   37.00    2.10
   3  -6  -6   40.90    2.10
   3  -6  -6   41.80    2.10
  -3   6   6   42.80    2.20
  -3   6   6   39.50    2.10
  -3   6   6   42.00    2.00
  -2  -6   6    0.20    0.50
   2  -6  -6    0.00    0.30
   2  -6  -6    0.00    0.50
   2   6  -6    0.50    0.50
  -2   6   6    0.20    0.50
  -2   6   6    0.90    0.50
  -2   6   6    0.50    0.50
   2   6  -6    0.30    0.40
  -1  -6   6    4.90    0.80
   1  -6  -6    4.80    0.70
  -1  -6   6    4.20    0.80
   1  -6  -6    5.70    1.00
  -1   6   6    3.60    0.80
   1   6  -6    3.50    0.70
  -1   6   6    4.50    0.80
  -1   6   6    4.30    0.70
   1   6  -6    5.20    0.90
   0  -6   6    0.40    0.40
   0  -6   6    0.50    0.50
   0  -6  -6    0.50    0.40
   0  -6  -6    0.40    0.30
   0   6  -6   -0.20    0.40
   0   6   6    0.10    0.40
   0   6  -6    0.30    0.40
   0   6   6    0.40    0.40
   0   6   6   -0.10    0.50
   1  -6   6    1.30    0.50
   1  -6   6    1.70    0.70
  -1  -6  -6    1.20    0.70
  -1   6  -6    1.60    0.60
  -1   6  -6    1.10    0.50
   1   6   6    0.80    0.30
   1   6   6    1.40    0.60
  -2  -6  -6    2.70    0.80
   2  -6   6    3.50    0.90
   2  -6   6    5.70    0.90
  -2   6  -6    5.00    1.00
   2   6   6    4.20    0.90
  -2   6  -6    5.50    0.90
   2   6   6    4.30    0.50
   3  -6   6    2.70    0.70
   3  -6   6    3.10    0.90
  -3  -6  -6    2.90    0.90
   3   6   6    1.30    0.60
  -3   6  -6    1.50    0.50
  -3   6  -6    1.10    0.80
   3   6   6    3.20    0.40
   4  -6   6    0.40    0.60
   4  -6   6    2.20    0.90
  -4  -6  -6    0.40    0.70
  -4   6  -6    2.40    0.90
  -7  -7   6    2.70    1.10
  -6  -7   6    1.50    0.60
  -6  -7   6    1.50    0.80
  -6   7   6    0.30    0.50
   5  -7  -6   12.10    1.40
  -5  -7   6   11.70    1.40
  -5  -7   6   12.70    1.50
  -5   7   6    9.20    1.30
   4  -7  -6   14.70    1.40
  -4  -7   6   13.60    1.40
  -4  -7   6   13.60    1.50
  -4   7   6   13.50    1.40
  -4   7   6   13.30    1.30
  -4   7   6   13.20    1.30
   3  -7  -6    1.20    0.60
  -3  -7   6    1.40    0.70
  -3   7   6    1.90    0.70
  -3   7   6    0.50    0.50
  -3   7   6    0.60    0.50
   2  -7  -6   16.80    1.20
   2  -7  -6   19.30    1.50
  -2  -7   6   17.30    1.50
  -2   7   6   19.40    1.30
   2   7  -6   18.60    1.40
   2   7  -6   17.30    1.20
  -2   7   6   18.20    1.50
  -2   7   6   17.90    1.40
   1  -7  -6   66.29    2.40
  -1  -7   6   71.09    2.90
   1  -7  -6   71.19    3.00
  -1   7   6   67.49    2.90
  -1   7   6   66.39    2.50
   1   7  -6   68.59    2.90
  -1   7   6   66.69    2.70
   1   7  -6   71.69    2.80
   0  -7   6   -0.10    0.40
   0  -7  -6    0.30    0.30
   0  -7   6    0.20    0.40
   0  -7  -6    0.90    0.50
   0   7   6    0.70    0.60
   0   7  -6    1.10    0.50
   0   7   6    0.20    0.40
   0   7   6    0.80    0.40
   0   7  -6    0.90    0.50
   1  -7   6   14.30    1.40
   1  -7   6   13.30    1.30
  -1  -7  -6   12.40    1.40
   1   7   6   13.50    0.90
  -1   7  -6   16.30    1.30
   1   7   6   16.20    1.50
   1   7   6   15.10    1.40
  -1   7  -6   14.60    1.50
   2  -7   6    6.50    1.10
   2  -7   6    7.00    1.00
  -2  -7  -6    5.00    1.00
  -2   7  -6    7.90    1.20
   2   7   6    7.40    1.20
  -2   7  -6    6.70    1.00
   2   7   6    7.50    0.70
   2   7   6    7.60    1.10
   3  -7   6    0.60    0.70
  -3  -7  -6    0.90    0.70
   3  -7   6    0.40    0.50
   3   7   6    0.40    0.20
   3   7   6    1.00    0.50
  -3   7  -6    1.60    0.50
  -3   7  -6    0.50    0.80
   4  -7   6    6.30    1.10
  -4  -7  -6    2.50    1.00
   4  -7   6    4.20    1.10
  -4   7  -6    4.60    1.20
  -7  -8   6    1.70    1.00
  -6  -8   6    1.60    0.90
  -6  -8   6    0.50    0.50
   5  -8  -6   11.40    1.40
  -5  -8   6   12.50    1.50
  -5  -8   6   13.90    1.50
  -5   8   6   15.70    1.60
   4  -8  -6    8.20    1.10
  -4  -8   6    6.30    1.10
  -4  -8   6    7.30    1.10
  -4   8   6    5.30    0.90
  -4   8   6    8.10    1.10
  -4   8   6    7.30    1.10
   3  -8  -6   18.90    1.40
  -3  -8   6   18.00    1.50
  -3   8   6   17.10    1.40
  -3   8   6   17.20    1.40
  -3   8   6   18.80    1.60
  -2  -8   6    3.50    0.80
   2  -8  -6    4.30    0.90
   2  -8  -6    3.70    0.70
  -2   8   6    2.80    0.70
   2   8  -6    3.90    0.70
  -2   8   6    3.00    0.70
  -2   8   6    3.90    0.90
   1  -8  -6    3.80    0.80
  -1  -8   6    2.80    0.70
   1  -8  -6    2.70    0.60
   1   8  -6    4.50    0.80
  -1   8   6    4.30    0.70
  -1   8   6    3.50    0.90
  -1   8   6    2.00    0.60
   1   8  -6    4.20    0.90
   0  -8  -6    8.40    0.70
   0  -8   6    9.10    1.00
   0  -8   6    9.30    1.10
   0  -8  -6    7.90    1.30
   0   8  -6    8.10    1.10
   0   8  -6    7.20    1.00
   0   8   6    6.60    1.00
   0   8   6    7.50    0.80
   0   8   6    7.20    1.20
   1  -8   6   42.20    2.20
   1  -8   6   43.20    2.20
  -1  -8  -6   38.00    2.30
   1  -8   6   42.10    2.10
   1   8   6   37.00    2.20
   1   8   6   39.90    2.10
   1   8   6   40.40    1.60
  -1   8  -6   38.60    2.10
  -1   8  -6   44.50    2.30
   2  -8   6   13.60    1.40
  -2  -8  -6   14.20    1.60
   2  -8   6   13.00    1.30
   2  -8   6   12.90    1.50
   2   8   6   12.90    1.40
  -2   8  -6   13.30    1.30
   2   8   6   13.30    1.50
   2   8   6   12.70    0.80
  -2   8  -6   13.60    1.50
   3  -8   6    8.90    1.40
   3  -8   6    8.80    1.20
  -3  -8  -6    6.40    1.20
  -3   8  -6    5.70    1.30
  -3   8  -6    7.80    1.10
   3   8   6    9.70    1.30
   4  -8   6    1.60    0.90
  -4  -8  -6    1.50    0.80
   4  -8   6    1.20    0.70
  -4   8  -6    1.30    0.90
  -6  -9   6   26.30    2.10
  -6   9   6   30.30    2.00
  -5  -9   6   14.30    1.60
  -5  -9   6   14.30    1.50
   5  -9  -6   15.10    1.60
  -5   9   6   14.40    1.50
  -4  -9   6   11.10    1.40
   4  -9  -6   12.80    1.30
  -4  -9   6   14.70    1.50
  -4   9   6   13.50    1.40
  -4   9   6   14.60    1.50
  -4   9   6   12.30    1.30
  -3  -9   6    1.40    0.60
   3  -9  -6    1.00    0.50
  -3  -9   6    0.80    0.50
  -3   9   6    0.50    0.50
  -3   9   6    0.40    0.60
  -3   9   6    0.80    0.50
   2  -9  -6    0.00    0.30
  -2  -9   6    0.30    0.40
  -2  -9   6   -0.20    0.50
   2   9  -6    0.30    0.40
  -2   9   6    0.40    0.50
  -2   9   6    0.40    0.50
  -2   9   6   -0.40    0.50
  -1  -9   6    0.70    0.50
   1  -9  -6    1.00    0.50
  -1  -9   6    0.00    0.40
   1  -9  -6    1.10    0.60
  -1   9   6    0.60    0.40
  -1   9   6    0.40    0.60
   1   9  -6    0.80    0.50
   1   9  -6    0.60    0.50
  -1   9   6    0.60    0.50
   0  -9   6    0.00    0.40
   0  -9   6   -0.60    0.40
   0  -9  -6    0.00    0.30
   0  -9  -6   -0.50    0.50
   0   9  -6   -0.30    0.40
   0   9   6   -0.40    0.60
   0   9   6   -0.40    0.40
   0   9  -6    0.10    0.50
   0   9   6    0.20    0.40
  -1  -9  -6   31.00    2.10
   1  -9   6   32.20    2.00
   1  -9   6   30.10    1.90
  -1   9  -6   30.60    1.90
   1   9   6   31.60    1.40
   1   9   6   32.40    1.90
   1   9   6   35.10    2.10
  -1   9  -6   38.20    2.20
   2  -9   6    2.90    0.80
   2  -9   6    1.30    0.70
  -2  -9  -6    1.10    0.70
  -2   9  -6    2.40    0.80
   2   9   6    1.40    0.40
  -2   9  -6    1.40    0.60
   2   9   6    1.40    0.60
   3  -9   6   19.70    1.60
   3  -9   6   20.60    1.90
  -3  -9  -6   22.80    2.00
  -3   9  -6   21.80    2.10
  -4  -9  -6   10.60    1.60
   4  -9   6   11.80    1.40
   4  -9   6    8.50    1.50
   5 -10  -6   32.80    2.10
  -5 -10   6   35.00    2.20
  -4 -10   6   11.90    1.40
   4 -10  -6   12.00    1.30
  -4  10   6   11.40    1.40
  -4  10   6   11.00    1.30
  -3 -10   6   14.80    1.40
   3 -10  -6   13.10    1.30
  -3  10   6   14.70    1.40
  -3  10   6   12.70    1.50
   2 -10  -6    0.20    0.30
  -2 -10   6    0.00    0.40
  -2  10   6    1.10    0.60
   2  10  -6    0.90    0.50
  -2  10   6   -0.30    0.60
  -1 -10   6   -0.10    0.50
  -1 -10   6   -0.50    0.40
   1 -10  -6   -0.40    0.30
   1  10  -6   -0.40    0.40
  -1  10   6   -0.10    0.40
  -1  10   6   -0.30    0.60
   0 -10   6   18.90    1.40
   0 -10   6   18.20    1.50
   0 -10  -6   20.80    1.80
   0 -10  -6   18.30    0.90
   0  10  -6   19.30    1.50
   0  10   6   18.20    1.70
   0  10   6   16.80    1.20
   0  10  -6   21.00    1.60
  -1 -10  -6   10.80    1.50
   1 -10   6   13.90    1.40
   1 -10   6   15.10    1.40
   1  10   6   11.90    1.40
  -1  10  -6   12.80    1.50
   1  10   6   12.60    0.90
  -1  10  -6   17.30    1.50
   2 -10   6   43.80    2.50
  -2 -10  -6   46.30    2.70
   2  10   6   44.50    2.50
  -2  10  -6   47.50    2.50
  -2  10  -6   46.50    2.60
  -3 -10  -6   18.30    1.90
   3 -10   6   22.40    2.00
  -4 -10  -6   -0.10    0.80
  -5 -11   6    0.70    0.50
   5 -11  -6   -0.60    0.40
   4 -11  -6   27.90    1.90
  -4  11   6   31.10    2.00
  -4  11   6   32.30    2.10
   3 -11  -6   28.80    1.80
  -3 -11   6   30.80    1.90
  -3  11   6   29.70    1.90
  -3  11   6   32.30    2.10
  -2 -11   6    1.40    0.60
   2 -11  -6    1.10    0.40
  -2  11   6    0.30    0.50
  -2  11   6    1.00    0.70
  -1 -11   6   13.00    1.30
   1 -11  -6   10.10    0.90
   1  11  -6   11.60    1.30
  -1  11   6   10.10    1.10
  -1  11   6    9.10    1.40
   0 -11  -6   45.00    1.50
   0 -11   6   47.60    2.40
   0  11   6   42.90    2.40
   0  11  -6   47.00    2.40
   0  11   6   41.50    1.90
  -1 -11  -6   29.20    2.20
  -1  11  -6   32.10    2.10
   1  11   6   30.80    1.50
   1  11   6   27.10    1.90
  -1  11  -6   30.20    2.00
  -2 -11  -6    0.50    0.80
  -2  11  -6   -0.60    0.30
  -3 -11  -6    1.50    0.90
  -5  12   6   -0.20    0.80
  -4  12   6   25.20    2.00
   3 -12  -6   24.70    1.60
  -3  12   6   26.20    1.80
  -3  12   6   26.20    2.10
   2 -12  -6    0.50    0.30
  -2  12   6    0.70    0.50
  -2  12   6    0.00    0.60
   1 -12  -6    2.30    0.60
  -1  12   6    4.80    1.20
   1  12  -6    4.70    0.90
  -1  12   6    3.50    0.80
   0 -12  -6   39.60    1.30
   0  12   6   37.00    1.90
   0  12   6   41.00    2.40
   1  12   6    8.30    0.80
   1  12   6    6.60    1.10
  -5  13   6    0.50    0.90
  -4  13   6   -0.10    0.70
  -3  13   6    1.20    0.90
  -3  13   6    0.20    0.60
   2 -13  -6    0.30    0.40
  -2  13   6    0.90    0.80
  -2  13   6    0.70    0.60
   1 -13  -6    4.00    0.70
  -1  13   6    3.80    1.10
  -1  13   6    3.50    0.80
   1  13  -6    5.70    1.00
   0  13   6    7.10    1.00
   1  13   6    1.80    0.40
  -4  14   6    3.10    1.10
  -3  14   6    8.90    1.50
  -3  14   6    9.30    1.30
   2 -14  -6   24.00    1.60
  -2  14   6   24.70    2.20
  -2  14   6   26.80    1.80
   1 -14  -6   32.60    1.60
  -1  14   6   31.00    1.80
  -1  14   6   32.70    2.40
   0  14   6   -0.40    0.40
  -3  15   6   16.20    1.60
  -2  15   6    0.40    0.60
   1 -15  -6    1.30    0.50
  -7   0   7    0.30    0.70
  -6   0   7    0.00    0.80
  -5   0   7    0.10    0.70
   4   0  -7    0.00    0.50
  -4   0   7    0.20    0.50
  -3   0   7   -0.80    0.30
   3   0  -7   -0.10    0.40
  -3   0   7    0.60    0.50
   3   0  -7   -0.50    0.30
  -2   0   7   -0.30    0.40
   2   0  -7   -0.70    0.40
  -2   0   7    0.60    0.50
   2   0  -7   -0.20    0.40
   1   0  -7    0.00    0.40
  -1   0   7   -0.10    0.40
  -1   0   7    0.30    0.40
   1   0  -7   -0.50    0.30
   0   0  -7   -0.40    0.30
   0   0   7    0.00    0.40
   0   0   7   -0.20    0.40
   0   0  -7    0.70    0.50
   1   0   7   -0.10    0.40
   1   0   7    0.40    0.40
  -1   0  -7    0.00    0.40
  -1   0  -7    0.00    0.40
   2   0   7    0.30    0.40
   2   0   7   -0.10    0.40
  -2   0  -7    0.10    0.40
  -2   0  -7   -0.30    0.60
  -3   0  -7    0.20    0.30
   3   0   7    0.00    0.40
  -3   0  -7   -0.80    0.70
   3   0   7    0.30    0.50
  -4   0  -7   -0.10    0.70
  -7  -1   7   23.00    2.30
  -6  -1   7    0.60    0.80
  -6   1   7    0.30    0.40
  -5  -1   7    2.30    1.00
  -5   1   7    1.10    0.70
  -4  -1   7    2.10    0.90
   4  -1  -7    4.10    0.90
   4   1  -7    4.40    1.00
  -4   1   7    2.10    0.70
  -3  -1   7    1.00    0.70
   3  -1  -7    0.60    0.50
   3  -1  -7    0.70    0.50
   3   1  -7    1.10    0.60
   3   1  -7    0.80    0.50
  -3   1   7    0.50    0.60
  -3   1   7    0.70    0.50
   2  -1  -7   16.30    1.30
  -2  -1   7   15.60    1.20
  -2  -1   7   13.70    1.50
   2  -1  -7   16.40    1.40
  -2   1   7   14.20    1.50
   2   1  -7   16.50    1.30
   2   1  -7   16.10    1.30
  -2   1   7   15.00    1.20
   1  -1  -7    0.20    0.40
   1  -1  -7    1.30    0.60
  -1  -1   7    0.80    0.60
  -1  -1   7    1.10    0.50
   1   1  -7    1.10    0.50
   1   1  -7    1.60    0.50
  -1   1   7    0.60    0.50
  -1   1   7    0.90    0.50
   0  -1  -7    4.50    0.90
   0  -1   7    2.50    0.70
   0  -1  -7    2.60    0.60
   0  -1   7    1.40    0.70
   0   1   7    2.30    0.60
   0   1  -7    1.70    0.50
   0   1  -7    3.70    0.80
   0   1   7    3.70    0.80
  -1  -1  -7    0.10    0.40
   1  -1   7    1.30    0.70
  -1  -1  -7    0.60    0.40
   1  -1   7    0.70    0.40
   1   1   7    0.40    0.40
  -1   1  -7    0.60    0.40
  -1   1  -7    1.00    0.50
   1   1   7    0.50    0.40
   2  -1   7    1.40    0.60
  -2  -1  -7    0.70    0.40
   2  -1   7    0.40    0.80
  -2  -1  -7    0.70    0.70
   2   1   7    0.60    0.40
  -2   1  -7    0.70    0.70
   2   1   7    0.50    0.50
  -2   1  -7    1.10    0.50
   3  -1   7   24.70    2.20
  -3  -1  -7   21.80    2.00
   3  -1   7   22.90    1.50
   3   1   7   21.60    1.40
  -3   1  -7   24.00    1.20
  -3   1  -7   27.30    2.10
   3   1   7   23.40    1.90
  -4  -1  -7    6.60    1.30
  -4   1  -7    6.80    1.30
  -6  -2   7   22.30    2.10
  -6   2   7   22.00    1.80
  -5  -2   7   24.60    2.20
  -5   2   7   27.30    2.00
  -4  -2   7    4.50    1.10
   4  -2  -7    5.00    1.00
  -4   2   7    7.30    1.20
  -3  -2   7    0.10    0.60
   3  -2  -7    0.70    0.50
   3  -2  -7    0.10    0.40
   3   2  -7    0.40    0.50
  -3   2   7    0.40    0.50
  -3   2   7    0.40    0.50
   3   2  -7    0.20    0.40
  -3   2   7    0.30    0.50
  -2  -2   7   -0.10    0.40
  -2  -2   7   -0.20    0.50
   2  -2  -7    0.00    0.40
   2  -2  -7    0.30    0.40
   2   2  -7    0.30    0.40
  -2   2   7   -0.40    0.40
  -2   2   7    0.20    0.40
   2   2  -7    0.00    0.40
   1  -2  -7    1.50    0.60
  -1  -2   7    0.90    0.60
  -1  -2   7    2.10    0.60
   1  -2  -7    2.50    0.60
  -1   2   7    1.40    0.50
  -1   2   7    1.30    0.60
   1   2  -7    1.00    0.50
   1   2  -7    2.10    0.60
   0  -2   7    5.40    1.00
   0  -2  -7    5.20    0.80
   0  -2   7    6.30    0.90
   0  -2  -7    6.60    1.10
   0   2  -7    7.60    1.10
   0   2   7    6.00    0.80
   0   2  -7    6.80    0.90
   0   2   7    6.40    1.00
  -1  -2  -7   38.00    2.20
   1  -2   7   37.40    2.30
  -1  -2  -7   39.10    1.60
   1  -2   7   36.70    1.90
  -1   2  -7   42.90    2.30
  -1   2  -7   37.70    1.90
   1   2   7   36.70    1.80
   1   2   7   38.00    2.20
  -2  -2  -7   29.70    2.10
  -2  -2  -7   31.20    1.10
   2  -2   7   28.00    2.10
   2  -2   7   29.60    1.70
   2   2   7   28.50    1.60
   2   2   7   32.10    2.10
  -2   2  -7   29.80    2.10
  -2   2  -7   28.50    1.60
   3  -2   7   13.10    1.20
  -3  -2  -7   12.20    1.70
   3  -2   7   11.60    1.70
  -3   2  -7   12.30    1.70
  -3   2  -7   12.30    1.00
  -4  -2  -7   -0.20    0.80
  -4   2  -7    0.10    0.40
  -4   2  -7    1.00    0.80
  -6  -3   7   -0.70    0.80
  -5  -3   7    0.40    0.70
  -5   3   7    0.90    0.50
   4  -3  -7   17.60    1.50
  -4  -3   7   14.40    1.70
  -4   3   7   13.50    1.50
   3  -3  -7    0.90    0.60
   3  -3  -7    0.70    0.50
  -3  -3   7    1.10    0.70
   3   3  -7    1.00    0.60
  -3   3   7    0.00    0.50
  -3   3   7    0.10    0.40
  -3   3   7    0.50    0.50
  -2  -3   7    1.20    0.60
   2  -3  -7    1.70    0.50
  -2  -3   7    1.30    0.70
   2  -3  -7    0.70    0.50
  -2   3   7    1.70    0.60
   2   3  -7    1.50    0.60
  -2   3   7    1.80    0.70
   2   3  -7    2.60    0.70
  -1  -3   7    2.40    0.80
   1  -3  -7    3.40    0.60
   1  -3  -7    2.90    0.70
  -1  -3   7    2.70    0.70
  -1   3   7    2.30    0.60
   1   3  -7    4.20    0.80
   1   3  -7    4.60    0.80
  -1   3   7    4.40    0.90
   0  -3  -7    6.90    1.10
   0  -3   7    6.90    1.10
   0  -3   7    7.10    1.00
   0  -3  -7    6.60    0.80
   0   3   7    8.00    1.20
   0   3   7    7.60    0.90
   0   3  -7    6.60    1.00
   0   3  -7    8.20    1.00
  -1  -3  -7    2.20    0.90
  -1  -3  -7    3.20    0.50
   1  -3   7    3.30    0.90
   1  -3   7    3.50    0.80
   1   3   7    2.50    0.70
  -1   3  -7    3.70    0.90
  -1   3  -7    3.00    0.60
   1   3   7    3.00    0.70
  -2  -3  -7    4.50    1.10
   2  -3   7    4.90    0.90
   2  -3   7    3.30    1.00
   2   3   7    4.70    0.70
   2   3   7    4.70    1.00
  -2   3  -7    3.70    0.80
  -2   3  -7    3.40    1.00
   3  -3   7   79.09    3.80
  -3  -3  -7   87.89    3.80
   3  -3   7   85.09    3.20
  -3   3  -7   85.19    3.00
  -3   3  -7   87.39    3.90
   3   3   7   84.29    2.80
  -4  -3  -7    5.20    1.20
  -6  -4   7    2.10    1.00
  -5  -4   7   13.40    1.70
   5  -4  -7   16.10    1.70
  -5   4   7   14.20    1.60
  -4  -4   7   -0.10    0.70
   4  -4  -7    1.20    0.60
   4  -4  -7    0.40    0.50
  -4   4   7    1.50    0.60
   3  -4  -7    5.70    1.00
  -3  -4   7    4.50    1.00
   3  -4  -7    6.70    1.00
   3   4  -7    5.20    0.90
  -3   4   7    4.70    0.90
  -3   4   7    4.50    0.90
  -3   4   7    3.70    0.90
  -2  -4   7    1.20    0.80
   2  -4  -7    1.30    0.60
   2  -4  -7    1.60    0.50
  -2   4   7    1.20    0.60
   2   4  -7    1.40    0.60
  -2   4   7    0.10    0.40
  -2   4   7    0.80    0.60
   2   4  -7    1.00    0.50
  -1  -4   7    2.10    0.70
   1  -4  -7    1.60    0.70
  -1  -4   7    1.90    0.80
   1  -4  -7    2.40    0.50
  -1   4   7    1.20    0.60
   1   4  -7    2.20    0.60
   1   4  -7    1.00    0.50
  -1   4   7    1.70    0.50
   0  -4  -7    7.50    0.80
   0  -4   7    6.10    0.90
   0  -4   7    5.80    1.10
   0  -4  -7    7.40    1.10
   0   4   7    6.70    0.90
   0   4  -7    5.40    0.90
   0   4   7    6.10    1.00
   0   4  -7    8.00    1.10
  -1  -4  -7   20.10    1.80
   1  -4   7   19.20    1.80
   1  -4   7   23.40    1.50
  -1  -4  -7   22.70    1.00
  -1   4  -7   23.80    1.70
   1   4   7   21.00    1.30
  -1   4  -7   24.00    1.50
   1   4   7   22.50    1.70
   2  -4   7    0.50    0.50
   2  -4   7    0.60    0.70
  -2  -4  -7    0.40    0.70
  -2   4  -7    0.60    0.40
   2   4   7    1.30    0.40
  -2   4  -7    0.40    0.70
   2   4   7    0.40    0.50
   3  -4   7   13.00    1.80
  -3  -4  -7   11.80    1.60
   3  -4   7   12.40    1.30
   3   4   7   11.70    0.90
  -3   4  -7   12.00    1.20
  -3   4  -7   11.70    1.60
  -6  -5   7    4.80    1.30
   5  -5  -7   10.40    1.40
  -5  -5   7    8.30    1.40
  -5   5   7    8.40    1.30
   4  -5  -7   21.80    1.60
  -4  -5   7   20.00    1.90
  -4   5   7   19.90    1.60
   3  -5  -7   26.80    1.70
  -3  -5   7   27.50    2.00
   3  -5  -7   28.60    1.80
  -3   5   7   26.30    1.80
  -3   5   7   28.90    1.80
  -3   5   7   25.30    1.70
   2  -5  -7    9.30    1.20
  -2  -5   7    4.40    1.00
   2  -5  -7    4.70    0.80
  -2   5   7    5.30    0.90
  -2   5   7    6.10    1.00
   2   5  -7    5.80    0.90
   2   5  -7    4.90    1.00
  -2   5   7    4.10    0.90
  -1  -5   7   19.60    1.60
  -1  -5   7   22.50    1.60
   1  -5  -7   20.00    1.60
   1  -5  -7   19.90    1.30
   1   5  -7   19.30    1.50
  -1   5   7   19.00    1.50
   1   5  -7   22.40    1.50
  -1   5   7   21.80    1.40
  -1   5   7   20.70    1.70
   0  -5   7   29.70    2.00
   0  -5   7   27.70    1.70
   0  -5  -7   32.60    2.00
   0  -5  -7   30.20    1.40
   0   5   7   28.20    1.50
   0   5   7   30.30    1.90
   0   5  -7   30.00    1.80
   0   5  -7   28.30    1.80
  -1  -5  -7    8.50    0.60
   1  -5   7    7.90    1.30
  -1  -5  -7    8.20    1.30
   1  -5   7    8.60    1.10
   1   5   7    9.30    1.30
  -1   5  -7    8.40    1.20
   1   5   7    8.10    0.90
  -1   5  -7    8.90    1.10
   2  -5   7    0.20    0.50
  -2  -5  -7    0.10    0.60
   2  -5   7   -0.30    0.70
  -2   5  -7    0.20    0.40
  -2   5  -7    0.00    0.30
   2   5   7   -0.70    0.20
   2   5   7   -0.70    0.40
   3  -5   7    0.60    0.60
   3  -5   7    0.20    0.70
  -3  -5  -7    0.10    0.70
   3   5   7    0.20    0.20
  -3   5  -7    0.60    0.80
  -6  -6   7    1.80    0.90
   5  -6  -7    0.80    0.60
  -5  -6   7    0.50    0.80
  -5   6   7    0.50    0.50
   4  -6  -7    9.70    1.30
  -4  -6   7   10.40    1.40
  -4   6   7   10.70    1.40
  -4   6   7   10.20    1.20
   3  -6  -7   27.00    1.80
  -3  -6   7   21.00    1.80
   3  -6  -7   18.80    1.40
  -3   6   7   20.70    1.50
  -3   6   7   21.40    1.60
  -3   6   7   22.80    1.70
  -2  -6   7    1.30    0.70
   2  -6  -7    1.10    0.50
   2  -6  -7    1.40    0.60
  -2   6   7    0.90    0.60
   2   6  -7    1.70    0.60
  -2   6   7    0.80    0.50
  -2   6   7    2.20    0.70
   2   6  -7    1.60    0.60
  -1  -6   7   34.00    2.10
   1  -6  -7   32.90    1.70
   1  -6  -7   35.00    2.10
  -1   6   7   34.80    2.10
   1   6  -7   37.50    2.00
  -1   6   7   32.40    1.80
  -1   6   7   35.30    2.00
   1   6  -7   33.50    2.00
   0  -6   7    7.10    1.00
   0  -6   7    7.70    1.20
   0  -6  -7    6.90    0.70
   0  -6  -7    7.60    1.20
   0   6   7    6.10    1.10
   0   6   7    4.40    0.80
   0   6  -7    6.00    1.00
   0   6   7    8.40    1.30
   0   6  -7    6.60    1.10
   1  -6   7    7.60    1.10
   1  -6   7    8.10    1.30
  -1  -6  -7    9.40    1.40
   1   6   7    7.50    0.80
   1   6   7    9.30    1.20
  -1   6  -7    9.00    1.10
  -1   6  -7    9.80    1.30
  -2  -6  -7    7.80    1.30
   2  -6   7    4.50    0.90
   2  -6   7    5.30    1.20
  -2   6  -7    5.10    1.00
   2   6   7    5.20    1.00
   2   6   7    5.20    0.60
  -2   6  -7    5.80    0.90
   3  -6   7    5.20    1.30
   3  -6   7    5.70    1.00
  -3  -6  -7    5.10    1.20
  -3   6  -7    6.50    1.40
  -6  -7   7    0.50    0.80
   5  -7  -7    4.20    0.90
  -5  -7   7    2.80    1.00
  -5   7   7    2.00    0.70
  -4  -7   7    0.20    0.60
   4  -7  -7   -0.30    0.40
  -4   7   7   -0.90    0.50
  -4   7   7   -0.10    0.40
   3  -7  -7    0.90    0.50
  -3  -7   7    1.00    0.70
  -3   7   7    0.30    0.70
  -3   7   7    1.10    0.60
  -3   7   7    0.10    0.50
   2  -7  -7   66.89    3.00
  -2  -7   7   66.79    3.00
   2  -7  -7   60.59    2.60
  -2   7   7   64.09    2.90
   2   7  -7   61.99    2.90
  -2   7   7   66.09    2.70
  -2   7   7   63.69    3.00
   2   7  -7   64.89    2.70
   1  -7  -7    0.20    0.40
  -1  -7   7    0.10    0.60
   1  -7  -7   -0.30    0.40
  -1   7   7    0.10    0.50
  -1   7   7    0.80    0.70
  -1   7   7    0.50    0.50
   1   7  -7    1.50    0.60
   1   7  -7    0.10    0.40
   0  -7  -7    0.00    0.40
   0  -7   7    0.30    0.60
   0  -7  -7    0.10    0.30
   0   7   7    0.20    0.50
   0   7   7    0.00    0.40
   0   7  -7    0.60    0.40
   0   7  -7    0.90    0.50
   0   7   7    0.10    0.60
   1  -7   7    3.10    0.80
   1  -7   7    2.20    0.80
  -1  -7  -7    0.70    0.80
  -1   7  -7    1.50    0.60
   1   7   7    1.70    0.40
   1   7   7    1.50    0.60
  -1   7  -7    1.10    0.50
   1   7   7    2.10    0.60
   2  -7   7    1.10    0.60
  -2  -7  -7    2.50    0.90
   2  -7   7    1.30    0.90
   2   7   7    1.70    0.70
   2   7   7    0.80    0.30
  -2   7  -7    2.00    0.70
   3  -7   7   -0.90    0.70
  -3  -7  -7   -0.80    0.70
   3  -7   7    0.60    0.70
  -3   7  -7    1.10    0.80
  -6  -8   7   50.69    3.00
   5  -8  -7    2.00    0.70
  -5  -8   7    1.80    0.90
   4  -8  -7    5.70    0.90
  -4  -8   7    5.30    1.10
  -4   8   7    6.50    1.20
  -4   8   7    6.30    1.00
  -3  -8   7    7.60    1.30
   3  -8  -7   10.60    1.20
  -3   8   7   10.70    1.30
  -3   8   7   10.10    1.30
  -3   8   7   10.80    1.40
   2  -8  -7    0.10    0.40
   2  -8  -7    1.50    0.50
  -2  -8   7    0.20    0.60
  -2   8   7    1.00    0.70
  -2   8   7    0.60    0.50
  -2   8   7    1.10    0.60
   2   8  -7    0.60    0.50
   1  -8  -7    2.80    0.70
   1  -8  -7    4.80    0.90
  -1  -8   7    3.00    0.80
   1   8  -7    3.90    0.80
  -1   8   7    2.00    0.70
  -1   8   7    2.90    0.90
   1   8  -7    2.80    0.80
  -1   8   7    3.50    0.90
   0  -8  -7   -0.10    0.40
   0  -8  -7    0.70    0.30
   0  -8   7    0.80    0.60
   0   8   7    0.10    0.80
   0   8   7   -0.30    0.50
   0   8   7    0.30    0.50
   0   8  -7   -0.20    0.40
   0   8  -7    1.50    0.60
   1  -8   7   10.00    1.40
  -1  -8  -7   14.50    1.70
   1   8   7   12.30    1.50
  -1   8  -7   12.50    1.50
   1   8   7   11.70    0.90
   1   8   7   15.40    1.50
  -1   8  -7   13.80    1.40
   2  -8   7   99.79    3.80
  -2  -8  -7   88.69    4.00
   2  -8   7   98.39    4.10
   2   8   7   92.29    2.90
   2   8   7   93.99    3.90
   2   8   7   92.79    3.80
  -3  -8  -7   -0.80    0.70
   3  -8   7   -0.20    0.70
   3  -8   7   -0.40    0.80
  -5  -9   7   94.79    4.10
  -4  -9   7    1.90    0.90
  -4   9   7    0.60    0.70
  -4   9   7    2.00    0.60
  -3  -9   7    1.60    0.80
   3  -9  -7    0.60    0.40
  -3   9   7    1.30    0.80
  -3   9   7    1.00    0.60
  -3   9   7    2.40    0.80
  -2  -9   7    0.30    0.60
   2  -9  -7    0.40    0.30
  -2   9   7    0.30    0.50
  -2   9   7    0.40    0.70
  -2   9   7    0.70    0.50
  -1  -9   7    3.40    0.90
   1  -9  -7    2.30    0.70
   1  -9  -7    2.10    0.60
  -1   9   7    2.30    0.90
  -1   9   7    2.90    0.80
   1   9  -7    3.80    0.80
   1   9  -7    3.00    0.80
  -1   9   7    2.50    0.70
   0  -9  -7    6.10    1.20
   0  -9   7    4.80    1.10
   0  -9  -7    6.90    0.60
   0   9  -7    6.20    1.00
   0   9  -7    4.70    1.00
   0   9   7    6.50    0.90
   0   9   7    5.20    1.20
  -1  -9  -7   93.79    4.10
   1  -9   7  102.09    4.00
   2  -9   7    1.40    0.80
  -2  -9  -7    1.00    0.80
   2   9   7    1.90    0.40
  -4  10   7   17.90    1.80
  -3  10   7    1.30    0.70
  -3  10   7    0.50    0.70
   2 -10  -7    0.30    0.40
  -2  10   7   -0.10    0.50
  -2  10   7    0.10    0.80
   1 -10  -7    3.70    0.70
  -1 -10   7    5.70    1.10
   1  10  -7    5.70    0.90
  -1  10   7    5.30    0.90
  -1  10   7    4.70    1.20
   0 -10   7   21.60    1.80
   0 -10  -7   23.60    0.90
   0 -10  -7   20.30    2.00
   0  10   7   21.50    2.00
   0  10  -7   21.80    1.70
   0  10   7   20.90    1.40
   1 -10   7    9.20    1.40
  -1 -10  -7    7.00    1.40
   1  10   7    7.20    0.80
  -2 -10  -7   40.40    2.70
  -4  11   7   -0.10    0.80
  -3  11   7   65.49    3.30
   2 -11  -7    6.70    0.90
  -2  11   7    4.30    0.90
  -2  11   7    4.30    1.20
   1 -11  -7   59.19    2.20
  -1  11   7   57.49    2.60
  -1  11   7   53.59    3.00
   0  11   7    4.20    0.80
   0  11   7    3.40    1.00
  -1 -11  -7   -0.60    0.60
   1  11   7    0.40    0.30
  -4  12   7   66.09    3.40
  -3  12   7    3.70    1.10
  -3  12   7    2.70    0.90
   2 -12  -7    0.30    0.50
  -2  12   7    0.00    0.80
  -2  12   7    0.80    0.60
   1 -12  -7    0.20    0.40
  -1  12   7    0.60    0.60
  -1  12   7   -0.10    0.80
   0  12   7   75.49    2.90
  -3  13   7   11.20    1.50
  -2  13   7    4.00    0.90
   1 -13  -7   10.40    0.90
  -5   0   8    3.30    0.90
   4   0  -8    2.40    0.70
  -4   0   8    1.60    0.70
   3   0  -8  168.78    5.60
   3   0  -8  169.38    5.30
  -3   0   8  164.98    5.70
  -2   0   8   99.89    4.10
   2   0  -8  106.79    3.90
   2   0  -8  106.99    4.00
  -2   0   8  101.89    3.80
  -1   0   8   21.70    1.70
   1   0  -8   22.50    1.70
  -1   0   8   19.90    1.50
   1   0  -8   21.40    1.40
   0   0   8    6.00    1.00
   0   0  -8    7.90    0.90
   0   0  -8    7.80    1.20
   0   0   8    5.80    1.00
   1   0   8    0.70    0.60
  -1   0  -8    0.20    0.50
   1   0   8    0.20    0.40
  -1   0  -8    0.20    0.50
  -2   0  -8    1.40    0.50
   2   0   8    0.30    0.50
  -2   0  -8    1.10    0.70
  -5  -1   8    0.30    0.80
  -4  -1   8    4.60    1.20
   4  -1  -8    8.50    1.30
  -4   1   8    4.50    1.00
   4   1  -8    5.80    1.10
   3  -1  -8   13.40    1.50
  -3  -1   8   13.90    1.80
   3  -1  -8   13.40    1.50
   3   1  -8   11.80    1.40
  -3   1   8    9.90    1.40
  -2  -1   8  164.38    5.10
   2  -1  -8  166.68    5.30
  -2  -1   8  149.88    5.40
   2  -1  -8  156.88    5.10
   2   1  -8  160.08    5.20
   2   1  -8  155.48    5.20
  -2   1   8  158.38    5.00
  -2   1   8  160.78    5.50
   1  -1  -8    1.70    0.70
  -1  -1   8    2.10    0.90
  -1  -1   8    1.30    0.60
   1  -1  -8    1.50    0.50
  -1   1   8    1.40    0.60
   1   1  -8    2.10    0.60
  -1   1   8    1.30    0.60
   1   1  -8    1.80    0.60
   0  -1   8    0.20    0.70
   0  -1  -8    0.30    0.50
   0  -1   8    0.60    0.50
   0  -1  -8    0.50    0.40
   0   1   8    0.10    0.50
   0   1  -8    0.00    0.40
   0   1  -8    0.10    0.30
   0   1   8    0.20    0.40
  -1  -1  -8    0.50    0.50
   1  -1   8    1.00    0.60
   1  -1   8    1.10    0.80
  -1  -1  -8    0.50    0.50
   1   1   8    0.10    0.40
  -1   1  -8    0.60    0.50
  -1   1  -8    0.60    0.60
   1   1   8   -0.30    0.50
  -2  -1  -8    4.60    1.10
   2  -1   8    6.70    1.00
  -2  -1  -8    5.70    0.60
   2   1   8    5.20    0.90
  -2   1  -8    5.20    0.80
  -2   1  -8    5.90    1.30
  -5  -2   8   12.70    1.80
  -5   2   8   14.20    1.70
   4  -2  -8    0.20    0.50
  -4  -2   8    0.60    0.80
  -4   2   8    0.20    0.50
   3  -2  -8    8.70    1.20
  -3  -2   8    7.20    1.40
   3  -2  -8    7.40    1.20
  -3   2   8   10.50    1.50
   3   2  -8    6.30    1.10
  -3   2   8    6.90    1.10
  -3   2   8    8.70    1.20
  -2  -2   8   17.60    1.40
  -2  -2   8   16.60    1.80
   2  -2  -8   19.10    1.70
   2  -2  -8   16.80    1.40
  -2   2   8   21.70    1.60
   2   2  -8   18.70    1.50
   2   2  -8   18.80    1.50
  -2   2   8   16.80    1.70
  -1  -2   8    1.40    0.80
   1  -2  -8    1.50    0.60
   1  -2  -8    1.60    0.50
  -1  -2   8    1.70    0.60
  -1   2   8    1.40    0.60
   1   2  -8    0.10    0.50
  -1   2   8    1.50    0.60
   1   2  -8    1.40    0.50
   0  -2   8   21.90    2.00
   0  -2  -8   27.40    1.60
   0  -2  -8   24.40    1.80
   0  -2   8   26.70    1.70
   0   2   8   25.20    1.60
   0   2  -8   25.40    1.80
   0   2   8   25.70    1.90
   0   2  -8   26.60    1.60
   1  -2   8    0.20    0.70
  -1  -2  -8    0.00    0.40
   1  -2   8    0.20    0.50
  -1  -2  -8    0.80    0.50
  -1   2  -8    0.10    0.30
   1   2   8    0.20    0.50
  -1   2  -8    0.50    0.50
   2  -2   8   -1.00    0.50
  -2  -2  -8   -0.10    0.80
   2  -2   8   -0.50    0.50
  -2   2  -8   -0.20    0.50
   2   2   8    0.00    0.50
  -2   2  -8   -0.10    0.60
  -5  -3   8   -0.30    0.70
   4  -3  -8    6.00    1.10
  -4  -3   8    6.40    1.40
  -4   3   8    5.30    1.10
   3  -3  -8    4.70    0.90
   3  -3  -8    6.60    1.10
  -3  -3   8    3.10    1.00
  -3   3   8    4.10    0.90
   3   3  -8    4.10    0.90
  -3   3   8    4.40    0.90
  -3   3   8    6.40    1.10
  -2  -3   8    5.90    1.20
   2  -3  -8    6.00    1.00
   2  -3  -8    3.90    0.90
  -2   3   8    4.40    0.90
   2   3  -8    6.40    1.00
   2   3  -8    5.80    1.00
  -2   3   8    5.10    0.90
   1  -3  -8   -0.20    0.30
   1  -3  -8   -0.20    0.40
  -1  -3   8    0.60    0.70
  -1  -3   8    0.90    0.60
   1   3  -8    0.80    0.60
   1   3  -8    0.00    0.40
  -1   3   8    0.10    0.40
  -1   3   8    0.00    0.50
   0  -3  -8    5.70    1.00
   0  -3   8    6.80    1.30
   0  -3   8    5.70    1.00
   0  -3  -8    8.20    0.90
   0   3  -8    8.30    1.20
   0   3   8    7.90    1.00
   0   3   8    6.90    1.10
   0   3  -8    7.40    1.00
  -1  -3  -8    9.10    1.30
  -1  -3  -8   10.60    0.80
   1  -3   8    7.50    1.40
   1  -3   8    8.00    1.20
   1   3   8    9.60    1.10
  -2  -3  -8   17.20    1.90
   2  -3   8   19.30    1.50
   2  -3   8   14.90    1.90
  -2   3  -8   17.00    1.40
   2   3   8   17.10    1.30
  -5  -4   8    0.60    0.90
  -4  -4   8    5.70    1.30
   3  -4  -8    1.50    0.60
   3  -4  -8    2.90    0.80
  -3  -4   8    2.10    1.00
  -3   4   8    2.40    0.90
  -3   4   8    2.60    0.70
   3   4  -8    2.60    0.80
  -3   4   8    2.10    0.70
  -2  -4   8    1.20    0.70
   2  -4  -8    0.00    0.40
   2  -4  -8   -0.20    0.40
   2   4  -8   -0.20    0.50
   2   4  -8    0.00    0.40
  -2   4   8    0.10    0.50
  -2   4   8    0.40    0.60
  -2   4   8    0.40    0.40
   1  -4  -8    2.00    0.70
  -1  -4   8    2.80    0.90
   1  -4  -8    3.70    0.80
  -1  -4   8    3.30    0.80
   1   4  -8    3.50    0.80
  -1   4   8    4.30    0.80
  -1   4   8    4.10    0.80
   1   4  -8    2.70    0.70
   0  -4   8    0.60    0.60
   0  -4  -8    0.00    0.50
   0  -4  -8    0.30    0.50
   0  -4   8    1.20    0.80
   0   4   8    0.80    0.60
   0   4   8    0.80    0.50
   0   4  -8    0.00    0.30
  -1  -4  -8    1.60    0.80
  -1  -4  -8    1.10    0.40
   1  -4   8    1.50    0.90
   1  -4   8    1.00    0.70
   1   4   8    1.20    0.60
  -2  -4  -8    0.30    0.70
   2  -4   8    0.50    0.80
   2  -4   8    0.80    0.60
  -5  -5   8   21.00    2.20
  -4  -5   8    2.40    1.00
   3  -5  -8    5.00    0.90
   3  -5  -8    7.90    1.20
  -3  -5   8    5.40    1.20
  -3   5   8    6.90    1.10
  -3   5   8    4.00    1.00
  -3   5   8    6.30    1.10
   2  -5  -8    0.60    0.40
  -2  -5   8    1.10    0.80
  -2   5   8    1.00    0.60
   2   5  -8    0.30    0.50
   2   5  -8    1.30    0.60
  -2   5   8    1.20    0.70
  -2   5   8    0.20    0.70
   1  -5  -8    2.50    0.70
   1  -5  -8    1.10    0.60
  -1  -5   8    1.10    0.70
  -1   5   8    1.00    0.60
   1   5  -8    0.80    0.60
  -1   5   8    1.70    0.80
   1   5  -8    2.40    0.60
  -1   5   8    1.30    0.60
   0  -5  -8   11.10    1.50
   0  -5  -8   11.30    0.90
   0  -5   8   11.80    1.30
   0  -5   8   12.50    1.60
   0   5   8    8.00    1.00
   0   5   8   11.20    1.40
   1  -5   8    1.90    0.90
  -1  -5  -8    1.10    0.70
   1  -5   8    1.70    0.70
   1   5   8    2.20    0.60
  -1   5  -8    3.00    0.80
   2  -5   8    3.20    0.90
  -5  -6   8    0.90    0.90
  -4  -6   8    0.20    0.80
  -3  -6   8    2.00    0.90
  -3   6   8    0.60    0.40
  -3   6   8    0.60    0.60
  -3   6   8    0.40    0.70
  -2  -6   8    0.60    0.80
   2  -6  -8    1.20    0.40
  -2   6   8    0.20    0.60
   2   6  -8    0.00    0.40
  -2   6   8    1.80    0.60
  -2   6   8    0.90    0.80
   2   6  -8    0.40    0.50
   1  -6  -8   13.20    1.20
   1  -6  -8   14.80    1.70
  -1  -6   8   13.80    1.70
  -1   6   8   14.20    1.70
   1   6  -8   15.50    1.50
  -1   6   8   16.50    1.40
  -1   6   8   13.60    1.50
   0  -6  -8    5.30    0.70
   0  -6   8    5.50    1.20
   0   6   8    3.70    0.80
   0   6   8    3.20    1.10
  -1  -6  -8   -0.40    0.70
   1  -6   8    0.20    0.60
   1  -6   8    0.60    0.70
   1   6   8    0.50    0.50
   2  -6   8    0.80    0.70
  -5  -7   8    8.90    1.60
  -4  -7   8    0.30    0.80
  -3  -7   8   30.40    2.30
  -3   7   8   26.20    2.00
  -3   7   8   25.60    1.80
  -2  -7   8    8.60    1.50
  -2   7   8    7.10    1.20
  -2   7   8    6.90    1.30
   2   7  -8    7.60    1.20
  -2   7   8    7.90    1.20
   1  -7  -8    4.00    0.70
   1  -7  -8    4.00    0.90
  -1  -7   8    4.60    1.10
   1   7  -8    4.50    0.90
  -1   7   8    4.30    0.90
  -1   7   8    2.60    1.00
   0  -7   8    4.00    1.10
   0  -7  -8    3.50    0.50
   0   7   8    2.70    1.00
   0   7   8    2.70    0.70
   1  -7   8    4.70    1.20
  -1  -7  -8    5.90    1.30
   2  -7   8   -0.70    0.60
  -5  -8   8   12.50    1.80
  -4  -8   8    0.40    0.80
  -3  -8   8    0.40    0.80
  -3   8   8    0.20    0.70
  -3   8   8   -0.20    0.70
  -2  -8   8    0.50    0.80
  -2   8   8    0.90    0.60
  -2   8   8    1.10    0.80
  -1  -8   8    8.50    1.50
   1  -8  -8   11.10    1.00
  -1   8   8    9.40    1.20
  -1   8   8   12.20    1.70
   0  -8  -8    4.90    0.50
   0  -8   8    5.10    1.20
   0   8   8    3.10    0.70
   0   8   8    4.40    1.10
   1  -8   8   15.70    1.80
  -4  -9   8    0.10    0.90
  -4   9   8    1.10    0.90
  -3  -9   8    0.00    0.80
  -3   9   8   -0.80    0.60
  -3   9   8   -0.40    0.70
   2  -9  -8    0.30    0.50
  -2  -9   8   -1.10    0.70
  -2   9   8    0.20    0.80
  -2   9   8   -0.20    0.60
   1  -9  -8   -0.40    0.40
  -1  -9   8    0.50    0.80
  -1   9   8    0.40    0.60
  -1   9   8   -1.10    0.60
   0  -9   8   12.10    1.60
   1  -9   8    2.20    1.00
  -4  10   8    5.50    1.30
  -3  10   8    2.20    1.00
  -3  10   8    1.00    0.80
  -2  10   8   -0.50    0.70
  -2  10   8   -1.00    0.60
  -2   0   9   -0.50    0.60
  -1   0   9    0.20    0.60
   0   0   9    0.40    0.60
  -3  -1   9    3.50    1.10
  -2  -1   9    0.50    0.80
  -2   1   9    0.40    0.70
  -1  -1   9    0.60    0.70
  -1  -1   9    1.10    0.80
  -1   1   9    0.50    0.60
   0  -1   9    0.50    0.70
   0   1   9    2.20    0.80
  -3  -2   9   -0.40    0.80
  -3   2   9    1.00    0.50
  -2  -2   9   -0.20    0.70
  -2   2   9    0.30    0.70
  -1  -2   9    1.80    0.80
  -1  -2   9    0.70    0.80
  -1   2   9    1.50    0.70
   0  -2   9   11.20    1.40
  -3  -3   9    1.00    1.00
  -2  -3   9    2.60    1.10
  -2   3   9    3.80    0.90
  -2   3   9    5.80    1.20
  -1   3   9    0.70    0.60
   0  -3   9   11.50    1.50
  -3   4   9    1.00    0.80
  -3   4   9    0.50    0.90
  -2  -4   9   -1.10    0.80
  -2   4   9   -1.50    0.60
  -2   4   9   -0.10    0.60
  -1   4   9    0.60    0.80
  -1   4   9   -0.20    0.50
   0  -4   9   12.70    1.50
  -3   5   9    0.10    0.90
  -3   5   9    1.10    0.80
  -2   5   9    1.10    0.70
  -2   5   9    3.20    1.10
  -3   6   9    7.40    1.30
  -3   6   9    7.70    1.50
   0   0   0    0.00    0.00

_computing_structure_solution     'SHELXT 2014/5 (Sheldrick, 2014)'
;
_shelx_hkl_checksum              4566
loop_
_space_group_symop_operation_xyz
'x, y, z'
'-x, y+1/2, -z+1/2'
'-x, -y, -z'
'x, -y-1/2, z-1/2'
loop_
_atom_site_label
_atom_site_type_symbol
_atom_site_fract_x
_atom_site_fract_y
_atom_site_fract_z
_atom_site_U_iso_or_equiv
_atom_site_adp_type
_atom_site_occupancy
_atom_site_site_symmetry_order
_atom_site_calc_flag
_atom_site_refinement_flags_posn
_atom_site_refinement_flags_adp
O1 O 0.38553(12) 0.67485(6) 0.54131(13) 0.0226(2) Uani 1 1 d . .
H1 H 0.443(3) 0.6160(15) 0.556(3) 0.055(5) Uiso 1 1 d . .
N1 N 0.82933(14) 0.60384(6) 0.66946(13) 0.0176(2) Uani 1 1 d . .
C1 C 0.55884(15) 0.73181(7) 0.59071(15) 0.0166(2) Uani 1 1 d . .
O2 O 0.67944(13) 0.54530(5) 0.62690(13) 0.0243(2) Uani 1 1 d . .
C2 C 0.77512(15) 0.70215(6) 0.65153(15) 0.0150(2) Uani 1 1 d . .
O3 O 1.01920(13) 0.58080(6) 0.72739(14) 0.0261(2) Uani 1 1 d . .
C3 C 0.94591(16) 0.76574(7) 0.69923(15) 0.0167(2) Uani 1 1 d . .
H3 H 1.0909 0.7440 0.7381 0.020 Uiso 1 1 calc R U
C4 C 0.90333(17) 0.86036(7) 0.68978(16) 0.0188(2) Uani 1 1 d . .
H4 H 1.0184 0.9042 0.7223 0.023 Uiso 1 1 calc R U
C5 C 0.68816(17) 0.89091(7) 0.63161(16) 0.0200(2) Uani 1 1 d . .
H5 H 0.6580 0.9559 0.6264 0.024 Uiso 1 1 calc R U
C6 C 0.51918(17) 0.82807(7) 0.58181(16) 0.0196(2) Uani 1 1 d . .
H6 H 0.3747 0.8503 0.5411 0.024 Uiso 1 1 calc R U
loop_
_atom_site_aniso_label
_atom_site_aniso_U_11
_atom_site_aniso_U_22
_atom_site_aniso_U_33
_atom_site_aniso_U_23
_atom_site_aniso_U_13
_atom_site_aniso_U_12
O1 0.0145(3) 0.0225(4) 0.0291(4) 0.0003(3) 0.0013(3) -0.0035(3)
N1 0.0179(4) 0.0138(4) 0.0203(4) 0.0002(3) 0.0028(3) -0.0009(3)
C1 0.0146(4) 0.0184(5) 0.0164(4) 0.0006(3) 0.0027(3) -0.0009(3)
O2 0.0229(4) 0.0155(4) 0.0321(4) -0.0014(3) 0.0016(3) -0.0060(3)
C2 0.0157(4) 0.0123(4) 0.0162(4) -0.0001(3) 0.0022(3) 0.0003(3)
O3 0.0185(4) 0.0172(4) 0.0409(5) 0.0028(3) 0.0030(3) 0.0032(3)
C3 0.0148(4) 0.0156(4) 0.0189(4) -0.0005(3) 0.0021(3) -0.0003(3)
C4 0.0210(5) 0.0143(4) 0.0204(5) -0.0011(4) 0.0033(4) -0.0023(4)
C5 0.0252(5) 0.0149(4) 0.0193(5) 0.0008(4) 0.0043(4) 0.0034(4)
C6 0.0181(5) 0.0194(5) 0.0205(5) 0.0017(4) 0.0027(4) 0.0048(4)
loop_
_atom_type_symbol
_atom_type_description
_atom_type_scat_dispersion_real
_atom_type_scat_dispersion_imag
_atom_type_scat_source
C C 0.0033 0.0016 'International Tables Vol C Tables 4.2.6.8 and 6.1.1.4'
H H 0.0000 0.0000 'International Tables Vol C Tables 4.2.6.8 and 6.1.1.4'
N N 0.0061 0.0033 'International Tables Vol C Tables 4.2.6.8 and 6.1.1.4'
O O 0.0106 0.0060 'International Tables Vol C Tables 4.2.6.8 and 6.1.1.4'
loop_
_geom_angle_atom_site_label_1
_geom_angle_atom_site_label_2
_geom_angle_atom_site_label_3
_geom_angle
C1 O1 H1 104.4(13)
O3 N1 O2 122.23(9)
O3 N1 C2 119.12(8)
O2 N1 C2 118.65(8)
O1 C1 C6 117.19(9)
O1 C1 C2 125.15(9)
C6 C1 C2 117.66(9)
C3 C2 C1 121.64(9)
C3 C2 N1 117.30(9)
C1 C2 N1 121.05(9)
C4 C3 C2 119.79(9)
C4 C3 H3 120.1
C2 C3 H3 120.1
C3 C4 C5 119.17(9)
C3 C4 H4 120.4
C5 C4 H4 120.4
C6 C5 C4 121.10(9)
C6 C5 H5 119.4
C4 C5 H5 119.4
C5 C6 C1 120.63(10)
C5 C6 H6 119.7
C1 C6 H6 119.7
loop_
_geom_bond_atom_site_label_1
_geom_bond_atom_site_label_2
_geom_bond_distance
O1 C1 1.3486(12)
O1 H1 0.91(2)
N1 O3 1.2237(11)
N1 O2 1.2513(11)
N1 C2 1.4487(12)
C1 C6 1.4011(14)
C1 C2 1.4053(13)
C2 C3 1.3960(13)
C3 C4 1.3812(14)
C3 H3 0.9500
C4 C5 1.4017(14)
C4 H4 0.9500
C5 C6 1.3815(15)
C5 H5 0.9500
C6 H6 0.9500
loop_
_geom_hbond_atom_site_label_D
_geom_hbond_atom_site_label_H
_geom_hbond_atom_site_label_A
_geom_hbond_distance_DH
_geom_hbond_distance_HA
_geom_hbond_distance_DA
_geom_hbond_angle_DHA
O1 H1 O2 0.91(2) 1.78(2) 2.6010(12) 147.5(18)
