#------------------------------------------------------------------------------
#$Date: 2017-06-16 01:42:27 +0300 (Fri, 16 Jun 2017) $
#$Revision: 197859 $
#$URL: file:///home/coder/svn-repositories/cod/cif/4/12/62/4126226.cif $
#------------------------------------------------------------------------------
#
# This file is available in the Crystallography Open Database (COD),
# http://www.crystallography.net/
#
# All data on this site have been placed in the public domain by the
# contributors.
#
data_4126226
loop_
_publ_author_name
'Li, Peng-Fei'
'Liao, Wei-Qiang'
'Tang, Yuan-Yuan'
'Ye, Heng-Yun'
'Zhang, Yi'
'Xiong, Ren-Gen'
_publ_section_title
;
 Unprecedented Ferroelectric-Antiferroelectric-Paraelectric Phase
 Transitions Discovered in an Organic-Inorganic Hybrid Perovskite.
;
_journal_name_full               'Journal of the American Chemical Society'
_journal_paper_doi               10.1021/jacs.7b04693
_journal_year                    2017
_chemical_formula_sum            'C4 H8 Br3 Cd N'
_chemical_formula_weight         422.24
_space_group_crystal_system      monoclinic
_space_group_IT_number           12
_space_group_name_H-M_alt        'C 2/m 1 1'
_symmetry_space_group_name_Hall  '-C 2x'
_symmetry_space_group_name_H-M   'C 2/m 1 1'
_atom_sites_solution_hydrogens   difmap
_audit_creation_method           SHELXL-2014/7
_cell_angle_alpha                90
_cell_angle_beta                 90.03(3)
_cell_angle_gamma                90
_cell_formula_units_Z            4
_cell_length_a                   7.705(5)
_cell_length_b                   17.658(14)
_cell_length_c                   6.947(5)
_cell_measurement_reflns_used    1478
_cell_measurement_temperature    238(2)
_cell_measurement_theta_max      27.4507
_cell_measurement_theta_min      3.7318
_cell_volume                     945.2(12)
_computing_structure_refinement  'SHELXL-2014/7 (Sheldrick, 2014)'
_diffrn_ambient_temperature      238(2)
_diffrn_measured_fraction_theta_full 0.994
_diffrn_measured_fraction_theta_max 0.992
_diffrn_measurement_device_type  'Rigaku saturn 724'
_diffrn_radiation_type           MoK\a
_diffrn_radiation_wavelength     0.71073
_diffrn_reflns_av_R_equivalents  0.0472
_diffrn_reflns_av_unetI/netI     0.0430
_diffrn_reflns_Laue_measured_fraction_full 0.994
_diffrn_reflns_Laue_measured_fraction_max 0.992
_diffrn_reflns_limit_h_max       8
_diffrn_reflns_limit_h_min       -9
_diffrn_reflns_limit_k_max       22
_diffrn_reflns_limit_k_min       -22
_diffrn_reflns_limit_l_max       9
_diffrn_reflns_limit_l_min       -6
_diffrn_reflns_number            3436
_diffrn_reflns_point_group_measured_fraction_full 0.994
_diffrn_reflns_point_group_measured_fraction_max 0.992
_diffrn_reflns_theta_full        25.242
_diffrn_reflns_theta_max         27.443
_diffrn_reflns_theta_min         2.932
_exptl_absorpt_coefficient_mu    14.917
_exptl_absorpt_correction_T_max  1.0000
_exptl_absorpt_correction_T_min  0.6704
_exptl_absorpt_correction_type   multi-scan
_exptl_crystal_colour            COLORLESS
_exptl_crystal_density_diffrn    2.967
_exptl_crystal_description       BLOCK
_exptl_crystal_F_000             768
_exptl_crystal_size_max          0.17
_exptl_crystal_size_mid          0.15
_exptl_crystal_size_min          0.12
_refine_diff_density_max         0.993
_refine_diff_density_min         -0.958
_refine_diff_density_rms         0.202
_refine_ls_extinction_coef       0.0046(3)
_refine_ls_extinction_expression Fc^*^=kFc[1+0.001xFc^2^\l^3^/sin(2\q)]^-1/4^
_refine_ls_extinction_method     'SHELXL-2014/7 (Sheldrick 2014'
_refine_ls_goodness_of_fit_ref   1.098
_refine_ls_hydrogen_treatment    constr
_refine_ls_matrix_type           full
_refine_ls_number_parameters     56
_refine_ls_number_reflns         1150
_refine_ls_number_restraints     0
_refine_ls_restrained_S_all      1.098
_refine_ls_R_factor_all          0.0336
_refine_ls_R_factor_gt           0.0287
_refine_ls_shift/su_max          0.001
_refine_ls_shift/su_mean         0.000
_refine_ls_structure_factor_coef Fsqd
_refine_ls_weighting_details
'w=1/[\s^2^(Fo^2^)+(0.0333P)^2^] where P=(Fo^2^+2Fc^2^)/3'
_refine_ls_weighting_scheme      calc
_refine_ls_wR_factor_gt          0.0690
_refine_ls_wR_factor_ref         0.0705
_reflns_Friedel_coverage         0.000
_reflns_number_gt                1032
_reflns_number_total             1150
_reflns_threshold_expression     'I > 2\s(I)'
_cod_data_source_file            ja7b04693_si_003.cif
_cod_data_source_block           1
_cod_depositor_comments
;
The following automatic conversions were performed:

'_exptl_absorpt_correction_type' value 'Multi-scan' changed to
'multi-scan' according to
/home/data/users/saulius/crontab/automatic-downloads/rss-feeds/ACS/lib/dictionaries/cif_core.dic
dictionary named 'cif_core.dic' version 2.4.2 from 2011-04-26.

Automatic conversion script
Id: cif_fix_values 4973 2017-02-22 13:04:09Z antanas 
;
_cod_database_code               4126226
_shelx_shelxl_version_number     2014/7
_shelx_space_group_comment
;
The symmetry employed for this shelxl refinement is uniquely defined
by the following loop, which should always be used as a source of
symmetry information in preference to the above space-group names.
They are only intended as comments.
;
_shelx_res_file
;

    1.res created by SHELXL-2014/7


TITL 1 in C2/m
REM  transformed to space group :
CELL 0.71073   7.7051  17.6581   6.9473  90.000  90.027  90.000
ZERR   4   0.0052   0.0138   0.0047   0.000   0.025   0.000
LATT  7
SYMM X, -Y, -Z
SFAC C H N BR CD
UNIT 16 32 4 12 4
L.S. 4
BOND
TEMP -35
acta
FMAP 2

PLAN 20
WGHT    0.033300
EXTI    0.004620
FVAR       0.27114   0.69944
CD1   5    0.000000    0.500000    0.500000    10.25000    0.02663    0.03384 =
         0.01258   -0.00214    0.00000    0.00000
CD2   5    0.000000    0.500000    1.000000    10.25000    0.02580    0.03363 =
         0.01264    0.00107    0.00000    0.00000
BR3   4    0.000000    0.375812    0.749949    10.50000    0.05226    0.02102 =
         0.02243   -0.00016    0.00000    0.00000
BR4   4    0.245928    0.557460    0.750050    11.00000    0.02560    0.03487 =
         0.02120   -0.00018   -0.00019   -0.00704
EXYZ C1' N1'
EXYZ C1 N1
EADP C1' N1'
EADP C1 N1
C1'   1    0.000000    0.876964    0.854937   -20.50000    0.09668    0.03432 =
         0.03527   -0.00509    0.00000    0.00000
N1'   3    0.000000    0.876964    0.854937    20.50000    0.09668    0.03432 =
         0.03527   -0.00509    0.00000    0.00000
AFIX   3
H1B   2    0.000000    0.918775    0.928627    10.50000   -1.20000
AFIX   0
C1    1    0.000000    0.875985    0.646756    20.50000    0.08177    0.03261 =
         0.03569   -0.00287    0.00000    0.00000
N1    3    0.000000    0.875985    0.646756   -20.50000    0.08177    0.03261 =
         0.03569   -0.00287    0.00000    0.00000

AFIX   3
H1A   2    0.100980    0.901217    0.598285    11.00000   -1.20000
AFIX   0
C3    1    0.000000    0.753233    0.749384    10.50000    0.06065    0.02482 =
         0.16894    0.01099    0.00000    0.00000
AFIX   3
H3A   2   -0.100270    0.721173    0.749534    11.00000   -1.20000
AFIX   0
C4    1    0.000000    0.798834    0.924585    10.50000    0.10873    0.04819 =
         0.12101    0.03496    0.00000    0.00000
AFIX   3
H4A   2    0.000000    0.781743    1.055435    10.50000   -1.20000
AFIX   0
C2    1    0.000000    0.798612    0.575415    10.50000    0.08909    0.04928 =
         0.13207   -0.03560    0.00000    0.00000
AFIX   3
H2A   2    0.100970    0.787401    0.500175    11.00000   -1.20000

AFIX   0
HKLF 4

REM  1 in C2/m
REM R1 =  0.0287 for    1032 Fo > 4sig(Fo)  and  0.0336 for all    1150 data
REM     56 parameters refined using      0 restraints

END

WGHT      0.0332      0.0000

REM Highest difference peak  0.993,  deepest hole -0.958,  1-sigma level  0.202
Q1    1   0.0000  1.0000  1.0000  10.25000  0.05    0.99
Q2    1   0.0000  0.7828  0.8651  10.50000  0.05    0.78
Q3    1   0.0000  0.4981  0.2536  10.50000  0.05    0.78
Q4    1   0.0000  0.3781  0.8479  10.50000  0.05    0.77
Q5    1   0.0000  0.7671  0.4649  10.50000  0.05    0.73
Q6    1   0.0000  1.0000  0.5000  10.25000  0.05    0.73
Q7    1   0.0000  0.4269  0.8713  10.50000  0.05    0.68
Q8    1   0.0000  0.3748  0.4938  10.50000  0.05    0.68
Q9    1   0.0000  0.7497  0.9659  10.50000  0.05    0.66
Q10   1   0.2291  0.5619  0.9956  11.00000  0.05    0.63
Q11   1   0.2630  0.9411  0.5029  11.00000  0.05    0.61
Q12   1   0.0000  0.8420  0.8537  10.50000  0.05    0.60
Q13   1   0.0000  1.0007  0.7538  10.50000  0.05    0.58
Q14   1   0.0493  0.4193  0.7648  11.00000  0.05    0.56
Q15   1   0.2708  0.5619  0.8737  11.00000  0.05    0.55
Q16   1   0.0000  0.3812  0.9822  10.50000  0.05    0.55
Q17   1   0.1691  0.5000  0.5000  10.50000  0.05    0.53
Q18   1  -0.1073  0.9076  0.8945  11.00000  0.05    0.52
Q19   1  -0.2590  0.6795  0.8588  11.00000  0.05    0.51
Q20   1   0.0000  0.5795  0.7411  10.50000  0.05    0.50
;
_shelx_res_checksum              12479
_shelx_hkl_file
;
   0   4   0  249.82   14.40
   0  -4   0  237.11   14.94
   0  -4   0  267.56   11.52
   0  -4   0  261.87   15.24
   0   6   0   -2.51   10.15
   0  -6   0   12.05    8.56
   0   8   0  323.49   12.80
   0  -8   0  338.26   13.84
   0  10   0   17.69   10.68
   0 -10   0   15.44    8.05
   0  12   0  215.23   44.63
   0 -12   0  192.91   15.44
   0  14   0  816.44   31.88
   0 -14   0  794.49   24.82
   0  16   0 3256.01   48.24
   0 -16   0 3120.56   78.73
   0  18   0 1038.08   52.93
   0 -18   0 1091.82   30.56
   0  20   0   76.84   38.39
   0 -20   0   85.72   19.29
   0  22   0   15.17   11.64
   0 -22   0   21.74   12.52
  -1  21   0    6.16   10.41
   1 -21   0    7.12   11.53
  -1  19   0   31.95   16.21
   1 -19   0    8.41   14.96
  -1  17   0  638.14   36.17
   1 -17   0  614.82   30.90
  -1  15   0  728.50   33.65
   1 -15   0  707.63   26.23
  -1  13   0  153.29   16.91
   1 -13   0  162.48   14.91
  -1  11   0  241.54   22.34
   1 -11   0  226.12   14.91
  -1   9   0 1447.94   31.66
   1  -9   0 1607.08   30.38
  -1   7   0 2855.91   43.75
  -1   5   0  321.05   14.00
   1  -5   0  301.33   10.91
  -1   3   0 1495.18   22.11
   1  -3   0 1440.58   21.96
  -1   3   0 1510.35   20.15
   1  -3   0 1451.84   19.33
   1   3   0 1285.91   25.05
  -1  -3   0 1293.80   20.13
  -1  -3   0 1380.28   20.52
   1   5   0  282.77   14.01
  -1  -5   0  271.28   12.67
   1   7   0 2585.04   42.41
  -1  -7   0 2535.63   38.66
   1   9   0 1408.68   28.59
  -1  -9   0 1376.95   28.25
   1  11   0  235.48   30.66
  -1 -11   0  218.64   16.09
   1  13   0  158.98   15.95
  -1 -13   0  144.69   17.90
   1  15   0  661.40   28.03
  -1 -15   0  691.73   30.09
   1  17   0  581.02   31.47
  -1 -17   0  654.27   32.56
   1  19   0   14.03   14.44
  -1 -19   0   26.43   12.46
   1  21   0   10.60   11.12
  -1 -21   0    4.59   15.02
  -2  22   0   24.52   14.84
   2 -22   0   31.82    9.43
  -2  20   0   63.54   30.23
   2 -20   0   59.22   14.87
  -2  18   0   57.90   26.59
   2 -18   0   54.65   14.44
  -2  16   0  137.23   54.20
   2 -16   0  158.35   16.17
  -2  14   0   52.03   21.89
   2 -14   0   67.22   13.90
  -2  12   0  205.88   53.68
   2 -12   0  173.84   14.76
  -2  10   0 4292.47   40.59
  -2   8   0 9999.99   53.94
  -2   6   0 3343.52   47.39
  -2   6   0 3391.17   45.19
   2  -6   0 3268.84   42.98
  -2   4   0   15.49   10.11
  -2   4   0   13.15    4.19
   2  -4   0   11.23    4.86
  -2   2   0  254.15   13.29
   2  -2   0  226.66    9.91
  -2   2   0  252.49    8.83
   2  -2   0  251.46    8.27
  -2   0   0 1319.03   24.48
   2   0   0 1278.58   19.91
   2   0   0 1279.34   17.59
   2   2   0  206.83   10.05
  -2  -2   0  224.54    9.49
  -2  -2   0  257.58   11.82
   2   2   0  262.35   11.04
   2   4   0    6.45    9.18
  -2  -4   0   11.04    7.99
   2   6   0 2944.85   44.59
  -2  -6   0 2924.24   42.48
  -2  -8   0 8230.93   49.79
   2  10   0 3737.32   70.21
  -2 -10   0 3745.12   66.99
   2  12   0  171.58   40.26
  -2 -12   0  134.73   13.09
   2  14   0   69.36   30.94
  -2 -14   0   54.31   13.05
   2  16   0  134.60   14.89
  -2 -16   0  138.29   17.90
   2  18   0   59.78   22.81
  -2 -18   0   34.04   12.58
   2  20   0   65.12   42.17
  -2 -20   0   69.34   13.88
   2  22   0   32.34   16.66
  -2 -22   0   41.56   14.54
  -3  21   0   15.21   13.03
  -3  19   0   24.95   29.13
   3 -19   0   25.48    9.46
  -3  17   0  368.67   28.89
   3 -17   0  407.95   21.53
  -3  15   0  375.67   27.10
   3 -15   0  403.39   20.34
  -3  13   0   82.08   23.32
   3 -13   0   65.25   13.03
  -3  11   0  210.48   22.99
  -3  11   0  178.30   12.31
  -3   9   0 1501.78   34.55
  -3   9   0 1460.08   27.03
  -3   7   0 2374.40   42.79
  -3   7   0 2388.20   39.73
  -3   5   0  371.84   13.85
   3  -5   0  327.56    5.64
  -3   3   0  701.17   28.09
  -3   3   0  734.65   12.14
   3  -3   0  682.61   10.67
  -3   1   0 2004.84   30.78
  -3   1   0 2033.40   27.13
   3  -1   0 2008.11   26.56
  -3  -1   0 1979.08   30.34
  -3  -1   0 1983.34   27.53
   3   1   0 1876.48   26.01
   3   3   0  625.94   15.60
   3   5   0  307.78   33.79
  -3  -5   0  330.35   13.70
   3   7   0 1902.55   36.94
  -3  -7   0 1937.74   37.10
   3   9   0 1238.30   34.11
  -3  -9   0 1360.27   32.93
   3  11   0  170.91   17.54
  -3 -11   0  165.57   17.77
   3  13   0   77.99   29.45
  -3 -13   0   67.72   19.37
   3  15   0  349.47   23.72
  -3 -15   0  298.17   19.46
   3  17   0  322.57   18.95
  -3 -17   0  355.72   23.07
   3  19   0   14.93   14.56
  -3 -19   0   26.64   21.22
   3  21   0   21.31   10.56
  -3 -21   0   18.93   16.22
  -4  20   0   62.29   43.77
  -4  18   0  722.00   42.22
  -4  16   0 1856.30   43.77
   4 -16   0 1930.48   30.54
  -4  14   0  524.30   28.57
   4 -14   0  499.69   19.98
  -4  12   0   71.57   20.90
  -4  12   0   61.51   11.96
  -4  10   0   45.96   26.01
  -4  10   0   33.38   15.07
  -4   8   0  108.26   17.60
  -4   8   0   80.70    8.45
  -4   6   0   18.38   13.87
  -4   6   0   22.68   10.60
   4  -6   0   12.60    3.02
  -4   4   0  306.45   29.41
   4  -4   0  240.66    6.66
  -4   2   0 3718.90   54.88
  -4   2   0 3739.56   50.48
   4  -2   0 3589.09   46.15
  -4  -2   0 3414.34   51.38
  -4  -2   0 3567.84   50.42
   4   4   0  263.08   12.87
  -4  -4   0  244.36   12.39
   4   6   0   13.07   10.63
  -4  -6   0   19.44   10.72
   4   8   0   82.48   18.91
  -4  -8   0   83.00   14.73
   4  10   0   37.16   21.96
  -4 -10   0   45.55   16.82
   4  12   0   72.16   30.23
  -4 -12   0   71.13   18.94
   4  14   0  426.37   24.75
  -4 -14   0  454.65   25.94
   4  16   0 1570.13   57.71
  -4 -16   0 1523.90   33.05
   4  18   0  637.44   37.65
  -4 -18   0  571.60   36.28
   4  20   0   48.48   27.03
  -4 -20   0   74.46   14.69
  -5  19   0   14.19   10.62
  -5  17   0  345.18   36.16
  -5  15   0  483.92   28.52
  -5  13   0  151.19   23.44
   5 -13   0  120.20    8.66
  -5  11   0  100.85   13.34
  -5  11   0  107.20   11.27
  -5   9   0  643.15   30.34
  -5   9   0  545.84   16.01
  -5   7   0  845.90   31.97
  -5   7   0  717.66   22.30
  -5   5   0  121.97   17.84
  -5   5   0  119.71    6.99
  -5   3   0  397.01   17.64
  -5   3   0  395.92   11.08
  -5   1   0 1632.93   37.23
  -5   1   0 1655.54   29.43
  -5  -1   0 1575.55   37.02
  -5  -1   0 1586.64   28.98
  -5  -3   0  385.02   20.80
  -5  -3   0  388.56   13.45
   5   5   0  121.16   14.62
  -5  -5   0  110.95   11.57
   5   7   0  660.75   23.98
  -5  -7   0  689.43   24.45
   5   9   0  498.74   25.85
  -5  -9   0  546.06   24.42
   5  11   0  102.78   21.53
  -5 -11   0  118.32   18.41
   5  13   0   91.98   42.76
  -5 -13   0  117.29   18.26
   5  15   0  385.87   28.31
  -5 -15   0  389.81   22.40
   5  17   0  256.84   21.63
  -5 -17   0  272.40   24.93
   5  19   0   10.09   13.17
  -5 -19   0   23.87   15.65
  -6  18   0    8.94   17.92
  -6  16   0   24.86   17.92
  -6  14   0   35.78   14.83
  -6  12   0  158.54   17.31
  -6  10   0 1627.58   38.43
  -6   8   0 3482.39   51.34
  -6   6   0 1413.09   47.25
  -6   6   0 1236.07   35.02
  -6   4   0   24.06   15.87
  -6   4   0   21.01   11.71
  -6   2   0   20.96   11.87
  -6   2   0   12.47    4.83
  -6   0   0   39.16   16.65
  -6   0   0   32.76    7.03
  -6  -2   0   26.48   17.80
  -6  -2   0   38.29    8.11
  -6  -4   0   20.34   15.22
  -6  -4   0   22.58   10.12
  -6  -6   0 1198.01   35.33
   6   8   0 2910.33   89.01
  -6  -8   0 2949.76   71.99
   6  10   0 1397.67   48.06
  -6 -10   0 1407.99   30.07
   6  12   0  156.36   58.66
  -6 -12   0  146.48   18.62
   6  14   0   25.93   14.30
  -6 -14   0   41.22   17.71
   6  16   0   25.15   12.54
  -6 -16   0   23.41   14.94
   6  18   0    6.32    7.64
  -6 -18   0    7.60   16.00
  -7  15   0   97.84   24.67
  -7  13   0   14.54   17.21
  -7  11   0   69.50   15.97
  -7   9   0  583.39   27.01
  -7   7   0  783.77   38.00
  -7   5   0  218.55   20.90
  -7   3   0  118.64   18.74
  -7   3   0  118.82    6.83
  -7   1   0  324.95   18.19
  -7   1   0  316.47   14.11
  -7  -1   0  346.17   21.92
  -7  -1   0  345.53   12.20
  -7  -3   0  111.18   12.52
  -7  -3   0  116.16    9.73
  -7  -5   0  185.22   14.87
  -7  -5   0  175.47   11.96
  -7  -7   0  712.02   33.87
  -7  -7   0  650.43   26.58
   7   9   0  475.81   19.62
  -7  -9   0  460.90   20.28
   7  11   0   54.60   26.90
  -7 -11   0   65.32   11.67
   7  13   0   22.74   15.14
  -7 -13   0   17.74   12.29
   7  15   0   67.12   28.35
  -7 -15   0   78.89   14.38
  -8  12   0   16.31   16.45
  -8  10   0   17.45   18.51
  -8   8   0    7.63   16.76
  -8   6   0   11.61   15.74
  -8   4   0   99.28   46.53
  -8   2   0  926.86   29.27
  -8   0   0 1849.21   38.42
  -8  -2   0  889.86   30.10
  -8  -2   0  857.44   19.09
  -8  -4   0  120.87   17.70
  -8  -4   0  113.14   11.94
  -8  -6   0    5.83   13.17
  -8  -6   0    7.43    8.29
  -8  -8   0   -2.19   12.93
  -8  -8   0    2.34   10.15
  -8 -10   0    6.65   13.90
  -8 -10   0   18.74    9.93
   8  12   0    4.98   11.74
  -8 -12   0   -4.07   11.35
  -9   9   0   95.00   18.78
  -9   7   0   97.58   21.59
  -9   5   0   38.17   19.48
  -9   3   0   73.09   21.57
  -9   1   0  311.41   29.41
  -9  -1   0  314.95   28.31
  -9  -3   0   80.15   15.00
  -9  -5   0   25.71   12.95
  -9  -7   0   92.72   20.03
  -9  -9   0   62.21   13.30
  -9  -9   0   70.95   11.08
  -9  -9   1   14.94   13.53
  -9  -9   1   18.00    8.91
  -9  -7   1    3.64   14.60
  -9  -7   1    7.23    6.60
  -9  -5   1   25.12   12.64
  -9  -5   1   28.75    9.57
  -9  -3   1    0.65   13.41
  -9  -1   1   10.09   13.70
  -9   1   1    0.80   14.53
  -9   3   1   -2.40   13.67
  -9   5   1   45.08   19.85
  -9   7   1   11.61   17.18
  -9   9   1   24.22   16.72
   8  12  -1  163.07   17.85
  -8 -12   1  147.61   16.23
  -8 -10   1  132.89   22.30
  -8 -10   1  147.24   15.94
  -8  -8   1   37.56   16.83
  -8  -8   1   25.49   10.11
  -8  -6   1  482.82   33.90
  -8  -6   1  446.06   18.90
  -8  -4   1  431.89   26.65
  -8  -4   1  386.85   16.48
  -8  -2   1   40.67   19.04
  -8  -2   1   54.45    9.55
  -8   0   1    4.28   14.48
  -8   0   1    0.94    4.75
  -8   2   1   59.95   21.60
  -8   4   1  416.55   27.59
  -8   6   1  557.42   32.72
  -8   8   1   26.08   14.84
  -8  10   1  142.93   18.87
  -8  12   1  184.22   23.36
   7  15  -1   11.00   13.93
  -7 -15   1   29.70   18.02
   7  13  -1   48.53   22.94
  -7 -13   1   40.74   14.34
   7  11  -1    0.99    9.48
  -7 -11   1    4.24   10.72
   7   9  -1   14.59   13.27
  -7  -9   1   -4.32   12.19
  -7  -7   1   24.14   11.98
  -7  -7   1   18.12    9.42
  -7  -5   1    2.21   11.61
  -7  -5   1    4.79    8.83
  -7  -3   1  104.16   16.55
  -7  -3   1  111.24    9.48
  -7  -1   1   38.53   11.38
  -7  -1   1   48.98    8.97
  -7   1   1   46.10   14.99
  -7   1   1   44.11   15.95
  -7   3   1  137.30   18.76
  -7   3   1  111.84   19.02
  -7   5   1    2.84   13.31
  -7   5   1    4.45    4.83
  -7   7   1   25.90   15.34
  -7   9   1    6.08   17.21
  -7  11   1    4.65   13.73
  -7  13   1   45.46   15.15
  -7  15   1   10.57   17.17
   6  18  -1   44.95   28.79
  -6 -18   1   66.61   14.85
   6  16  -1   51.02   21.48
  -6 -16   1   55.41   11.97
   6  14  -1  594.95   33.82
  -6 -14   1  542.93   30.77
   6  12  -1  314.73   20.89
  -6 -12   1  307.88   19.68
   6  10  -1    4.28    7.88
  -6 -10   1   21.30   14.72
   6   8  -1   57.18   23.29
  -6  -8   1   39.92   13.46
  -6  -6   1  137.97   18.23
  -6  -6   1  154.54   14.45
  -6  -4   1  908.12   32.05
  -6  -4   1  918.31   28.97
  -6  -2   1 1153.47   39.08
  -6  -2   1 1137.44   35.09
  -6   0   1   14.43   12.70
  -6   0   1   11.19    7.96
  -6   2   1 1196.49   40.85
  -6   2   1 1138.14   46.18
  -6   4   1  968.02   33.85
  -6   4   1  917.19   27.60
  -6   6   1  172.02   16.53
  -6   6   1  165.26    9.40
  -6   8   1   49.23   18.19
  -6   8   1   43.51   23.23
  -6  10   1    0.13   13.70
  -6  10   1    1.49    3.08
  -6  12   1  339.47   26.37
  -6  14   1  683.84   39.92
  -6  16   1   75.96   17.30
  -6  18   1   72.36   25.80
   5  19  -1    4.83    9.64
  -5 -19   1   -0.11   14.27
   5  17  -1   -0.15   13.70
  -5 -17   1   -2.31   14.74
   5  15  -1   30.96   14.56
  -5 -15   1   35.45   13.76
   5  13  -1   27.52   11.86
  -5 -13   1   18.48   14.98
   5  11  -1  138.11   12.91
  -5 -11   1  157.71   17.19
   5   9  -1  104.66   12.83
  -5  -9   1  107.52   16.36
   5   7  -1   89.88   30.75
  -5  -7   1   71.52   12.35
   5   5  -1  205.80   16.31
  -5  -5   1  203.36   14.68
  -5  -3   1   40.69   15.46
  -5  -3   1   49.48    8.10
  -5  -1   1   36.74   18.40
  -5  -1   1   32.58    6.00
  -5   1   1   24.21   16.75
  -5   1   1   25.86    6.70
  -5   3   1   47.80   15.42
  -5   3   1   45.60   20.34
  -5   5   1  213.95   15.52
  -5   5   1  215.34   27.78
  -5   7   1   69.58   13.35
  -5   7   1   84.44   28.17
  -5   9   1  114.16   14.75
  -5   9   1  106.50   12.18
  -5  11   1  145.65   19.02
  -5  11   1  146.11   33.30
  -5  13   1   28.87   22.03
  -5  13   1   16.86    8.58
  -5  15   1   30.44   17.51
  -5  15   1   26.83   14.35
  -5  17   1   14.30   16.94
  -5  19   1    8.12   10.00
   4  20  -1   42.76   26.71
  -4 -20   1   52.03   14.39
   4  18  -1   49.94   25.25
  -4 -18   1   41.09   17.27
   4  16  -1   61.97   24.83
  -4 -16   1   61.49   12.95
   4  14  -1   80.26   39.55
  -4 -14   1   86.20   12.74
   4  12  -1  697.42   30.19
  -4 -12   1  617.13   23.58
   4  10  -1  948.48   35.84
  -4 -10   1  939.98   25.87
   4   8  -1  113.58   43.75
  -4  -8   1  102.03   11.07
   4   4  -1 1884.81   35.90
  -4  -2   1   31.99    7.39
  -4  -2   1   35.24    6.09
  -4   0   1    8.17    9.68
  -4   0   1    3.86    5.77
  -4   2   1   30.65   10.55
  -4   2   1   40.80   18.94
  -4   4   1 1935.84   38.22
  -4   4   1 1903.28   38.82
  -4   6   1 2778.62   52.84
  -4   6   1 2684.75   55.82
  -4   8   1  127.46   19.38
  -4   8   1  127.04   23.52
  -4  10   1  932.17   26.32
  -4  10   1 1027.75   31.55
  -4  12   1  652.40   26.65
  -4  12   1  675.03   22.52
  -4  14   1   82.86   15.02
  -4  14   1   65.51   30.98
  -4  16   1   92.61   24.83
  -4  18   1   39.58   21.42
   4 -18  -1   28.89   10.33
  -4  20   1   55.60   24.90
   3  21  -1   12.33   13.93
  -3 -21   1   23.61   20.73
   3  19  -1   82.80   30.82
  -3 -19   1   77.19   18.99
   3  17  -1   57.27   26.10
  -3 -17   1   56.14   19.68
   3  15  -1   57.48   28.82
  -3 -15   1   51.76   13.32
   3  13  -1  145.88   30.97
  -3 -13   1  131.91   19.26
   3  11  -1   78.16   34.24
  -3 -11   1   56.08   16.49
   3   9  -1   70.26   36.33
  -3  -9   1   68.37   15.37
   3   7  -1  114.12   27.43
  -3  -7   1  115.18    9.25
   3   5  -1  135.49   16.79
  -3  -5   1  142.70   12.31
   3   3  -1  487.44   12.14
  -3  -3   1  510.65   13.61
  -3  -1   1  108.96    9.12
  -3   1   1  101.84    7.40
  -3   1   1  111.48    7.05
  -3   3   1  498.95   14.56
  -3   3   1  495.18   10.69
  -3   5   1  156.91   11.90
  -3   5   1  158.91    8.95
  -3   7   1  116.80   14.37
  -3   7   1  157.47    9.82
  -3   9   1   65.55   16.32
  -3   9   1   71.75    8.05
  -3  11   1   58.51   12.67
  -3  11   1   58.51   26.93
  -3  13   1  143.53   18.19
  -3  13   1  136.87   16.65
  -3  15   1   77.99   36.69
  -3  15   1   60.28   34.60
  -3  17   1   59.92   28.31
   3 -17  -1   64.22   12.20
  -3  19   1   67.29   37.60
   3 -19  -1   97.72   16.05
  -3  21   1   13.26   14.64
   3 -21  -1   21.71    8.24
   2  22  -1   11.69   14.37
  -2 -22   1    1.86   13.79
   2  20  -1  153.06   39.80
  -2 -20   1  173.53   18.46
   2  18  -1  269.24   73.09
  -2 -18   1  260.65   22.38
   2  16  -1  126.71   16.14
  -2 -16   1  118.73   17.94
   2  14  -1 1664.93   62.20
  -2 -14   1 1658.37   48.27
   2  12  -1  844.94   28.55
  -2 -12   1  769.61   26.89
   2  10  -1   57.72   28.65
  -2 -10   1   54.00   13.17
   2   8  -1   65.63   33.55
  -2  -8   1   53.28    8.19
   2   6  -1  182.07    9.87
  -2  -6   1  187.96   10.74
   2   4  -1 2694.60   42.17
  -2  -4   1 2635.57   37.67
  -2  -2   1 5340.20   27.65
  -2   0   1    6.79    4.99
  -2   0   1    2.55    6.83
  -2   0   1    0.62    4.93
   2   0  -1    1.15    4.76
   2  -2  -1 4256.47   54.25
  -2   6   1  195.52   13.12
  -2   6   1  217.35   22.61
  -2   8   1   78.97   13.27
  -2   8   1   57.13    5.99
  -2  10   1   50.63   13.36
  -2  10   1   54.08   26.14
  -2  12   1  857.28   35.71
  -2  12   1  817.13   21.59
  -2  14   1 1748.35   58.43
  -2  14   1 1780.01   46.84
  -2  16   1  135.77   19.26
   2 -16  -1  128.91   16.56
  -2  18   1  274.06   45.10
   2 -18  -1  243.59   17.88
  -2  20   1  156.89   23.24
   2 -20  -1  157.36   18.18
  -2  22   1   -2.39   16.25
   2 -22  -1    8.04   10.61
   1  21  -1   37.46   25.40
  -1 -21   1   57.05   17.87
   1  19  -1   67.33   29.45
  -1 -19   1   97.12   18.39
   1  17  -1   36.77   19.88
  -1 -17   1   40.49   13.17
   1  15  -1   74.54   28.93
  -1 -15   1   88.45   13.37
   1  13  -1   80.57   37.30
  -1 -13   1   87.95   16.18
   1  11  -1  212.59   40.60
  -1 -11   1  236.35   20.95
   1   9  -1  172.68   12.56
  -1  -9   1  170.35   13.27
   1   7  -1  137.70    9.86
  -1  -7   1  149.08   11.09
   1   5  -1  442.05   19.39
  -1  -5   1  429.97   12.54
   1   3  -1  508.56   13.17
  -1  -3   1  491.50   14.15
  -1  -3   1  496.95   14.31
   1   3  -1  474.00   10.68
   1   1  -1   38.18    3.62
  -1  -1   1   49.52    8.88
  -1  -1   1   42.56    4.02
   1   1  -1   36.20    3.35
  -1   1   1   40.42    3.86
   1  -1  -1   37.50    3.49
  -1   1   1   37.01    5.44
   1  -1  -1   37.95    3.26
  -1   3   1  499.14   16.20
   1  -3  -1  534.65   13.22
  -1   3   1  537.36   12.84
   1  -3  -1  486.01   10.33
  -1   5   1  460.26   12.01
  -1   5   1  464.95   10.67
  -1   7   1  167.31   14.29
  -1   7   1  154.47   10.09
  -1   9   1  179.78   27.54
  -1  11   1  196.10   15.37
  -1  11   1  196.22   12.10
  -1  13   1   89.41   36.91
   1 -13  -1   99.51   15.33
  -1  15   1   97.26   38.09
   1 -15  -1   78.01   18.57
  -1  17   1   61.72   29.08
   1 -17  -1   41.74   15.98
  -1  19   1   67.57   41.92
   1 -19  -1   73.12   16.51
  -1  21   1   41.83   20.34
   1 -21  -1   53.15   15.97
   0  22  -1  422.69   28.61
   0 -22   1  471.53   28.01
   0  20  -1   89.73   41.27
   0 -20   1  123.69   19.01
   0  18  -1   90.17   39.39
   0 -18   1   86.49   17.38
   0  16  -1  109.75   48.21
   0 -16   1  105.15   17.18
   0  14  -1   71.80   45.76
   0 -14   1   91.95   17.89
   0  12  -1 1206.98   34.04
   0 -12   1 1075.28   28.49
   0  10  -1 2118.64   41.63
   0 -10   1 1923.58   37.80
   0   8  -1  249.15   14.16
   0  -8   1  262.05   14.20
   0   6  -1 5313.82   35.29
   0   4  -1 3192.63   46.93
   0  -4   1 3194.78   42.76
   0   4  -1 3114.95   41.41
   0   2  -1   16.84    7.95
   0  -2   1   17.19    3.97
   0  -2   1   18.60    2.70
   0   2  -1   21.27    2.86
   0   0   1    4.41    3.70
   0   0  -1    2.73    2.01
   0   2   1   11.26    6.79
   0  -2  -1   18.31    3.41
   0   2   1   27.46    3.66
   0  -2  -1   19.70    8.69
   0   4   1 3243.94   44.96
   0  -4  -1 3132.22   43.53
   0  -4  -1 3417.35   44.75
   0   6   1 4977.45   67.64
   0   6   1 5035.46   38.99
   0   8   1  256.72   12.59
   0  10   1 2134.97   41.98
   0  10   1 2091.79   38.83
   0  12   1 1129.37   34.46
   0 -12  -1 1106.33   31.21
   0  14   1   87.38   49.47
   0 -14  -1   79.11   15.64
   0  16   1  110.23   59.57
   0 -16  -1   95.06   12.90
   0  18   1   72.00   40.75
   0 -18  -1   90.19   20.03
   0  20   1  117.53   68.87
   0 -20  -1  102.70   13.92
   0  22   1  413.20   26.16
   0 -22  -1  466.65   28.84
  -1  21  -1   46.04   24.89
   1 -21   1   50.52   14.78
  -1  19  -1   67.93   34.09
   1 -19   1   88.84   17.10
  -1  17  -1   45.03   27.81
   1 -17   1   50.23   12.72
  -1  15  -1   90.52   48.28
   1 -15   1   97.22   16.93
  -1  13  -1   92.60   47.26
   1 -13   1  100.98   12.20
  -1  11  -1  196.95   15.48
   1 -11   1  203.99   12.94
  -1   9  -1  160.65   15.23
   1  -9   1  168.77   12.54
  -1   7  -1  146.31   12.69
   1  -7   1  150.78    7.18
   1  -7   1  149.52    8.81
  -1   5  -1  441.51   11.97
   1  -5   1  412.37    8.85
  -1   5  -1  403.74    8.36
  -1   3  -1  489.08   15.57
   1  -3   1  506.80   13.26
  -1   3  -1  480.59    8.87
  -1   1  -1   36.20    3.06
   1  -1   1   42.10    4.90
  -1   1  -1   36.20    1.77
   1   1   1   39.41    4.19
  -1  -1  -1   39.34    3.19
   1   1   1   40.50    3.60
  -1  -1  -1   37.36    2.69
   1   3   1  497.25   10.65
  -1  -3  -1  521.01   12.48
   1   3   1  482.75   11.16
  -1  -3  -1  455.09   17.06
   1   5   1  441.95   11.22
   1   5   1  485.52   15.45
   1   7   1  159.32   12.37
  -1  -7  -1  133.25   10.19
   1   9   1  171.00   11.99
  -1  -9  -1  168.41   13.74
   1  11   1  195.86   40.41
  -1 -11  -1  200.12   16.86
   1  13   1   82.14   46.80
  -1 -13  -1  112.15   14.59
   1  15   1   87.57   51.33
  -1 -15  -1   84.54   13.67
   1  17   1   51.13   21.84
  -1 -17  -1   38.64   13.12
   1  19   1   43.98   26.36
  -1 -19  -1   74.45   20.75
   1  21   1   40.26   31.12
  -1 -21  -1   50.37   17.85
  -2  22  -1   12.13   10.26
   2 -22   1    8.79   13.40
  -2  20  -1  187.78   62.67
   2 -20   1  169.21   15.60
  -2  18  -1  253.44   22.97
   2 -18   1  269.36   19.62
  -2  16  -1  129.96   56.44
   2 -16   1  154.91   15.41
  -2  14  -1 1862.14   54.28
   2 -14   1 2012.39   54.20
  -2  12  -1  826.22   30.93
   2 -12   1  907.34   24.68
  -2  10  -1   66.57   16.38
   2 -10   1   56.78    9.91
  -2   8  -1   72.53   13.61
   2  -8   1   55.80    6.55
   2  -8   1   74.67    7.63
  -2   6  -1  193.22   10.69
   2  -6   1  197.54    7.33
   2  -6   1  194.08    8.36
  -2   4  -1 2784.98   38.96
  -2   2  -1 4942.06   63.11
  -2   0  -1    7.69    4.32
  -2   0  -1    2.19    7.17
  -2   0  -1    1.91    3.16
  -2   0  -1    5.60    4.62
  -2  -2  -1 5290.89   22.98
   2   4   1 2683.51   38.24
  -2  -4  -1 2513.12   37.37
   2   6   1  195.46   10.24
  -2  -6  -1  175.88   12.73
   2   8   1   71.85   13.64
  -2  -8  -1   65.04   12.81
   2  10   1   63.76   32.61
  -2 -10  -1   61.46   15.64
   2  12   1  788.54   26.57
  -2 -12  -1  815.80   28.89
   2  14   1 1661.77   46.43
  -2 -14  -1 1822.40   52.86
   2  16   1  119.66   13.37
  -2 -16  -1  135.11   15.37
   2  18   1  253.80   19.50
  -2 -18  -1  247.59   20.37
   2  20   1  177.51   17.06
  -2 -20  -1  183.61   24.90
   2  22   1    5.17    9.41
  -2 -22  -1    2.73   15.25
  -3  21  -1   16.28   10.84
  -3  19  -1   85.09   33.13
  -3  17  -1   61.86   24.53
   3 -17   1   63.23   11.43
  -3  15  -1   66.01   32.97
   3 -15   1   69.79   11.57
  -3  13  -1  127.14   22.88
   3 -13   1  145.85   14.59
  -3  11  -1   73.67   17.66
   3 -11   1   71.59    7.32
  -3   9  -1   63.70    9.41
   3  -9   1   59.94    4.61
   3  -9   1   64.87    6.67
  -3   7  -1  137.10   13.60
   3  -7   1  131.56    4.50
  -3   5  -1  170.41   13.68
   3  -5   1  139.28    5.45
   3  -5   1  148.37    6.53
  -3   3  -1  491.37   14.82
  -3   3  -1  526.12    6.82
   3  -3   1  498.28    6.60
  -3   1  -1  105.37    8.63
  -3   1  -1  101.63    4.43
   3  -1   1   98.33    4.76
  -3  -1  -1   94.96    7.29
  -3  -1  -1  103.56    6.36
   3   1   1   88.57    5.30
   3   3   1  517.17   17.47
  -3  -3  -1  477.44   11.90
   3   5   1  141.51    9.28
  -3  -5  -1  135.82   11.92
   3   7   1  106.29   10.18
   3   9   1   70.24   38.25
  -3  -9  -1   54.55    9.96
   3  11   1   59.82   38.67
  -3 -11  -1   55.52   12.13
   3  13   1  125.67   13.57
  -3 -13  -1  114.36   14.57
   3  15   1   59.52   22.46
  -3 -15  -1   61.23   17.73
   3  17   1   60.47   33.88
  -3 -17  -1   56.42   17.04
   3  19   1   81.33   45.80
  -3 -19  -1   74.21   19.44
   3  21   1   14.89   13.32
  -3 -21  -1   31.02   21.94
  -4  20  -1   67.77   22.98
  -4  18  -1   55.99   25.42
  -4  16  -1   78.25   16.29
  -4  14  -1  103.76   21.96
   4 -14   1   87.49   11.13
  -4  12  -1  756.33   35.02
   4 -12   1  740.37   21.65
  -4  10  -1 1036.54   39.47
   4 -10   1 1093.60   31.28
  -4   8  -1  104.67   16.41
   4  -8   1   98.75    3.42
   4  -6   1 2523.04   36.91
  -4   2  -1   36.05   11.00
  -4   2  -1   36.27    2.81
   4  -2   1   35.44    3.36
  -4   0  -1    3.28    8.79
  -4   0  -1    3.58    3.36
   4   0   1    2.53    3.16
  -4  -2  -1   30.17    7.69
  -4  -2  -1   38.15    6.09
   4   4   1 1781.78   40.17
  -4  -4  -1 1799.59   32.73
   4   8   1   97.98   10.21
  -4  -8  -1  108.10   14.74
   4  10   1  900.64   24.95
  -4 -10  -1  928.48   29.25
   4  12   1  612.67   24.13
  -4 -12  -1  586.84   26.68
   4  14   1   77.82   35.74
  -4 -14  -1   80.49   20.33
   4  16   1   72.98   42.09
  -4 -16  -1   65.76   15.32
   4  18   1   31.98   13.89
  -4 -18  -1   36.29   16.20
   4  20   1   45.16   29.52
  -4 -20  -1   86.86   22.83
  -5  19  -1    6.21   22.95
  -5  17  -1    0.27   16.15
  -5  15  -1   40.79   15.13
  -5  13  -1   12.22   15.58
  -5  11  -1  186.80   51.21
  -5   9  -1  133.49   23.66
   5  -9   1  118.03    6.42
  -5   7  -1   92.03   18.60
   5  -7   1   65.71    2.48
  -5   5  -1  232.31   21.02
  -5   5  -1  189.12    5.60
   5  -5   1  195.45    5.02
  -5   3  -1   39.99   14.93
  -5   3  -1   45.52    3.23
   5  -3   1   45.02    3.43
  -5   1  -1   33.72   12.11
  -5   1  -1   28.01    3.90
   5  -1   1   29.07    4.95
  -5  -1  -1   35.07   10.69
  -5  -1  -1   27.86    5.19
  -5  -3  -1   42.03   10.48
  -5  -3  -1   40.78    6.26
   5   5   1  187.74   12.46
  -5  -5  -1  194.55   12.85
   5   7   1   76.71   35.93
  -5  -7  -1   82.47   12.56
   5   9   1  107.58   23.86
  -5  -9  -1  113.72   18.58
   5  11   1  143.28   50.76
  -5 -11  -1  141.00   13.20
   5  13   1   15.03   10.60
  -5 -13  -1   27.75   18.40
   5  15   1   20.02   19.88
  -5 -15  -1   32.35   12.89
   5  17   1    3.32    8.92
  -5 -17  -1   20.01   14.08
   5  19   1   11.88   15.95
  -5 -19  -1    6.38   14.61
  -6  18  -1   69.98   25.38
  -6  16  -1   65.96   20.86
  -6  14  -1  611.55   39.88
  -6  12  -1  367.63   26.69
  -6  10  -1    3.93   14.69
  -6   8  -1   36.81   14.18
  -6   6  -1  182.25   24.59
  -6   4  -1  926.51   30.86
  -6   2  -1 1234.57   42.17
  -6   2  -1 1100.93   33.72
  -6   0  -1   10.88   11.94
  -6   0  -1    5.02    4.61
  -6  -2  -1 1100.05   40.25
  -6  -2  -1 1114.24   32.49
  -6  -4  -1  903.25   31.96
  -6  -4  -1  867.44   25.38
  -6  -6  -1  154.59   12.14
   6   8   1   31.74   11.59
  -6  -8  -1   48.54   12.60
   6  10   1   10.09   14.45
  -6 -10  -1    9.70   12.32
   6  12   1  278.63   16.80
  -6 -12  -1  287.34   18.17
   6  14   1  565.26   33.44
  -6 -14  -1  565.17   33.72
   6  16   1   51.46   30.33
  -6 -16  -1   53.12   17.23
   6  18   1   62.91   32.79
  -6 -18  -1   45.47   14.09
  -7  15  -1   25.21   23.17
  -7  13  -1   47.40   19.84
  -7  11  -1    8.83   15.37
  -7   9  -1    7.76   15.40
  -7   7  -1   23.00   15.51
  -7   5  -1   12.17   13.33
  -7   3  -1  100.74   13.60
  -7   1  -1   50.54   16.03
  -7  -1  -1   52.97   16.23
  -7  -1  -1   49.55    6.77
  -7  -3  -1  102.28   16.02
  -7  -3  -1  125.53    9.70
  -7  -5  -1   -1.01   11.82
  -7  -5  -1    2.18    8.01
  -7  -7  -1    9.85   13.45
  -7  -7  -1   27.10   10.54
   7   9   1    1.86   11.52
  -7  -9  -1   -0.89   10.56
   7  11   1    3.70    8.02
  -7 -11  -1    5.58   11.66
   7  13   1   41.76   19.65
  -7 -13  -1   49.39   15.90
   7  15   1    9.07    6.99
  -7 -15  -1   24.83   17.43
  -8  12  -1  159.32   39.13
  -8  10  -1  161.57   22.07
  -8   8  -1   44.49   22.76
  -8   6  -1  534.20   25.61
  -8   4  -1  422.44   24.24
  -8   2  -1   34.72   11.46
  -8   0  -1    5.20   12.05
  -8  -2  -1   58.19   16.95
  -8  -4  -1  367.83   24.18
  -8  -6  -1  482.08   29.54
  -8  -6  -1  454.81   24.36
  -8  -8  -1   26.15   11.33
  -8  -8  -1   26.46   10.40
  -8 -10  -1  131.98   18.79
  -8 -10  -1  147.49   14.38
   8  12   1  166.17   23.59
  -8 -12  -1  165.60   18.44
  -9   9  -1    9.15   18.22
  -9   7  -1   18.39   22.11
  -9   5  -1   26.01   12.62
  -9   3  -1    3.89    5.90
  -9   1  -1    1.82   12.08
  -9  -1  -1   20.54   16.76
  -9  -3  -1   -4.64   10.49
  -9  -5  -1   23.79   12.42
  -9  -7  -1    6.92   12.00
  -9  -9  -1   14.97   12.22
  -9  -7   2  104.50   34.25
  -9  -7   2  104.38   12.37
  -9  -5   2  240.41   25.00
  -9  -5   2  200.33   15.79
  -9  -3   2  168.50   20.96
  -9  -3   2  148.75   13.50
  -9  -1   2   34.46   16.79
  -9  -1   2   14.10    6.04
  -9   1   2   22.85   14.63
  -9   3   2  145.09   17.75
  -9   5   2  272.00   28.50
  -9   7   2  142.07   24.68
  -8 -12   2  346.15   29.39
  -8 -12   2  323.99   21.08
  -8 -10   2  622.83   32.29
  -8 -10   2  587.17   26.65
  -8  -8   2  517.81   32.91
  -8  -8   2  500.99   28.79
  -8  -6   2  486.83   29.34
  -8  -6   2  482.04   27.53
  -8  -4   2  272.07   22.52
  -8  -4   2  241.46   17.70
  -8  -2   2    5.90   13.13
  -8  -2   2    4.36    5.42
  -8   0   2  149.07   19.77
  -8   0   2  155.79   20.12
  -8   2   2   11.41   14.06
  -8   2   2    4.56    4.33
  -8   4   2  294.98   23.92
  -8   4   2  230.80   27.50
  -8   6   2  555.69   33.74
  -8   8   2  602.02   37.69
  -8  10   2  689.91   35.90
  -8  12   2  359.98   24.17
   7  15  -2   52.17   40.34
  -7 -15   2  101.42   20.97
   7  13  -2  283.93   18.45
  -7 -13   2  261.65   17.80
   7  11  -2  238.92   19.51
  -7 -11   2  256.27   23.59
  -7  -9   2   32.86   12.21
  -7  -9   2   27.91   14.09
  -7  -7   2   24.15   16.05
  -7  -7   2   36.03   14.58
  -7  -5   2  328.70   19.42
  -7  -5   2  338.43   19.81
  -7  -3   2  597.19   30.63
  -7  -3   2  541.09   24.17
  -7  -1   2  228.22   20.80
  -7  -1   2  208.54   11.62
  -7   1   2  240.40   21.89
  -7   1   2  246.60   13.89
  -7   3   2  563.68   26.70
  -7   3   2  564.23   23.21
  -7   5   2  375.33   27.68
  -7   5   2  345.14   34.84
  -7   7   2   33.61   18.64
  -7   7   2   25.32   13.00
  -7   9   2   25.55   13.14
  -7   9   2   28.44   12.18
  -7  11   2  267.49   25.71
  -7  13   2  333.82   28.79
  -7  15   2   88.14   16.77
   6  16  -2  160.24   67.64
  -6 -16   2  221.07   23.24
   6  14  -2  267.32   29.84
  -6 -14   2  265.69   23.34
   6  12  -2  163.77   14.41
  -6 -12   2  148.77   13.85
   6  10  -2   21.74   16.06
  -6 -10   2   32.56   16.58
   6   8  -2  342.52   22.63
  -6  -8   2  338.68   21.95
  -6  -6   2   32.73   11.21
  -6  -6   2   21.63    9.52
  -6  -4   2 1241.62   37.22
  -6  -4   2 1137.30   34.11
  -6  -2   2 1801.25   49.10
  -6  -2   2 1870.83   49.56
  -6   0   2 1607.77   45.73
  -6   0   2 1631.63   48.77
  -6   2   2 1921.67   52.29
  -6   2   2 1902.86   52.77
  -6   4   2 1325.85   40.84
  -6   4   2 1339.43   37.86
  -6   6   2   24.97   14.88
  -6   6   2   32.20   14.48
  -6   8   2  369.52   22.08
  -6   8   2  325.05   15.47
  -6  10   2   25.40   12.26
  -6  10   2   15.70    7.42
  -6  12   2  184.61   21.08
  -6  12   2  176.54   11.31
  -6  14   2  328.92   29.39
  -6  16   2  226.72   21.87
   5  19  -2   97.04   52.44
  -5 -19   2  136.48   19.76
   5  17  -2   12.32   10.23
  -5 -17   2   21.04   19.47
   5  15  -2    4.53    8.98
  -5 -15   2   20.20   14.70
   5  13  -2  358.01   22.24
  -5 -13   2  333.08   20.79
   5  11  -2  496.65   29.94
  -5 -11   2  537.95   26.97
   5   9  -2  171.33   13.35
  -5  -9   2  194.17   18.05
   5   7  -2  327.96   19.77
  -5  -7   2  298.52   17.06
   5   5  -2  970.29   24.88
  -5  -5   2 1141.94   35.27
  -5  -3   2 1135.13   37.91
  -5  -3   2 1131.97   36.41
  -5  -1   2  119.51   15.00
  -5  -1   2  111.38    9.22
  -5   1   2  118.37   13.59
  -5   1   2  107.85   14.72
  -5   3   2 1183.36   38.17
  -5   3   2 1172.66   38.12
  -5   5   2 1260.83   42.45
  -5   5   2 1275.62   39.44
  -5   7   2  337.46   20.98
  -5   7   2  334.43   17.09
  -5   9   2  203.25   17.29
  -5   9   2  222.69   18.47
  -5  11   2  572.56   30.24
  -5  11   2  520.60   23.92
  -5  13   2  371.16   25.86
  -5  13   2  376.55   16.65
  -5  15   2   11.55   23.37
  -5  15   2   12.17    9.19
  -5  17   2   23.09   16.94
  -5  17   2   11.38    9.83
  -5  19   2  179.79   31.45
   4  20  -2   53.72   30.50
  -4 -20   2   64.37   27.18
   4  18  -2   24.05   18.80
  -4 -18   2   21.85   15.62
   4  16  -2  180.72   26.38
  -4 -16   2  149.35   40.35
   4  14  -2   86.61   41.53
  -4 -14   2   69.04   15.04
   4  12  -2 1418.29   53.95
  -4 -12   2 1369.36   40.70
   4  10  -2 2155.82   74.13
  -4 -10   2 2211.09   58.76
   4   8  -2 1308.07   59.39
  -4  -8   2 1384.24   42.94
   4   6  -2 2394.14   45.18
  -4  -6   2 2206.98   42.21
   4   4  -2 1580.30   32.64
  -4  -4   2 1643.75   34.60
  -4  -2   2   14.18   13.38
  -4   0   2 1118.38   24.95
  -4   0   2  990.92   22.79
  -4   2   2   20.49    6.97
  -4   2   2   13.71    7.69
  -4   4   2 1722.20   35.96
  -4   4   2 1676.32   43.54
  -4   6   2 2491.41   47.77
  -4   6   2 2554.69   45.15
  -4   8   2 1417.45   46.57
  -4   8   2 1495.90   51.83
  -4  10   2 2406.40   62.04
  -4  10   2 2393.72   59.76
  -4  12   2 1599.78   47.28
  -4  12   2 1605.52   42.87
  -4  14   2   94.08   21.40
  -4  14   2   83.75   10.62
  -4  16   2  206.83   26.34
  -4  16   2  181.02   18.55
  -4  18   2   20.29   17.21
  -4  18   2   16.61    8.58
  -4  20   2   35.17   25.91
   4 -20  -2   65.13   13.00
   3  21  -2   93.54   64.71
  -3 -21   2  142.83   20.49
   3  19  -2  207.21   38.70
  -3 -19   2  209.71   20.54
   3  17  -2   43.50   29.92
  -3 -17   2   43.51   16.90
   3  15  -2   74.64   36.16
  -3 -15   2   79.33   15.83
   3  13  -2  970.27   33.65
  -3 -13   2  930.71   34.63
   3  11  -2  882.22   42.20
  -3 -11   2  916.27   27.90
   3   9  -2   98.05   21.57
  -3  -9   2   93.01   13.78
   3   7  -2  167.93   12.30
  -3  -7   2  174.30   13.85
   3   5  -2 1598.71   31.07
  -3  -5   2 1646.03   32.66
   3   3  -2 2420.03   36.57
  -3  -3   2 2401.94   37.42
  -3  -1   2  492.30   12.37
  -3  -1   2  489.10   12.83
  -3   1   2  485.15   13.83
  -3   1   2  510.16   13.55
  -3   3   2 1610.61   28.99
  -3   5   2 1918.52   37.09
  -3   5   2 1721.67   48.18
  -3   7   2  180.21   16.57
  -3   7   2  216.75   23.03
  -3   9   2  117.44   15.85
  -3   9   2  102.41    9.69
  -3  11   2  977.30   30.85
  -3  11   2  920.86   24.94
  -3  13   2 1052.06   38.34
  -3  13   2  945.89   45.06
  -3  15   2   78.15   21.94
  -3  15   2   75.45   41.90
  -3  17   2   44.95   21.44
  -3  17   2   43.30   22.56
  -3  19   2  215.79   22.00
   3 -19  -2  218.83   18.91
  -3  21   2  100.57   58.10
   3 -21  -2  142.81   16.18
   2  20  -2  667.99   35.56
  -2 -20   2  705.46   33.65
   2  18  -2  710.40   29.35
  -2 -18   2  701.91   30.95
   2  16  -2  365.19   61.56
  -2 -16   2  355.98   24.80
   2  14  -2  774.23   31.85
  -2 -14   2  737.54   26.24
   2  12  -2  641.27   25.54
  -2 -12   2  610.81   27.03
   2  10  -2   21.00   14.80
  -2 -10   2   26.17   12.65
   2   8  -2 1281.21   27.45
  -2  -8   2 1238.66   26.87
   2   6  -2  107.40    9.14
  -2  -6   2  127.22   10.01
   2   4  -2 4067.63   54.32
  -2  -4   2 4225.14   57.73
  -2  -2   2 5379.97   25.95
  -2   0   2 4009.38   51.43
  -2   0   2 4037.44   55.06
  -2   2   2 3332.49   46.90
  -2   4   2 4380.14   58.21
  -2   4   2 4146.92   68.84
  -2   6   2  114.74    9.89
  -2   6   2  122.82   14.87
  -2   8   2 1317.96   31.28
  -2  10   2   35.15   15.91
  -2  10   2   35.01   17.24
  -2  12   2  659.48   27.13
  -2  12   2  684.55   24.52
  -2  14   2  745.66   34.07
  -2  14   2  796.56   26.85
  -2  16   2  406.69   27.19
  -2  16   2  391.59   23.64
  -2  18   2  765.17   29.90
   2 -18  -2  699.18   23.08
  -2  20   2  717.12   46.54
   2 -20  -2  653.92   35.32
   1  21  -2  226.30   19.98
  -1 -21   2  243.93   18.24
   1  19  -2  285.81   25.42
  -1 -19   2  289.00   21.82
   1  17  -2   22.42   19.54
  -1 -17   2   29.75   15.99
   1  15  -2   31.69   12.96
  -1 -15   2   34.96   14.79
   1  13  -2 1024.37   25.98
  -1 -13   2 1005.25   32.80
   1  11  -2 1178.82   29.27
  -1 -11   2 1231.61   31.90
   1   9  -2  200.72   12.69
  -1  -9   2  190.93   11.55
   1   7  -2  467.44   23.38
  -1  -7   2  466.84   15.92
   1   5  -2 2683.19   40.48
  -1  -5   2 2720.42   38.93
  -1  -3   2 3382.36   43.47
  -1  -3   2 3529.85   46.59
   1   1  -2  352.28    6.55
  -1  -1   2  351.44    7.47
  -1  -1   2  356.67    8.90
  -1   1   2  349.78    7.71
   1  -1  -2  329.59    6.06
  -1   1   2  337.19    8.18
   1  -3  -2 3348.79   42.97
  -1   3   2 3492.59   48.48
  -1   5   2 2779.16   39.44
  -1   7   2  466.97   19.24
  -1   7   2  475.79   15.43
  -1   9   2  192.16   15.54
  -1   9   2  204.31   10.75
  -1  11   2 1167.06   39.31
  -1  11   2 1213.81   41.58
  -1  13   2 1094.08   40.78
  -1  13   2 1088.83   36.98
  -1  15   2   59.56   34.17
  -1  15   2   37.55   16.99
  -1  17   2   44.30   32.35
   1 -17  -2   19.31   18.14
  -1  19   2  329.75   28.95
   1 -19  -2  277.08   20.95
  -1  21   2  250.43   74.05
   1 -21  -2  217.44   21.80
   0  22  -2   77.46   43.80
   0 -22   2   94.59   17.09
   0  20  -2  121.11   23.77
   0 -20   2  146.64   16.21
   0  18  -2   49.19   15.47
   0 -18   2   40.19   12.27
   0  16  -2  360.38   22.07
   0 -16   2  356.15   23.85
   0  14  -2  167.58   65.08
   0 -14   2  166.56   15.97
   0  12  -2 2600.31   81.19
   0 -12   2 2372.13   65.94
   0  10  -2 3863.83   74.75
   0 -10   2 3482.93   57.30
   0   8  -2 1907.81   33.80
   0  -8   2 1880.40   30.87
   0   6  -2 4054.87   58.15
   0  -6   2 4103.89   54.62
   0   4  -2 3342.04   46.81
   0  -4   2 3206.25   42.34
   0  -4   2 3486.34   45.44
   0   4  -2 3300.19   43.45
   0   2  -2   23.97   10.37
   0  -2   2   33.46    3.66
   0  -2   2   28.12    5.36
   0   2  -2   20.02    3.62
   0  -2  -2   18.68    3.54
   0   2   2   29.33   14.71
   0  -2  -2   23.00    8.74
   0   4   2 3350.74   46.34
   0  -4  -2 3218.88   43.19
   0   4   2 3482.40   46.79
   0   6   2 4059.76   59.14
   0   6   2 3763.75   65.60
   0   8   2 2026.39   35.35
   0   8   2 1828.86   31.22
   0  10   2 3930.88   42.05
   0  10   2 3838.19   67.54
   0  12   2 2642.80   76.26
   0  12   2 2563.42   79.41
   0  14   2  166.31   48.46
   0  16   2  383.11   26.50
   0 -16  -2  370.50   22.82
   0  18   2   45.59   17.90
   0 -18  -2   34.20   18.93
   0  20   2  137.04   44.68
   0 -20  -2  140.71   17.56
   0  22   2   67.88   44.53
   0 -22  -2  107.65   16.69
  -1  21  -2  265.71   52.05
   1 -21   2  239.34   18.38
  -1  19  -2  332.30   50.48
   1 -19   2  288.84   23.38
  -1  17  -2   17.29   13.37
   1 -17   2   35.79   12.27
  -1  15  -2   31.01   12.92
   1 -15   2   33.55    8.66
  -1  13  -2 1004.76   31.03
   1 -13   2 1016.44   19.27
  -1  11  -2 1205.02   73.47
   1 -11   2 1209.95   28.11
  -1   9  -2  182.13   14.93
   1  -9   2  201.37   12.43
  -1   7  -2  436.29   15.75
   1  -7   2  463.84   11.73
  -1   5  -2 2588.32   36.90
   1  -5   2 2554.63   33.79
  -1   5  -2 2468.49   32.70
   1  -3   2 3745.73   47.52
  -1   1  -2  352.70    7.05
   1  -1   2  349.14    6.43
   1  -1   2  363.90    7.55
  -1   1  -2  338.19    5.88
   1   1   2  371.39    6.72
  -1  -1  -2  363.87    6.85
   1   1   2  373.87    8.45
  -1  -3  -2 3504.73   46.17
   1   3   2 3500.03   47.40
   1   5   2 2765.73   40.74
   1   5   2 2497.40   41.18
   1   7   2  437.32   20.41
   1   7   2  448.64   16.20
   1   9   2  164.51   10.37
   1   9   2  195.52   11.19
   1  11   2 1126.87   29.43
   1  11   2 1214.62   40.57
   1  13   2 1019.27   28.09
  -1 -13  -2 1031.86   36.06
   1  15   2   32.07   15.28
  -1 -15  -2   36.96   14.43
   1  17   2   29.92   13.30
  -1 -17  -2   33.80   17.74
   1  19   2  290.38   23.38
  -1 -19  -2  316.84   30.98
   1  21   2  252.45   21.23
  -1 -21  -2  238.62   19.71
  -2  20  -2  749.93   45.35
  -2  18  -2  829.45   31.13
   2 -18   2  819.55   24.69
  -2  16  -2  376.19   54.09
   2 -16   2  364.97   18.51
  -2  14  -2  785.71   75.97
   2 -14   2  813.44   26.28
  -2  12  -2  652.40   28.81
   2 -12   2  621.27   21.93
  -2  10  -2   36.17   15.24
   2 -10   2   34.17    7.01
  -2   8  -2 1379.60   30.42
   2  -8   2 1307.15   23.26
   2  -8   2 1347.63   23.43
  -2   6  -2  106.01   10.95
   2  -6   2  106.54    5.10
  -2   6  -2  103.50    5.22
  -2   4  -2 4264.22   57.17
   2  -2   2 4701.37   59.36
   2   4   2 3989.52   53.99
   2   4   2 3803.83   51.11
   2   6   2  106.49    9.67
   2   6   2  134.37   10.99
   2   8   2 1369.18   29.18
  -2  -8  -2 1280.37   29.46
   2  10   2   30.96   14.24
  -2 -10  -2   44.96   13.28
   2  12   2  611.43   21.53
  -2 -12  -2  675.02   23.72
   2  14   2  807.10   30.38
  -2 -14  -2  817.99   31.07
   2  16   2  362.33   24.55
  -2 -16  -2  375.60   23.60
   2  18   2  730.99   26.34
  -2 -18  -2  752.36   24.63
   2  20   2  693.83   32.60
  -2 -20  -2  730.16   33.47
  -3  21  -2  143.38   49.08
  -3  19  -2  231.63   70.81
  -3  17  -2   54.66   24.63
  -3  15  -2   83.38   34.24
   3 -15   2   79.58   10.67
  -3  13  -2  970.31   37.80
   3 -13   2 1021.02   29.16
  -3  11  -2  975.17   32.85
   3 -11   2  977.85   20.65
  -3   9  -2  115.93   14.96
   3  -9   2   84.52    4.00
  -3   7  -2  167.13   11.44
   3  -7   2  159.77    4.43
   3  -7   2  164.72    4.17
  -3   5  -2 1822.80   33.89
  -3   3  -2 2427.57   37.05
  -3   1  -2  465.77   13.36
  -3   1  -2  490.53    7.87
  -3   1  -2  467.35    8.23
  -3  -1  -2  451.28   13.68
  -3  -1  -2  472.89    9.75
  -3  -1  -2  466.54   10.98
   3   3   2 2424.66   42.67
  -3  -3  -2 2324.44   36.09
   3   5   2 1589.26   34.65
  -3  -5  -2 1542.36   30.66
   3   7   2  155.42   13.27
  -3  -7  -2  155.44   11.75
   3   9   2   87.69    9.51
  -3  -9  -2   95.38   15.99
   3  11   2  915.28   27.85
  -3 -11  -2  912.04   32.45
   3  13   2  924.97   33.39
  -3 -13  -2  956.45   37.13
   3  15   2   67.08   38.16
  -3 -15  -2   60.69   14.79
   3  17   2   39.37   26.85
  -3 -17  -2   70.91   23.51
   3  19   2  205.97   19.43
  -3 -19  -2  229.04   22.93
   3  21   2  102.39   60.34
  -3 -21  -2  158.17   22.63
  -4  20  -2   78.06   44.75
  -4  18  -2   15.78    9.41
  -4  16  -2  179.17   23.25
  -4  14  -2   87.07   17.28
  -4  12  -2 1580.03   49.02
  -4  10  -2 2451.24   64.95
   4 -10   2 2334.60   50.57
  -4   8  -2 1418.96   44.87
  -4   6  -2 2560.05   49.04
  -4   4  -2 1701.50   35.56
  -4   2  -2   18.13    7.49
  -4   0  -2 1046.10   22.85
  -4   0  -2 1010.80   17.37
  -4   0  -2 1019.06   17.53
  -4  -2  -2    3.52    9.16
  -4  -2  -2   14.08    6.18
   4   4   2 1581.38   30.78
  -4  -4  -2 1596.02   31.56
   4   6   2 2232.31   41.70
  -4  -6  -2 2258.22   44.30
   4   8   2 1320.62   46.85
  -4  -8  -2 1257.71   40.72
   4  10   2 2180.92   55.79
  -4 -10  -2 2150.42   57.53
   4  12   2 1389.88   42.16
  -4 -12  -2 1460.51   44.70
   4  14   2   69.75   39.40
  -4 -14  -2   91.20   20.84
   4  16   2  183.31   42.62
  -4 -16  -2  194.59   22.17
   4  18   2   21.46   15.18
  -4 -18  -2   34.93   12.74
   4  20   2   36.99   31.74
  -4 -20  -2   67.33   20.17
  -5  19  -2  118.97   65.07
  -5  17  -2    7.19   16.07
  -5  15  -2   -3.04   17.96
  -5  13  -2  371.91   26.87
  -5  11  -2  549.88   29.28
  -5   9  -2  199.18   21.68
  -5   7  -2  364.33   24.82
  -5   5  -2 1319.18   43.08
  -5   3  -2 1160.30   38.53
  -5   1  -2  130.45   14.38
  -5   1  -2   98.33    3.97
  -5   1  -2  110.68    3.99
  -5  -1  -2  116.33   13.70
  -5  -1  -2  112.46    7.87
  -5  -3  -2 1013.59   24.20
  -5  -3  -2 1059.44   31.94
   5   5   2 1197.88   39.15
  -5  -5  -2 1173.13   35.40
   5   7   2  294.13   40.94
  -5  -7  -2  292.41   15.76
   5   9   2  154.80   11.78
  -5  -9  -2  174.80   15.11
   5  11   2  454.17   20.89
  -5 -11  -2  493.62   23.44
   5  13   2  292.55   25.45
  -5 -13  -2  319.72   22.40
   5  15   2    9.24    8.29
  -5 -15  -2   16.78   13.56
   5  17   2    5.41    7.88
  -5 -17  -2    9.17   14.80
   5  19   2  101.80   50.47
  -5 -19  -2  127.97   18.10
  -6  16  -2  237.01   21.86
  -6  14  -2  350.09   30.58
  -6  12  -2  170.42   23.92
  -6  10  -2   44.83   20.43
  -6   8  -2  352.40   24.61
  -6   6  -2   29.60   13.72
  -6   4  -2 1280.88   40.54
  -6   2  -2 1889.69   51.11
  -6   0  -2 1539.24   45.14
  -6   0  -2 1485.19   34.48
  -6  -2  -2 1818.13   48.67
  -6  -2  -2 1798.26   42.92
  -6  -4  -2 1036.26   31.82
  -6  -4  -2 1157.05   30.46
  -6  -6  -2   28.33   13.99
  -6  -6  -2   17.39    6.94
   6   8   2  295.19   45.19
  -6  -8  -2  305.76   17.33
   6  10   2   29.71   13.34
  -6 -10  -2   17.30   10.75
   6  12   2  158.37   31.42
  -6 -12  -2  158.98   20.31
   6  14   2  280.72   24.31
  -6 -14  -2  262.35   26.22
   6  16   2  198.75   18.90
  -6 -16  -2  209.73   24.01
  -7  15  -2   89.95   20.75
  -7  13  -2  341.65   24.67
  -7  11  -2  286.85   31.70
  -7   7  -2   54.87   22.66
  -7   5  -2  383.09   27.05
  -7   3  -2  603.94   29.21
  -7   1  -2  228.63   18.97
  -7  -1  -2  240.53   19.14
  -7  -3  -2  506.60   28.12
  -7  -3  -2  524.07   19.56
  -7  -5  -2  303.66   21.58
  -7  -5  -2  324.59   15.30
  -7  -7  -2   29.39   10.89
  -7  -7  -2   31.59    9.28
  -7  -9  -2   20.52   12.87
   7  11   2  247.32   21.16
  -7 -11  -2  228.30   17.71
   7  13   2  271.21   22.93
  -7 -13  -2  268.18   22.29
   7  15   2   58.42   36.42
  -7 -15  -2   73.51   14.04
  -8  12  -2  401.72   29.11
  -8  10  -2  663.99   32.74
  -8   8  -2  579.78   37.15
  -8   6  -2  642.77   40.10
  -8   4  -2  262.93   18.59
  -8   2  -2    5.67   12.48
  -8   0  -2  162.50   19.26
  -8  -2  -2    4.29   12.66
  -8  -4  -2  232.31   16.52
  -8  -6  -2  457.61   30.74
  -8  -8  -2  397.83   26.12
  -8 -10  -2  467.86   23.38
  -8 -10  -2  550.84   23.84
  -8 -12  -2  318.27   21.88
  -9   7  -2  134.34   17.37
  -9   5  -2  200.93   19.14
  -9   3  -2  144.87   20.05
  -9   1  -2   16.92   13.55
  -9  -1  -2   28.67   17.62
  -9  -3  -2  136.56   17.67
  -9  -5  -2  205.54   19.55
  -9  -7  -2  102.38   15.53
  -9  -5   3   28.98   16.48
  -9  -5   3   26.34    8.64
  -9  -3   3    2.50   13.02
  -9  -3   3   -0.33    9.25
  -9  -1   3    3.22   13.30
  -9  -1   3   -0.28    7.86
  -9   1   3   -3.90   14.12
  -9   1   3    4.05    5.48
  -9   3   3    6.92   14.47
  -9   5   3   36.22   13.91
  -8 -10   3   87.38   20.05
  -8 -10   3   93.08   15.75
  -8  -8   3    7.87   12.86
  -8  -8   3   22.45    9.93
  -8  -6   3  408.67   27.92
  -8  -6   3  364.02   22.80
  -8  -4   3  319.00   23.68
  -8  -4   3  311.42   20.66
  -8  -2   3   51.12   12.11
  -8  -2   3   54.37   18.69
  -8   0   3   -6.12   11.11
  -8   0   3    0.99    6.99
  -8   2   3   44.99   16.60
  -8   2   3   51.13   16.51
  -8   4   3  341.81   26.09
  -8   4   3  291.60   34.87
  -8   6   3  438.16   29.39
  -8   6   3  378.03   21.04
  -8   8   3   28.69   14.05
  -8  10   3  112.75   19.16
   7  13  -3   27.08   22.78
  -7 -13   3   41.17   12.17
   7  11  -3    1.64   11.85
  -7 -11   3   -2.90   12.65
  -7  -9   3    7.37    8.42
  -7  -9   3    3.21   11.82
  -7  -7   3   20.18   10.54
  -7  -7   3   20.40   11.41
  -7  -5   3    1.82   11.66
  -7  -5   3   13.57   11.10
  -7  -3   3   83.14   15.39
  -7  -3   3   84.33   10.82
  -7  -1   3   45.61   11.87
  -7  -1   3   68.11   33.33
  -7   1   3   53.18   15.47
  -7   1   3   65.01   20.00
  -7   3   3   87.10   56.30
  -7   3   3   96.57   21.32
  -7   5   3    2.63   13.02
  -7   5   3    8.84   11.45
  -7   7   3   35.37   18.37
  -7   7   3   22.20    9.15
  -7   9   3   12.88   12.72
  -7   9   3    7.28    9.09
  -7  11   3    4.64    7.60
  -7  11   3    7.70    5.11
  -7  13   3   33.01   13.67
   6  16  -3   45.06   29.94
  -6 -16   3   63.03   18.48
   6  14  -3  423.02   27.75
  -6 -14   3  406.24   25.23
   6  12  -3  259.56   37.23
  -6 -12   3  267.74   20.96
   6  10  -3    9.73    7.73
  -6 -10   3    4.57   13.04
   6   8  -3   33.64    9.88
  -6  -8   3   32.46   10.84
  -6  -6   3  121.25   15.72
  -6  -6   3  120.85   15.69
  -6  -4   3  725.15   30.75
  -6  -4   3  697.64   34.31
  -6  -2   3  739.50   28.57
  -6  -2   3  763.89   27.00
  -6   0   3   16.40   17.09
  -6   0   3   10.57    7.31
  -6   2   3  758.58   25.70
  -6   2   3  807.98   27.35
  -6   4   3  808.83   33.98
  -6   4   3  808.71   31.34
  -6   6   3  128.52   14.30
  -6   6   3  136.02   17.00
  -6   8   3   49.45   15.50
  -6   8   3   37.34   14.51
  -6  10   3   11.27   12.46
  -6  10   3    5.61    6.68
  -6  12   3  317.84   26.27
  -6  12   3  297.56   19.29
  -6  14   3  489.85   33.32
  -6  14   3  438.12   23.23
  -6  16   3   61.77   15.66
   5  17  -3   -0.65   12.39
  -5 -17   3    9.58   14.72
   5  15  -3   37.83   17.10
  -5 -15   3   34.83   11.62
   5  13  -3   23.68   10.37
  -5 -13   3   28.37   15.39
   5  11  -3  166.39   24.41
  -5 -11   3  152.47   15.41
   5   9  -3   85.54   10.81
  -5  -9   3   89.90   16.91
   5   7  -3   73.99   36.15
  -5  -7   3   85.37   15.96
  -5  -5   3  177.02   15.23
  -5  -5   3  182.59   13.12
  -5  -3   3   27.25   12.74
  -5  -3   3   24.79   12.12
  -5  -1   3   72.48   13.01
  -5  -1   3   73.50   10.16
  -5   1   3   80.93    9.65
  -5   1   3   71.31   36.62
  -5   3   3   40.60   18.41
  -5   3   3   26.84   10.39
  -5   5   3  204.89   21.52
  -5   5   3  213.41   22.56
  -5   7   3   78.32   16.88
  -5   7   3   85.90   37.31
  -5   9   3   92.46   16.65
  -5   9   3   92.76   33.50
  -5  11   3  179.49   19.28
  -5  11   3  164.62   18.60
  -5  13   3   31.10   11.97
  -5  13   3   24.65   12.29
  -5  15   3   41.03   19.26
  -5  15   3   37.06   17.59
  -5  17   3    1.92   16.40
  -5  17   3    4.16    4.82
   4  18  -3   25.25   13.52
  -4 -18   3   37.16   15.65
   4  16  -3   32.79   13.67
  -4 -16   3   45.88   11.89
   4  14  -3   86.50   48.32
  -4 -14   3   81.33   13.78
   4  12  -3  428.10   20.92
  -4 -12   3  422.22   21.55
   4  10  -3  540.64   22.79
  -4 -10   3  483.59   20.45
   4   8  -3   66.92   27.00
  -4  -8   3   67.37   11.65
   4   6  -3 1878.10   56.09
  -4  -6   3 1844.43   54.01
  -4  -4   3 1237.70   37.06
  -4  -4   3 1189.03   39.07
  -4  -2   3  118.65    8.48
  -4  -2   3  118.27   10.16
  -4   0   3    6.23    7.88
  -4   0   3    3.75    6.87
  -4   2   3  113.09   11.25
  -4   2   3  122.74   10.37
  -4   4   3 1343.67   41.08
  -4   4   3 1293.87   39.97
  -4   6   3 2118.52   60.32
  -4   6   3 2063.05   61.64
  -4   8   3   62.14   37.45
  -4   8   3   77.38   28.76
  -4  10   3  585.25   26.04
  -4  10   3  615.94   23.83
  -4  12   3  525.51   28.51
  -4  12   3  476.13   21.82
  -4  14   3  112.13   18.99
  -4  14   3   94.18   33.11
  -4  16   3   38.93   21.65
  -4  16   3   42.71   16.54
  -4  18   3   27.07   18.93
   3  19  -3   47.26   30.48
  -3 -19   3   52.47   14.04
   3  17  -3   47.96   20.94
  -3 -17   3   50.16   14.55
   3  15  -3   64.34   27.35
  -3 -15   3   64.37   11.95
   3  13  -3  160.03   25.94
  -3 -13   3  164.65   17.01
   3  11  -3  100.33   11.01
  -3 -11   3  106.55   11.86
   3   9  -3   69.43   30.37
  -3  -9   3   42.77   13.13
   3   7  -3  130.16   11.03
  -3  -7   3  130.08   11.56
   3   5  -3  135.19    9.02
  -3  -5   3  134.71   11.61
  -3  -3   3  369.38   13.85
  -3  -3   3  349.96   14.49
  -3  -1   3  325.41   12.07
  -3  -1   3  324.55   12.37
  -3   1   3  325.00   11.58
  -3   1   3  340.07   26.06
  -3   3   3  390.46   13.68
  -3   3   3  377.02   26.96
  -3   5   3  167.90   11.69
  -3   5   3  157.50   10.44
  -3   7   3  171.04   13.82
  -3   7   3  158.07   13.09
  -3   9   3   66.26   14.51
  -3   9   3   56.46   29.22
  -3  11   3  125.51   19.64
  -3  11   3  140.74   20.46
  -3  13   3  173.99   22.90
  -3  13   3  180.78   38.50
  -3  15   3   69.19   37.24
  -3  15   3   85.93   40.66
  -3  17   3   58.16   35.55
  -3  17   3   64.66   37.12
  -3  19   3   75.87   42.66
  -3  19   3   50.30   31.80
   2  20  -3   71.19   56.05
  -2 -20   3   90.57   16.91
   2  18  -3  180.79   24.91
  -2 -18   3  156.14   21.02
   2  16  -3  135.75   14.80
  -2 -16   3  127.07   18.18
   2  14  -3 1175.34   42.66
  -2 -14   3 1088.48   38.60
   2  12  -3  709.02   25.04
  -2 -12   3  670.72   25.09
   2  10  -3   22.07    9.85
  -2 -10   3    1.14   10.92
   2   8  -3   93.15    8.09
  -2  -8   3   87.25    9.37
   2   6  -3  185.43   19.93
  -2  -6   3  171.20   11.56
  -2  -4   3 2274.23   40.53
  -2  -2   3 2436.77   33.33
  -2  -2   3 2489.75   34.94
  -2  -2   3 2432.59   37.50
  -2   0   3    0.67    1.90
  -2   0   3    5.24    3.98
  -2   0   3    2.16    9.33
   2  -2  -3 2276.20   31.47
  -2   4   3 2367.66   39.77
  -2   4   3 2233.25   44.46
  -2   6   3  187.23   12.15
  -2   6   3  186.65   10.73
  -2   8   3  101.88   11.69
  -2   8   3  110.07   11.00
  -2  10   3   15.34   16.36
  -2  10   3   18.78   11.80
  -2  12   3  711.42   29.92
  -2  12   3  739.34   27.90
  -2  14   3 1209.73   44.61
  -2  14   3 1157.92   41.32
  -2  16   3  133.29   67.32
  -2  16   3  135.94   15.31
  -2  18   3  190.44   36.18
  -2  18   3  177.76   53.11
  -2  20   3   98.77   54.73
   2 -20  -3   94.25   17.95
   1  21  -3   21.51   18.35
  -1 -21   3   35.92   15.32
   1  19  -3   42.29   19.66
  -1 -19   3   45.77   13.25
   1  17  -3   44.93   38.85
  -1 -17   3   39.79   11.03
   1  15  -3  109.32   40.35
  -1 -15   3   99.98   15.99
   1  13  -3  134.75   21.75
  -1 -13   3  138.51   13.63
   1  11  -3  317.49   17.22
  -1 -11   3  295.44   17.94
   1   9  -3  124.22   29.64
  -1  -9   3  120.49    8.90
   1   7  -3  240.41   11.05
  -1  -7   3  221.39   12.08
   1   5  -3  417.17   10.70
  -1  -5   3  405.45   11.36
   1   3  -3  340.62    7.41
  -1  -3   3  332.97    6.51
  -1  -3   3  368.34   12.70
  -1  -1   3  474.70    7.92
  -1  -1   3  474.88   12.12
   1  -1  -3  461.33    7.78
  -1   1   3  480.84   12.57
  -1   3   3  369.50    9.10
   1  -3  -3  314.54   10.84
  -1   3   3  360.16   12.82
  -1   5   3  421.43   13.26
  -1   5   3  406.15   12.56
  -1   7   3  226.30   13.06
  -1   7   3  240.26   14.06
  -1   9   3  122.30   12.33
  -1   9   3  131.77   11.61
  -1  11   3  317.32   19.78
  -1  11   3  314.06   16.12
  -1  13   3  148.45   16.80
  -1  13   3  150.68   23.36
  -1  15   3  113.77   30.95
  -1  15   3   93.36   55.82
  -1  17   3   51.10   21.98
  -1  17   3   39.11   22.07
  -1  19   3   57.61   25.30
   1 -19  -3   58.73   14.30
  -1  21   3   24.78   17.58
   1 -21  -3   44.62   17.77
   0  20  -3   97.09   47.83
   0 -20   3  118.35   17.33
   0  18  -3   52.55   20.49
   0 -18   3   59.36   37.11
   0  16  -3   51.04   19.81
   0 -16   3   59.38   13.64
   0  14  -3   97.65   41.26
   0 -14   3  121.71   12.28
   0  12  -3  764.28   26.80
   0 -12   3  744.59   21.20
   0  10  -3 1132.73   37.64
   0 -10   3 1059.41   32.15
   0   8  -3   75.44    9.31
   0  -8   3   84.77    6.81
   0   6  -3 3601.81   53.70
   0  -6   3 3695.55   50.65
   0   4  -3 2087.06   29.10
   0  -4   3 2011.46   28.05
   0  -4   3 2053.52   31.15
   0   2  -3  234.19    7.79
   0  -2   3  230.18    7.56
   0  -2   3  237.08    9.86
   0   0   3    6.83    6.79
   0  -2  -3  229.74    8.53
   0   2   3  250.67   12.59
   0   4   3 2121.76   31.33
   0   4   3 2159.35   39.73
   0   8   3  109.05   20.22
   0   8   3   85.74    8.83
   0  10   3 1111.03   35.33
   0  10   3 1112.16   38.26
   0  12   3  767.42   30.52
   0  12   3  755.79   28.45
   0  14   3  131.04   14.43
   0  14   3  114.55   12.43
   0  16   3   56.31   17.90
   0  16   3   48.45   23.24
   0  18   3   56.42   44.99
   0 -18  -3   59.76   15.88
   0  20   3  110.36   46.32
   0 -20  -3  103.01   15.67
  -1  21  -3   25.84   19.83
  -1  19  -3   52.78   16.32
   1 -19   3   42.02   20.89
  -1  17  -3   64.79   24.90
   1 -17   3   47.97    9.94
  -1  15  -3  135.33   46.03
   1 -15   3  101.96   12.84
  -1  13  -3  144.75   23.56
   1 -13   3  150.42   12.52
  -1  11  -3  310.96   20.81
   1 -11   3  307.31   15.57
  -1   9  -3  112.85   10.07
   1  -9   3  117.27    8.73
  -1   7  -3  200.95   11.14
   1  -7   3  238.37    9.21
  -1   5  -3  362.30   14.45
   1  -5   3  423.25   10.20
  -1   3  -3  344.00    8.94
   1  -3   3  339.36    6.80
   1  -3   3  353.29    9.06
  -1   1  -3  459.85    6.95
  -1   1  -3  447.10    7.39
   1  -1   3  479.76   10.55
  -1  -1  -3  469.73    7.87
  -1  -1  -3  469.19    7.90
   1   1   3  499.16   12.30
   1   3   3  338.42    5.85
  -1  -3  -3  339.58    8.18
   1   3   3  355.10   10.83
   1   5   3  392.32   10.66
   1   5   3  418.89   13.53
   1   7   3  244.34   12.15
   1   7   3  228.88   12.22
   1   9   3  116.53   10.15
   1   9   3  116.30   22.12
   1  11   3  302.73   16.41
   1  11   3  304.80   14.64
   1  13   3  124.70   12.59
   1  13   3  150.90   70.00
   1  15   3  109.06   50.27
  -1 -15  -3  113.78   17.29
   1  17   3   42.91   20.48
  -1 -17  -3   42.65   15.64
   1  19   3   38.49   23.27
  -1 -19  -3   53.52   15.08
   1  21   3   16.27   17.60
  -1 -21  -3   32.87   25.35
  -2  20  -3  111.08   56.20
  -2  18  -3  186.18   55.21
  -2  16  -3  155.55   48.69
   2 -16   3  145.04   12.40
  -2  14  -3 1200.97   44.05
   2 -14   3 1184.56   37.95
  -2  12  -3  677.49   29.29
   2 -12   3  736.87   21.41
  -2  10  -3   17.99   12.86
   2 -10   3   12.44    5.85
  -2   8  -3   99.77   16.17
   2  -8   3  104.11    5.49
  -2   6  -3  171.38   10.47
   2  -6   3  164.39    5.63
  -2   6  -3  153.07    5.46
  -2   4  -3 2202.27   36.76
   2  -4   3 2204.14   34.44
  -2   4  -3 2151.06   33.16
  -2   0  -3    0.13    0.98
  -2   0  -3    3.13    3.98
   2   0   3    9.15    5.14
  -2   0  -3    1.16    2.00
  -2  -2  -3 2473.90   34.45
   2   2   3 2342.85   34.54
   2   4   3 2089.87   44.79
   2   4   3 2217.99   38.19
   2   6   3  162.28    8.01
   2   6   3  172.19   10.89
   2   8   3   93.96    7.56
   2   8   3   93.25   19.02
   2  10   3   23.77   11.16
   2  10   3   23.62   11.70
   2  12   3  669.71   29.34
  -2 -12  -3  770.19   33.15
   2  14   3 1116.74   55.56
  -2 -14  -3 1234.88   48.51
   2  16   3  155.05   46.88
  -2 -16  -3  145.38   21.48
   2  18   3  150.85   14.81
  -2 -18  -3  173.81   20.29
   2  20   3   69.31   51.99
  -2 -20  -3  137.37   22.62
  -3  19  -3   69.54   31.74
  -3  17  -3   49.92   14.07
  -3  15  -3   73.20   24.49
  -3  13  -3  183.86   31.13
   3 -13   3  166.35    9.85
  -3  11  -3  109.99   19.20
   3 -11   3  116.56    5.32
  -3   9  -3   49.67   15.83
   3  -9   3   41.33    3.08
  -3   7  -3  163.35   14.78
   3  -7   3  137.96    4.13
   3  -7   3  130.04    3.83
  -3   5  -3  160.25   11.16
   3  -5   3  148.52    2.79
  -3   5  -3  138.65    3.23
  -3   3  -3  356.69   12.71
  -3   3  -3  317.53    6.41
  -3   1  -3  309.77   10.68
   3  -1   3  306.09    7.70
  -3   1  -3  310.21    7.39
  -3  -1  -3  324.58   10.98
   3   1   3  305.95    9.63
   3   3   3  345.43   11.64
   3   3   3  342.56   12.85
   3   5   3  141.82    9.11
   3   5   3  161.17   11.95
   3   7   3  135.16    9.47
  -3  -7  -3  133.02   13.04
   3   9   3   32.50   19.13
  -3  -9  -3   61.66   12.95
   3  11   3  106.15   10.04
  -3 -11  -3  129.31   21.04
   3  13   3  155.61   16.50
  -3 -13  -3  168.00   21.29
   3  15   3   78.19   42.64
  -3 -15  -3   92.27   21.52
   3  17   3   60.91   41.26
  -3 -17  -3   70.00   22.73
   3  19   3   57.81   36.33
  -3 -19  -3   88.71   16.46
  -4  18  -3   33.29   15.90
  -4  16  -3   47.36   16.30
  -4  14  -3   90.50   16.36
  -4  12  -3  502.29   27.22
  -4  10  -3  608.07   27.51
  -4   8  -3   75.22   14.60
  -4   6  -3 2142.66   61.64
  -4   4  -3 1342.95   41.08
  -4   2  -3  116.00   11.05
  -4   2  -3  109.24    2.97
  -4   2  -3  115.21    3.07
  -4   0  -3    0.94    7.27
  -4   0  -3    1.39    1.74
  -4   0  -3    4.20    5.44
  -4  -2  -3  115.69   11.47
  -4  -2  -3  114.87    8.17
  -4  -4  -3 1096.58   33.85
   4   6   3 1894.59   54.72
  -4  -6  -3 1938.34   59.16
   4   8   3   62.23   34.26
  -4  -8  -3   61.75   15.14
   4  10   3  498.52   20.32
  -4 -10  -3  559.86   29.09
   4  12   3  455.63   22.09
  -4 -12  -3  470.25   23.92
   4  14   3   77.79   37.26
  -4 -14  -3   78.96   14.15
   4  16   3   34.31   26.79
  -4 -16  -3   49.66   15.85
   4  18   3   18.50    8.58
  -4 -18  -3   14.47   15.04
  -5  17  -3    4.84   18.95
  -5  15  -3   28.80   14.12
  -5  13  -3   31.22   19.24
  -5  11  -3  170.46   17.15
  -5   9  -3   95.06   13.38
  -5   7  -3   90.68   15.98
  -5   5  -3  229.60   19.36
  -5   3  -3   38.52   13.78
  -5   1  -3   70.12    9.92
  -5   1  -3   73.75    4.30
  -5  -1  -3   69.69    9.34
  -5  -1  -3   76.95    5.77
  -5  -3  -3   32.59   12.11
  -5  -3  -3   30.48    9.43
  -5  -5  -3  181.11   14.69
  -5  -5  -3  175.43   14.49
   5   7   3   77.69   28.60
  -5  -7  -3   66.55   10.62
   5   9   3   93.04   37.93
  -5  -9  -3   83.47   12.13
   5  11   3  133.36   11.87
  -5 -11  -3  152.73   18.63
   5  13   3   18.38   11.92
  -5 -13  -3   36.80   14.24
   5  15   3   32.33   20.71
  -5 -15  -3   42.07   14.58
   5  17   3    2.77    6.01
  -5 -17  -3   10.96   14.84
  -6  16  -3   53.46   14.30
  -6  14  -3  497.26   35.20
  -6  12  -3  306.14   26.35
  -6  10  -3    5.12   10.40
  -6   8  -3   67.83   17.02
  -6   6  -3  144.45   19.36
  -6   4  -3  837.33   33.66
  -6   2  -3  782.63   28.11
  -6   0  -3   10.05   14.18
  -6  -2  -3  716.93   25.37
  -6  -2  -3  708.78   19.75
  -6  -4  -3  694.99   27.35
  -6  -4  -3  711.40   24.58
  -6  -6  -3  105.77   14.36
  -6  -6  -3  127.50   10.64
   6   8   3   30.04    9.30
  -6  -8  -3   33.81    9.98
   6  10   3    6.82    5.09
  -6 -10  -3   16.40   12.22
   6  12   3  278.40   20.85
  -6 -12  -3  262.32   24.08
   6  14   3  401.66   25.15
  -6 -14  -3  373.92   30.16
   6  16   3   46.88   34.01
  -6 -16  -3   41.93   16.39
  -7  13  -3   40.26   18.68
  -7  11  -3   16.58   13.24
  -7   9  -3    5.87   12.97
  -7   7  -3   23.37   14.43
  -7   5  -3    5.89   12.71
  -7   3  -3   82.18   44.62
  -7   1  -3   46.55   13.22
  -7  -1  -3   51.29   10.10
  -7  -3  -3   77.23   14.34
  -7  -5  -3    5.93   10.15
  -7  -7  -3   17.44   10.33
  -7  -7  -3   21.34    9.89
  -7  -9  -3    7.12   12.87
  -7  -9  -3    0.61    8.66
   7  11   3    0.02    8.90
  -7 -11  -3   14.03   10.85
   7  13   3   34.74   16.88
  -7 -13  -3   40.32   15.50
  -8  10  -3  101.52   16.54
  -8   8  -3   28.19   14.59
  -8   6  -3  464.06   32.23
  -8   4  -3  345.54   23.72
  -8   2  -3   45.64   17.62
  -8   0  -3    1.17    9.98
  -8  -2  -3   42.79   10.63
  -8  -4  -3  274.25   23.91
  -8  -6  -3  306.42   24.53
  -8  -8  -3   17.30   10.55
  -8 -10  -3   68.01   11.28
  -9   5  -3   26.15   12.39
  -9   3  -3    9.50   12.79
  -9   1  -3   14.54   17.52
  -9  -1  -3    9.68   11.83
  -9  -3  -3    4.22   11.77
  -9  -5  -3   22.55   15.49
  -8  -8   4   -4.15   10.05
  -8  -8   4    4.35   11.87
  -8  -6   4    6.64   10.07
  -8  -6   4    5.78   10.41
  -8  -4   4   92.95   15.40
  -8  -4   4   92.07   26.24
  -8  -2   4  639.38   35.40
  -8  -2   4  554.29   29.11
  -8   0   4 1211.09   31.87
  -8   0   4 1149.29   52.59
  -8   2   4  676.57   36.09
  -8   2   4  639.43   46.49
  -8   4   4   99.47   18.04
  -8   4   4   91.05   38.09
  -8   6   4   14.32   17.82
  -8   8   4   -0.45   11.34
  -8   8   4    2.54    6.30
  -7 -11   4   54.32   13.09
  -7 -11   4   44.45   15.68
  -7  -9   4  370.94   24.56
  -7  -9   4  377.22   25.92
  -7  -7   4  471.38   28.76
  -7  -7   4  435.90   27.25
  -7  -5   4  124.91   14.27
  -7  -5   4  121.18   17.34
  -7  -3   4   54.78   14.02
  -7  -3   4   69.84   22.98
  -7  -1   4  249.34   18.15
  -7  -1   4  275.53   56.33
  -7   1   4  279.40   21.55
  -7   1   4  276.31   16.29
  -7   3   4   55.10   11.17
  -7   3   4   77.44   24.92
  -7   5   4  143.10   21.12
  -7   5   4  155.80   19.20
  -7   7   4  507.80   32.24
  -7   7   4  466.44   26.04
  -7   9   4  368.54   24.95
  -7   9   4  363.57   44.67
  -7  11   4   56.94   12.73
  -7  11   4   30.64   25.09
   6  14  -4   20.39   15.96
  -6 -14   4   27.80   11.99
   6  12  -4  143.24   12.82
  -6 -12   4  152.32   18.81
   6  10  -4  866.59   39.97
  -6 -10   4  809.70   40.10
  -6  -8   4 1751.50   33.32
  -6  -8   4 1753.61   35.64
  -6  -6   4  782.02   20.88
  -6  -6   4  783.23   22.48
  -6  -4   4   34.20   10.89
  -6  -4   4   27.79   10.70
  -6  -2   4   14.05    8.97
  -6  -2   4   10.08    7.69
  -6   0   4    8.57    8.62
  -6   0   4   11.91    5.92
  -6   2   4    5.19    9.10
  -6   2   4    5.17    4.21
  -6   4   4   46.26   11.45
  -6   4   4   43.01   15.88
  -6   6   4  875.25   25.87
  -6   6   4  830.16   23.10
  -6   8   4 1854.75   34.24
  -6   8   4 1859.98   67.46
  -6  10   4  969.01   46.95
  -6  10   4  943.01   44.01
  -6  12   4  170.09   19.43
  -6  12   4  135.63   49.06
  -6  14   4   41.98   11.83
  -6  14   4   25.05   13.36
  -5 -17   4  212.95   17.76
   5  15  -4  341.00   20.00
  -5 -15   4  310.17   20.80
   5  13  -4   54.51   28.89
  -5 -13   4   58.20   11.90
   5  11  -4   40.04   16.08
  -5 -11   4   63.82   15.54
   5   9  -4  437.96   15.30
  -5  -9   4  454.04   24.47
  -5  -7   4  449.47   24.57
  -5  -5   4   78.40   10.62
  -5  -5   4   70.29   11.00
  -5  -3   4  148.83   11.66
  -5  -3   4  144.27   45.26
  -5  -1   4 1092.26   31.19
  -5  -1   4 1177.72   36.03
  -5   1   4 1181.09   32.52
  -5   1   4 1208.35   36.11
  -5   3   4  153.10   14.82
  -5   3   4  166.30   19.67
  -5   5   4   87.95   13.18
  -5   5   4   81.69   27.60
  -5   7   4  504.68   22.75
  -5   7   4  529.89   26.65
  -5   9   4  510.62   24.02
  -5   9   4  547.86   56.39
  -5  11   4   60.24   15.95
  -5  11   4   50.18   27.22
  -5  13   4   60.24   14.15
  -5  13   4   61.75   14.56
  -5  15   4  402.32   26.76
  -5  15   4  365.19   23.05
  -5  17   4  245.20   25.12
   4  18  -4  410.38   22.75
  -4 -18   4  410.75   27.03
   4  16  -4  907.14   58.12
  -4 -16   4  960.81   47.56
   4  14  -4  270.05   19.05
  -4 -14   4  260.77   20.57
   4  12  -4    8.36    7.25
  -4 -12   4    4.39   12.77
   4  10  -4   22.20   11.72
  -4 -10   4   30.76   10.07
   4   8  -4   34.11   15.52
  -4  -8   4   21.40   11.02
   4   6  -4   24.65    8.67
  -4  -6   4   14.13   10.84
  -4  -4   4  212.95   14.92
  -4  -4   4  226.18   17.34
  -4  -2   4 2398.94   65.85
  -4   0   4 4564.26  120.35
  -4   0   4 4925.40  142.59
  -4   2   4 2600.50   71.89
  -4   2   4 2632.43   76.37
  -4   4   4  247.41   14.71
  -4   4   4  246.00   15.59
  -4   6   4   18.17    7.63
  -4   6   4   20.46    8.63
  -4   8   4   37.17    9.83
  -4   8   4   44.09   14.79
  -4  10   4   35.74   12.29
  -4  10   4   28.72   10.27
  -4  12   4   20.76   11.70
  -4  12   4    3.42   12.18
  -4  14   4  317.73   26.86
  -4  14   4  296.25   19.88
  -4  16   4 1105.46   52.93
  -4  16   4 1068.55   51.05
  -4  18   4  445.66   29.41
  -4  18   4  455.34   25.72
   3  19  -4   12.85    8.64
  -3 -19   4   21.68   19.85
   3  17  -4  253.60   49.76
  -3 -17   4  243.98   20.58
   3  15  -4  344.31   43.71
  -3 -15   4  310.10   20.79
   3  13  -4    9.90    5.39
  -3 -13   4   13.88    9.37
   3  11  -4   59.00   26.39
  -3 -11   4   60.67   11.82
   3   9  -4 1183.64   33.30
  -3  -9   4 1169.32   35.47
   3   7  -4 1316.33   38.84
  -3  -7   4 1312.60   41.41
   3   5  -4  204.70   19.74
  -3  -5   4  186.56   19.29
  -3  -3   4  130.65    9.05
  -3  -3   4  143.70   12.99
  -3  -1   4 1537.93   28.49
  -3  -1   4 1592.57   37.17
  -3   1   4 1612.61   29.80
  -3   1   4 1595.71   40.75
  -3   3   4  151.37   10.29
  -3   3   4  169.66   52.42
  -3   5   4  213.08   12.99
  -3   5   4  224.30   39.55
  -3   7   4 1501.80   45.07
  -3   7   4 1426.84   43.83
  -3   9   4 1361.04   38.40
  -3   9   4 1213.24   35.29
  -3  11   4   68.50   13.63
  -3  11   4   78.20   40.60
  -3  13   4   15.03   10.63
  -3  13   4   26.15   13.28
  -3  15   4  352.05   23.48
  -3  15   4  366.27   36.81
  -3  17   4  269.23   38.18
  -3  17   4  256.78   47.90
  -3  19   4   15.70   12.91
  -3  19   4   15.33   10.39
   2  20  -4   41.83   22.19
  -2 -20   4   17.32   13.35
   2  18  -4   11.27   10.46
  -2 -18   4   12.94   10.96
   2  16  -4   45.16   22.28
  -2 -16   4   53.93   14.85
   2  14  -4   43.55   14.67
  -2 -14   4   32.60   10.04
   2  12  -4  276.40   30.47
  -2 -12   4  263.98   14.83
   2  10  -4 2088.61   63.53
  -2 -10   4 1913.16   47.18
   2   8  -4 4553.99  121.83
  -2  -8   4 4746.39  125.98
   2   6  -4 1939.43   53.10
  -2  -6   4 2045.57   58.72
   2   4  -4   61.69    5.12
  -2  -4   4   71.25   11.77
  -2  -2   4   10.98    4.60
  -2  -2   4   11.02    4.64
  -2  -2   4   24.60   12.39
  -2   0   4   38.18    6.93
  -2   0   4   45.76    5.82
  -2   0   4   42.89   26.60
  -2   2   4   19.82    6.39
  -2   2   4   59.79   16.06
  -2   4   4   76.79    7.88
  -2   4   4   78.04   24.93
  -2   6   4 2241.70   60.95
  -2   6   4 2227.29   64.31
  -2   8   4 5096.56   43.68
  -2   8   4 4911.35  139.05
  -2  10   4 2208.62   58.92
  -2  10   4 2218.20   59.09
  -2  12   4  284.49   20.10
  -2  12   4  268.01   16.88
  -2  14   4   33.96   20.37
  -2  14   4   30.96   14.53
  -2  16   4   67.31   32.51
  -2  16   4   54.15   29.80
  -2  18   4   30.31   15.77
  -2  18   4   12.34   11.30
  -2  20   4   15.29    9.31
   1  19  -4   19.89    9.00
  -1 -19   4   20.65   10.96
   1  17  -4  411.67   30.63
  -1 -17   4  435.54   27.55
   1  15  -4  576.65   36.39
  -1 -15   4  555.00   20.45
   1  13  -4   32.79   18.28
  -1 -13   4   33.35   13.92
   1  11  -4   71.88   36.97
  -1 -11   4   60.09   10.01
   1   9  -4 1411.36   54.13
  -1  -9   4 1458.07   45.06
   1   7  -4 1523.25   42.42
  -1  -7   4 1510.36   44.06
   1   5  -4  123.74    5.60
  -1  -5   4  114.19    7.52
  -1  -5   4  126.92    8.48
   1   3  -4  172.76    4.95
  -1  -3   4  157.53    7.87
  -1  -3   4  169.79   11.14
  -1   1   4 2608.92   38.28
  -1   1   4 2812.87   41.80
   1  -3  -4  148.91    4.94
  -1   3   4  174.40   18.41
  -1   5   4  123.19    8.57
  -1   5   4  142.40   13.00
  -1   7   4 1551.76   45.51
  -1   7   4 1479.37   45.45
  -1   9   4 1413.12   42.99
  -1   9   4 1538.32   47.79
  -1  11   4   79.67   39.87
  -1  11   4   80.89   29.38
  -1  13   4   39.85   17.47
  -1  13   4   32.21   20.56
  -1  15   4  630.05   34.47
  -1  15   4  589.86   25.73
  -1  17   4  472.16   30.72
  -1  17   4  478.89   30.20
  -1  19   4   13.25    8.12
  -1  19   4   23.43   11.89
   0  20  -4   56.02   50.17
   0 -20   4   68.41   15.11
   0  18  -4  639.64   40.79
   0 -18   4  584.05   29.82
   0  16  -4 1667.15   37.74
   0 -16   4 1642.61   32.52
   0  14  -4  461.69   23.93
   0 -14   4  451.15   19.28
   0  12  -4   12.91    8.07
   0 -12   4    4.22    8.83
   0  10  -4   43.43   16.59
   0 -10   4   44.96    8.59
   0   8  -4   91.79   10.70
   0  -8   4   80.62    8.50
   0   6  -4   32.86   14.39
   0  -6   4   27.09    4.99
   0   4  -4  395.55    8.54
   0  -4   4  369.89    8.18
   0  -4   4  422.35   13.35
   0  -2   4 4160.09   41.11
   0   2   4 4142.45   32.64
   0  -4  -4  366.63    8.57
   0   4   4  403.92   13.40
   0   6   4   31.95   14.26
   0   6   4   39.12   18.92
   0   8   4   76.82   10.06
   0   8   4   84.17   37.38
   0  10   4   42.48   22.42
   0  10   4   56.13   28.69
   0  12   4    8.41    8.31
   0  12   4    6.92    9.82
   0  14   4  463.65   22.61
   0  14   4  550.57   27.66
   0  16   4 1615.77   44.44
   0  16   4 1704.58   39.36
   0  18   4  607.78   32.27
   0  18   4  641.98   34.66
   0  20   4   58.54   32.62
   0 -20  -4  110.38   24.18
  -1  19  -4   17.08   13.04
  -1  17  -4  431.90   31.64
   1 -17   4  426.17   24.38
  -1  15  -4  634.09   24.43
   1 -15   4  617.53   17.63
  -1  13  -4   41.50   20.70
   1 -13   4   42.46    9.63
  -1  11  -4   87.75   15.06
   1 -11   4   58.03    9.07
  -1   9  -4 1468.44   44.53
   1  -9   4 1352.25   38.55
  -1   7  -4 1478.66   41.95
   1  -7   4 1576.62   43.53
  -1   5  -4  123.98    7.14
   1  -5   4  124.78    4.96
   1  -5   4  143.62    8.03
  -1   3  -4  147.71    5.41
   1  -3   4  163.33    5.01
   1  -3   4  178.65    9.29
   1  -1   4 2743.05   45.95
  -1  -1  -4 2703.03   39.02
   1   1   4 2685.99   51.39
  -1  -3  -4  159.79    6.70
   1   3   4  168.08   11.22
   1   5   4  136.32    5.86
  -1  -5  -4  117.63    7.75
   1   5   4  127.12   20.79
   1   7   4 1528.30   42.97
   1   7   4 1505.61   44.35
   1   9   4 1275.36   43.59
   1   9   4 1412.58   43.91
   1  11   4   55.58   27.30
   1  11   4   70.93   32.40
   1  13   4   38.42   16.95
   1  13   4   43.66   19.99
   1  15   4  575.49   32.65
   1  15   4  588.49   26.73
   1  17   4  406.81   30.03
  -1 -17  -4  434.04   33.17
   1  19   4   15.72    9.78
  -1 -19  -4   11.51   16.92
  -2  20  -4   17.33    9.13
  -2  18  -4   13.38   11.24
  -2  16  -4   70.59   29.72
  -2  14  -4   37.53   17.81
   2 -14   4   43.70    7.53
  -2  12  -4  253.61   15.67
   2 -12   4  270.93   12.29
  -2  10  -4 2033.81   55.75
   2 -10   4 2056.74   47.30
  -2   8  -4 4602.06  120.43
   2  -8   4 4680.06  120.00
  -2   6  -4 2116.37   57.76
   2  -6   4 1996.08   58.08
  -2   4  -4   70.43    6.99
   2  -4   4   67.62    5.65
  -2   2  -4   12.53    7.47
  -2   2  -4   17.46    4.07
   2  -2   4   15.13    7.16
  -2   0  -4   47.71    3.94
  -2   0  -4   42.05    4.69
   2   0   4   38.29    5.44
  -2  -2  -4   12.30    7.81
  -2  -2  -4   19.27    5.23
   2   2   4   23.12   10.38
   2   4   4   72.58    7.18
   2   4   4   68.80    9.26
   2   6   4 1981.07   54.70
   2   6   4 2035.69   57.27
   2   8   4 4021.79  111.41
   2   8   4 4728.85  125.18
   2  10   4 2089.00   53.62
   2  10   4 2056.64   52.87
   2  12   4  263.63   14.97
   2  12   4  270.13   21.11
   2  14   4   39.68   30.96
   2  16   4   60.59   28.42
  -2 -16  -4   57.53   22.09
   2  18   4   22.06   16.06
  -2 -18  -4   16.16   17.26
   2  20   4   17.71    8.53
  -2 -20  -4   47.18   23.64
  -3  19  -4   12.68    5.65
  -3  17  -4  272.99   47.54
  -3  15  -4  320.59   37.91
  -3  13  -4   18.72    8.92
  -3  11  -4   60.44   20.37
  -3   9  -4 1280.83   37.58
  -3   7  -4 1449.93   43.21
  -3   5  -4  186.59   11.64
  -3   5  -4  164.78    5.95
  -3   3  -4  148.89    9.63
   3  -3   4  134.38    5.34
  -3   3  -4  128.38    5.45
  -3   1  -4 1555.15   27.81
   3  -1   4 1457.96   25.10
  -3  -1  -4 1472.77   26.92
   3   1   4 1484.42   26.95
  -3  -3  -4  139.01   10.30
   3   3   4  131.18   14.67
   3   7   4 1303.05   38.73
   3   7   4 1349.95   41.32
   3   9   4 1113.87   30.64
   3   9   4 1118.24   32.93
   3  11   4   54.30   23.95
  -3 -11  -4   69.36   18.66
   3  13   4   13.33    7.34
  -3 -13  -4   30.17   21.58
   3  15   4  343.75   19.03
  -3 -15  -4  386.62   22.91
   3  17   4  278.18   21.84
  -3 -17  -4  292.56   25.92
   3  19   4   15.96    8.76
  -3 -19  -4   30.37   19.65
  -4  18  -4  444.63   30.84
  -4  16  -4 1031.49   51.80
  -4  14  -4  304.68   30.51
  -4  12  -4   11.42   14.65
  -4  10  -4   28.94   13.71
  -4   8  -4   43.99   11.76
  -4   6  -4   20.31   10.68
  -4   4  -4  272.00   18.93
  -4   2  -4 2665.82   72.78
  -4   0  -4 4663.53  121.90
   4   0   4 4591.10  118.94
  -4  -2  -4 2376.98   64.60
   4   2   4 2396.28   65.66
  -4  -4  -4  214.66   11.94
  -4  -4  -4  207.48   12.92
   4   6   4   22.75   13.08
  -4  -6  -4   16.33    9.54
   4   8   4   28.03   14.05
  -4  -8  -4   34.30   11.12
   4  10   4   32.80   18.03
  -4 -10  -4   37.22   16.00
   4  12   4    1.34    3.96
  -4 -12  -4    7.44   13.35
   4  14   4  272.31   27.08
  -4 -14  -4  345.93   28.46
   4  16   4  962.91   45.20
  -4 -16  -4 1033.30   50.00
   4  18   4  370.57   51.51
  -4 -18  -4  465.08   33.20
  -5  17  -4  216.28   35.77
  -5  15  -4  381.37   28.68
  -5  13  -4   61.07   18.39
  -5  11  -4   69.92   13.97
  -5   9  -4  481.47   24.91
  -5   7  -4  477.03   24.90
  -5   5  -4   72.25   12.66
  -5   3  -4  165.23   11.49
  -5   1  -4 1164.63   34.05
  -5  -1  -4 1152.99   32.35
  -5  -1  -4 1143.46   30.25
  -5  -3  -4  136.91   13.05
  -5  -3  -4  140.04   10.93
  -5  -5  -4   71.82   29.75
  -5  -5  -4   61.07    8.73
   5   7   4  458.77   19.79
  -5  -7  -4  438.42   22.46
   5   9   4  439.28   16.30
  -5  -9  -4  431.12   17.95
   5  11   4   48.55   28.37
  -5 -11  -4   66.91   16.21
   5  13   4   57.46   32.19
  -5 -13  -4   56.74   14.16
   5  15   4  342.48   20.51
  -5 -15  -4  346.90   24.31
  -5 -17  -4  280.26   27.46
  -6  14  -4   30.35   12.18
  -6  12  -4  182.87   24.74
  -6  10  -4  982.36   49.71
  -6   8  -4 1893.63   35.14
  -6   6  -4  870.71   25.30
  -6   4  -4   53.61   11.31
  -6   2  -4    8.87    5.79
  -6   0  -4    3.26    8.03
  -6  -2  -4    7.13    7.77
  -6  -4  -4   34.60    9.70
  -6  -6  -4  741.51   22.36
  -6  -6  -4  725.05   21.36
  -6  -8  -4 1605.12   30.40
  -6  -8  -4 1610.50   30.30
   6  10   4  845.98   39.86
  -6 -10  -4  803.58   38.89
   6  12   4  163.89   14.05
  -6 -12  -4  171.92   20.08
   6  14   4   24.03   15.25
  -6 -14  -4   41.11   15.45
  -7  11  -4   67.37   17.20
  -7   9  -4  419.27   29.35
  -7   7  -4  500.54   30.91
  -7   5  -4  129.73   36.30
  -7   3  -4   85.52   15.09
  -7   1  -4  258.23   14.55
  -7  -1  -4  258.96   20.13
  -7  -3  -4   70.45   15.10
  -7  -5  -4  122.56   14.35
  -7  -7  -4  386.59   24.55
  -7  -9  -4  322.24   22.28
  -7 -11  -4   32.57   12.98
  -7 -11  -4   41.01    9.15
  -8   8  -4    7.37   11.13
  -8   6  -4   18.33   20.98
  -8   4  -4  101.52   17.82
  -8   2  -4  632.69   38.30
  -8   0  -4 1188.76   33.81
  -8  -2  -4  566.69   32.61
  -8  -4  -4   95.42   14.69
  -8  -6  -4    9.48    9.91
  -8  -8  -4   -0.01    8.66
  -8  -4   5  173.23   16.37
  -8  -4   5  179.58   61.02
  -8  -2   5   30.06   11.60
  -8  -2   5   36.29   17.19
  -8   0   5   11.43   11.05
  -8   0   5   10.56    9.01
  -8   2   5   24.78   12.89
  -8   2   5   28.95   13.08
  -8   4   5  220.77   20.22
  -8   4   5  219.97   17.32
  -7  -9   5   -1.17    8.01
  -7  -9   5   -7.93   13.22
  -7  -7   5   15.86    7.41
  -7  -7   5   15.40   17.27
  -7  -5   5    3.40   10.02
  -7  -5   5    2.79    7.13
  -7  -3   5   55.06   11.94
  -7  -3   5   73.93   37.97
  -7  -1   5   37.09   11.43
  -7  -1   5   33.19   13.99
  -7   1   5   41.56   11.63
  -7   1   5   51.96   16.23
  -7   3   5   68.20   13.00
  -7   3   5   62.62   22.51
  -7   5   5   -3.00    8.64
  -7   5   5    8.88    8.09
  -7   7   5   20.40   10.84
  -7   7   5    1.70    5.36
  -7   9   5    1.18    3.44
  -7   9   5    0.34    7.07
   6  12  -5  147.65   14.64
  -6 -12   5  146.72   20.14
  -6 -10   5    1.76    6.93
  -6 -10   5    0.46   11.73
  -6  -8   5   31.39   10.51
  -6  -8   5   29.04   12.66
  -6  -6   5  105.18   13.43
  -6  -6   5   92.22   50.54
  -6  -4   5  441.93   16.99
  -6  -4   5  461.32   22.11
  -6  -2   5  430.18   16.59
  -6  -2   5  454.34   20.23
  -6   0   5   -0.09    5.03
  -6   2   5  488.15   17.67
  -6   2   5  472.32   19.21
  -6   4   5  483.10   21.65
  -6   4   5  518.88   24.62
  -6   6   5  127.32   14.26
  -6   6   5   97.18   38.74
  -6   8   5   25.81   17.33
  -6   8   5   24.99   10.54
  -6  10   5    7.27    9.10
  -6  10   5    5.25    8.56
  -6  12   5  171.51   19.15
  -6  12   5  168.61   42.84
  -5 -15   5   18.83   14.71
   5  13  -5    6.79    5.14
  -5 -13   5   12.53   12.86
   5  11  -5   89.58   15.79
  -5 -11   5   93.23   16.71
   5   9  -5   64.94    8.09
  -5  -9   5   70.88   15.54
  -5  -7   5   63.96   30.18
  -5  -7   5   69.27   14.95
  -5  -5   5   99.27    9.59
  -5  -5   5  118.80   14.38
  -5  -3   5   24.62    5.79
  -5  -3   5   20.71    9.57
  -5  -1   5   39.28    7.81
  -5  -1   5   46.77   18.80
  -5   1   5   38.17    9.16
  -5   1   5   41.33   21.62
  -5   3   5   24.41    6.50
  -5   3   5   28.06   13.81
  -5   5   5  105.25   12.16
  -5   5   5  119.06   35.80
  -5   7   5   57.28   30.08
  -5   7   5   59.28   24.42
  -5   9   5   92.01   13.88
  -5   9   5   89.56   36.50
  -5  11   5  114.41   15.96
  -5  11   5   80.26   35.54
  -5  13   5   12.88   10.53
  -5  13   5    9.94   14.06
  -5  15   5   10.80   14.27
  -5  15   5   21.14    9.33
   4  16  -5   33.14   15.87
  -4 -16   5   53.41   16.08
   4  14  -5   48.95   34.33
  -4 -14   5   67.20   16.39
   4  12  -5  340.43   20.40
  -4 -12   5  312.78   23.00
   4  10  -5  299.83   13.27
  -4 -10   5  313.00   20.39
   4   8  -5   29.32   20.19
  -4  -8   5   38.75   16.71
  -4  -6   5  961.47   31.41
  -4  -6   5  858.38   31.78
  -4  -4   5  738.57   24.52
  -4  -4   5  731.18   36.06
  -4  -2   5   67.69    8.40
  -4  -2   5   64.22   26.66
  -4   0   5   -1.14    6.02
  -4   0   5   -0.95    9.81
  -4   2   5   78.46    9.65
  -4   2   5   76.95   34.96
  -4   4   5  846.12   28.55
  -4   4   5  820.02   30.99
  -4   6   5 1008.89   33.28
  -4   6   5 1030.23   37.14
  -4   8   5   46.59   10.42
  -4   8   5   46.30   21.23
  -4  10   5  380.66   19.54
  -4  10   5  337.30   17.01
  -4  12   5  384.44   27.38
  -4  12   5  368.39   25.32
  -4  14   5   73.47   36.09
  -4  14   5   76.89   43.39
  -4  16   5   40.77   32.88
  -4  16   5   38.70   28.63
   3  17  -5   31.50   17.80
  -3 -17   5   32.51   12.59
   3  15  -5   40.58   18.97
  -3 -15   5   44.53   14.18
   3  13  -5   86.00    9.98
  -3 -13   5   80.39   15.55
   3  11  -5   56.38   20.76
  -3 -11   5   63.11   15.08
   3   9  -5   72.89   14.73
  -3  -9   5   67.11   10.89
   3   7  -5  123.23   20.43
  -3  -7   5  118.58   15.77
  -3  -5   5   76.91    7.81
  -3  -5   5   63.19   10.80
  -3  -3   5  230.48    8.80
  -3  -3   5  239.64   13.53
  -3  -1   5  163.65    8.98
  -3  -1   5  157.99   25.73
  -3   1   5  182.75    8.85
  -3   1   5  145.51   12.66
  -3   3   5  245.06   11.70
  -3   3   5  275.12   39.32
  -3   5   5   89.26   11.32
  -3   5   5  101.18   34.99
  -3   7   5  135.72   13.54
  -3   7   5  136.36   53.57
  -3   9   5   89.93   11.19
  -3   9   5   77.34   27.24
  -3  11   5   54.58   21.37
  -3  11   5   44.89   18.29
  -3  13   5   71.51   31.79
  -3  13   5   83.47   38.56
  -3  15   5   38.09   13.91
  -3  15   5   43.53   18.04
  -3  17   5   36.57   20.34
  -3  17   5   45.11   25.90
   2  18  -5   68.50   20.26
  -2 -18   5   81.13   16.11
   2  16  -5   40.66   23.20
  -2 -16   5   61.39   11.76
   2  14  -5  720.20   21.90
  -2 -14   5  632.51   21.26
   2  12  -5  338.67   12.58
  -2 -12   5  307.08   17.74
   2  10  -5    4.54    6.22
  -2 -10   5   -3.51    9.29
   2   8  -5   41.37   17.68
  -2  -8   5   58.36   20.92
   2   6  -5  180.78   19.65
  -2  -6   5  187.73   11.46
  -2  -4   5 1103.08   30.33
  -2  -4   5 1120.60   44.58
  -2  -2   5 1370.61   41.44
  -2   0   5    0.66    1.19
  -2   0   5   -1.15   10.61
  -2   2   5 1245.60   34.46
  -2   2   5 1482.22   44.74
  -2   4   5 1185.27   33.30
  -2   4   5 1140.77   37.89
  -2   6   5  200.41    9.92
  -2   6   5  190.67   15.67
  -2   8   5   50.66   25.97
  -2   8   5   59.90   25.07
  -2  10   5    2.59    4.54
  -2  10   5   -0.24    7.53
  -2  12   5  361.28   15.19
  -2  12   5  336.22   18.29
  -2  14   5  699.56   21.31
  -2  14   5  686.63   24.00
  -2  16   5   42.92   19.69
  -2  16   5   52.97   29.24
  -2  18   5   82.31   36.76
  -2  18   5   72.40   52.85
   1  17  -5   16.94   12.24
  -1 -17   5   30.69   12.57
   1  15  -5   60.52   33.35
  -1 -15   5   69.42   11.42
   1  13  -5   57.51   28.63
  -1 -13   5   63.58   12.38
   1  11  -5  165.32   21.05
  -1 -11   5  167.37   12.49
   1   9  -5  152.88   12.74
  -1  -9   5  159.84   13.07
   1   7  -5  184.40   17.29
  -1  -7   5  185.21   11.96
   1   5  -5  206.33    6.61
  -1  -5   5  213.81   14.80
  -1  -3   5  205.20    4.95
  -1  -3   5  209.10    4.89
  -1  -3   5  207.71   12.37
  -1  -1   5  207.76   15.45
  -1   1   5  196.05   11.99
  -1   3   5  231.32    7.04
  -1   3   5  212.13   12.54
  -1   5   5  227.76   15.87
  -1   7   5  204.05   13.17
  -1   7   5  190.42   15.26
  -1   9   5  160.64   14.36
  -1   9   5  165.34   40.25
  -1  11   5  195.03   12.44
  -1  11   5  160.43   13.46
  -1  13   5   72.01   39.02
  -1  13   5   74.47   29.17
  -1  15   5   70.88   35.44
  -1  15   5   56.53   27.26
  -1  17   5   26.09   15.43
  -1  17   5   18.41   15.46
   0  18  -5   22.38   19.09
   0 -18   5   30.91   12.49
   0  16  -5   49.48   28.96
   0 -16   5   61.65   11.44
   0  14  -5   93.78   17.31
   0 -14   5  106.45   15.44
   0  12  -5  584.92   24.10
   0 -12   5  544.57   21.32
   0  10  -5  604.67   30.02
   0 -10   5  561.09   21.72
   0   8  -5   62.23   13.11
   0  -8   5   47.52    6.71
   0   6  -5 1683.25   45.17
   0  -6   5 1614.79   50.49
   0   4  -5 1233.34   31.48
   0  -4   5 1189.88   30.39
   0  -4   5 1249.52   36.81
   0  -2   5   95.45    7.84
   0   0   5    0.03    3.54
   0   2   5   91.87    9.87
   0   4   5 1238.13   32.00
   0   4   5 1219.25   37.70
   0   6   5 1720.67   48.06
   0   6   5 1609.39   51.02
   0   8   5   59.12   13.78
   0   8   5   54.42   22.67
   0  10   5  558.47   21.22
   0  10   5  555.07   25.18
   0  12   5  539.01   21.79
   0  12   5  512.14   25.24
   0  14   5   74.96   36.38
   0  14   5   86.52   45.67
   0  16   5   47.42   29.70
   0  16   5   67.52   32.40
   0  18   5   22.04   11.32
   0  18   5   25.71   14.85
  -1  17  -5   26.89   18.55
  -1  15  -5   58.98   28.27
   1 -15   5   58.69    7.89
  -1  13  -5   63.02   33.42
   1 -13   5   73.86    8.62
  -1  11  -5  151.70   14.59
   1 -11   5  151.01   10.32
  -1   9  -5  170.79   11.39
   1  -9   5  146.98    8.99
  -1   7  -5  199.33   10.54
   1  -7   5  176.23    9.41
  -1   5  -5  214.87    9.17
   1  -5   5  207.76   11.51
   1  -3   5  235.32   11.95
   1  -1   5  199.23    9.79
   1   1   5  191.86   11.19
  -1  -3  -5  211.32    4.54
  -1  -3  -5  196.44    4.03
   1   3   5  237.88   14.12
   1   5   5  211.98   14.55
   1   7   5  195.37    7.98
   1   7   5  208.61   11.85
   1   9   5  173.71    9.41
   1   9   5  156.03   29.38
   1  11   5  163.12    9.08
   1  11   5  152.60   12.15
   1  13   5   65.60   33.59
   1  13   5   79.58   14.28
   1  15   5   63.47   33.20
   1  15   5   61.71   35.48
   1  17   5   20.24   14.93
   1  17   5   37.17   21.94
  -2  18  -5   65.38   39.66
  -2  16  -5   48.28   25.58
  -2  14  -5  759.74   27.93
  -2  12  -5  371.09   16.82
  -2  10  -5   -1.64    7.31
   2 -10   5    0.17    4.65
  -2   8  -5   58.22   22.30
   2  -8   5   52.09    9.39
  -2   6  -5  191.12   12.82
   2  -6   5  213.51   13.57
  -2   4  -5 1086.13   32.20
   2  -4   5 1160.57   36.57
  -2   2  -5 1384.09   36.60
   2  -2   5 1409.92   39.88
  -2   0  -5    0.40    1.81
   2   0   5    2.36    4.95
  -2  -2  -5 1313.06   34.38
   2   2   5 1398.69   40.36
  -2  -4  -5 1069.39   30.31
   2   4   5 1105.88   35.87
   2   6   5  185.07   18.85
   2   6   5  191.80   15.59
   2   8   5   60.12   19.51
   2   8   5   56.54   27.20
   2  10   5    4.33    5.25
   2  10   5    4.79    5.64
   2  12   5  348.40   13.82
   2  12   5  322.85   17.65
   2  14   5  689.57   21.25
   2  14   5  696.54   43.35
   2  16   5   40.58   20.71
  -2 -16  -5   69.87   15.94
   2  18   5   62.91   40.47
  -2 -18  -5  109.50   19.47
  -3  17  -5   36.69   16.56
  -3  15  -5   49.48   23.46
  -3  13  -5   73.94   18.79
  -3  11  -5   46.98   26.12
  -3   9  -5   67.21   28.36
  -3   7  -5  127.97   13.53
   3  -7   5  107.63    5.30
  -3   5  -5   76.76    8.58
   3  -5   5   82.29    5.54
  -3   3  -5  217.53   18.16
   3  -3   5  232.42    8.21
  -3   1  -5  173.80   10.21
   3  -1   5  168.39    8.53
  -3  -1  -5  155.64    7.17
   3   1   5  140.36    9.69
  -3  -3  -5  221.23    9.26
   3   3   5  228.58   13.33
  -3  -5  -5   77.14    7.50
   3   5   5   80.14   19.15
   3   7   5  102.87   14.90
   3   7   5  107.84   10.18
   3   9   5   73.09   10.67
   3   9   5   72.36   31.54
   3  11   5   53.99   23.27
   3  11   5   58.13   32.18
   3  13   5   67.27   33.15
  -3 -13  -5   86.70   16.43
   3  15   5   36.05   18.24
  -3 -15  -5   49.49   20.99
   3  17   5   24.25   17.07
  -3 -17  -5   45.55   15.41
  -4  16  -5   36.69   12.05
  -4  14  -5   58.33   19.21
  -4  12  -5  354.36   25.29
  -4  10  -5  372.52   18.18
  -4   8  -5   35.81    7.85
  -4   6  -5 1044.71   34.43
  -4   4  -5  767.79   27.52
  -4   2  -5   75.25   28.64
   4  -2   5   57.91    7.56
  -4   0  -5   -3.62    5.12
   4   0   5    0.60    2.58
  -4  -2  -5   64.98    7.25
   4   2   5   56.46    6.17
  -4  -4  -5  717.02   24.68
   4   4   5  687.53   24.38
  -4  -6  -5  929.97   30.80
   4   6   5  913.85   31.91
   4   8   5   39.64   16.25
   4  10   5  311.95   13.47
  -4 -10  -5  324.46   20.16
   4  12   5  299.32   17.77
  -4 -12  -5  362.20   24.73
   4  14   5   55.25   35.04
  -4 -14  -5   66.91   14.26
   4  16   5   34.98   26.01
  -4 -16  -5   60.48   14.93
  -5  13  -5   10.98    9.29
  -5  11  -5  108.86   15.82
  -5   9  -5   92.85   15.63
  -5   7  -5   63.20   35.57
  -5   5  -5  116.99   12.70
  -5   3  -5   34.39    9.25
  -5   1  -5   43.32   18.53
  -5  -1  -5   31.71    7.63
  -5  -3  -5   32.77    8.09
  -5  -3  -5   18.21    7.69
  -5  -5  -5   98.25   12.87
  -5  -5  -5   92.15   11.67
  -5  -7  -5   67.46   11.88
  -5  -7  -5   53.63    8.98
   5   9   5   74.19    9.80
  -5  -9  -5  106.83   15.08
   5  11   5   81.09   33.76
  -5 -11  -5  142.29   18.66
   5  13   5    7.73    7.73
  -5 -13  -5    9.78   13.68
   5  15   5   10.86    9.56
  -5 -15  -5   11.28   15.74
  -6  10  -5    7.75    9.02
  -6   6  -5  130.58   16.57
  -6   4  -5  475.49   18.12
  -6   2  -5  472.79   17.59
  -6   0  -5   21.69    9.18
  -6  -2  -5  439.10   18.66
  -6  -4  -5  414.82   21.44
  -6  -6  -5  101.11   11.55
  -6  -8  -5   15.24    7.23
  -6  -8  -5   25.86   11.90
  -6 -10  -5    2.53    7.69
  -6 -10  -5    7.73   10.25
   6  12   5  135.15   13.62
  -6 -12  -5  128.81   19.03
  -7   7  -5   16.74    8.57
  -7   5  -5    3.00    8.30
  -7   3  -5   83.85   13.22
  -7   1  -5   34.35    9.47
  -7  -1  -5   34.65   10.52
  -7  -3  -5   57.31   10.59
  -7  -5  -5   10.22   10.08
  -7  -7  -5   11.73    8.35
  -7  -9  -5    6.31    7.98
  -8  -2  -5   22.24   10.51
  -7  -5   6  147.98   66.07
  -7  -3   6  261.26   19.84
  -7  -1   6  108.48   48.21
  -7   1   6  101.32   41.07
  -7   3   6  282.86   42.53
  -7   5   6  178.48   16.49
  -6 -10   6    4.06   12.55
  -6  -8   6   71.47   13.02
  -6  -6   6    8.88    9.07
  -6  -4   6  494.16   33.40
  -6  -2   6  764.95   39.57
  -6   0   6  751.03   40.11
  -6   2   6  854.42   60.61
  -6   4   6  538.55   29.22
  -6   6   6   22.09   15.63
  -6   8   6   59.15   35.50
  -6  10   6    5.72    5.80
  -5 -11   6  234.38   17.73
  -5  -9   6   81.64   12.92
  -5  -7   6  133.25   42.14
  -5  -5   6  451.79   25.17
  -5  -3   6  464.01   22.49
  -5  -1   6   47.13   15.48
  -5   1   6   57.37   20.38
  -5   3   6  527.47   25.86
  -5   5   6  649.37   37.35
  -5   7   6  128.91   44.94
  -5   9   6   86.29   42.37
  -5  11   6  284.55   19.35
  -4 -14   6   37.51   15.02
  -4 -12   6  574.27   30.59
  -4 -10   6  809.41   41.13
  -4  -8   6  691.92   36.24
  -4  -6   6  845.38   27.15
  -4  -4   6  537.03   21.12
  -4  -2   6   18.53   14.48
  -4   0   6  250.93   17.24
  -4   2   6   19.77    7.96
  -4   4   6  641.78   25.66
  -4   6   6  896.96   25.70
  -4   8   6  744.30   37.80
  -4  10   6  950.90   48.88
  -4  12   6  641.17   29.21
  -4  14   6   33.93   17.64
  -3 -15   6   36.41   11.00
  -3 -13   6  346.00   20.37
  -3 -11   6  401.09   23.42
  -3  -9   6   37.02   12.79
  -3  -7   6   47.95   19.38
  -3  -5   6  755.43   30.38
  -3  -3   6  823.82   30.91
  -3  -1   6  171.73   18.06
  -3   1   6  178.95   13.77
  -3   3   6  940.53   36.48
  -3   5   6  783.77   39.95
  -3   7   6   48.42   18.64
  -3   9   6   49.81   23.05
  -3  11   6  467.00   29.71
  -3  13   6  410.26   33.85
  -3  15   6   50.49   26.20
  -2 -16   6  177.86   15.63
  -2 -14   6  283.71   19.23
  -2 -12   6  258.30   19.18
  -2 -10   6   37.99   12.21
  -2  -8   6  244.53   15.20
  -2  -6   6   40.19   13.73
  -2  -4   6 1261.37   41.31
  -2  -2   6 1966.33   52.33
  -2   0   6 1575.38   76.15
  -2   2   6 2003.95   61.87
  -2   4   6 1419.28   28.41
  -2   6   6   39.00   14.45
  -2   8   6  251.27   32.44
  -2  10   6   26.55   12.98
  -2  12   6  253.10   20.06
  -2  14   6  309.95   50.91
  -2  16   6  213.58   18.14
  -1 -15   6   26.34    7.81
  -1 -13   6  439.47   25.51
  -1 -11   6  559.99   18.29
  -1  -9   6   65.29    9.72
  -1  -7   6  103.86   10.30
  -1  -5   6 1070.87   44.52
  -1  -3   6 1081.03   30.64
  -1  -1   6  132.67   34.68
  -1   1   6  128.25   18.49
  -1   3   6 1092.65   31.83
  -1   5   6 1169.29   40.54
  -1   7   6  114.92   12.50
  -1   9   6   71.59   32.11
  -1  11   6  592.28   24.20
  -1  13   6  430.23   35.64
  -1  15   6   22.04   16.39
   0 -16   6   72.21    9.54
   0 -14   6   64.91    9.98
   0 -12   6  988.06   22.17
   0 -10   6 1218.71   21.68
   0  -8   6 1001.71   37.88
   0  -6   6 1296.66   51.42
   0  -4   6 1022.83   29.42
   0  -2   6   31.92   14.04
   0   0   6  509.72   19.05
   0   2   6   33.91   16.81
   0   4   6  978.78   30.34
   0   6   6 1310.90   43.61
   0   8   6  978.12   38.40
   0  10   6 1348.06   28.90
   0  12   6  968.96   29.40
   0  14   6   57.40   19.54
   0  16   6   63.16   45.15
   1 -11   6  575.02   15.74
   1  -9   6   65.53   25.65
   1  -7   6  103.07    9.41
   1  -5   6 1177.87   37.55
   1  -3   6 1148.10   31.10
   1  -1   6  135.94   10.84
   1   1   6  115.62   17.92
   1   3   6 1055.88   32.42
   1   5   6 1079.88   36.03
   1   7   6  103.72   11.12
   1   9   6   59.07   34.92
   1  11   6  527.64   20.03
   1  13   6  416.24   29.20
   1  15   6   18.49    7.24
   2  -8   6  248.83    9.79
   2  -6   6   32.71   15.62
   2  -4   6 1294.46   47.11
   2  -2   6 1881.28   56.01
   2   0   6 1541.22   39.45
   2   2   6 1829.78   51.02
   2   4   6 1279.11   41.10
   2   6   6   36.50   20.12
   2   8   6  221.31   13.39
   2  10   6   17.75   12.02
   2  12   6  247.99   18.37
   2  14   6  289.09   20.18
   2  16   6  200.71   18.23
   3  -3   6  850.55   31.62
   3  -1   6  148.20   16.31
   3   1   6  154.00    9.37
   3   3   6  831.62   28.74
   3   5   6  681.95   24.65
   3   7   6   33.72   29.62
   3   9   6   29.00   16.09
   3  11   6  421.55   24.59
   3  13   6  401.84   24.07
  -3 -15  -6   50.70   13.56
   4   2   6   13.73    7.25
   4   4   6  516.28   15.45
   4   6   6  820.86   20.92
   4   8   6  702.54   34.48
  -4 -12  -6  628.79   29.73
  -4 -14  -6   39.88   14.78
  -5  -7  -6  123.02   13.89
  -5  -9  -6   82.35   14.71
  -5 -11  -6  256.65   21.02
  -6  -4   7  163.50   63.89
  -6  -2   7  232.74   20.17
  -6   0   7   13.40   14.24
  -6   2   7  227.94   74.29
  -6   4   7  234.58   21.98
  -5  -7   7   21.89   17.52
  -5  -5   7   47.50   20.98
  -5  -3   7    2.88    7.87
  -5  -1   7    8.94    9.09
  -5   1   7   15.51    8.94
  -5   3   7   16.12   16.65
  -5   5   7   47.37   18.27
  -5   7   7   33.15   21.03
  -4 -10   7  161.32   35.25
  -4  -6   7  515.07   30.04
  -4  -4   7  371.64   23.50
  -4  -2   7   44.82   21.02
  -4   0   7   -2.86   11.71
  -4   2   7   32.13   12.63
  -4   4   7  452.42   30.17
  -4   6   7  594.18   33.42
  -4   8   7   33.75   12.77
  -4  10   7  177.97   16.82
  -3 -11   7   17.66   12.79
  -3  -9   7   23.79   13.22
  -3  -7   7   39.43   15.47
  -3  -5   7   31.42   15.81
  -3  -3   7   80.88   33.15
  -3  -1   7   91.03   33.12
  -3   1   7   62.46   25.51
  -3   3   7   96.04   53.19
  -3   5   7   34.03   13.51
  -3   7   7   40.79   26.73
  -3   9   7   36.23   18.59
  -3  11   7    9.99    8.32
  -2 -12   7  228.72   18.31
  -2 -10   7   29.30   17.05
  -2  -8   7   14.58   12.68
  -2  -6   7   57.72   26.45
  -2  -4   7  515.04   19.19
  -2  -2   7  720.32   21.45
  -2   0   7    4.07    6.62
  -2   2   7  726.27   21.59
  -2   4   7  524.42   20.36
  -2   6   7   77.34   27.53
  -2   8   7   17.40    9.84
  -2  10   7   18.31   15.15
  -2  12   7  191.41   17.26
  -1 -13   7   23.11    7.67
  -1 -11   7   53.48   20.31
  -1  -9   7   46.10   20.92
  -1  -7   7   55.75   29.34
  -1  -5   7   72.59   29.90
  -1  -3   7   65.13   34.83
  -1  -1   7   59.99   33.43
  -1   1   7   58.96   32.11
  -1   3   7   68.91   29.51
  -1   5   7   84.31   43.59
  -1   7   7   77.76   29.94
  -1   9   7   47.59   27.01
  -1  11   7   43.89   14.30
  -1  13   7   21.98   15.56
   0 -12   7  209.66   15.01
   0 -10   7  277.42   17.37
   0  -8   7   42.68   19.86
   0  -6   7  945.57   21.30
   0  -4   7  622.98   26.27
   0  -2   7   51.95   22.99
   0   0   7   -1.48   10.15
   0   2   7   42.40   27.72
   0   4   7  628.23   30.26
   0   6   7  919.65   25.97
   0   8   7   45.62   19.73
   0  10   7  302.18   21.07
   0  12   7  189.66   17.09
   0  14   7   22.71   11.68
   1  -9   7   26.77   16.43
   1  -7   7   54.69   24.86
   1  -5   7   72.19   30.07
   1  -3   7   51.92   22.01
   1  -1   7   66.76   27.85
   1   1   7   71.62   37.09
   1   3   7   64.68   31.73
   1   5   7   75.64   40.26
   1   7   7   62.89   35.60
   1   9   7   45.66   24.20
   1  11   7   41.45   26.00
   2  -4   7  529.99   15.41
   2  -2   7  716.26   20.53
   2   0   7    1.27    2.58
   2   2   7  684.11   18.47
   2   4   7  475.02   21.22
   2   6   7   60.75   27.14
   2   8   7   14.56    6.93
   2  10   7    8.05    9.41
   2  12   7  179.41   17.83
   3   1   7   60.20   23.69
   3   3   7   66.84   25.48
   3   5   7   23.38   22.73
   3   7   7   34.05   20.37
   3   9   7    8.59   11.81
   3  11   7   18.57   11.66
   4   6   7  507.60   26.07
   4   8   7   19.06   10.41
   4  10   7  134.23   26.65
  -4  -4   8   54.66   27.70
  -4  -2   8  764.14   34.35
  -4   0   8 1468.82   48.87
  -4   2   8  744.59   34.41
  -4   4   8   69.00   35.59
  -3  -7   8  319.64   22.75
  -3  -5   8   88.21   47.21
  -3  -3   8   84.64   41.93
  -3  -1   8  360.62   20.88
  -3   1   8  384.21   27.41
  -3   3   8   73.33   39.93
  -3   5   8  101.91   59.48
  -3   7   8  379.28   31.86
  -2  -8   8 1378.75   45.89
  -2  -6   8  539.42   23.28
  -2  -4   8   12.18    9.72
  -2  -2   8    8.98    8.45
  -2   0   8   63.48   28.71
  -2   2   8   12.04    9.28
  -2   4   8   19.90   10.56
  -2   6   8  561.38   29.61
  -2   8   8 1342.28   45.02
  -1  -9   8  299.40   18.00
  -1  -7   8  361.36   17.56
  -1  -5   8   72.81   38.43
  -1  -3   8  106.06   44.42
  -1  -1   8  592.70   33.18
  -1   1   8  616.89   33.02
  -1   3   8  103.35   50.98
  -1   5   8   69.60   27.93
  -1   7   8  377.33   23.07
  -1   9   8  321.71   22.27
   0  -8   8   56.14   26.06
   0  -6   8   20.66   11.43
   0  -4   8   69.87   37.22
   0  -2   8 1115.12   50.21
   0   0   8 2518.18   38.27
   0   2   8 1148.94   52.02
   0   4   8   67.58   32.74
   0   6   8   22.79   14.22
   0   8   8   61.27   29.83
   0  10   8   15.65    5.40
   1  -5   8   69.37    9.87
   1  -3   8  105.29   11.28
   1  -1   8  566.72   29.10
   1   1   8  578.98   30.01
   1   3   8   84.15   47.77
   1   5   8   85.90   11.53
   1   7   8  360.99   20.07
   1   9   8  290.67   19.30
   2   0   8   46.38   25.66
   2   2   8    5.65    6.09
   2   4   8   15.35   13.34
   2   6   8  554.73   24.59
   2   8   8 1357.14   44.03
   3   5   8   58.24   37.83
   3   7   8  338.39   18.72
   0   0   9    2.04   10.90
   0   0   0    0.00    0.00
;
_shelx_hkl_checksum              4484
loop_
_space_group_symop_operation_xyz
'x, y, z'
'x, -y, -z'
'x+1/2, y+1/2, z'
'x+1/2, -y+1/2, -z'
'-x, -y, -z'
'-x, y, z'
'-x+1/2, -y+1/2, -z'
'-x+1/2, y+1/2, z'
loop_
_atom_site_label
_atom_site_type_symbol
_atom_site_fract_x
_atom_site_fract_y
_atom_site_fract_z
_atom_site_U_iso_or_equiv
_atom_site_adp_type
_atom_site_occupancy
_atom_site_site_symmetry_order
_atom_site_calc_flag
_atom_site_refinement_flags_posn
_atom_site_refinement_flags_adp
_atom_site_refinement_flags_occupancy
Cd1 Cd 0.0000 0.5000 0.5000 0.0244(2) Uani 1 4 d S T P
Cd2 Cd 0.0000 0.5000 1.0000 0.0240(2) Uani 1 4 d S T P
Br3 Br 0.0000 0.37581(4) 0.74995(10) 0.0319(2) Uani 1 2 d S T P
Br4 Br 0.24593(5) 0.55746(3) 0.75005(7) 0.02722(17) Uani 1 1 d . . .
C1' C 0.0000 0.8770(4) 0.8549(11) 0.055(3) Uani 0.30(7) 2 d S T P
N1' N 0.0000 0.8770(4) 0.8549(11) 0.055(3) Uani 0.70(7) 2 d S T P
H1B H 0.0000 0.9188 0.9286 0.067 Uiso 1 2 d R U P
C1 C 0.0000 0.8760(4) 0.6468(11) 0.050(2) Uani 0.70(7) 2 d S T P
N1 N 0.0000 0.8760(4) 0.6468(11) 0.050(2) Uani 0.30(7) 2 d S T P
H1A H 0.1010 0.9012 0.5983 0.060 Uiso 1 1 d R U .
C3 C 0.0000 0.7532(5) 0.749(2) 0.085(4) Uani 1 2 d S T P
H3A H -0.1003 0.7212 0.7495 0.102 Uiso 1 1 d R U .
C4 C 0.0000 0.7988(6) 0.9246(19) 0.093(4) Uani 1 2 d S T P
H4A H 0.0000 0.7817 1.0554 0.111 Uiso 1 2 d R U P
C2 C 0.0000 0.7986(6) 0.5754(18) 0.090(4) Uani 1 2 d S T P
H2A H 0.1010 0.7874 0.5002 0.108 Uiso 1 1 d R U .
loop_
_atom_site_aniso_label
_atom_site_aniso_U_11
_atom_site_aniso_U_22
_atom_site_aniso_U_33
_atom_site_aniso_U_23
_atom_site_aniso_U_13
_atom_site_aniso_U_12
Cd1 0.0266(4) 0.0338(4) 0.0126(3) -0.0021(2) 0.000 0.000
Cd2 0.0258(4) 0.0336(4) 0.0126(3) 0.0011(2) 0.000 0.000
Br3 0.0523(4) 0.0210(3) 0.0224(4) -0.0002(2) 0.000 0.000
Br4 0.0256(3) 0.0349(3) 0.0212(3) -0.00018(19) -0.00019(16) -0.00704(19)
C1' 0.097(7) 0.034(4) 0.035(5) -0.005(3) 0.000 0.000
N1' 0.097(7) 0.034(4) 0.035(5) -0.005(3) 0.000 0.000
C1 0.082(6) 0.033(4) 0.036(5) -0.003(3) 0.000 0.000
N1 0.082(6) 0.033(4) 0.036(5) -0.003(3) 0.000 0.000
C3 0.061(7) 0.025(5) 0.169(12) 0.011(6) 0.000 0.000
C4 0.109(10) 0.048(7) 0.121(11) 0.035(7) 0.000 0.000
C2 0.089(8) 0.049(6) 0.132(11) -0.036(7) 0.000 0.000
loop_
_atom_type_symbol
_atom_type_description
_atom_type_scat_dispersion_real
_atom_type_scat_dispersion_imag
_atom_type_scat_source
C C 0.0033 0.0016 'International Tables Vol C Tables 4.2.6.8 and 6.1.1.4'
H H 0.0000 0.0000 'International Tables Vol C Tables 4.2.6.8 and 6.1.1.4'
N N 0.0061 0.0033 'International Tables Vol C Tables 4.2.6.8 and 6.1.1.4'
Br Br -0.2901 2.4595 'International Tables Vol C Tables 4.2.6.8 and 6.1.1.4'
Cd Cd -0.8075 1.2024 'International Tables Vol C Tables 4.2.6.8 and 6.1.1.4'
loop_
_geom_angle_atom_site_label_1
_geom_angle_atom_site_label_2
_geom_angle_atom_site_label_3
_geom_angle
_geom_angle_site_symmetry_1
_geom_angle_site_symmetry_3
Br4 Cd1 Br4 180.0 5_566 .
Br4 Cd1 Br4 93.43(5) 5_566 6
Br4 Cd1 Br4 86.57(5) . 6
Br4 Cd1 Br4 86.57(5) 5_566 2_566
Br4 Cd1 Br4 93.43(5) . 2_566
Br4 Cd1 Br4 180.0 6 2_566
Br4 Cd1 Br3 95.87(4) 5_566 .
Br4 Cd1 Br3 84.13(4) . .
Br4 Cd1 Br3 84.11(4) 6 .
Br4 Cd1 Br3 95.89(4) 2_566 .
Br4 Cd1 Br3 84.13(4) 5_566 5_566
Br4 Cd1 Br3 95.87(4) . 5_566
Br4 Cd1 Br3 95.89(4) 6 5_566
Br4 Cd1 Br3 84.11(4) 2_566 5_566
Br3 Cd1 Br3 180.0 . 5_566
Br4 Cd1 Cd2 128.93(3) 5_566 .
Br4 Cd1 Cd2 51.07(3) . .
Br4 Cd1 Cd2 51.04(3) 6 .
Br4 Cd1 Cd2 128.96(3) 2_566 .
Br3 Cd1 Cd2 51.63(3) . .
Br3 Cd1 Cd2 128.37(3) 5_566 .
Br4 Cd1 Cd2 51.07(3) 5_566 1_554
Br4 Cd1 Cd2 128.93(3) . 1_554
Br4 Cd1 Cd2 128.96(3) 6 1_554
Br4 Cd1 Cd2 51.04(3) 2_566 1_554
Br3 Cd1 Cd2 128.37(3) . 1_554
Br3 Cd1 Cd2 51.63(3) 5_566 1_554
Cd2 Cd1 Cd2 180.0 . 1_554
Br4 Cd2 Br4 180.0 6 2_567
Br4 Cd2 Br4 93.41(5) 6 5_567
Br4 Cd2 Br4 86.59(5) 2_567 5_567
Br4 Cd2 Br4 86.59(5) 6 .
Br4 Cd2 Br4 93.41(5) 2_567 .
Br4 Cd2 Br4 180.0 5_567 .
Br4 Cd2 Br3 84.13(4) 6 .
Br4 Cd2 Br3 95.87(4) 2_567 .
Br4 Cd2 Br3 95.89(4) 5_567 .
Br4 Cd2 Br3 84.11(4) . .
Br4 Cd2 Br3 95.87(4) 6 5_567
Br4 Cd2 Br3 84.13(4) 2_567 5_567
Br4 Cd2 Br3 84.11(4) 5_567 5_567
Br4 Cd2 Br3 95.89(4) . 5_567
Br3 Cd2 Br3 180.0 . 5_567
Br4 Cd2 Cd1 51.08(3) 6 .
Br4 Cd2 Cd1 128.92(3) 2_567 .
Br4 Cd2 Cd1 128.95(3) 5_567 .
Br4 Cd2 Cd1 51.05(3) . .
Br3 Cd2 Cd1 51.61(3) . .
Br3 Cd2 Cd1 128.38(3) 5_567 .
Br4 Cd2 Cd1 128.92(3) 6 1_556
Br4 Cd2 Cd1 51.08(3) 2_567 1_556
Br4 Cd2 Cd1 51.05(3) 5_567 1_556
Br4 Cd2 Cd1 128.95(3) . 1_556
Br3 Cd2 Cd1 128.39(3) . 1_556
Br3 Cd2 Cd1 51.62(3) 5_567 1_556
Cd1 Cd2 Cd1 180.0 . 1_556
Cd1 Br3 Cd2 76.76(6) . .
Cd1 Br4 Cd2 77.88(5) . .
C1 C1' C4 108.6(8) . .
C1' C1 C2 110.6(8) . .
C2 C3 C4 113.0(8) . .
C3 C4 C1' 104.2(9) . .
C3 C2 C1 103.6(9) . .
loop_
_geom_bond_atom_site_label_1
_geom_bond_atom_site_label_2
_geom_bond_distance
_geom_bond_site_symmetry_2
Cd1 Br4 2.7631(14) 5_566
Cd1 Br4 2.7631(14) .
Cd1 Br4 2.7642(14) 6
Cd1 Br4 2.7642(14) 2_566
Cd1 Br3 2.7972(17) .
Cd1 Br3 2.7972(16) 5_566
Cd1 Cd2 3.474(2) .
Cd1 Cd2 3.474(2) 1_554
Cd2 Br4 2.7626(14) 6
Cd2 Br4 2.7626(14) 2_567
Cd2 Br4 2.7638(14) 5_567
Cd2 Br4 2.7638(14) .
Cd2 Br3 2.7976(17) .
Cd2 Br3 2.7977(17) 5_567
Cd2 Cd1 3.474(2) 1_556
C1' C1 1.446(10) .
C1' C4 1.462(12) .
C1 C2 1.453(12) .
C3 C2 1.450(16) .
C3 C4 1.459(17) .
