#------------------------------------------------------------------------------
#$Date: 2017-07-27 01:34:31 +0300 (Thu, 27 Jul 2017) $
#$Revision: 199346 $
#$URL: file:///home/coder/svn-repositories/cod/cif/4/12/63/4126314.cif $
#------------------------------------------------------------------------------
#
# This file is available in the Crystallography Open Database (COD),
# http://www.crystallography.net/
#
# All data on this site have been placed in the public domain by the
# contributors.
#
data_4126314
loop_
_publ_author_name
'Surbella, Robert G.'
'Ducati, Lucas Colucci'
'Pellegrini, Kristi L.'
'McNamara, Bruce K.'
'Autschbach, Jochen'
'Schwantes, Jon Michael'
'Cahill, Christopher L.'
_publ_section_title
;
 Transuranic Hybrid Materials: Crystallographic and Computational Metrics
 of Supramolecular Assembly.
;
_journal_name_full               'Journal of the American Chemical Society'
_journal_paper_doi               10.1021/jacs.7b05689
_journal_year                    2017
_chemical_formula_moiety         '(C5 H6 N 1+)2, (Pu O2 Cl4 2-)'
_chemical_formula_sum            'C10 H12 Cl4 N2 O2 Pu'
_chemical_formula_weight         576.02
_space_group_crystal_system      triclinic
_space_group_IT_number           2
_space_group_name_Hall           '-P 1'
_space_group_name_H-M_alt        'P -1'
_symmetry_space_group_name_Hall  '-P 1'
_symmetry_space_group_name_H-M   'P -1'
_atom_sites_solution_hydrogens   mixed
_audit_creation_method           SHELXL-2014/7
_cell_angle_alpha                77.9360(10)
_cell_angle_beta                 71.7730(10)
_cell_angle_gamma                75.4320(10)
_cell_formula_units_Z            2
_cell_length_a                   7.7417(4)
_cell_length_b                   10.3137(5)
_cell_length_c                   11.2637(6)
_cell_measurement_reflns_used    9980
_cell_measurement_temperature    296(2)
_cell_measurement_theta_max      59.232
_cell_measurement_theta_min      5.901
_cell_volume                     818.42(7)
_diffrn_ambient_temperature      296(2)
_diffrn_measured_fraction_theta_full 0.999
_diffrn_measured_fraction_theta_max 0.998
_diffrn_measurement_device_type  'Bruker D8 Venture, Photon CCD'
_diffrn_measurement_method       'Omega and phi scans'
_diffrn_radiation_probe          x-ray
_diffrn_radiation_type           MoK\a
_diffrn_radiation_wavelength     0.71073
_diffrn_reflns_av_R_equivalents  0.0269
_diffrn_reflns_av_unetI/netI     0.0152
_diffrn_reflns_Laue_measured_fraction_full 0.999
_diffrn_reflns_Laue_measured_fraction_max 0.998
_diffrn_reflns_limit_h_max       10
_diffrn_reflns_limit_h_min       -10
_diffrn_reflns_limit_k_max       14
_diffrn_reflns_limit_k_min       -14
_diffrn_reflns_limit_l_max       15
_diffrn_reflns_limit_l_min       -15
_diffrn_reflns_number            31093
_diffrn_reflns_point_group_measured_fraction_full 0.999
_diffrn_reflns_point_group_measured_fraction_max 0.998
_diffrn_reflns_theta_full        25.500
_diffrn_reflns_theta_max         29.665
_diffrn_reflns_theta_min         2.950
_diffrn_source                   'Fine-focus sealed tube'
_exptl_absorpt_coefficient_mu    4.677
_exptl_absorpt_correction_T_max  0.7459
_exptl_absorpt_correction_T_min  0.5315
_exptl_absorpt_correction_type   multi-scan
_exptl_absorpt_process_details   'Krause et. al 2015'
_exptl_crystal_colour            Yellow-Orange
_exptl_crystal_density_diffrn    2.337
_exptl_crystal_description       Prismatic
_exptl_crystal_F_000             528
_exptl_crystal_recrystallization_method 'Acidic (HCl) aqueous evaporation'
_exptl_crystal_size_max          0.291
_exptl_crystal_size_mid          0.165
_exptl_crystal_size_min          0.070
_refine_diff_density_max         0.764
_refine_diff_density_min         -0.711
_refine_diff_density_rms         0.091
_refine_ls_extinction_method     none
_refine_ls_goodness_of_fit_ref   1.055
_refine_ls_hydrogen_treatment    constr
_refine_ls_matrix_type           full
_refine_ls_number_parameters     175
_refine_ls_number_reflns         4630
_refine_ls_number_restraints     0
_refine_ls_restrained_S_all      1.055
_refine_ls_R_factor_all          0.0321
_refine_ls_R_factor_gt           0.0208
_refine_ls_shift/su_max          0.000
_refine_ls_shift/su_mean         0.000
_refine_ls_structure_factor_coef Fsqd
_refine_ls_weighting_details
'w=1/[\s^2^(Fo^2^)+(0.0229P)^2^+0.5398P] where P=(Fo^2^+2Fc^2^)/3'
_refine_ls_weighting_scheme      calc
_refine_ls_wR_factor_gt          0.0467
_refine_ls_wR_factor_ref         0.0512
_reflns_Friedel_coverage         0.000
_reflns_number_gt                3577
_reflns_number_total             4630
_reflns_threshold_expression     'I > 2\s(I)'
_cod_data_source_file            ja7b05689_si_002.cif
_cod_data_source_block           Compound_9
_cod_database_code               4126314
_shelx_shelxl_version_number     2014/7
_shelx_space_group_comment
;
The symmetry employed for this shelxl refinement is uniquely defined
by the following loop, which should always be used as a source of
symmetry information in preference to the above space-group names.
They are only intended as comments.
;
_shelx_res_file
;

    shelx.res created by SHELXL-2014/7

TITL shelx     P -1         R = 0.02
CELL  0.71073   7.7417  10.3137  11.2637   77.936   71.773   75.432
ZERR     2.00   0.0004   0.0005   0.0006    0.001    0.001    0.001
LATT   1
SFAC  C    H    CL   N    O    PU
UNIT  20 24 8 4 4 2
MERG   2
FMAP   2
ACTA 51
BOND   $H
HTAB
CONF
L.S.   24
TEMP    23.00
WGHT    0.022900    0.539800
FVAR       0.10295
PU1   6    0.500000    0.000000    1.000000    10.50000    0.04726    0.03962 =
         0.04136   -0.01904   -0.00426   -0.00839
CL1   3    0.334173    0.168579    0.837516    11.00000    0.06760    0.06328 =
         0.05280   -0.01634   -0.01437    0.00091
CL2   3    0.829276    0.032840    0.841874    11.00000    0.06044    0.08426 =
         0.07332   -0.03015    0.01226   -0.02416
O1    5    0.505308   -0.135015    0.928597    11.00000    0.07239    0.05278 =
         0.06228   -0.02954   -0.01252   -0.01202
PU2   6    0.000000    0.500000    0.500000    10.50000    0.05017    0.03712 =
         0.04182   -0.00677   -0.01912   -0.00452
CL3   3    0.327747    0.555537    0.356269    11.00000    0.06495    0.06776 =
         0.06882   -0.02335   -0.00780   -0.02329
CL4   3    0.053124    0.302387    0.367804    11.00000    0.08550    0.05445 =
         0.06830   -0.02367   -0.02712   -0.00972
O2    5    0.107224    0.388159    0.605148    11.00000    0.07263    0.05421 =
         0.05905   -0.00017   -0.03499   -0.00146
N1    4    0.567815    0.235408    0.488474    11.00000    0.07043    0.06260 =
         0.10820   -0.03471   -0.00230   -0.01546
AFIX   3
HN1   2    0.507615    0.313708    0.508274    11.00000   -1.20000
AFIX   0
C1    1    0.567266    0.198564    0.378079    11.00000    0.06716    0.06364 =
         0.07017    0.00226   -0.02826   -0.01879
AFIX  43
H1    2    0.499832    0.256152    0.325609    11.00000   -1.20000
AFIX   0
C2    1    0.668114    0.075521    0.347731    11.00000    0.08321    0.08126 =
         0.04474   -0.01700   -0.00762   -0.04006
AFIX  43
H2    2    0.672273    0.048409    0.272989    11.00000   -1.20000
AFIX   0
C3    1    0.763737   -0.008386    0.428205    11.00000    0.05773    0.05120 =
         0.07228   -0.02009    0.00583   -0.01414
AFIX  43
H3    2    0.833751   -0.092592    0.408675    11.00000   -1.20000
AFIX   0
C4    1    0.753941    0.034193    0.537045    11.00000    0.05397    0.06716 =
         0.05926    0.00090   -0.01472   -0.01775
AFIX  43
H4    2    0.815929   -0.022130    0.593268    11.00000   -1.20000
AFIX   0
C5    1    0.658418    0.153252    0.563191    11.00000    0.05013    0.05659 =
         0.04773   -0.01806   -0.00901   -0.01433
AFIX  43
H5    2    0.654966    0.180326    0.637785    11.00000   -1.20000
AFIX   0
N2    4    0.898903    0.270009    0.005209    11.00000    0.07457    0.06400 =
         0.10078   -0.02444   -0.00305   -0.01060
AFIX   3
HN2   2    0.954103    0.188309   -0.006191    11.00000   -1.20000
AFIX   0
C6    1    0.889641    0.313848    0.109548    11.00000    0.06348    0.07550 =
         0.06327    0.00356   -0.01884   -0.01780
AFIX  43
H6    2    0.943276    0.256281    0.169511    11.00000   -1.20000
AFIX   0
C7    1    0.803914    0.440136    0.129669    11.00000    0.06808    0.09450 =
         0.05705   -0.02737   -0.00817   -0.02585
AFIX  43
H7    2    0.796053    0.469858    0.204012    11.00000   -1.20000
AFIX   0
C8    1    0.727881    0.525449    0.040851    11.00000    0.06203    0.05414 =
         0.10417   -0.02502   -0.01586   -0.00585
AFIX  43
H8    2    0.667902    0.613676    0.053673    11.00000   -1.20000
AFIX   0
C9    1    0.741722    0.478297   -0.068223    11.00000    0.07615    0.08462 =
         0.07103    0.00830   -0.03394   -0.02210
AFIX  43
H9    2    0.693786    0.535672   -0.130888    11.00000   -1.20000
AFIX   0
C10   1    0.823211    0.351353   -0.083964    11.00000    0.08270    0.09981 =
         0.05663   -0.03294   -0.00606   -0.03201
AFIX  43
H10   2    0.828278    0.318409   -0.156047    11.00000   -1.20000
AFIX   0
HKLF    4

REM  shelx     P -1         R = 0.02
REM R1 =  0.0208 for    3577 Fo > 4sig(Fo)  and  0.0321 for all    4630 data
REM    175 parameters refined using      0 restraints

END

WGHT      0.0229      0.5398

REM Instructions for potential hydrogen bonds
EQIV $1 -x+1, -y+1, -z+1
HTAB N1 Cl3_$1
EQIV $2 -x+1, -y, -z+1
HTAB C2 Cl1_$2
HTAB C4 Cl4_$2
HTAB C5 Cl1
HTAB C5 Cl2
HTAB C5 Cl3_$1
EQIV $3 x+1, y, z-1
HTAB N2 Cl1_$3
EQIV $4 x+1, y, z
HTAB C6 Cl4_$4
EQIV $5 -x+1, -y+1, -z
HTAB C9 Cl3_$5
EQIV $6 x, y, z-1
HTAB C10 Cl2_$6
HTAB C10 Cl3_$5

REM Highest difference peak  0.764,  deepest hole -0.711,  1-sigma level  0.091
Q1    1   0.0940  0.5329  0.4750  11.00000  0.05    0.76
Q2    1   0.8667  0.0177  0.8991  11.00000  0.05    0.70
Q3    1   0.4328 -0.0549  1.0445  11.00000  0.05    0.67
Q4    1   0.5371 -0.1949  0.8895  11.00000  0.05    0.47
Q5    1   0.3324  0.5249  0.4259  11.00000  0.05    0.44
Q6    1   0.6936  0.1574  0.5781  11.00000  0.05    0.39
Q7    1   0.1489  0.3408  0.3313  11.00000  0.05    0.37
Q8    1   0.7844 -0.0165  0.8392  11.00000  0.05    0.36
Q9    1   0.7234  0.1183  0.5563  11.00000  0.05    0.33
Q10   1   0.8167  0.3199 -0.0492  11.00000  0.05    0.32
Q11   1   0.7253  0.0184  0.9255  11.00000  0.05    0.31
Q12   1  -0.0042  0.4764  0.5575  11.00000  0.05    0.31
Q13   1   0.5960  0.1616  0.5616  11.00000  0.05    0.30
Q14   1   0.6471  0.1843  0.5440  11.00000  0.05    0.30
Q15   1   0.1878  0.5796  0.3981  11.00000  0.05    0.30
Q16   1   0.4555  0.1880  0.8256  11.00000  0.05    0.29
Q17   1   0.2624  0.5166  0.4395  11.00000  0.05    0.28
Q18   1  -0.0997  0.4234  0.6468  11.00000  0.05    0.28
Q19   1  -0.0210  0.3583  0.3667  11.00000  0.05    0.28
Q20   1   0.0532  0.4413  0.5048  11.00000  0.05    0.27
;
_shelx_res_checksum              55864
_shelx_hkl_file
;
  -2   0   0  100.60    2.27
  -2   0   0  100.27    2.28
   2   0   0   98.79    2.29
   2   0   0  100.11    2.32
   2   0   0   97.48    2.28
   2   0   0   99.14    2.27
   2   0   0  100.87    2.32
  -3   0   0    0.67    0.10
  -3   0   0    0.70    0.08
  -3   0   0    0.64    0.08
   3   0   0    0.66    0.09
   3   0   0    0.64    0.10
   3   0   0    0.92    0.14
   3   0   0    0.57    0.11
   3   0   0    0.65    0.11
  -4   0   0   72.67    1.73
  -4   0   0   75.83    1.76
  -4   0   0   73.26    1.74
   4   0   0   73.89    1.83
   4   0   0   73.47    1.74
   4   0   0   72.23    1.82
   4   0   0   74.03    1.73
   4   0   0   73.25    1.79
  -5   0   0    2.29    0.16
  -5   0   0    2.21    0.18
   5   0   0    2.09    0.17
   5   0   0    2.11    0.24
   5   0   0    1.86    0.16
   5   0   0    2.22    0.25
  -6   0   0   47.23    1.22
  -6   0   0   47.92    1.22
  -6   0   0   49.38    1.25
   6   0   0   47.27    1.19
   6   0   0   47.66    1.19
   6   0   0   46.84    1.33
   6   0   0   45.79    1.34
  -7   0   0    0.54    0.16
  -7   0   0    0.38    0.15
  -7   0   0    0.16    0.15
   7   0   0    0.58    0.15
   7   0   0    0.51    0.15
   7   0   0    0.14    0.24
   7   0   0    0.30    0.22
  -8   0   0    4.63    0.36
  -8   0   0    4.75    0.38
  -8   0   0    4.91    0.37
   8   0   0    4.13    0.46
   8   0   0    3.80    0.57
   8   0   0    4.22    0.33
   8   0   0    4.83    0.29
  -9   0   0    0.11    0.20
  -9   0   0    0.01    0.25
  -9   0   0    0.07    0.28
   9   0   0   -0.23    0.24
   9   0   0    0.11    0.31
 -10   0   0    1.69    0.37
 -10   0   0    0.92    0.46
 -10   0   0    0.85    0.29
  10   0   0    0.89    0.30
  10   0   0    0.53    0.41
   9  -1   0    3.21    0.47
   9  -1   0    2.51    0.38
  -9   1   0    3.48    0.36
  -9   1   0    3.82    0.42
  -9   1   0    4.12    0.45
   8  -1   0    0.25    0.37
   8  -1   0   -0.27    0.23
  -8   1   0   -0.27    0.14
  -8   1   0    0.17    0.18
   7  -1   0   12.72    0.60
   7  -1   0   12.06    0.61
   7  -1   0   12.53    0.54
  -7   1   0   12.82    0.47
  -7   1   0   12.61    0.49
  -7   1   0   13.19    0.47
   6  -1   0    1.88    0.28
   6  -1   0    1.61    0.17
   6  -1   0    1.25    0.26
   6  -1   0    1.61    0.22
  -6   1   0    1.50    0.18
  -6   1   0    1.27    0.18
  -6   1   0    1.68    0.20
   5  -1   0   31.95    0.80
   5  -1   0   31.59    0.93
   5  -1   0   30.55    0.93
   5  -1   0   31.79    0.79
   5  -1   0   31.59    0.89
  -5   1   0   32.30    0.85
  -5   1   0   32.44    0.82
  -5   1   0   31.57    0.81
   4  -1   0    6.14    0.30
   4  -1   0    5.83    0.31
   4  -1   0    6.22    0.27
   4  -1   0    6.51    0.22
   4  -1   0    6.50    0.21
  -4   1   0    6.23    0.22
  -4   1   0    6.20    0.21
  -4   1   0    6.06    0.24
   3  -1   0  181.44    4.03
   3  -1   0  182.81    4.02
   3  -1   0  169.11    4.10
   3  -1   0  185.59    4.06
   3  -1   0  181.75    4.10
   3  -1   0  162.53    4.16
  -3   1   0  182.96    4.03
  -3   1   0  176.19    4.04
   2  -1   0   -0.10    0.05
   2  -1   0   -0.05    0.05
   2  -1   0   -0.08    0.04
   2  -1   0   -0.13    0.03
   2  -1   0   -0.09    0.07
   2  -1   0   -0.15    0.06
  -2   1   0   -0.06    0.03
  -2   1   0   -0.06    0.04
  -2   1   0   -0.10    0.05
  -2   1   0   -0.08    0.03
   1  -1   0  415.43    9.38
   1  -1   0  404.34    9.34
   1  -1   0  418.58    9.43
   1  -1   0  427.69    9.49
   1  -1   0  412.77    9.53
   1  -1   0  425.56    9.46
  -1   1   0  394.02    9.37
  -1   1   0  420.21    9.35
  -1   1   0  419.13    9.35
  -1   1   0  411.48    9.34
  -1  -1   0  268.44    6.12
  -1  -1   0  274.10    6.12
  -1  -1   0  264.19    6.14
   1   1   0  260.74    6.09
   1   1   0  263.62    6.06
   1   1   0  267.25    6.07
   1   1   0  264.90    6.10
  -2  -1   0    0.19    0.06
  -2  -1   0    0.21    0.07
  -2  -1   0    0.23    0.08
   2   1   0    0.12    0.07
   2   1   0    0.13    0.07
   2   1   0    0.03    0.07
  -3  -1   0  202.03    4.65
  -3  -1   0  202.51    4.65
  -3  -1   0  206.65    4.65
   3   1   0  209.35    4.66
   3   1   0  208.97    4.69
   3   1   0  202.25    4.71
   3   1   0  203.04    4.65
   3   1   0  198.80    4.73
  -4  -1   0    4.93    0.22
  -4  -1   0    4.98    0.22
  -4  -1   0    5.07    0.23
   4   1   0    4.68    0.31
   4   1   0    5.06    0.17
   4   1   0    4.92    0.26
   4   1   0    5.26    0.24
   4   1   0    4.77    0.24
   4   1   0    4.88    0.23
  -5  -1   0   46.33    1.22
  -5  -1   0   47.97    1.23
  -5  -1   0   50.11    1.23
   5   1   0   49.45    1.24
   5   1   0   49.59    1.22
   5   1   0   49.27    1.13
   5   1   0   48.92    1.30
   5   1   0   48.65    1.34
  -6  -1   0   -0.09    0.12
  -6  -1   0   -0.21    0.13
  -6  -1   0    0.04    0.11
   6   1   0   -0.01    0.12
   6   1   0   -0.21    0.14
   6   1   0    0.18    0.12
   6   1   0    0.08    0.18
  -7  -1   0   18.79    0.63
  -7  -1   0   20.65    0.78
   7   1   0   18.23    0.58
   7   1   0   18.52    0.71
   7   1   0   17.69    0.59
   7   1   0   16.80    0.74
  -8  -1   0    0.10    0.20
  -8  -1   0    0.02    0.18
  -8  -1   0   -0.29    0.17
   8   1   0    0.41    0.27
   8   1   0   -0.12    0.18
   8   1   0   -0.27    0.28
   8   1   0    0.14    0.17
  -9  -1   0    5.21    0.49
  -9  -1   0    5.96    0.51
  -9  -1   0    4.90    0.44
   9   1   0    5.31    0.57
   9   1   0    5.13    0.49
 -10  -1   0   -0.12    0.23
 -10  -1   0    0.49    0.37
 -10  -1   0    0.40    0.33
  10   1   0    0.07    0.35
  10   1   0    0.29    0.28
   9  -2   0   -0.01    0.35
   9  -2   0    0.70    0.31
  -9   2   0    0.04    0.18
  -9   2   0    0.13    0.23
   8  -2   0    5.31    0.52
   8  -2   0    4.56    0.49
  -8   2   0    5.09    0.34
  -8   2   0    5.18    0.35
  -8   2   0    4.88    0.38
   7  -2   0    0.28    0.23
   7  -2   0    0.33    0.14
   7  -2   0   -0.08    0.20
   7  -2   0   -0.21    0.20
  -7   2   0    0.23    0.12
  -7   2   0    0.13    0.15
   6  -2   0   28.98    0.88
   6  -2   0   28.84    0.91
   6  -2   0   29.31    0.96
  -6   2   0   29.68    0.79
  -6   2   0   29.62    0.83
  -6   2   0   27.40    0.77
   5  -2   0    0.48    0.09
   5  -2   0    0.53    0.16
   5  -2   0    0.23    0.14
   5  -2   0    0.19    0.11
  -5   2   0    0.55    0.10
  -5   2   0    0.34    0.10
  -5   2   0    0.38    0.09
  -5   2   0    0.46    0.08
   4  -2   0  101.76    2.39
   4  -2   0  100.92    2.39
   4  -2   0  100.59    2.45
   4  -2   0   99.82    2.30
   4  -2   0  100.44    2.36
  -4   2   0  100.72    2.31
  -4   2   0   95.78    2.30
  -4   2   0  100.64    2.39
  -4   2   0   99.84    2.31
   3  -2   0    7.01    0.26
   3  -2   0    6.54    0.21
   3  -2   0    6.89    0.33
   3  -2   0    6.33    0.31
   3  -2   0    6.31    0.29
  -3   2   0    6.82    0.20
  -3   2   0    6.86    0.21
  -3   2   0    6.84    0.25
  -3   2   0    6.77    0.20
  -3   2   0    6.62    0.19
   2  -2   0   14.40    0.40
   2  -2   0   14.25    0.39
   2  -2   0   14.75    0.44
   2  -2   0   14.41    0.37
  -2   2   0   14.26    0.38
  -2   2   0   14.39    0.36
  -2   2   0   14.12    0.36
  -2   2   0   14.32    0.36
   1  -2   0    0.52    0.07
   1  -2   0    0.47    0.06
   1  -2   0    0.63    0.09
   1  -2   0    0.39    0.07
   1  -2   0    0.46    0.04
   1  -2   0    0.59    0.07
   1  -2   0    0.47    0.07
  -1   2   0    0.47    0.05
  -1   2   0    0.75    0.10
  -1   2   0    0.51    0.04
   0  -2   0  317.87    7.13
   0  -2   0  330.08    7.17
   0  -2   0  321.97    7.15
   0  -2   0  315.13    7.21
   0   2   0  300.94    7.18
   0   2   0  304.81    7.20
   0   2   0  313.19    7.17
  -1  -2   0    2.90    0.14
  -1  -2   0    3.24    0.13
  -1  -2   0    3.11    0.12
  -1  -2   0    3.15    0.14
   1   2   0    3.17    0.10
   1   2   0    2.90    0.14
   1   2   0    3.13    0.16
   1   2   0    3.00    0.14
  -2  -2   0   56.31    1.34
  -2  -2   0   56.16    1.34
   2   2   0   55.68    1.34
   2   2   0   56.28    1.33
   2   2   0   55.27    1.32
   2   2   0   55.54    1.35
  -3  -2   0    0.28    0.10
  -3  -2   0    0.32    0.09
  -3  -2   0    0.30    0.08
   3   2   0    0.49    0.10
   3   2   0    0.41    0.09
   3   2   0    0.35    0.10
   3   2   0    0.45    0.14
   3   2   0    0.36    0.10
  -4  -2   0  111.03    2.63
  -4  -2   0  108.81    2.66
  -4  -2   0  112.16    2.62
   4   2   0  109.88    2.69
   4   2   0  108.90    2.58
   4   2   0  112.19    2.64
   4   2   0  116.21    2.62
   4   2   0  111.74    2.63
  -5  -2   0    2.55    0.22
  -5  -2   0    3.03    0.21
  -5  -2   0    2.94    0.22
   5   2   0    2.66    0.21
   5   2   0    2.92    0.18
   5   2   0    3.06    0.24
   5   2   0    2.64    0.28
   5   2   0    3.32    0.26
  -6  -2   0   47.25    1.25
  -6  -2   0   48.29    1.26
  -6  -2   0   46.97    1.26
   6   2   0   47.85    1.23
   6   2   0   46.55    1.24
   6   2   0   47.65    1.29
   6   2   0   44.88    1.35
   6   2   0   45.79    1.13
  -7  -2   0    0.08    0.19
  -7  -2   0    0.12    0.17
  -7  -2   0   -0.06    0.15
   7   2   0    0.21    0.15
   7   2   0   -0.12    0.16
   7   2   0    0.06    0.26
   7   2   0    0.11    0.16
  -8  -2   0   12.08    0.56
  -8  -2   0   12.66    0.56
  -8  -2   0   12.03    0.58
   8   2   0   11.19    0.60
   8   2   0   11.92    0.55
   8   2   0   12.22    0.49
   8   2   0   11.65    0.69
  -9  -2   0    0.18    0.22
  -9  -2   0   -0.27    0.25
  -9  -2   0    0.34    0.27
   9   2   0    0.49    0.26
   9   2   0   -0.01    0.29
   9   2   0    0.16    0.27
   9   2   0   -0.17    0.21
 -10  -2   0    1.27    0.37
 -10  -2   0    1.31    0.39
 -10  -2   0    1.11    0.42
  10   2   0    1.40    0.41
  10   2   0    1.44    0.35
   9  -3   0    2.11    0.39
   9  -3   0    3.39    0.49
  -9   3   0    3.87    0.56
  -9   3   0    3.13    0.37
   8  -3   0    0.26    0.31
   8  -3   0    0.22    0.24
   8  -3   0   -0.33    0.25
  -8   3   0   -0.02    0.15
  -8   3   0   -0.10    0.19
   7  -3   0   14.86    0.79
   7  -3   0   15.19    0.68
   7  -3   0   15.18    0.65
  -7   3   0   14.92    0.50
  -7   3   0   14.95    0.57
   6  -3   0    2.00    0.27
   6  -3   0    1.58    0.21
   6  -3   0    2.25    0.29
   6  -3   0    1.98    0.32
  -6   3   0    1.89    0.19
  -6   3   0    2.27    0.17
  -6   3   0    2.31    0.22
   5  -3   0   19.72    0.71
   5  -3   0   18.91    0.63
   5  -3   0   19.88    0.53
   5  -3   0   19.67    0.62
  -5   3   0   20.01    0.56
  -5   3   0   18.47    0.53
  -5   3   0   19.82    0.60
  -5   3   0   18.89    0.54
   4  -3   0    0.67    0.13
   4  -3   0    0.70    0.13
   4  -3   0    1.02    0.11
   4  -3   0    0.86    0.13
   4  -3   0    0.54    0.15
  -4   3   0    0.74    0.07
  -4   3   0    0.87    0.12
  -4   3   0    0.87    0.10
  -4   3   0    0.82    0.09
  -4   3   0    0.78    0.09
   3  -3   0  137.90    3.23
   3  -3   0  138.88    3.30
   3  -3   0  141.75    3.19
   3  -3   0  137.42    3.25
   3  -3   0  140.37    3.22
  -3   3   0  139.17    3.19
  -3   3   0  143.92    3.18
  -3   3   0  140.78    3.23
  -3   3   0  135.47    3.17
  -3   3   0  140.89    3.17
   2  -3   0    3.02    0.14
   2  -3   0    2.80    0.17
   2  -3   0    3.11    0.14
   2  -3   0    2.97    0.20
  -2   3   0    3.34    0.12
  -2   3   0    3.22    0.11
  -2   3   0    3.26    0.12
  -2   3   0    3.03    0.16
   1  -3   0   78.60    1.77
   1  -3   0   79.21    1.81
   1  -3   0   77.97    1.82
   1  -3   0   78.50    1.82
   1  -3   0   76.59    1.78
   1  -3   0   76.30    1.82
   1  -3   0   76.95    1.80
  -1   3   0   77.50    1.79
  -1   3   0   76.29    1.83
  -1   3   0   82.54    1.78
  -1   3   0   77.39    1.79
   0  -3   0   -0.11    0.05
   0  -3   0   -0.15    0.05
   0  -3   0   -0.03    0.06
   0  -3   0   -0.03    0.05
   0  -3   0   -0.05    0.04
   0   3   0   -0.15    0.09
   0   3   0   -0.13    0.05
   0   3   0   -0.17    0.05
  -1  -3   0    3.99    0.16
  -1  -3   0    4.18    0.15
  -1  -3   0    4.00    0.16
  -1  -3   0    4.08    0.15
  -1  -3   0    3.98    0.17
   1   3   0    3.93    0.20
   1   3   0    3.65    0.18
  -2  -3   0   -0.03    0.07
  -2  -3   0   -0.02    0.07
  -2  -3   0   -0.03    0.06
  -2  -3   0    0.05    0.08
  -2  -3   0    0.00    0.07
   2   3   0   -0.05    0.08
   2   3   0    0.02    0.07
   2   3   0   -0.06    0.07
   2   3   0   -0.04    0.04
  -3  -3   0  311.03    7.04
  -3  -3   0  326.41    7.14
   3   3   0  308.01    7.00
   3   3   0  309.23    7.04
   3   3   0  292.95    7.03
   3   3   0  304.64    7.03
  -4  -3   0    1.31    0.18
  -4  -3   0    1.08    0.15
  -4  -3   0    1.29    0.17
   4   3   0    1.74    0.23
   4   3   0    1.13    0.15
   4   3   0    1.32    0.16
   4   3   0    1.00    0.15
   4   3   0    1.41    0.17
  -5  -3   0   51.32    1.35
  -5  -3   0   49.45    1.35
  -5  -3   0   52.37    1.36
   5   3   0   52.75    1.43
   5   3   0   55.07    1.35
   5   3   0   52.08    1.35
   5   3   0   51.92    1.35
  -6  -3   0    0.07    0.13
  -6  -3   0   -0.16    0.12
  -6  -3   0   -0.20    0.15
   6   3   0    0.11    0.17
   6   3   0    0.05    0.15
   6   3   0    0.15    0.22
   6   3   0    0.18    0.20
   6   3   0    0.12    0.14
  -7  -3   0    6.66    0.40
  -7  -3   0    7.66    0.40
   7   3   0    6.81    0.37
   7   3   0    6.85    0.40
   7   3   0    5.78    0.37
   7   3   0    6.50    0.43
  -8  -3   0   -0.07    0.19
  -8  -3   0    0.28    0.20
  -8  -3   0    0.40    0.24
   8   3   0    0.09    0.26
   8   3   0   -0.12    0.21
   8   3   0   -0.06    0.18
   8   3   0    0.18    0.21
  -9  -3   0    6.52    0.56
  -9  -3   0    5.85    0.48
   9   3   0    6.63    0.57
   9   3   0    6.93    0.46
   9   3   0    6.09    0.55
   9   3   0    6.87    0.53
 -10  -3   0    0.26    0.33
 -10  -3   0   -0.23    0.30
 -10  -3   0    0.13    0.25
  10   3   0   -0.34    0.36
  10   3   0    0.37    0.28
   9  -4   0   -0.10    0.28
   9  -4   0   -0.33    0.28
   9  -4   0    0.46    0.35
  -9   4   0   -0.09    0.18
  -9   4   0   -0.44    0.22
   8  -4   0    4.66    0.54
   8  -4   0    4.00    0.46
   8  -4   0    3.60    0.51
  -8   4   0    4.13    0.30
  -8   4   0    3.88    0.36
   7  -4   0    0.42    0.21
   7  -4   0    0.29    0.27
   7  -4   0    0.30    0.26
  -7   4   0    0.28    0.19
  -7   4   0   -0.16    0.15
   6  -4   0   15.37    0.60
   6  -4   0   15.67    0.57
   6  -4   0   15.59    0.70
  -6   4   0   14.18    0.47
  -6   4   0   15.46    0.67
  -6   4   0   15.83    0.48
   5  -4   0    2.97    0.26
   5  -4   0    2.41    0.30
   5  -4   0    3.41    0.20
   5  -4   0    3.16    0.25
   5  -4   0    2.95    0.25
  -5   4   0    2.69    0.18
  -5   4   0    3.27    0.24
  -5   4   0    2.95    0.16
  -5   4   0    3.13    0.17
   4  -4   0   69.30    1.82
   4  -4   0   70.47    1.73
   4  -4   0   70.91    1.70
   4  -4   0   69.94    1.75
   4  -4   0   69.59    1.65
  -4   4   0   70.88    1.65
  -4   4   0   68.66    1.65
  -4   4   0   70.72    1.72
  -4   4   0   71.46    1.65
  -4   4   0   70.36    1.64
   3  -4   0    0.21    0.13
   3  -4   0    0.07    0.09
   3  -4   0    0.18    0.08
   3  -4   0    0.11    0.08
   3  -4   0    0.15    0.08
  -3   4   0    0.04    0.05
  -3   4   0    0.08    0.05
  -3   4   0    0.19    0.05
  -3   4   0   -0.02    0.08
   2  -4   0   72.85    1.66
   2  -4   0   69.35    1.75
   2  -4   0   70.01    1.70
   2  -4   0   71.40    1.68
   2  -4   0   71.99    1.71
   2  -4   0   69.66    1.71
  -2   4   0   74.42    1.65
  -2   4   0   71.31    1.65
  -2   4   0   71.25    1.71
  -2   4   0   72.06    1.65
   1  -4   0    0.15    0.06
   1  -4   0    0.26    0.09
   1  -4   0    0.39    0.05
   1  -4   0    0.33    0.09
   1  -4   0    0.39    0.08
   1  -4   0    0.38    0.05
  -1   4   0    0.30    0.11
  -1   4   0    0.28    0.05
  -1   4   0    0.37    0.06
   0  -4   0  225.92    4.77
   0  -4   0  206.67    4.78
   0  -4   0  208.63    4.75
   0  -4   0  212.62    4.80
   0  -4   0  214.69    4.76
   0   4   0  207.29    4.78
   0   4   0  206.24    4.78
   0   4   0  201.19    4.83
  -1  -4   0    7.08    0.26
  -1  -4   0    6.72    0.23
  -1  -4   0    7.08    0.24
  -1  -4   0    6.88    0.23
  -1  -4   0    6.95    0.22
   1   4   0    6.44    0.31
   1   4   0    7.05    0.26
   1   4   0    7.15    0.26
  -2  -4   0  138.56    3.16
  -2  -4   0  138.77    3.15
  -2  -4   0  133.49    3.11
  -2  -4   0  139.72    3.12
   2   4   0  133.26    3.17
   2   4   0  132.36    3.07
   2   4   0  135.48    3.16
   2   4   0  133.27    3.17
  -3  -4   0    3.70    0.23
  -3  -4   0    3.95    0.20
  -3  -4   0    3.83    0.23
  -3  -4   0    3.41    0.23
   3   4   0    4.04    0.18
   3   4   0    3.42    0.25
   3   4   0    3.67    0.23
  -4  -4   0   68.99    1.76
  -4  -4   0   71.47    1.76
  -4  -4   0   71.68    1.69
  -4  -4   0   71.14    1.76
   4   4   0   71.17    1.80
   4   4   0   71.17    1.74
   4   4   0   69.03    1.76
   4   4   0   72.01    1.76
   4   4   0   69.94    1.71
  -5  -4   0    0.53    0.14
  -5  -4   0    0.45    0.15
  -5  -4   0    0.42    0.13
   5   4   0    0.39    0.18
   5   4   0    0.72    0.16
   5   4   0    0.41    0.12
   5   4   0    0.76    0.16
   5   4   0    0.68    0.15
  -6  -4   0   16.10    0.58
  -6  -4   0   14.75    0.57
  -6  -4   0   15.11    0.57
   6   4   0   15.16    0.51
   6   4   0   15.24    0.56
   6   4   0   15.59    0.57
   6   4   0   15.42    0.64
   6   4   0   14.92    0.54
  -7  -4   0   -0.06    0.18
  -7  -4   0    0.28    0.16
  -7  -4   0    0.20    0.16
   7   4   0   -0.17    0.15
   7   4   0    0.05    0.17
   7   4   0    0.11    0.21
   7   4   0   -0.24    0.16
  -8  -4   0    6.89    0.51
  -8  -4   0    6.98    0.47
  -8  -4   0    7.45    0.49
   8   4   0    7.44    0.55
   8   4   0    6.85    0.53
   8   4   0    8.36    0.48
   8   4   0    6.70    0.44
  -9  -4   0    0.24    0.27
  -9  -4   0    0.08    0.23
  -9  -4   0   -0.23    0.27
   9   4   0    0.17    0.25
   9   4   0   -0.08    0.29
   9   4   0    0.23    0.31
   9   4   0   -0.26    0.25
 -10  -4   0    1.07    0.35
 -10  -4   0    1.64    0.38
 -10  -4   0    0.99    0.32
  10   4   0    1.10    0.43
  10   4   0    0.53    0.28
  10   4   0   -0.01    0.47
  10   4   0    0.75    0.34
   8  -5   0   -0.10    0.32
   8  -5   0   -0.40    0.31
   8  -5   0    0.18    0.26
  -8   5   0    0.09    0.22
  -8   5   0   -0.03    0.14
   7  -5   0    8.12    0.50
   7  -5   0    9.00    0.63
  -7   5   0    8.01    0.36
  -7   5   0    8.75    0.46
   6  -5   0   -0.08    0.25
   6  -5   0    0.36    0.19
  -6   5   0    0.09    0.12
  -6   5   0    0.51    0.18
  -6   5   0    0.07    0.10
   5  -5   0   13.61    0.48
   5  -5   0   13.27    0.53
   5  -5   0   13.17    0.51
   5  -5   0   14.19    0.63
  -5   5   0   13.12    0.49
  -5   5   0   13.65    0.48
  -5   5   0   13.65    0.41
  -5   5   0   14.25    0.38
   4  -5   0    1.42    0.18
   4  -5   0    2.01    0.27
   4  -5   0    1.49    0.19
   4  -5   0    1.83    0.22
  -4   5   0    1.62    0.18
  -4   5   0    1.79    0.16
  -4   5   0    1.46    0.12
  -4   5   0    1.77    0.13
  -4   5   0    1.86    0.13
   3  -5   0   72.78    1.69
   3  -5   0   69.55    1.75
   3  -5   0   69.96    1.76
   3  -5   0   71.67    1.71
  -3   5   0   71.27    1.68
  -3   5   0   71.71    1.73
  -3   5   0   74.04    1.68
  -3   5   0   72.96    1.68
   2  -5   0    1.13    0.14
   2  -5   0    0.96    0.10
   2  -5   0    1.14    0.14
   2  -5   0    1.01    0.16
   2  -5   0    1.09    0.14
  -2   5   0    1.05    0.09
  -2   5   0    0.99    0.09
  -2   5   0    0.84    0.14
  -2   5   0    1.13    0.10
   1  -5   0  242.16    5.39
   1  -5   0  236.04    5.47
   1  -5   0  246.02    5.44
   1  -5   0  234.49    5.45
   1  -5   0  236.88    5.46
   1  -5   0  243.72    5.39
  -1   5   0  232.05    5.50
  -1   5   0  241.70    5.43
  -1   5   0  239.23    5.43
   0  -5   0    0.20    0.07
   0  -5   0    0.24    0.09
   0  -5   0    0.21    0.07
   0  -5   0    0.13    0.08
   0  -5   0    0.31    0.07
   0   5   0    0.17    0.08
   0   5   0   -0.04    0.12
   0   5   0    0.14    0.08
  -1  -5   0   78.56    1.86
  -1  -5   0   78.06    1.83
  -1  -5   0   80.21    1.82
  -1  -5   0   74.85    1.89
  -1  -5   0   77.64    1.80
   1   5   0   75.74    1.86
   1   5   0   79.31    1.91
   1   5   0   76.62    1.87
  -2  -5   0    8.63    0.29
  -2  -5   0    8.31    0.32
  -2  -5   0    8.42    0.32
  -2  -5   0    8.48    0.29
  -2  -5   0    8.90    0.32
   2   5   0    8.88    0.34
   2   5   0    8.24    0.36
   2   5   0    8.46    0.34
  -3  -5   0   94.42    2.36
  -3  -5   0   97.69    2.36
  -3  -5   0   96.52    2.30
  -3  -5   0   95.35    2.34
  -3  -5   0  100.57    2.37
   3   5   0   98.84    2.37
   3   5   0   96.25    2.26
   3   5   0   98.96    2.38
   3   5   0  105.13    2.38
  -4  -5   0    0.15    0.11
  -4  -5   0   -0.11    0.09
  -4  -5   0   -0.11    0.10
  -4  -5   0   -0.13    0.11
  -4  -5   0    0.00    0.10
   4   5   0   -0.14    0.14
   4   5   0    0.12    0.16
   4   5   0    0.11    0.12
   4   5   0    0.06    0.09
   4   5   0   -0.04    0.11
  -5  -5   0   47.64    1.27
  -5  -5   0   45.26    1.25
  -5  -5   0   45.82    1.27
  -5  -5   0   53.51    1.29
  -5  -5   0   47.51    1.18
   5   5   0   46.43    1.48
   5   5   0   46.42    1.24
   5   5   0   46.44    1.27
   5   5   0   44.94    1.31
   5   5   0   46.68    1.21
  -6  -5   0    0.35    0.15
  -6  -5   0    0.38    0.14
  -6  -5   0    0.27    0.15
  -6  -5   0    0.52    0.18
   6   5   0    0.25    0.18
   6   5   0    0.12    0.21
   6   5   0    0.23    0.14
   6   5   0    0.20    0.16
   6   5   0    0.55    0.20
  -7  -5   0    6.02    0.32
  -7  -5   0    5.42    0.38
  -7  -5   0    5.80    0.40
  -7  -5   0    5.61    0.38
   7   5   0    5.99    0.46
   7   5   0    5.59    0.35
   7   5   0    6.79    0.60
   7   5   0    5.63    0.35
  -8  -5   0   -0.01    0.24
  -8  -5   0    0.13    0.25
  -8  -5   0    0.01    0.21
   8   5   0    0.04    0.23
   8   5   0   -0.28    0.25
   8   5   0    0.33    0.27
   8   5   0   -0.06    0.20
  -9  -5   0    3.48    0.47
  -9  -5   0    3.33    0.41
  -9  -5   0    4.08    0.48
   9   5   0    3.96    0.51
   9   5   0    4.57    0.48
   9   5   0    3.11    0.44
 -10  -5   0    0.71    0.33
 -10  -5   0    0.75    0.37
 -10  -5   0    0.37    0.51
 -10  -5   0    0.13    0.31
  10   5   0    0.20    0.29
  10   5   0   -0.62    0.30
  10   5   0   -0.38    0.39
  10   5   0    0.10    0.27
   8  -6   0    1.48    0.40
   8  -6   0    1.46    0.32
   8  -6   0    1.73    0.37
  -8   6   0    1.39    0.29
   7  -6   0   -0.09    0.28
   7  -6   0    0.01    0.20
  -7   6   0    0.03    0.19
  -7   6   0    0.27    0.13
   6  -6   0    9.79    0.44
   6  -6   0    9.60    0.51
   6  -6   0    9.50    0.52
  -6   6   0    9.62    0.36
  -6   6   0   10.00    0.48
   5  -6   0    0.18    0.17
   5  -6   0    0.39    0.25
   5  -6   0    0.46    0.16
   5  -6   0    0.53    0.21
  -5   6   0    0.43    0.10
  -5   6   0    0.66    0.12
  -5   6   0    0.59    0.16
   4  -6   0   37.00    1.25
   4  -6   0   36.98    0.96
   4  -6   0   36.11    1.13
   4  -6   0   37.40    1.06
  -4   6   0   38.69    0.96
  -4   6   0   37.66    0.98
  -4   6   0   37.17    0.93
  -4   6   0   36.52    0.93
   3  -6   0    0.20    0.15
   3  -6   0    0.10    0.12
   3  -6   0    0.07    0.09
   3  -6   0    0.12    0.11
  -3   6   0    0.15    0.07
  -3   6   0    0.12    0.07
  -3   6   0    0.21    0.08
  -3   6   0    0.13    0.12
   2  -6   0   38.93    1.00
   2  -6   0   38.22    1.03
   2  -6   0   37.97    1.03
   2  -6   0   41.05    0.95
   2  -6   0   38.21    1.05
  -2   6   0   40.12    0.96
  -2   6   0   38.31    0.97
  -2   6   0   40.49    0.97
  -2   6   0   38.75    1.05
   1  -6   0    0.03    0.05
   1  -6   0   -0.13    0.09
   1  -6   0    0.12    0.09
   1  -6   0    0.16    0.09
   1  -6   0   -0.01    0.08
  -1   6   0    0.02    0.07
  -1   6   0   -0.05    0.12
  -1   6   0    0.10    0.07
   0  -6   0  137.40    3.18
   0  -6   0  139.06    3.24
   0  -6   0  137.99    3.22
   0  -6   0  140.26    3.18
   0  -6   0  141.16    3.17
   0   6   0  137.34    3.23
   0   6   0  137.59    3.22
   0   6   0  138.47    3.30
  -1  -6   0    0.09    0.08
  -1  -6   0    0.05    0.08
  -1  -6   0    0.08    0.08
  -1  -6   0   -0.09    0.07
  -1  -6   0   -0.03    0.07
   1   6   0   -0.01    0.08
   1   6   0    0.09    0.13
   1   6   0    0.12    0.09
  -2  -6   0   93.18    2.24
  -2  -6   0   94.25    2.23
  -2  -6   0   91.56    2.18
  -2  -6   0   93.48    2.20
  -2  -6   0   95.69    2.27
  -2  -6   0   97.41    2.23
   2   6   0   91.07    2.28
   2   6   0   89.64    2.25
   2   6   0   92.05    2.26
  -3  -6   0    0.21    0.12
  -3  -6   0    0.39    0.12
  -3  -6   0    0.23    0.12
  -3  -6   0    0.33    0.09
  -3  -6   0    0.21    0.12
   3   6   0    0.24    0.06
   3   6   0    0.01    0.14
   3   6   0    0.05    0.11
   3   6   0    0.29    0.14
  -4  -6   0   36.36    1.00
  -4  -6   0   35.04    1.02
  -4  -6   0   37.02    1.03
  -4  -6   0   36.44    0.95
  -4  -6   0   36.19    1.02
   4   6   0   36.00    0.92
   4   6   0   36.82    1.04
   4   6   0   38.80    1.04
   4   6   0   38.04    1.04
  -5  -6   0    1.07    0.14
  -5  -6   0    0.97    0.24
  -5  -6   0    1.00    0.19
  -5  -6   0    0.96    0.18
  -5  -6   0    0.85    0.21
   5   6   0    0.70    0.21
   5   6   0    0.73    0.19
   5   6   0    1.07    0.20
   5   6   0    1.05    0.16
   5   6   0    1.10    0.24
  -6  -6   0   26.70    0.86
  -6  -6   0   27.54    0.75
  -6  -6   0   26.16    0.84
  -6  -6   0   27.67    0.85
  -6  -6   0   26.20    0.86
   6   6   0   25.76    0.83
   6   6   0   26.61    0.86
   6   6   0   26.54    0.85
   6   6   0   26.07    0.91
   6   6   0   28.26    0.79
  -7  -6   0   -0.29    0.17
  -7  -6   0   -0.04    0.22
  -7  -6   0    0.19    0.14
  -7  -6   0   -0.01    0.18
  -7  -6   0    0.01    0.21
   7   6   0   -0.10    0.24
   7   6   0   -0.18    0.20
   7   6   0   -0.09    0.24
   7   6   0   -0.24    0.18
   7   6   0   -0.18    0.16
  -8  -6   0   10.65    0.62
  -8  -6   0   11.84    0.45
  -8  -6   0   10.86    0.60
  -8  -6   0   11.99    0.65
  -8  -6   0   10.27    0.69
   8   6   0   10.42    0.62
   8   6   0   10.46    0.57
   8   6   0   11.57    0.54
   8   6   0   11.99    0.60
  -9  -6   0   -0.11    0.25
  -9  -6   0    0.57    0.33
  -9  -6   0   -0.05    0.25
  -9  -6   0   -0.38    0.25
   9   6   0    0.06    0.30
   9   6   0   -0.26    0.28
   9   6   0   -0.15    0.35
   9   6   0   -0.18    0.23
   7  -7   0    5.13    0.61
   7  -7   0    5.37    0.48
  -7   7   0    4.77    0.29
  -7   7   0    4.23    0.40
   6  -7   0    0.08    0.19
   6  -7   0   -0.07    0.22
   6  -7   0   -0.41    0.29
   6  -7   0    0.26    0.21
  -6   7   0    0.06    0.18
  -6   7   0   -0.09    0.11
   5  -7   0   10.39    0.58
   5  -7   0   12.44    0.56
   5  -7   0   12.28    0.44
   5  -7   0   11.77    0.65
  -5   7   0   11.94    0.42
  -5   7   0   11.93    0.46
  -5   7   0   11.89    0.51
   4  -7   0    0.49    0.22
   4  -7   0    0.32    0.14
   4  -7   0    0.40    0.18
   4  -7   0    0.24    0.15
  -4   7   0    0.42    0.15
  -4   7   0    0.39    0.11
   3  -7   0   21.60    0.75
   3  -7   0   22.61    0.70
   3  -7   0   22.39    0.59
   3  -7   0   21.79    0.71
  -3   7   0   21.84    0.61
  -3   7   0   22.66    0.61
  -3   7   0   22.99    0.70
   2  -7   0    1.05    0.16
   2  -7   0    1.07    0.19
   2  -7   0    0.68    0.13
   2  -7   0    0.95    0.11
   2  -7   0    0.70    0.15
  -2   7   0    0.84    0.11
  -2   7   0    0.73    0.12
  -2   7   0    1.06    0.19
  -2   7   0    0.94    0.13
   1  -7   0   59.92    1.53
   1  -7   0   63.22    1.50
   1  -7   0   60.43    1.52
   1  -7   0   61.15    1.47
   1  -7   0   61.74    1.47
  -1   7   0   59.30    1.58
  -1   7   0   58.90    1.48
   0  -7   0    5.11    0.26
   0  -7   0    5.05    0.21
   0  -7   0    5.00    0.22
   0  -7   0    4.71    0.25
   0  -7   0    4.79    0.20
   0   7   0    4.69    0.33
   0   7   0    4.88    0.24
   0   7   0    5.14    0.25
  -1  -7   0   44.89    1.15
  -1  -7   0   48.65    1.15
  -1  -7   0   45.12    1.21
  -1  -7   0   47.15    1.18
   1   7   0   45.72    1.27
   1   7   0   45.74    1.21
   1   7   0   46.92    1.21
  -2  -7   0    1.30    0.18
  -2  -7   0    1.47    0.17
  -2  -7   0    1.24    0.17
  -2  -7   0    1.20    0.16
  -2  -7   0    1.23    0.15
   2   7   0    1.37    0.18
   2   7   0    1.16    0.21
   2   7   0    0.92    0.16
  -3  -7   0   45.21    1.15
  -3  -7   0   44.69    1.21
  -3  -7   0   44.34    1.20
  -3  -7   0   44.46    1.20
  -3  -7   0   45.62    1.15
   3   7   0   45.08    1.25
   3   7   0   45.52    1.23
   3   7   0   46.04    1.23
  -4  -7   0    0.95    0.19
  -4  -7   0    0.85    0.18
  -4  -7   0    0.66    0.14
  -4  -7   0    0.47    0.17
  -4  -7   0    0.88    0.17
   4   7   0    0.82    0.10
   4   7   0    0.85    0.21
   4   7   0    0.97    0.20
   4   7   0    0.85    0.19
  -5  -7   0   43.14    1.24
  -5  -7   0   44.95    1.26
  -5  -7   0   45.15    1.25
  -5  -7   0   44.21    1.22
  -5  -7   0   44.79    1.14
   5   7   0   44.37    1.26
   5   7   0   44.72    1.27
   5   7   0   43.38    1.25
   5   7   0   45.68    1.26
  -6  -7   0    0.79    0.22
  -6  -7   0    0.41    0.14
  -6  -7   0    0.14    0.19
  -6  -7   0    0.34    0.18
  -6  -7   0    0.49    0.21
   6   7   0    0.43    0.21
   6   7   0    0.04    0.19
   6   7   0    0.26    0.15
   6   7   0    0.14    0.21
   6   7   0    0.44    0.19
  -7  -7   0   11.41    0.56
  -7  -7   0   11.53    0.56
  -7  -7   0   11.92    0.43
  -7  -7   0   12.14    0.69
   7   7   0   11.89    0.49
   7   7   0   10.94    0.61
   7   7   0   11.00    0.64
   7   7   0   11.86    0.65
   7   7   0   11.33    0.60
  -8  -7   0   -0.42    0.28
  -8  -7   0    0.45    0.27
  -8  -7   0    0.29    0.24
  -8  -7   0   -0.13    0.23
  -8  -7   0   -0.18    0.28
   8   7   0    0.12    0.26
   8   7   0   -0.08    0.26
   8   7   0    0.03    0.23
   8   7   0   -0.25    0.23
  -9  -7   0    2.35    0.35
  -9  -7   0    2.74    0.42
  -9  -7   0    2.62    0.41
  -9  -7   0    2.32    0.36
   9   7   0    2.10    0.40
   9   7   0    2.52    0.50
   9   7   0    3.25    0.42
   7  -8   0   -0.06    0.26
   7  -8   0    0.03    0.37
  -7   8   0    0.39    0.23
  -7   8   0    0.35    0.15
   6  -8   0    4.43    0.43
   6  -8   0    3.43    0.50
   6  -8   0    3.87    0.43
  -6   8   0    4.81    0.38
  -6   8   0    3.57    0.27
   5  -8   0    0.08    0.19
   5  -8   0   -0.24    0.19
   5  -8   0   -0.24    0.29
  -5   8   0    0.21    0.12
  -5   8   0    0.00    0.17
   4  -8   0   18.47    0.84
   4  -8   0   23.05    0.69
   4  -8   0   21.12    0.82
  -4   8   0   20.35    0.61
  -4   8   0   21.46    0.67
  -4   8   0   21.68    0.62
   3  -8   0    0.33    0.15
   3  -8   0    0.21    0.15
   3  -8   0    0.33    0.12
   3  -8   0    0.39    0.21
  -3   8   0    0.40    0.18
  -3   8   0    0.45    0.11
  -3   8   0    0.12    0.17
   2  -8   0   23.88    0.74
   2  -8   0   23.13    0.74
   2  -8   0   23.18    0.73
   2  -8   0   22.89    0.69
  -2   8   0   23.01    0.78
  -2   8   0   25.24    0.77
  -2   8   0   23.01    0.66
   1  -8   0    0.10    0.08
   1  -8   0   -0.03    0.12
   1  -8   0    0.28    0.12
   1  -8   0    0.03    0.10
  -1   8   0    0.09    0.18
  -1   8   0    0.02    0.11
  -1   8   0    0.14    0.10
   0  -8   0   29.61    0.77
   0  -8   0   28.11    0.84
   0  -8   0   29.48    0.83
   0  -8   0   28.61    0.80
   0  -8   0   29.87    0.74
   0   8   0   29.24    0.92
   0   8   0   29.76    0.82
   0   8   0   28.71    0.82
  -1  -8   0    0.13    0.11
  -1  -8   0    0.38    0.13
  -1  -8   0    0.33    0.12
  -1  -8   0    0.27    0.12
  -1  -8   0    0.10    0.12
   1   8   0    0.46    0.14
   1   8   0    0.26    0.13
   1   8   0    0.26    0.19
  -2  -8   0   60.37    1.44
  -2  -8   0   61.71    1.49
  -2  -8   0   58.30    1.55
  -2  -8   0   59.38    1.49
  -2  -8   0   59.83    1.49
   2   8   0   58.06    1.59
   2   8   0   57.69    1.54
   2   8   0   57.76    1.54
  -3  -8   0    5.45    0.35
  -3  -8   0    5.60    0.29
  -3  -8   0    5.08    0.33
  -3  -8   0    5.78    0.29
  -3  -8   0    5.28    0.36
  -3  -8   0    5.19    0.32
   3   8   0    4.87    0.34
   3   8   0    5.85    0.36
   3   8   0    5.37    0.40
  -4  -8   0   24.77    0.72
  -4  -8   0   24.87    0.80
  -4  -8   0   24.60    0.75
  -4  -8   0   23.81    0.80
  -4  -8   0   24.83    0.80
   4   8   0   24.44    0.82
   4   8   0   26.55    0.81
   4   8   0   25.68    0.84
   4   8   0   26.12    0.83
  -5  -8   0   -0.01    0.19
  -5  -8   0   -0.05    0.13
  -5  -8   0   -0.27    0.18
  -5  -8   0    0.03    0.16
   5   8   0   -0.09    0.12
   5   8   0   -0.13    0.17
   5   8   0    0.06    0.20
   5   8   0   -0.01    0.22
  -6  -8   0    8.38    0.45
  -6  -8   0    8.05    0.35
  -6  -8   0    7.47    0.48
  -6  -8   0    8.30    0.47
  -6  -8   0    7.60    0.45
   6   8   0    8.19    0.73
   6   8   0    7.90    0.51
   6   8   0    8.22    0.51
   6   8   0    8.16    0.55
   6   8   0    7.84    0.33
  -7  -8   0    0.15    0.22
  -7  -8   0   -0.16    0.15
  -7  -8   0    0.23    0.24
  -7  -8   0   -0.17    0.19
   7   8   0    0.18    0.17
   7   8   0   -0.04    0.25
   7   8   0    0.19    0.27
   7   8   0   -0.19    0.21
   7   8   0    0.12    0.37
  -8  -8   0    7.29    0.49
  -8  -8   0    7.80    0.54
  -8  -8   0    7.61    0.54
  -8  -8   0    8.31    0.66
   8   8   0    7.38    0.59
   8   8   0    7.28    0.52
   8   8   0    8.03    0.57
   8   8   0    7.27    0.44
  -9  -8   0    0.06    0.27
  -9  -8   0    0.43    0.32
  -9  -8   0    0.11    0.33
   9   8   0   -0.30    0.24
   9   8   0    0.13    0.31
   9   8   0    0.04    0.28
   6  -9   0    0.20    0.36
   6  -9   0    0.10    0.23
   6  -9   0   -0.38    0.23
  -6   9   0    0.09    0.14
  -6   9   0    0.25    0.22
   5  -9   0    5.35    0.45
   5  -9   0    4.87    0.42
   5  -9   0    5.49    0.63
  -5   9   0    4.80    0.29
  -5   9   0    5.04    0.38
   4  -9   0   -0.02    0.18
   4  -9   0   -0.24    0.24
   4  -9   0    0.03    0.19
  -4   9   0    0.23    0.20
  -4   9   0    0.05    0.11
   3  -9   0   19.15    0.73
   3  -9   0   19.87    0.73
   3  -9   0   17.89    0.71
  -3   9   0   19.98    0.59
  -3   9   0   20.79    0.71
   2  -9   0    0.30    0.19
   2  -9   0    0.53    0.18
   2  -9   0    0.66    0.19
  -2   9   0    0.49    0.23
  -2   9   0    0.30    0.13
  -2   9   0    0.50    0.13
   1  -9   0   35.10    0.94
   1  -9   0   34.92    1.01
   1  -9   0   35.81    0.94
   1  -9   0   34.79    1.14
   1  -9   0   35.16    0.85
  -1   9   0   35.04    1.06
  -1   9   0   34.01    1.10
   0  -9   0    0.22    0.10
   0  -9   0    0.25    0.14
   0  -9   0    0.23    0.14
   0  -9   0    0.32    0.15
   0  -9   0    0.36    0.11
   0   9   0    0.35    0.14
   0   9   0   -0.30    0.20
   0   9   0    0.07    0.13
  -1  -9   0   29.08    0.88
  -1  -9   0   28.44    0.88
  -1  -9   0   29.32    0.80
  -1  -9   0   29.03    0.78
   1   9   0   29.85    0.96
   1   9   0   29.39    0.87
   1   9   0   28.27    0.87
  -2  -9   0    0.60    0.19
  -2  -9   0    0.40    0.15
  -2  -9   0    0.07    0.14
  -2  -9   0    0.45    0.15
  -2  -9   0    0.43    0.14
   2   9   0    0.36    0.17
   2   9   0    0.78    0.19
   2   9   0    0.37    0.24
  -3  -9   0   22.27    0.74
  -3  -9   0   23.09    0.80
  -3  -9   0   22.43    0.69
  -3  -9   0   23.38    0.74
  -3  -9   0   21.32    0.67
   3   9   0   23.01    0.78
   3   9   0   23.78    0.78
   3   9   0   22.33    1.00
  -4  -9   0    0.25    0.18
  -4  -9   0   -0.01    0.18
  -4  -9   0    0.30    0.22
  -4  -9   0    0.01    0.15
   4   9   0    0.17    0.19
   4   9   0    0.47    0.20
   4   9   0   -0.12    0.18
   4   9   0    0.40    0.24
  -5  -9   0   12.26    0.57
  -5  -9   0   13.11    0.58
  -5  -9   0   12.71    0.55
  -5  -9   0   13.24    0.62
  -5  -9   0   13.83    0.48
   5   9   0   13.26    0.56
   5   9   0   13.26    0.60
   5   9   0   13.81    0.62
   5   9   0   13.25    0.64
  -6  -9   0    0.27    0.16
  -6  -9   0    0.24    0.25
  -6  -9   0    0.42    0.24
  -6  -9   0    0.45    0.23
  -6  -9   0   -0.22    0.24
   6   9   0    0.40    0.26
   6   9   0    0.46    0.25
   6   9   0    0.06    0.24
  -7  -9   0    4.79    0.66
  -7  -9   0    4.02    0.41
  -7  -9   0    3.62    0.39
  -7  -9   0    4.38    0.46
   7   9   0    3.72    0.52
   7   9   0    4.96    0.55
   7   9   0    3.59    0.42
   7   9   0    3.78    0.44
  -8  -9   0    0.07    0.29
  -8  -9   0   -0.08    0.23
  -8  -9   0   -0.48    0.32
  -8  -9   0    0.32    0.24
   8   9   0    0.03    0.32
   8   9   0    0.10    0.25
   8   9   0   -0.08    0.26
  -9  -9   0    1.52    0.32
  -9  -9   0    0.85    0.38
  -9  -9   0    1.21    0.31
  -9  -9   0    1.56    0.38
   9   9   0    1.41    0.40
   5 -10   0   -0.13    0.24
   5 -10   0    0.31    0.38
   5 -10   0    0.37    0.25
  -5  10   0    0.03    0.19
  -5  10   0    0.11    0.15
   4 -10   0    6.84    0.56
   4 -10   0    6.17    0.48
   4 -10   0    6.75    0.46
  -4  10   0    5.87    0.31
  -4  10   0    6.41    0.52
   3 -10   0    0.08    0.17
   3 -10   0    0.17    0.20
   3 -10   0    0.15    0.22
  -3  10   0    0.09    0.16
  -3  10   0    0.07    0.23
  -3  10   0   -0.20    0.11
   2 -10   0   19.15    0.65
   2 -10   0   19.16    0.72
   2 -10   0   18.75    0.71
  -2  10   0   18.70    0.62
  -2  10   0   19.62    1.03
  -2  10   0   18.93    0.61
   1 -10   0    0.05    0.17
   1 -10   0    0.29    0.17
   1 -10   0    0.22    0.10
   1 -10   0    0.22    0.19
   1 -10   0    0.18    0.15
  -1  10   0   -0.05    0.14
  -1  10   0   -0.23    0.25
  -1  10   0    0.18    0.17
   0 -10   0   17.86    0.56
   0 -10   0   17.27    0.70
   0 -10   0   16.93    0.65
   0 -10   0   17.67    0.51
   0  10   0   17.43    0.64
   0  10   0   18.74    0.62
   0  10   0   17.51    0.74
  -1 -10   0    3.03    0.26
  -1 -10   0    2.92    0.23
  -1 -10   0    2.84    0.30
  -1 -10   0    2.76    0.29
   1  10   0    2.78    0.31
   1  10   0    3.04    0.42
   1  10   0    2.60    0.30
  -2 -10   0   25.74    0.87
  -2 -10   0   27.60    0.98
  -2 -10   0   25.72    0.86
  -2 -10   0   26.03    0.75
   2  10   0   25.08    0.93
   2  10   0   25.04    0.86
   2  10   0   26.30    0.86
  -3 -10   0    0.18    0.19
  -3 -10   0   -0.04    0.16
  -3 -10   0    0.08    0.16
  -3 -10   0    0.01    0.18
   3  10   0   -0.25    0.47
   3  10   0    0.25    0.18
   3  10   0    0.00    0.19
  -4 -10   0   15.09    0.75
  -4 -10   0   15.16    0.55
  -4 -10   0   14.88    0.58
  -4 -10   0   17.36    0.70
  -4 -10   0   15.29    0.64
   4  10   0   15.61    0.67
   4  10   0   15.42    0.71
   4  10   0   15.05    0.59
   4  10   0   17.41    0.97
  -5 -10   0    0.61    0.23
  -5 -10   0   -0.21    0.21
  -5 -10   0    0.52    0.17
  -5 -10   0   -0.07    0.24
  -5 -10   0    0.98    0.30
  -5 -10   0    0.10    0.22
   5  10   0    0.01    0.24
   5  10   0   -0.06    0.29
   5  10   0   -0.14    0.21
   5  10   0    0.30    0.26
  -6 -10   0    2.70    0.28
  -6 -10   0    3.78    0.43
  -6 -10   0    3.16    0.39
  -6 -10   0    2.88    0.36
  -6 -10   0    2.70    0.35
   6  10   0    2.34    0.37
   6  10   0    3.51    0.43
   6  10   0    2.75    0.37
   6  10   0    2.88    0.44
  -7 -10   0   -0.16    0.21
  -7 -10   0   -0.08    0.20
  -7 -10   0   -0.22    0.33
  -7 -10   0   -0.33    0.20
   7  10   0   -0.41    0.27
   7  10   0    0.17    0.31
   7  10   0   -0.16    0.23
   7  10   0    0.07    0.32
  -8 -10   0    2.72    0.41
  -8 -10   0    3.20    0.45
  -8 -10   0    3.44    0.49
  -8 -10   0    3.96    0.45
   8  10   0    3.25    0.47
   8  10   0    3.34    0.49
   8  10   0    3.56    0.46
   4 -11   0    0.15    0.24
   4 -11   0   -0.25    0.23
   4 -11   0    0.48    0.42
  -4  11   0    0.02    0.14
  -4  11   0   -0.32    0.35
   3 -11   0    3.96    0.41
   3 -11   0    4.11    0.44
   3 -11   0    4.67    0.51
  -3  11   0    3.63    0.28
  -3  11   0    3.58    0.44
   2 -11   0    0.12    0.21
   2 -11   0    0.25    0.19
  -2  11   0    0.13    0.38
  -2  11   0    0.20    0.14
  -2  11   0    0.26    0.18
   1 -11   0   10.44    0.50
   1 -11   0   10.85    0.54
   1 -11   0   11.34    0.56
  -1  11   0   10.14    0.48
  -1  11   0   11.66    0.47
  -1  11   0   10.95    0.67
   0 -11   0    0.26    0.13
   0 -11   0    0.04    0.19
   0 -11   0   -0.06    0.19
   0  11   0   -0.16    0.16
   0  11   0    0.19    0.30
   0  11   0    0.24    0.18
  -1 -11   0   16.17    0.54
  -1 -11   0   16.62    0.56
  -1 -11   0   16.89    0.65
  -1 -11   0   15.80    0.67
   1  11   0   16.66    0.67
   1  11   0   16.80    0.65
   1  11   0   16.43    0.78
  -2 -11   0    0.12    0.19
  -2 -11   0    0.31    0.21
  -2 -11   0    0.51    0.18
  -2 -11   0    0.76    0.21
   2  11   0    0.06    0.24
   2  11   0    0.49    0.29
  -3 -11   0    9.58    0.50
  -3 -11   0    8.69    0.45
  -3 -11   0    9.43    0.55
   3  11   0    9.25    0.53
   3  11   0    8.73    0.58
   3  11   0    9.42    0.42
  -4 -11   0    0.35    0.20
  -4 -11   0    0.44    0.26
  -4 -11   0    0.24    0.23
  -4 -11   0    0.45    0.25
   4  11   0    0.25    0.23
   4  11   0    0.27    0.21
   4  11   0    0.55    0.29
   4  11   0    0.54    0.30
  -5 -11   0    8.01    0.53
  -5 -11   0    9.50    0.55
  -5 -11   0    8.29    0.51
  -5 -11   0    8.15    0.60
   5  11   0    7.83    0.54
   5  11   0    9.22    0.61
   5  11   0    9.84    0.78
   5  11   0   10.92    0.72
  -6 -11   0   -0.16    0.23
  -6 -11   0    0.20    0.33
  -6 -11   0    0.23    0.24
  -6 -11   0   -0.30    0.22
  -6 -11   0    0.47    0.58
  -6 -11   0   -0.51    0.27
   6  11   0    0.14    0.39
   6  11   0   -0.06    0.29
   6  11   0    0.56    0.36
   6  11   0   -0.21    0.22
  -7 -11   0    4.16    0.49
  -7 -11   0    3.42    0.43
  -7 -11   0    3.07    0.42
   7  11   0    5.25    0.55
   7  11   0    3.86    0.46
   7  11   0    4.84    0.87
   7  11   0    3.25    0.43
   3 -12   0   -0.08    0.26
   3 -12   0    0.28    0.24
  -3  12   0   -0.07    0.16
  -3  12   0   -0.44    0.33
   2 -12   0    3.62    0.44
   2 -12   0    4.05    0.44
  -2  12   0    2.90    0.39
  -2  12   0    3.23    0.46
  -2  12   0    3.92    0.33
   1 -12   0   -0.02    0.19
   1 -12   0   -0.20    0.23
  -1  12   0    0.34    0.21
  -1  12   0   -0.04    0.32
  -1  12   0   -0.05    0.17
   0 -12   0    7.40    0.49
   0 -12   0    6.71    0.50
   0 -12   0    6.53    0.32
   0  12   0    8.45    0.62
   0  12   0    6.47    0.43
  -1 -12   0    0.05    0.23
  -1 -12   0   -0.03    0.17
  -1 -12   0   -0.12    0.17
   1  12   0   -0.08    0.17
   1  12   0   -0.52    0.22
   1  12   0   -0.19    0.27
  -2 -12   0    8.72    0.67
  -2 -12   0    8.68    0.46
  -2 -12   0    7.47    0.51
   2  12   0    8.10    0.62
   2  12   0    7.73    0.51
  -3 -12   0    0.20    0.28
  -3 -12   0    0.10    0.23
  -3 -12   0    0.19    0.22
   3  12   0    0.27    0.25
   3  12   0    0.08    0.28
   3  12   0   -0.37    0.22
  -4 -12   0    7.58    0.47
  -4 -12   0    6.46    0.55
  -4 -12   0    6.77    0.52
   4  12   0    5.78    0.54
   4  12   0    6.84    0.45
   4  12   0    6.52    0.52
   4  12   0    6.21    0.52
  -5 -12   0   -0.14    0.26
  -5 -12   0    0.23    0.27
  -5 -12   0   -0.52    0.24
   5  12   0    0.21    0.29
   5  12   0    0.35    0.34
   5  12   0    0.53    0.26
  -6 -12   0    3.57    0.34
  -6 -12   0    2.75    0.42
  -6 -12   0    3.75    0.50
   6  12   0    3.58    0.47
   6  12   0    4.11    0.47
   6  12   0    4.34    0.59
   6  12   0    2.85    0.44
   1 -13   0    2.69    0.41
   1 -13   0    3.84    0.46
  -1  13   0    3.99    0.51
  -1  13   0    3.02    0.39
  -1  13   0    3.81    0.38
   0 -13   0    0.16    0.29
   0 -13   0    0.12    0.24
   0  13   0   -0.45    0.35
   0  13   0    0.15    0.20
   0  13   0   -0.39    0.38
  -1 -13   0    6.86    0.56
  -1 -13   0    6.68    0.39
  -1 -13   0    6.17    0.49
   1  13   0    5.69    0.47
   1  13   0    6.00    0.57
  -2 -13   0    0.16    0.22
  -2 -13   0    0.35    0.23
  -2 -13   0    0.11    0.27
   2  13   0    0.21    0.28
   2  13   0    0.39    0.33
   2  13   0    0.16    0.23
  -3 -13   0    3.25    0.38
  -3 -13   0    2.67    0.36
  -3 -13   0    1.97    0.35
   3  13   0    2.49    0.36
   3  13   0    2.63    0.38
   3  13   0    3.29    0.46
  -4 -13   0    0.26    0.29
  -4 -13   0    0.05    0.26
  -4 -13   0    0.38    0.27
   4  13   0    0.07    0.24
   4  13   0    0.02    0.27
   4  13   0   -0.27    0.34
  -5 -13   0    2.46    0.39
  -5 -13   0    2.37    0.41
  -5 -13   0    3.35    0.40
   5  13   0    2.45    0.38
   5  13   0    3.14    0.45
   5  13   0    2.40    0.44
  -2 -14   0    3.09    0.46
  -2 -14   0    2.20    0.39
  -2 -14   0    2.57    0.31
   2  14   0    2.51    0.43
   2  14   0    2.37    0.36
   2  14   0    2.46    0.50
   5  13  -1   -0.10    0.35
   5  13  -1   -0.20    0.26
   5  13  -1   -0.31    0.31
  -5 -13   1   -0.12    0.29
  -5 -13   1   -0.10    0.32
  -5 -13   1   -0.14    0.26
   4  13  -1    3.05    0.42
   4  13  -1    4.03    0.58
   4  13  -1    4.68    0.56
  -4 -13   1    3.94    0.52
  -4 -13   1    3.51    0.52
  -4 -13   1    3.64    0.41
   3  13  -1   -0.17    0.27
   3  13  -1    0.05    0.33
   3  13  -1    0.15    0.28
  -3 -13   1    0.03    0.27
  -3 -13   1    0.28    0.30
  -3 -13   1    0.02    0.26
   2  13  -1    3.90    0.54
   2  13  -1    3.83    0.48
  -2 -13   1    3.60    0.42
  -2 -13   1    3.65    0.46
  -2 -13   1    4.20    0.42
   1  13  -1    0.19    0.33
   1  13  -1    0.32    0.24
   1  13  -1   -0.09    0.28
  -1 -13   1    0.23    0.23
  -1 -13   1    0.28    0.29
  -1 -13   1    0.14    0.22
   0  13  -1    2.66    0.39
   0  13  -1    2.37    0.46
   0  13  -1    1.96    0.32
   0 -13   1    1.83    0.29
   0 -13   1    2.08    0.36
  -1  13  -1   -0.38    0.17
  -1  13  -1   -0.60    0.37
  -1  13  -1    0.27    0.30
   1 -13   1   -0.50    0.28
   1 -13   1    0.02    0.23
   6  12  -1   -0.23    0.26
   6  12  -1   -0.42    0.35
   6  12  -1   -0.15    0.35
   6  12  -1    0.83    0.38
  -6 -12   1    0.32    0.31
  -6 -12   1    0.11    0.30
  -6 -12   1    0.18    0.38
   5  12  -1    3.35    0.46
   5  12  -1    3.81    0.46
   5  12  -1    2.90    0.44
  -5 -12   1    3.44    0.41
  -5 -12   1    3.16    0.44
  -5 -12   1    3.02    0.41
  -5 -12   1    2.12    0.38
   4  12  -1    0.35    0.32
   4  12  -1    0.31    0.29
   4  12  -1    0.15    0.24
  -4 -12   1    0.37    0.26
  -4 -12   1   -0.23    0.22
  -4 -12   1   -0.04    0.24
  -4 -12   1    0.26    0.32
   3  12  -1    6.10    0.55
   3  12  -1    6.54    0.52
   3  12  -1    6.58    0.51
  -3 -12   1    5.92    0.51
  -3 -12   1    7.38    0.63
  -3 -12   1    5.99    0.48
  -3 -12   1    6.44    0.49
   2  12  -1    0.31    0.27
   2  12  -1   -0.18    0.20
   2  12  -1   -0.28    0.29
  -2 -12   1   -0.02    0.21
  -2 -12   1    0.20    0.22
  -2 -12   1   -0.07    0.25
   1  12  -1    7.73    0.51
   1  12  -1    8.81    0.61
  -1 -12   1    8.28    0.52
  -1 -12   1    8.86    0.57
  -1 -12   1    9.83    0.51
  -1 -12   1    8.33    0.43
   0  12  -1   -0.02    0.19
   0  12  -1    0.20    0.23
   0  12  -1   -0.25    0.29
   0 -12   1    0.36    0.17
   0 -12   1    0.06    0.32
   0 -12   1    0.21    0.22
   0 -12   1    0.11    0.25
  -1  12  -1    4.42    0.51
  -1  12  -1    4.10    0.37
  -1  12  -1    4.97    0.42
   1 -12   1    3.76    0.41
   1 -12   1    4.68    0.47
   1 -12   1    5.18    0.50
  -2  12  -1   -0.13    0.23
  -2  12  -1   -0.21    0.31
  -2  12  -1    0.16    0.17
   2 -12   1   -0.05    0.25
   2 -12   1   -0.24    0.21
  -3  12  -1    2.75    0.42
  -3  12  -1    2.31    0.28
   3 -12   1    1.72    0.36
   7  11  -1    0.03    0.36
   7  11  -1    0.46    0.33
   7  11  -1   -0.14    0.26
   7  11  -1    0.02    0.57
  -7 -11   1    0.07    0.84
  -7 -11   1    0.16    0.26
  -7 -11   1   -0.11    0.26
  -7 -11   1   -0.28    0.32
   6  11  -1    2.60    0.42
   6  11  -1    3.35    0.57
   6  11  -1    3.21    0.45
  -6 -11   1    2.43    0.39
  -6 -11   1    3.16    0.41
  -6 -11   1    3.17    0.46
   5  11  -1    0.52    0.39
   5  11  -1    0.61    0.32
   5  11  -1    0.58    0.26
   5  11  -1    0.39    0.26
  -5 -11   1    0.25    0.25
  -5 -11   1   -0.02    0.23
   4  11  -1    9.85    0.97
   4  11  -1   10.09    0.60
   4  11  -1   10.41    0.59
   4  11  -1   10.76    0.48
  -4 -11   1    9.08    0.45
  -4 -11   1    9.43    0.61
  -4 -11   1    9.37    0.51
  -4 -11   1    9.71    0.57
   3  11  -1    0.09    0.44
   3  11  -1   -0.15    0.28
   3  11  -1    0.63    0.28
  -3 -11   1    0.46    0.25
  -3 -11   1    0.15    0.22
  -3 -11   1    0.43    0.20
  -3 -11   1    1.01    0.25
   2  11  -1   12.59    0.61
   2  11  -1   11.66    0.60
   2  11  -1   13.18    0.69
  -2 -11   1   12.26    0.54
  -2 -11   1   11.49    0.60
  -2 -11   1   12.68    0.69
  -2 -11   1   12.10    0.52
   1  11  -1    0.05    0.30
   1  11  -1    0.27    0.25
   1  11  -1    0.20    0.21
  -1 -11   1   -0.03    0.20
  -1 -11   1    0.21    0.19
  -1 -11   1    0.44    0.21
   0  11  -1   14.51    0.58
   0  11  -1   14.58    0.72
   0  11  -1   13.30    0.59
   0 -11   1   13.79    0.54
   0 -11   1   13.20    0.46
   0 -11   1   13.39    0.61
  -1  11  -1    0.02    0.30
  -1  11  -1   -0.20    0.14
  -1  11  -1    0.13    0.17
   1 -11   1   -0.02    0.22
   1 -11   1    0.22    0.14
   1 -11   1    0.44    0.24
   1 -11   1    0.31    0.20
  -2  11  -1    9.15    0.60
  -2  11  -1    8.57    0.43
  -2  11  -1    9.19    0.43
   2 -11   1    7.40    0.50
   2 -11   1    8.85    0.58
   2 -11   1    8.87    0.52
  -3  11  -1    0.24    0.32
  -3  11  -1   -0.10    0.19
  -3  11  -1    0.23    0.16
   3 -11   1    0.20    0.20
   3 -11   1    0.30    0.24
   3 -11   1    1.02    0.33
  -4  11  -1    2.65    0.39
  -4  11  -1    2.62    0.29
   4 -11   1    2.69    0.36
   4 -11   1    3.32    0.50
   4 -11   1    3.67    0.46
   8  10  -1   -0.30    0.25
   8  10  -1    0.24    0.32
   8  10  -1    0.02    0.37
  -8 -10   1    0.54    0.32
  -8 -10   1    0.89    0.39
  -8 -10   1    0.14    0.28
  -8 -10   1    0.49    0.26
   7  10  -1    3.97    0.46
   7  10  -1    4.80    0.68
   7  10  -1    3.89    0.49
  -7 -10   1    2.59    0.35
  -7 -10   1    3.71    0.44
  -7 -10   1    3.74    0.49
  -7 -10   1    3.93    0.53
   6  10  -1    0.37    0.23
   6  10  -1   -0.17    0.27
   6  10  -1    0.10    0.29
   6  10  -1    0.31    0.30
  -6 -10   1    0.34    0.30
  -6 -10   1    0.09    0.29
  -6 -10   1    0.39    0.24
  -6 -10   1    0.32    0.24
  -6 -10   1    0.17    0.19
   5  10  -1    9.84    0.62
   5  10  -1    9.81    0.65
   5  10  -1    9.36    0.60
   5  10  -1    9.64    0.56
  -5 -10   1   11.42    0.64
  -5 -10   1    9.03    0.41
  -5 -10   1    9.51    0.52
  -5 -10   1   10.16    0.56
  -5 -10   1    8.10    0.62
   4  10  -1    0.14    0.29
   4  10  -1   -0.09    0.19
  -4 -10   1    0.05    0.18
  -4 -10   1    0.46    0.22
  -4 -10   1   -0.28    0.28
  -4 -10   1    0.07    0.26
   3  10  -1   10.18    0.66
   3  10  -1   10.23    0.53
   3  10  -1   10.16    0.59
  -3 -10   1    9.44    0.43
  -3 -10   1    9.79    0.45
  -3 -10   1   10.45    0.56
  -3 -10   1   10.07    0.49
   2  10  -1    0.09    0.18
   2  10  -1   -0.07    0.17
  -2 -10   1   -0.03    0.18
  -2 -10   1    0.00    0.16
  -2 -10   1    0.00    0.16
   1  10  -1   23.55    0.91
   1  10  -1   22.59    0.78
   1  10  -1   24.61    0.80
  -1 -10   1   22.86    0.81
  -1 -10   1   23.44    0.70
  -1 -10   1   24.08    0.76
  -1 -10   1   23.66    0.70
   0  10  -1    0.01    0.27
   0  10  -1    0.11    0.15
   0 -10   1   -0.03    0.17
   0 -10   1    0.09    0.15
   0 -10   1   -0.04    0.17
  -1  10  -1   19.96    0.65
  -1  10  -1   19.36    0.80
   1 -10   1   19.41    0.64
   1 -10   1   20.23    0.72
   1 -10   1   20.15    0.56
   1 -10   1   20.36    0.63
   1 -10   1   17.57    0.80
  -2  10  -1   -0.37    0.23
  -2  10  -1    0.41    0.16
  -2  10  -1    0.14    0.15
   2 -10   1    0.16    0.19
   2 -10   1   -0.02    0.18
   2 -10   1    0.25    0.20
   2 -10   1    0.47    0.22
  -3  10  -1    6.90    0.35
  -3  10  -1    6.60    0.35
  -3  10  -1    7.32    0.48
   3 -10   1    7.28    0.55
   3 -10   1    6.52    0.45
   3 -10   1    7.04    0.47
  -4  10  -1    0.13    0.24
  -4  10  -1    0.43    0.16
   4 -10   1    0.82    0.23
   4 -10   1    0.79    0.24
   4 -10   1    0.93    0.35
  -5  10  -1    4.01    0.38
  -5  10  -1    3.97    0.31
   5 -10   1    3.62    0.43
   5 -10   1    3.84    0.48
   5 -10   1    4.59    0.55
   8   9  -1    2.60    0.42
   8   9  -1    2.42    0.36
   8   9  -1    3.67    0.50
  -8  -9   1    2.37    0.34
  -8  -9   1    3.13    0.43
  -8  -9   1    2.87    0.46
  -8  -9   1    2.75    0.39
   7   9  -1    0.27    0.29
   7   9  -1   -0.03    0.22
   7   9  -1    0.27    0.31
   7   9  -1    0.00    0.34
  -7  -9   1   -0.36    0.31
  -7  -9   1    0.13    0.22
  -7  -9   1   -0.26    0.36
  -7  -9   1   -0.35    0.22
   6   9  -1    5.54    0.44
   6   9  -1    4.86    0.48
   6   9  -1    5.06    0.63
   6   9  -1    5.38    0.52
  -6  -9   1    4.92    0.46
  -6  -9   1    4.82    0.44
  -6  -9   1    4.81    0.42
  -6  -9   1    5.39    0.49
  -6  -9   1    5.21    0.30
   5   9  -1    1.81    0.27
   5   9  -1    1.03    0.25
   5   9  -1    0.92    0.40
  -5  -9   1    1.45    0.18
  -5  -9   1    1.38    0.27
  -5  -9   1    1.12    0.25
  -5  -9   1    1.04    0.29
   4   9  -1   20.97    0.76
   4   9  -1   20.73    0.70
   4   9  -1   20.75    0.79
   4   9  -1   19.94    0.75
  -4  -9   1   19.31    0.69
  -4  -9   1   20.10    0.75
  -4  -9   1   20.25    0.74
  -4  -9   1   20.67    0.63
  -4  -9   1   20.74    0.81
   3   9  -1    0.60    0.25
   3   9  -1    0.35    0.18
   3   9  -1    0.09    0.17
   3   9  -1    0.40    0.18
  -3  -9   1    0.34    0.19
  -3  -9   1    0.19    0.17
  -3  -9   1    0.45    0.14
  -3  -9   1    0.06    0.16
  -3  -9   1    0.37    0.21
   2   9  -1   22.30    0.75
   2   9  -1   21.95    0.75
   2   9  -1   21.56    0.82
  -2  -9   1   21.42    0.74
  -2  -9   1   22.82    0.69
  -2  -9   1   21.41    0.69
  -2  -9   1   22.10    0.66
  -2  -9   1   22.65    0.71
   1   9  -1    0.16    0.15
   1   9  -1    0.40    0.13
   1   9  -1   -0.05    0.14
   1   9  -1    0.18    0.37
  -1  -9   1    0.11    0.13
  -1  -9   1    0.41    0.16
  -1  -9   1    0.23    0.13
  -1  -9   1    0.21    0.15
   0   9  -1   12.90    0.49
   0   9  -1   12.83    0.49
   0   9  -1   13.29    0.61
   0  -9   1   13.23    0.50
   0  -9   1   13.41    0.46
   0  -9   1   12.69    0.43
   0  -9   1   12.88    0.52
   0  -9   1   13.65    0.42
  -1   9  -1    0.15    0.13
  -1   9  -1   -0.02    0.14
  -1   9  -1    0.15    0.22
   1  -9   1    0.15    0.16
   1  -9   1    0.08    0.10
   1  -9   1    0.21    0.15
   1  -9   1    0.21    0.16
  -2   9  -1   26.40    0.88
  -2   9  -1   25.90    0.77
  -2   9  -1   27.73    0.77
   2  -9   1   25.56    0.66
   2  -9   1   26.08    0.83
   2  -9   1   25.16    0.79
   2  -9   1   27.15    0.85
   2  -9   1   26.63    0.83
  -3   9  -1   -0.14    0.19
  -3   9  -1   -0.09    0.13
  -3   9  -1    0.14    0.12
   3  -9   1    0.17    0.18
   3  -9   1   -0.09    0.23
   3  -9   1    0.06    0.20
  -4   9  -1    7.92    0.37
  -4   9  -1    8.42    0.42
  -4   9  -1    8.19    0.38
   4  -9   1    8.36    0.47
   4  -9   1    8.99    0.49
   4  -9   1    8.86    0.59
  -5   9  -1    0.67    0.20
  -5   9  -1    0.71    0.16
   5  -9   1    0.02    0.21
   5  -9   1    1.36    0.43
   5  -9   1    0.82    0.25
  -6   9  -1    3.59    0.40
  -6   9  -1    3.98    0.31
   6  -9   1    4.08    0.46
   6  -9   1    4.41    0.50
   6  -9   1    3.57    0.51
   9   8  -1    1.75    0.33
   9   8  -1    1.60    0.44
   9   8  -1    1.16    0.36
   9   8  -1    2.17    0.54
  -9  -8   1    1.82    0.37
  -9  -8   1    2.18    0.42
  -9  -8   1    1.84    0.34
  -9  -8   1    1.51    0.32
   8   8  -1   -0.18    0.29
   8   8  -1   -0.05    0.23
   8   8  -1    0.05    0.38
   8   8  -1    0.09    0.24
  -8  -8   1    0.34    0.24
  -8  -8   1    0.20    0.30
  -8  -8   1    0.30    0.25
  -8  -8   1    0.30    0.29
   7   8  -1    6.08    0.47
   7   8  -1    6.69    0.61
   7   8  -1    7.09    0.38
   7   8  -1    8.10    0.57
   7   8  -1    6.66    0.53
  -7  -8   1    8.79    0.60
  -7  -8   1    6.77    0.48
  -7  -8   1    6.25    0.51
  -7  -8   1    7.12    0.52
   6   8  -1    0.01    0.22
   6   8  -1   -0.06    0.27
   6   8  -1   -0.21    0.22
   6   8  -1    0.03    0.24
   6   8  -1   -0.21    0.15
  -6  -8   1   -0.07    0.18
  -6  -8   1    0.12    0.17
  -6  -8   1    0.52    0.23
   5   8  -1   21.94    0.78
   5   8  -1   22.94    0.76
   5   8  -1   19.82    0.60
   5   8  -1   24.40    1.11
   5   8  -1   21.25    0.77
  -5  -8   1   21.58    0.78
  -5  -8   1   20.42    0.73
  -5  -8   1   20.15    0.75
  -5  -8   1   20.95    0.62
  -5  -8   1   20.82    0.73
   4   8  -1    0.28    0.18
   4   8  -1    0.09    0.18
   4   8  -1   -0.32    0.20
   4   8  -1   -0.19    0.17
  -4  -8   1    0.21    0.18
  -4  -8   1    0.46    0.20
  -4  -8   1   -0.18    0.15
  -4  -8   1   -0.17    0.14
   3   8  -1   20.63    0.64
   3   8  -1   19.21    0.68
   3   8  -1   19.98    0.73
   3   8  -1   19.53    0.69
  -3  -8   1   19.60    0.66
  -3  -8   1   19.72    0.60
  -3  -8   1   19.90    0.67
  -3  -8   1   18.61    0.71
  -3  -8   1   19.84    0.63
   2   8  -1    1.87    0.24
   2   8  -1    1.95    0.26
   2   8  -1    1.52    0.27
   2   8  -1    1.32    0.21
  -2  -8   1    1.12    0.18
  -2  -8   1    1.41    0.19
  -2  -8   1    1.61    0.19
  -2  -8   1    1.46    0.21
  -2  -8   1    1.98    0.30
   1   8  -1   37.97    1.06
   1   8  -1   37.76    1.05
   1   8  -1   37.65    0.97
   1   8  -1   38.81    1.14
  -1  -8   1   38.40    1.00
  -1  -8   1   38.24    0.99
  -1  -8   1   37.15    1.06
  -1  -8   1   37.52    1.00
  -1  -8   1   37.61    1.02
  -1  -8   1   38.85    0.91
   0   8  -1    0.21    0.12
   0   8  -1    0.27    0.12
   0   8  -1    0.00    0.20
   0  -8   1    0.07    0.11
   0  -8   1    0.22    0.11
   0  -8   1    0.18    0.10
   0  -8   1   -0.08    0.21
   0  -8   1    0.19    0.12
  -1   8  -1   33.84    1.03
  -1   8  -1   32.89    1.03
  -1   8  -1   32.76    0.91
   1  -8   1   34.10    0.85
   1  -8   1   33.87    1.03
   1  -8   1   32.42    0.93
   1  -8   1   32.49    0.90
   1  -8   1   33.95    0.90
  -2   8  -1   -0.01    0.10
  -2   8  -1   -0.16    0.17
  -2   8  -1   -0.03    0.11
   2  -8   1    0.17    0.14
   2  -8   1   -0.03    0.08
   2  -8   1    0.12    0.12
   2  -8   1    0.34    0.18
   2  -8   1    0.14    0.15
  -3   8  -1   19.12    0.59
  -3   8  -1   20.55    0.68
  -3   8  -1   20.26    0.59
   3  -8   1   19.62    0.68
   3  -8   1   20.20    0.66
   3  -8   1   19.26    0.72
   3  -8   1   19.52    0.67
  -4   8  -1    0.10    0.12
  -4   8  -1    0.24    0.16
   4  -8   1    0.26    0.24
   4  -8   1    0.34    0.26
   4  -8   1    0.51    0.26
  -5   8  -1    8.10    0.37
  -5   8  -1    9.93    0.54
  -5   8  -1    8.23    0.36
  -5   8  -1    8.49    0.44
   5  -8   1    7.99    0.48
   5  -8   1    9.21    0.67
   5  -8   1    8.67    0.50
  -6   8  -1   -0.06    0.18
  -6   8  -1    0.15    0.13
   6  -8   1    0.46    0.38
   6  -8   1   -0.17    0.19
   6  -8   1   -0.24    0.22
  -7   8  -1    2.71    0.27
  -7   8  -1    2.88    0.39
   7  -8   1    3.11    0.50
   7  -8   1    2.56    0.37
   9   7  -1    0.16    0.31
   9   7  -1    0.29    0.26
   9   7  -1   -0.38    0.34
   9   7  -1   -0.08    0.28
  -9  -7   1    0.49    0.32
  -9  -7   1    0.49    0.30
  -9  -7   1    0.65    0.32
  -9  -7   1    0.44    0.29
   8   7  -1    6.71    0.47
   8   7  -1    5.52    0.55
   8   7  -1    6.64    0.56
   8   7  -1    5.04    0.53
  -8  -7   1    7.50    0.59
  -8  -7   1    7.02    0.53
  -8  -7   1    7.49    0.53
  -8  -7   1    6.58    0.51
   7   7  -1    0.27    0.18
   7   7  -1    0.03    0.24
   7   7  -1    0.05    0.22
   7   7  -1    0.60    0.36
  -7  -7   1    0.20    0.15
  -7  -7   1    0.29    0.27
  -7  -7   1   -0.05    0.21
  -7  -7   1   -0.16    0.20
   6   7  -1    9.16    0.51
   6   7  -1    8.30    0.38
   6   7  -1    8.23    0.47
   6   7  -1    8.16    0.47
   6   7  -1    7.87    0.47
  -6  -7   1    8.83    0.48
  -6  -7   1    8.71    0.46
  -6  -7   1    8.38    0.46
  -6  -7   1    8.69    0.43
   5   7  -1   -0.16    0.11
   5   7  -1    0.05    0.17
   5   7  -1    0.32    0.19
   5   7  -1   -0.25    0.19
   5   7  -1   -0.27    0.18
  -5  -7   1    0.19    0.16
  -5  -7   1    0.03    0.15
  -5  -7   1   -0.02    0.16
  -5  -7   1    0.10    0.18
  -5  -7   1    0.18    0.12
   4   7  -1   27.39    0.77
   4   7  -1   30.11    0.92
   4   7  -1   31.75    0.92
   4   7  -1   30.71    0.94
   4   7  -1   31.34    0.93
  -4  -7   1   30.70    0.89
  -4  -7   1   28.68    0.89
  -4  -7   1   31.20    0.83
  -4  -7   1   29.79    0.91
  -4  -7   1   30.27    0.94
   3   7  -1   -0.03    0.14
   3   7  -1    0.07    0.13
   3   7  -1    0.16    0.15
   3   7  -1    0.32    0.19
  -3  -7   1    0.19    0.14
  -3  -7   1    0.36    0.14
  -3  -7   1    0.49    0.15
  -3  -7   1    0.29    0.10
  -3  -7   1    0.14    0.13
   2   7  -1  104.83    2.59
   2   7  -1  106.69    2.64
   2   7  -1  111.40    2.54
   2   7  -1  103.40    2.59
  -2  -7   1  105.92    2.56
  -2  -7   1  105.40    2.60
  -2  -7   1  108.66    2.52
  -2  -7   1  105.81    2.52
  -2  -7   1  109.52    2.55
   1   7  -1    0.31    0.18
   1   7  -1    0.38    0.12
   1   7  -1    0.30    0.11
   1   7  -1    0.39    0.13
  -1  -7   1    0.37    0.09
  -1  -7   1    0.28    0.11
  -1  -7   1    0.34    0.11
  -1  -7   1    0.29    0.10
  -1  -7   1    0.25    0.12
  -1  -7   1    0.44    0.12
   0   7  -1   39.50    1.02
   0   7  -1   37.89    1.02
   0   7  -1   38.25    1.10
   0  -7   1   37.91    1.03
   0  -7   1   38.69    0.98
   0  -7   1   38.58    0.96
   0  -7   1   37.60    0.97
   0  -7   1   39.49    1.01
  -1   7  -1    0.58    0.11
  -1   7  -1    0.83    0.20
   1  -7   1    1.00    0.15
   1  -7   1    0.90    0.15
   1  -7   1    0.77    0.10
   1  -7   1    1.02    0.15
   1  -7   1    0.67    0.14
  -2   7  -1   53.46    1.29
  -2   7  -1   51.55    1.37
  -2   7  -1   52.22    1.29
   2  -7   1   50.87    1.31
   2  -7   1   50.11    1.35
   2  -7   1   51.23    1.36
   2  -7   1   52.86    1.23
   2  -7   1   52.23    1.35
  -3   7  -1    1.97    0.25
  -3   7  -1    1.74    0.17
  -3   7  -1    1.89    0.17
   3  -7   1    1.96    0.23
   3  -7   1    1.88    0.27
   3  -7   1    1.71    0.23
   3  -7   1    1.76    0.24
   3  -7   1    1.72    0.15
  -4   7  -1   23.06    0.66
  -4   7  -1   21.39    0.64
  -4   7  -1   21.99    0.63
   4  -7   1   21.56    0.74
   4  -7   1   22.10    0.81
   4  -7   1   22.17    0.59
   4  -7   1   21.61    0.72
  -5   7  -1    0.10    0.16
  -5   7  -1    0.12    0.13
  -5   7  -1    0.20    0.21
  -5   7  -1   -0.01    0.14
   5  -7   1   -0.21    0.17
   5  -7   1    0.24    0.16
   5  -7   1    0.65    0.28
   5  -7   1   -0.06    0.18
  -6   7  -1    3.92    0.27
  -6   7  -1    3.51    0.34
   6  -7   1    3.81    0.49
   6  -7   1    3.79    0.38
   6  -7   1    3.96    0.39
  -7   7  -1   -0.12    0.21
  -7   7  -1   -0.12    0.12
   7  -7   1    0.31    0.24
   7  -7   1    0.19    0.32
   9   6  -1    1.20    0.33
   9   6  -1    1.73    0.34
   9   6  -1    1.75    0.39
   9   6  -1    1.33    0.30
  -9  -6   1    1.27    0.30
  -9  -6   1    2.12    0.36
  -9  -6   1    2.03    0.36
  -9  -6   1    1.75    0.38
   8   6  -1    0.03    0.23
   8   6  -1   -0.37    0.25
   8   6  -1    0.52    0.26
  -8  -6   1   -0.08    0.28
  -8  -6   1    0.08    0.25
  -8  -6   1    0.23    0.24
   7   6  -1    5.88    0.42
   7   6  -1    5.83    0.43
   7   6  -1    5.70    0.47
   7   6  -1    6.30    0.39
  -7  -6   1    6.47    0.43
  -7  -6   1    6.13    0.30
  -7  -6   1    6.11    0.50
  -7  -6   1    6.33    0.46
   6   6  -1    0.55    0.22
   6   6  -1    0.40    0.22
   6   6  -1    0.29    0.24
   6   6  -1    0.75    0.18
   6   6  -1    0.14    0.20
  -6  -6   1    0.33    0.18
  -6  -6   1    0.57    0.12
  -6  -6   1    0.55    0.17
  -6  -6   1    0.63    0.21
  -6  -6   1    0.23    0.17
   5   6  -1   50.89    1.28
   5   6  -1   50.75    1.37
   5   6  -1   51.45    1.36
   5   6  -1   49.65    1.36
   5   6  -1   49.37    1.39
  -5  -6   1   51.15    1.37
  -5  -6   1   48.28    1.35
  -5  -6   1   50.60    1.23
  -5  -6   1   48.98    1.34
  -5  -6   1   48.86    1.41
   4   6  -1    0.99    0.13
   4   6  -1    1.22    0.21
   4   6  -1    1.06    0.18
   4   6  -1    1.15    0.19
   4   6  -1    1.07    0.22
  -4  -6   1    1.10    0.19
  -4  -6   1    0.73    0.20
  -4  -6   1    1.02    0.18
  -4  -6   1    1.23    0.18
   3   6  -1   39.08    1.09
   3   6  -1   41.08    1.07
   3   6  -1   40.35    1.11
   3   6  -1   39.52    1.09
   3   6  -1   37.37    0.96
  -3  -6   1   38.93    1.07
  -3  -6   1   39.48    1.06
  -3  -6   1   40.05    1.05
  -3  -6   1   40.75    1.07
   2   6  -1    0.02    0.10
   2   6  -1   -0.06    0.12
   2   6  -1    0.05    0.15
   2   6  -1    0.03    0.11
  -2  -6   1    0.04    0.10
  -2  -6   1    0.02    0.08
  -2  -6   1   -0.07    0.11
  -2  -6   1   -0.01    0.09
  -2  -6   1    0.09    0.10
   1   6  -1  137.17    3.29
   1   6  -1  137.10    3.23
   1   6  -1  136.34    3.23
  -1  -6   1  137.73    3.27
  -1  -6   1  139.66    3.19
  -1  -6   1  136.64    3.19
  -1  -6   1  138.47    3.18
  -1  -6   1  136.59    3.18
   0   6  -1    0.23    0.09
   0   6  -1   -0.01    0.08
   0   6  -1   -0.23    0.12
   0  -6   1    0.10    0.08
   0  -6   1    0.04    0.08
   0  -6   1    0.05    0.08
   0  -6   1    0.13    0.07
   0  -6   1    0.03    0.11
   0  -6   1    0.07    0.09
  -1   6  -1  119.70    2.91
  -1   6  -1  116.95    2.83
   1  -6   1  125.53    2.83
   1  -6   1  121.10    2.85
   1  -6   1  122.75    2.84
   1  -6   1  122.38    2.79
   1  -6   1  121.33    2.87
  -2   6  -1    4.87    0.22
  -2   6  -1    5.17    0.22
  -2   6  -1    4.61    0.28
   2  -6   1    5.02    0.24
   2  -6   1    4.95    0.28
   2  -6   1    5.46    0.27
   2  -6   1    4.45    0.25
  -3   6  -1   26.62    0.81
  -3   6  -1   26.15    0.70
  -3   6  -1   26.48    0.70
   3  -6   1   26.40    0.81
   3  -6   1   26.07    0.65
   3  -6   1   25.39    0.76
   3  -6   1   25.61    0.76
   3  -6   1   25.85    0.75
  -4   6  -1    0.04    0.12
  -4   6  -1    0.00    0.09
  -4   6  -1    0.07    0.08
   4  -6   1    0.01    0.13
   4  -6   1    0.20    0.19
   4  -6   1   -0.20    0.13
  -5   6  -1   17.83    0.50
  -5   6  -1   17.51    0.53
  -5   6  -1   17.46    0.62
  -5   6  -1   17.41    0.52
   5  -6   1   17.48    0.54
   5  -6   1   17.95    0.65
   5  -6   1   16.50    0.62
   5  -6   1   18.80    0.76
  -6   6  -1   -0.15    0.10
  -6   6  -1   -0.01    0.17
  -6   6  -1    0.08    0.14
   6  -6   1    0.14    0.19
   6  -6   1    0.09    0.19
  -7   6  -1    3.67    0.27
  -7   6  -1    4.22    0.37
   7  -6   1    3.77    0.41
   7  -6   1    4.40    0.53
   7  -6   1    3.87    0.51
  -8   6  -1    0.19    0.16
  -8   6  -1   -0.06    0.21
   8  -6   1   -0.33    0.33
   8  -6   1    0.36    0.26
   8  -6   1    0.25    0.38
   9   5  -1    0.08    0.27
   9   5  -1    0.34    0.36
   9   5  -1    0.02    0.28
   9   5  -1   -0.28    0.24
  -9  -5   1   -0.33    0.27
  -9  -5   1    0.32    0.25
  -9  -5   1    0.14    0.31
  -9  -5   1    0.06    0.27
   8   5  -1    4.85    0.51
   8   5  -1    5.91    0.46
   8   5  -1    5.19    0.46
   8   5  -1    5.23    0.54
  -8  -5   1    4.73    0.41
  -8  -5   1    5.22    0.51
  -8  -5   1    6.05    0.50
  -8  -5   1    5.54    0.45
   7   5  -1    0.17    0.17
   7   5  -1   -0.08    0.23
   7   5  -1    0.47    0.20
   7   5  -1    0.30    0.21
  -7  -5   1    0.56    0.21
  -7  -5   1    0.27    0.20
  -7  -5   1    0.05    0.25
  -7  -5   1    0.13    0.13
   6   5  -1   22.21    0.82
   6   5  -1   24.03    0.77
   6   5  -1   24.06    0.74
   6   5  -1   24.29    0.78
   6   5  -1   23.18    0.74
  -6  -5   1   23.84    0.78
  -6  -5   1   24.33    0.88
  -6  -5   1   23.13    0.78
  -6  -5   1   24.29    0.66
  -6  -5   1   24.81    0.76
   5   5  -1    1.36    0.19
   5   5  -1    1.20    0.24
   5   5  -1    0.92    0.20
   5   5  -1    0.86    0.20
   5   5  -1    1.32    0.21
  -5  -5   1    1.19    0.14
  -5  -5   1    1.18    0.19
  -5  -5   1    1.30    0.20
  -5  -5   1    1.48    0.21
  -5  -5   1    1.12    0.23
   4   5  -1   31.06    0.86
   4   5  -1   29.93    0.88
   4   5  -1   28.90    0.86
   4   5  -1   26.64    0.87
   4   5  -1   30.31    0.95
  -4  -5   1   29.57    0.84
  -4  -5   1   28.95    0.90
  -4  -5   1   29.81    0.85
  -4  -5   1   30.64    0.86
  -4  -5   1   29.67    0.76
   3   5  -1    0.66    0.16
   3   5  -1    0.33    0.13
   3   5  -1    0.33    0.12
   3   5  -1    0.58    0.15
   3   5  -1    0.44    0.08
  -3  -5   1    0.35    0.12
  -3  -5   1    0.40    0.11
  -3  -5   1    0.63    0.10
  -3  -5   1    0.57    0.12
  -3  -5   1    0.59    0.15
   2   5  -1  133.12    3.16
   2   5  -1  136.40    3.12
   2   5  -1  129.65    3.13
  -2  -5   1  132.96    3.08
  -2  -5   1  132.64    3.09
  -2  -5   1  136.59    3.11
  -2  -5   1  130.51    3.11
  -2  -5   1  132.31    3.10
   1   5  -1    0.15    0.13
   1   5  -1    0.07    0.08
   1   5  -1    0.01    0.08
  -1  -5   1    0.00    0.08
  -1  -5   1    0.02    0.07
  -1  -5   1    0.04    0.07
  -1  -5   1    0.05    0.08
  -1  -5   1   -0.01    0.07
   0   5  -1   81.41    1.95
   0   5  -1   79.44    2.00
   0   5  -1   80.25    1.94
   0  -5   1   82.82    1.94
   0  -5   1   84.46    1.91
   0  -5   1   82.93    1.96
   0  -5   1   82.70    1.92
   0  -5   1   82.90    1.92
  -1   5  -1    1.48    0.18
  -1   5  -1    1.24    0.12
   1  -5   1    1.38    0.14
   1  -5   1    1.73    0.15
   1  -5   1    1.48    0.16
   1  -5   1    1.42    0.15
  -2   5  -1   83.95    2.05
  -2   5  -1   82.85    1.98
  -2   5  -1   85.49    2.04
   2  -5   1   83.99    2.05
   2  -5   1   85.91    1.95
   2  -5   1   82.67    2.02
   2  -5   1   83.86    2.03
   2  -5   1   85.25    1.93
   2  -5   1   88.30    2.13
  -3   5  -1    6.50    0.27
  -3   5  -1    6.54    0.24
  -3   5  -1    6.47    0.24
   3  -5   1    6.62    0.29
   3  -5   1    6.66    0.53
   3  -5   1    6.70    0.23
   3  -5   1    6.60    0.20
   3  -5   1    6.35    0.29
   3  -5   1    6.48    0.29
  -4   5  -1   43.05    1.08
  -4   5  -1   45.65    1.08
  -4   5  -1   43.30    1.15
  -4   5  -1   41.98    1.07
   4  -5   1   44.20    1.12
   4  -5   1   43.10    1.15
   4  -5   1   43.69    1.17
   4  -5   1   42.54    1.23
  -5   5  -1    1.86    0.26
  -5   5  -1    1.58    0.15
  -5   5  -1    1.54    0.16
  -5   5  -1    1.83    0.16
   5  -5   1    1.66    0.20
   5  -5   1    1.82    0.30
   5  -5   1    1.62    0.24
   5  -5   1    1.54    0.21
  -6   5  -1   17.19    0.52
  -6   5  -1   15.35    0.67
  -6   5  -1   16.08    0.52
   6  -5   1   17.01    0.69
   6  -5   1   16.98    0.58
   6  -5   1   16.90    0.76
  -7   5  -1    0.08    0.18
  -7   5  -1    0.10    0.12
  -7   5  -1    0.13    0.17
   7  -5   1    0.01    0.30
   7  -5   1    0.00    0.23
   7  -5   1    0.13    0.20
  -8   5  -1    2.50    0.26
  -8   5  -1    2.73    0.37
   8  -5   1    3.64    0.46
   8  -5   1    3.14    0.53
   8  -5   1    2.25    0.42
   9   4  -1    2.31    0.39
   9   4  -1    2.12    0.35
   9   4  -1    3.35    0.47
  -9  -4   1    2.07    0.35
  -9  -4   1    2.78    0.40
  -9  -4   1    2.64    0.38
   8   4  -1    0.05    0.21
   8   4  -1   -0.08    0.29
   8   4  -1    0.08    0.23
   8   4  -1    0.25    0.30
  -8  -4   1   -0.24    0.22
  -8  -4   1    0.34    0.23
  -8  -4   1   -0.06    0.22
   7   4  -1    7.91    0.53
   7   4  -1    7.68    0.49
   7   4  -1    7.62    0.41
   7   4  -1    7.87    0.45
   7   4  -1    7.41    0.41
  -7  -4   1    7.60    0.42
  -7  -4   1    7.22    0.44
  -7  -4   1    7.24    0.43
   6   4  -1    0.15    0.19
   6   4  -1    0.34    0.16
   6   4  -1    0.44    0.21
   6   4  -1    0.26    0.17
   6   4  -1    0.36    0.16
  -6  -4   1    0.64    0.18
  -6  -4   1    0.54    0.17
  -6  -4   1    0.20    0.17
   5   4  -1   94.13    2.25
   5   4  -1   91.20    2.23
   5   4  -1   91.23    2.26
   5   4  -1   93.13    2.26
   5   4  -1   91.71    2.33
  -5  -4   1   94.66    2.26
  -5  -4   1   90.56    2.21
  -5  -4   1   92.05    2.27
  -5  -4   1   90.19    2.27
   4   4  -1    0.09    0.09
   4   4  -1   -0.02    0.10
   4   4  -1    0.14    0.15
   4   4  -1    0.02    0.13
   4   4  -1    0.09    0.12
  -4  -4   1   -0.04    0.08
  -4  -4   1   -0.02    0.08
  -4  -4   1    0.09    0.10
  -4  -4   1   -0.02    0.10
  -4  -4   1    0.31    0.14
   3   4  -1   10.28    0.39
   3   4  -1   10.49    0.34
   3   4  -1   10.77    0.41
   3   4  -1   10.68    0.39
   3   4  -1   11.01    0.41
  -3  -4   1   10.57    0.39
  -3  -4   1   10.87    0.38
  -3  -4   1   11.19    0.40
  -3  -4   1   10.78    0.43
  -3  -4   1   10.58    0.32
   2   4  -1    0.67    0.08
   2   4  -1    0.93    0.14
   2   4  -1    0.68    0.16
   2   4  -1    0.92    0.15
   2   4  -1    0.72    0.12
  -2  -4   1    0.63    0.11
  -2  -4   1    0.66    0.11
  -2  -4   1    0.49    0.10
  -2  -4   1    0.71    0.09
  -2  -4   1    0.84    0.14
   1   4  -1   29.57    0.74
   1   4  -1   26.78    0.77
   1   4  -1   27.53    0.73
  -1  -4   1   28.82    0.74
  -1  -4   1   27.56    0.69
  -1  -4   1   28.19    0.71
  -1  -4   1   26.61    0.71
  -1  -4   1   27.65    0.70
   0   4  -1    8.01    0.32
   0   4  -1    7.45    0.26
   0   4  -1    7.77    0.26
   0  -4   1    8.11    0.25
   0  -4   1    7.60    0.28
   0  -4   1    7.97    0.25
   0  -4   1    7.67    0.25
   0  -4   1    7.54    0.26
  -1   4  -1  205.51    4.60
  -1   4  -1  204.69    4.60
   1  -4   1  206.26    4.60
   1  -4   1  187.09    4.64
   1  -4   1  204.96    4.61
   1  -4   1  205.53    4.58
  -2   4  -1    1.36    0.10
  -2   4  -1    1.44    0.11
  -2   4  -1    1.50    0.15
   2  -4   1    1.30    0.09
   2  -4   1    1.38    0.13
   2  -4   1    1.79    0.20
   2  -4   1    1.39    0.13
   2  -4   1    1.36    0.15
   2  -4   1    1.39    0.09
  -3   4  -1   52.69    1.27
  -3   4  -1   55.45    1.27
  -3   4  -1   52.67    1.28
   3  -4   1   54.38    1.27
   3  -4   1   53.07    1.23
   3  -4   1   52.35    1.32
   3  -4   1   53.15    1.37
   3  -4   1   50.82    1.32
   3  -4   1   53.88    1.34
  -4   4  -1    9.20    0.30
  -4   4  -1    9.43    0.29
  -4   4  -1    9.80    0.31
  -4   4  -1    9.05    0.35
  -4   4  -1    9.40    0.36
   4  -4   1    9.52    0.33
   4  -4   1    9.74    0.38
   4  -4   1    9.23    0.43
   4  -4   1    9.20    0.37
  -5   4  -1   34.02    0.89
  -5   4  -1   36.63    0.98
   5  -4   1   34.70    0.99
   5  -4   1   35.60    1.08
   5  -4   1   34.94    0.95
   5  -4   1   34.72    0.97
   5  -4   1   34.51    0.86
  -6   4  -1    0.01    0.14
  -6   4  -1   -0.09    0.09
  -6   4  -1   -0.12    0.10
   6  -4   1   -0.10    0.16
   6  -4   1    0.00    0.13
   6  -4   1    0.04    0.35
  -7   4  -1   15.82    0.61
  -7   4  -1   14.95    0.53
  -7   4  -1   16.51    0.53
   7  -4   1   15.47    0.66
   7  -4   1   16.40    0.78
   7  -4   1   16.88    0.91
  -8   4  -1    0.06    0.20
   8  -4   1   -0.28    0.32
   8  -4   1   -0.08    0.27
   8  -4   1   -0.17    0.22
  -9   4  -1    1.36    0.24
  -9   4  -1    1.47    0.28
   9  -4   1    1.51    0.35
   9  -4   1    1.56    0.39
   9  -4   1    1.98    0.42
 -10  -3   1    0.73    0.29
   9   3  -1    0.26    0.32
   9   3  -1   -0.06    0.25
   9   3  -1   -0.48    0.22
   9   3  -1    0.33    0.31
  -9  -3   1    0.20    0.31
  -9  -3   1    0.31    0.22
  -9  -3   1    0.20    0.34
   8   3  -1    9.35    0.46
   8   3  -1    9.15    0.61
   8   3  -1    9.84    0.55
  -8  -3   1   10.09    0.53
  -8  -3   1    9.08    0.56
  -8  -3   1    8.74    0.51
   7   3  -1    0.46    0.21
   7   3  -1    0.50    0.26
   7   3  -1    0.38    0.16
   7   3  -1    0.39    0.18
   7   3  -1    0.27    0.18
  -7  -3   1    0.33    0.17
  -7  -3   1    0.17    0.16
  -7  -3   1    0.54    0.19
   6   3  -1   34.40    1.04
   6   3  -1   35.45    1.03
   6   3  -1   36.14    0.99
   6   3  -1   35.79    1.10
   6   3  -1   36.41    0.99
   6   3  -1   34.80    0.94
  -6  -3   1   35.99    1.02
  -6  -3   1   35.15    1.00
  -6  -3   1   33.96    1.01
   5   3  -1    0.21    0.13
   5   3  -1    0.00    0.16
   5   3  -1   -0.13    0.13
   5   3  -1    0.09    0.12
   5   3  -1    0.35    0.13
  -5  -3   1    0.13    0.12
  -5  -3   1    0.01    0.11
  -5  -3   1   -0.08    0.12
   4   3  -1   15.24    0.48
   4   3  -1   14.48    0.48
   4   3  -1   15.09    0.48
   4   3  -1   13.32    0.58
   4   3  -1   14.05    0.46
  -4  -3   1   14.96    0.49
  -4  -3   1   14.22    0.47
  -4  -3   1   15.01    0.49
   3   3  -1    0.41    0.11
   3   3  -1    0.54    0.12
   3   3  -1    0.51    0.15
   3   3  -1    0.61    0.11
  -3  -3   1    0.74    0.13
  -3  -3   1    0.76    0.16
  -3  -3   1    0.69    0.09
  -3  -3   1    0.67    0.13
   2   3  -1  208.83    4.86
   2   3  -1  214.40    4.82
   2   3  -1  212.69    4.85
   2   3  -1  205.76    4.86
   2   3  -1  205.55    4.86
  -2  -3   1  213.64    4.79
  -2  -3   1  211.74    4.86
  -2  -3   1  212.02    4.86
  -2  -3   1  220.93    4.85
  -2  -3   1  217.67    4.85
   1   3  -1    0.00    0.07
   1   3  -1   -0.03    0.05
   1   3  -1   -0.02    0.06
   1   3  -1   -0.10    0.08
  -1  -3   1   -0.14    0.04
  -1  -3   1   -0.10    0.05
  -1  -3   1   -0.05    0.05
  -1  -3   1   -0.01    0.06
  -1  -3   1   -0.09    0.04
   0   3  -1   58.39    1.33
   0   3  -1   57.28    1.41
   0   3  -1   56.26    1.37
   0   3  -1   58.14    1.37
   0  -3   1   60.67    1.36
   0  -3   1   60.00    1.36
   0  -3   1   57.90    1.36
   0  -3   1   58.17    1.36
   0  -3   1   58.32    1.38
  -1   3  -1    7.16    0.22
  -1   3  -1    6.79    0.25
  -1   3  -1    7.20    0.22
   1  -3   1    7.50    0.21
   1  -3   1    7.22    0.24
   1  -3   1    7.15    0.24
   1  -3   1    7.39    0.24
   1  -3   1    7.51    0.24
  -2   3  -1  106.72    2.44
  -2   3  -1  106.26    2.46
  -2   3  -1  103.33    2.45
   2  -3   1  109.20    2.43
   2  -3   1  110.09    2.43
   2  -3   1  107.81    2.50
   2  -3   1  102.40    2.49
   2  -3   1  106.42    2.48
  -3   3  -1    2.35    0.12
  -3   3  -1    2.29    0.16
  -3   3  -1    2.37    0.12
  -3   3  -1    2.48    0.12
   3  -3   1    2.38    0.11
   3  -3   1    2.40    0.15
   3  -3   1    2.31    0.16
   3  -3   1    2.41    0.17
   3  -3   1    2.46    0.12
   3  -3   1    2.36    0.16
   3  -3   1    2.59    0.21
  -4   3  -1   74.18    1.85
  -4   3  -1   78.89    1.80
  -4   3  -1   78.35    1.75
  -4   3  -1   75.10    1.80
   4  -3   1   77.51    1.77
   4  -3   1   76.94    1.84
   4  -3   1   77.37    1.93
   4  -3   1   76.35    1.87
   4  -3   1   74.86    1.85
   4  -3   1   77.86    1.77
  -5   3  -1    1.50    0.13
  -5   3  -1    1.34    0.14
  -5   3  -1    1.41    0.17
   5  -3   1    1.69    0.13
   5  -3   1    1.50    0.21
   5  -3   1    1.00    0.20
   5  -3   1    1.85    0.30
  -6   3  -1   20.18    0.59
  -6   3  -1   21.83    0.62
  -6   3  -1   20.29    0.66
   6  -3   1   20.24    0.69
   6  -3   1   20.69    0.78
   6  -3   1   20.58    0.70
  -7   3  -1    0.23    0.14
  -7   3  -1    0.01    0.13
  -7   3  -1    0.08    0.18
   7  -3   1    0.16    0.22
   7  -3   1    0.28    0.35
  -8   3  -1    4.72    0.33
  -8   3  -1    5.54    0.35
  -8   3  -1    4.17    0.36
   8  -3   1    5.46    0.54
   8  -3   1    4.49    0.52
   8  -3   1    4.26    0.46
  -9   3  -1   -0.28    0.17
  -9   3  -1    0.14    0.23
   9  -3   1    0.62    0.38
   9  -3   1   -0.06    0.28
   9   2  -1    5.40    0.57
   9   2  -1    5.04    0.49
  -9  -2   1    5.20    0.43
  -9  -2   1    5.38    0.55
  -9  -2   1    5.39    0.48
   8   2  -1   -0.04    0.22
   8   2  -1    0.26    0.22
   8   2  -1   -0.27    0.26
   8   2  -1    0.14    0.18
  -8  -2   1    0.20    0.22
  -8  -2   1   -0.33    0.20
  -8  -2   1   -0.20    0.18
   7   2  -1    6.84    0.40
   7   2  -1    7.53    0.44
   7   2  -1    6.51    0.35
   7   2  -1    6.23    0.47
  -7  -2   1    6.16    0.39
  -7  -2   1    7.16    0.38
  -7  -2   1    7.21    0.39
   6   2  -1    0.57    0.13
   6   2  -1    0.30    0.14
   6   2  -1    0.27    0.16
   6   2  -1    0.61    0.18
   6   2  -1    0.36    0.21
  -6  -2   1    0.18    0.14
  -6  -2   1    0.10    0.15
  -6  -2   1    0.43    0.16
   5   2  -1   62.77    1.69
   5   2  -1   65.31    1.65
   5   2  -1   64.45    1.59
   5   2  -1   60.92    1.63
   5   2  -1   64.67    1.62
   5   2  -1   65.93    1.54
  -5  -2   1   65.10    1.62
  -5  -2   1   65.16    1.60
  -5  -2   1   64.65    1.62
   4   2  -1   -0.03    0.10
   4   2  -1    0.00    0.08
   4   2  -1   -0.04    0.13
   4   2  -1   -0.04    0.08
   4   2  -1   -0.05    0.09
  -4  -2   1   -0.20    0.09
  -4  -2   1    0.04    0.09
  -4  -2   1   -0.01    0.08
   3   2  -1  209.76    4.81
   3   2  -1  208.99    4.88
   3   2  -1  209.79    4.84
   3   2  -1  218.11    4.83
  -3  -2   1  214.10    4.83
  -3  -2   1  208.59    4.84
  -3  -2   1  209.19    4.84
   2   2  -1    0.09    0.09
   2   2  -1   -0.02    0.07
   2   2  -1   -0.01    0.06
   2   2  -1   -0.08    0.06
   2   2  -1   -0.15    0.05
  -2  -2   1   -0.03    0.06
  -2  -2   1   -0.05    0.09
  -2  -2   1    0.05    0.05
  -2  -2   1    0.00    0.06
  -2  -2   1    0.03    0.07
   1   2  -1  296.54    6.63
   1   2  -1  277.39    6.62
   1   2  -1  293.17    6.74
   1   2  -1  285.56    6.63
   1   2  -1  294.86    6.68
  -1  -2   1  291.87    6.61
  -1  -2   1  290.82    6.72
  -1  -2   1  297.28    6.61
  -1  -2   1  301.41    6.67
  -1  -2   1  300.66    6.71
   0   2  -1    0.41    0.07
   0   2  -1    0.43    0.07
   0   2  -1    0.41    0.05
   0   2  -1    0.54    0.10
   0  -2   1    0.40    0.07
   0  -2   1    0.48    0.06
   0  -2   1    0.39    0.07
   0  -2   1    0.46    0.08
   0  -2   1    0.55    0.07
  -1   2  -1  238.97    5.73
  -1   2  -1  252.91    5.77
  -1   2  -1  254.82    5.78
   1  -2   1  250.55    5.68
   1  -2   1  254.04    5.76
   1  -2   1  255.87    5.75
   1  -2   1  251.75    5.76
   1  -2   1  255.86    5.68
  -2   2  -1   14.48    0.38
  -2   2  -1   14.94    0.38
  -2   2  -1   14.91    0.38
   2  -2   1   14.95    0.37
   2  -2   1   14.74    0.43
   2  -2   1   14.29    0.40
   2  -2   1   14.66    0.39
   2  -2   1   15.26    0.38
   2  -2   1   14.99    0.41
   2  -2   1   14.59    0.41
  -3   2  -1  112.59    2.58
  -3   2  -1  110.25    2.55
  -3   2  -1  116.51    2.63
  -3   2  -1  112.95    2.58
   3  -2   1  112.92    2.63
   3  -2   1  112.65    2.62
   3  -2   1  112.70    2.67
   3  -2   1  110.58    2.62
   3  -2   1  114.60    2.56
   3  -2   1  113.35    2.58
  -4   2  -1    3.19    0.15
  -4   2  -1    3.14    0.15
  -4   2  -1    3.55    0.19
   4  -2   1    3.28    0.27
   4  -2   1    3.53    0.21
   4  -2   1    3.14    0.16
   4  -2   1    2.88    0.21
   4  -2   1    3.26    0.13
  -5   2  -1   22.87    0.66
  -5   2  -1   21.83    0.60
  -5   2  -1   23.23    0.61
   5  -2   1   22.52    0.56
   5  -2   1   21.57    0.73
   5  -2   1   22.51    0.68
   5  -2   1   21.67    0.72
  -6   2  -1    0.01    0.08
  -6   2  -1    0.13    0.13
  -6   2  -1    0.17    0.10
   6  -2   1   -0.02    0.09
   6  -2   1   -0.04    0.16
   6  -2   1    0.05    0.17
   6  -2   1   -0.02    0.15
  -7   2  -1   11.64    0.43
  -7   2  -1   12.34    0.44
  -7   2  -1   11.72    0.48
   7  -2   1   12.16    0.57
   7  -2   1   11.77    0.63
   7  -2   1   11.49    0.55
  -8   2  -1    0.45    0.18
  -8   2  -1    0.05    0.19
  -8   2  -1    0.28    0.16
   8  -2   1    0.20    0.26
   8  -2   1    0.06    0.30
  -9   2  -1    3.69    0.41
  -9   2  -1    4.33    0.38
  -9   2  -1    4.12    0.43
   9  -2   1    3.47    0.50
   9  -2   1    2.98    0.44
   9   1  -1    0.38    0.31
   9   1  -1    0.26    0.51
   9   1  -1    0.17    0.26
  -9  -1   1    0.15    0.29
  -9  -1   1    0.17    0.20
  -9  -1   1    0.21    0.26
   8   1  -1   10.17    0.57
   8   1  -1    8.64    0.47
   8   1  -1    8.26    0.59
  -8  -1   1    8.26    0.48
  -8  -1   1    9.00    0.49
  -8  -1   1    8.75    0.48
   7   1  -1    0.45    0.14
   7   1  -1    0.27    0.23
   7   1  -1    0.60    0.18
   7   1  -1    0.39    0.21
  -7  -1   1    0.37    0.17
  -7  -1   1    0.29    0.15
  -7  -1   1    0.47    0.18
   6   1  -1   33.30    1.07
   6   1  -1   33.64    1.04
   6   1  -1   34.16    0.83
   6   1  -1   35.03    0.97
   6   1  -1   34.09    0.94
  -6  -1   1   35.27    0.98
  -6  -1   1   36.38    0.97
  -6  -1   1   37.24    0.99
   5   1  -1    0.07    0.15
   5   1  -1    0.14    0.10
   5   1  -1   -0.11    0.13
   5   1  -1   -0.07    0.07
   5   1  -1   -0.11    0.09
  -5  -1   1    0.04    0.10
  -5  -1   1    0.03    0.09
  -5  -1   1    0.01    0.10
   4   1  -1   39.06    1.04
   4   1  -1   38.32    1.00
   4   1  -1   38.33    1.06
   4   1  -1   38.55    0.92
   4   1  -1   37.51    0.97
  -4  -1   1   39.97    0.98
  -4  -1   1   39.09    0.99
  -4  -1   1   38.32    0.99
   3   1  -1   -0.10    0.06
   3   1  -1    0.04    0.09
   3   1  -1    0.10    0.12
   3   1  -1   -0.02    0.06
   3   1  -1    0.15    0.09
  -3  -1   1   -0.04    0.07
  -3  -1   1   -0.09    0.07
  -3  -1   1    0.06    0.07
   2   1  -1  981.19   22.06
   2   1  -1  974.55   22.08
   2   1  -1  949.29   22.22
   2   1  -1  954.05   22.23
   2   1  -1  966.14   22.13
  -2  -1   1 1000.00   22.13
  -2  -1   1  977.95   22.20
  -2  -1   1  998.49   22.16
   1   1  -1    0.43    0.09
   1   1  -1    0.47    0.07
   1   1  -1    0.47    0.08
   1   1  -1    0.40    0.07
   1   1  -1    0.40    0.09
  -1  -1   1    0.44    0.10
  -1  -1   1    0.56    0.08
  -1  -1   1    0.43    0.08
  -1  -1   1    0.56    0.08
  -1  -1   1    0.41    0.05
   0   1  -1  243.26    5.65
   0   1  -1  248.50    5.55
   0   1  -1  243.25    5.65
   0  -1   1  237.69    5.66
   0  -1   1  246.04    5.63
   0  -1   1  246.28    5.67
  -1   1  -1   14.53    0.36
  -1   1  -1   14.37    0.36
  -1   1  -1   14.85    0.36
   1  -1   1   14.89    0.38
   1  -1   1   14.32    0.37
   1  -1   1   14.69    0.37
   1  -1   1   14.49    0.36
   1  -1   1   14.80    0.36
  -2   1  -1   85.09    1.96
  -2   1  -1   86.19    1.93
  -2   1  -1   85.68    1.96
  -2   1  -1   86.58    1.98
   2  -1   1   87.21    1.98
   2  -1   1   87.13    2.00
   2  -1   1   84.55    1.98
   2  -1   1   83.73    2.00
   2  -1   1   86.04    1.98
   2  -1   1   83.41    1.96
  -3   1  -1    6.07    0.20
  -3   1  -1    6.39    0.23
   3  -1   1    6.66    0.27
   3  -1   1    6.25    0.17
   3  -1   1    6.32    0.21
  -4   1  -1  129.25    2.96
  -4   1  -1  133.72    3.00
  -4   1  -1  125.93    2.96
   4  -1   1  126.80    2.92
   4  -1   1  134.12    3.06
   4  -1   1  128.65    3.02
   4  -1   1  123.18    2.99
   4  -1   1  129.89    3.05
  -5   1  -1    0.59    0.09
  -5   1  -1    0.64    0.12
   5  -1   1    0.51    0.16
   5  -1   1    0.60    0.11
   5  -1   1    0.59    0.14
   5  -1   1    0.67    0.13
   5  -1   1    0.52    0.17
  -6   1  -1   28.59    0.82
  -6   1  -1   29.68    0.81
  -6   1  -1   27.88    0.78
   6  -1   1   27.80    0.72
   6  -1   1   29.29    0.77
   6  -1   1   29.84    0.87
   6  -1   1   28.40    0.92
   6  -1   1   27.93    0.90
  -7   1  -1    0.40    0.14
  -7   1  -1    0.06    0.18
  -7   1  -1    0.44    0.14
   7  -1   1    0.07    0.23
   7  -1   1    0.30    0.12
   7  -1   1    0.37    0.22
   7  -1   1    0.54    0.14
  -8   1  -1    3.53    0.43
  -8   1  -1    3.99    0.33
  -8   1  -1    3.84    0.32
   8  -1   1    3.56    0.46
   8  -1   1    3.28    0.44
  -9   1  -1    0.03    0.18
  -9   1  -1    0.59    0.24
  -9   1  -1   -0.15    0.22
   9  -1   1   -0.03    0.31
   9  -1   1    0.09    0.26
 -10   1  -1    3.27    0.43
 -10   1  -1    4.04    0.49
 -10   1  -1    3.32    0.48
  10  -1   1    3.18    0.53
   9   0  -1    4.90    0.50
   9   0  -1    4.30    0.57
  -9   0   1    4.64    0.42
  -9   0   1    3.97    0.47
  -9   0   1    4.29    0.51
   8   0  -1    0.31    0.21
   8   0  -1    0.42    0.30
   8   0  -1    0.42    0.26
  -8   0   1    0.80    0.22
  -8   0   1    0.33    0.20
  -8   0   1    0.40    0.21
   7   0  -1    8.33    0.39
   7   0  -1    8.59    0.51
   7   0  -1    7.72    0.48
  -7   0   1    8.66    0.40
  -7   0   1    9.17    0.41
  -7   0   1    8.16    0.40
   6   0  -1    1.84    0.28
   6   0  -1    2.10    0.27
   6   0  -1    2.08    0.22
   6   0  -1    1.77    0.17
  -6   0   1    1.59    0.21
  -6   0   1    1.75    0.20
  -6   0   1    1.83    0.24
   5   0  -1   51.54    1.29
   5   0  -1   52.21    1.41
   5   0  -1   51.67    1.40
   5   0  -1   51.13    1.27
  -5   0   1   53.58    1.31
  -5   0   1   51.69    1.29
  -5   0   1   53.68    1.30
   4   0  -1    0.00    0.08
   4   0  -1    0.02    0.07
   4   0  -1   -0.10    0.10
   4   0  -1    0.06    0.04
   4   0  -1   -0.10    0.12
   4   0  -1    0.07    0.09
  -4   0   1    0.02    0.06
  -4   0   1   -0.05    0.06
  -4   0   1   -0.17    0.06
   3   0  -1  228.06    4.99
   3   0  -1  224.26    4.96
   3   0  -1  221.47    4.94
   3   0  -1  202.32    5.09
  -3   0   1  224.23    4.97
  -3   0   1  229.51    4.98
  -3   0   1  205.93    5.01
   2   0  -1    0.72    0.09
   2   0  -1    0.63    0.09
   2   0  -1    0.75    0.11
   2   0  -1    0.64    0.07
   2   0  -1    0.45    0.06
   2   0  -1    0.70    0.10
   2   0  -1    0.79    0.08
  -2   0   1    0.65    0.07
  -2   0   1    0.54    0.07
  -2   0   1    0.68    0.09
  -2   0   1    0.68    0.07
   1   0  -1  188.87    4.40
   1   0  -1  200.63    4.46
   1   0  -1  183.78    4.31
   1   0  -1  194.03    4.32
   1   0  -1  192.91    4.34
  -1   0   1  180.02    4.29
  -1   0   1  196.50    4.34
  -1   0   1  188.05    4.31
  -1   0   1  188.04    4.31
  -1   0  -1  258.37    6.21
  -1   0  -1  267.61    6.14
  -1   0  -1  259.56    6.12
   1   0   1  282.36    6.20
  -2   0  -1   23.67    0.59
  -2   0  -1   23.37    0.57
  -2   0  -1   22.70    0.57
   2   0   1   22.90    0.60
   2   0   1   23.09    0.58
   2   0   1   24.24    0.59
   2   0   1   22.67    0.57
  -3   0  -1  238.79    5.49
  -3   0  -1  249.08    5.52
  -3   0  -1  246.22    5.50
   3   0   1  246.98    5.48
   3   0   1  232.11    5.57
   3   0   1  244.03    5.54
   3   0   1  240.38    5.53
   3   0   1  247.58    5.50
   3   0   1  242.10    5.50
  -4   0  -1    0.09    0.07
  -4   0  -1    0.14    0.09
   4   0   1    0.09    0.14
   4   0   1   -0.07    0.11
   4   0   1   -0.02    0.09
   4   0   1    0.03    0.06
  -5   0  -1   61.92    1.51
  -5   0  -1   62.48    1.51
  -5   0  -1   63.34    1.54
   5   0   1   61.39    1.60
   5   0   1   62.77    1.47
   5   0   1   63.27    1.58
   5   0   1   60.24    1.63
   5   0   1   63.64    1.53
  -6   0  -1   -0.11    0.10
  -6   0  -1    0.36    0.13
  -6   0  -1   -0.11    0.10
   6   0   1    0.05    0.10
   6   0   1    0.10    0.18
   6   0   1    0.24    0.14
   6   0   1    0.17    0.15
  -7   0  -1   22.56    0.72
  -7   0  -1   22.22    0.68
   7   0   1   21.52    0.81
   7   0   1   20.33    0.80
   7   0   1   22.38    0.66
   7   0   1   21.27    0.61
  -8   0  -1   -0.20    0.19
  -8   0  -1   -0.34    0.17
  -8   0  -1    0.00    0.16
   8   0   1    0.25    0.33
   8   0   1    0.43    0.24
   8   0   1    0.08    0.17
   8   0   1    0.35    0.24
  -9   0  -1    5.78    0.48
  -9   0  -1    5.69    0.42
   9   0   1    5.67    0.56
   9   0   1    4.97    0.51
 -10   0  -1    0.01    0.28
 -10   0  -1    0.81    0.38
 -10   0  -1    0.19    0.24
  10   0   1   -0.10    0.28
  10   0   1    0.10    0.36
   9  -1  -1   -0.24    0.34
   9  -1  -1   -0.08    0.26
  -9   1   1    0.34    0.21
  -9   1   1    0.30    0.26
   8  -1  -1    5.10    0.52
   8  -1  -1    4.78    0.46
   8  -1  -1    5.29    0.37
  -8   1   1    4.95    0.36
  -8   1   1    5.74    0.39
  -8   1   1    4.82    0.39
   7  -1  -1   -0.36    0.20
   7  -1  -1    0.00    0.13
   7  -1  -1    0.00    0.20
  -7   1   1   -0.05    0.14
  -7   1   1    0.19    0.13
  -7   1   1   -0.04    0.16
   6  -1  -1   45.49    1.17
   6  -1  -1   46.30    1.32
   6  -1  -1   47.43    1.28
   6  -1  -1   46.10    1.33
  -6   1   1   45.39    1.21
  -6   1   1   46.65    1.19
  -6   1   1   46.95    1.19
   5  -1  -1    1.68    0.21
   5  -1  -1    2.33    0.26
   5  -1  -1    2.41    0.23
   5  -1  -1    2.29    0.17
  -5   1   1    2.07    0.17
  -5   1   1    2.09    0.21
  -5   1   1    2.11    0.15
  -5   1   1    2.27    0.20
   4  -1  -1   13.23    0.33
   4  -1  -1   13.27    0.39
   4  -1  -1   13.44    0.46
   4  -1  -1   13.06    0.44
  -4   1   1   12.56    0.39
  -4   1   1   13.05    0.40
  -4   1   1   13.11    0.37
  -4   1   1   13.46    0.37
   3  -1  -1   -0.02    0.08
   3  -1  -1    0.00    0.15
   3  -1  -1    0.00    0.07
   3  -1  -1   -0.06    0.10
   3  -1  -1    0.01    0.06
  -3   1   1   -0.07    0.06
  -3   1   1    0.05    0.06
  -3   1   1   -0.10    0.04
   2  -1  -1  119.05    2.83
   2  -1  -1  122.06    2.77
   2  -1  -1  121.87    2.79
   2  -1  -1  122.49    2.77
   2  -1  -1  119.91    2.80
  -2   1   1  120.86    2.75
  -2   1   1  121.79    2.75
  -2   1   1  125.04    2.77
  -2   1   1  122.31    2.75
   1  -1  -1    8.16    0.23
   1  -1  -1    8.15    0.23
   1  -1  -1    8.14    0.23
   1  -1  -1    8.16    0.24
  -1  -1  -1    1.20    0.06
  -1  -1  -1    1.21    0.06
  -1  -1  -1    1.18    0.07
  -1  -1  -1    1.20    0.08
   1   1   1    1.09    0.06
  -2  -1  -1  278.02    6.34
  -2  -1  -1  283.89    6.44
  -2  -1  -1  278.84    6.32
   2   1   1  276.14    6.38
   2   1   1  285.54    6.35
   2   1   1  284.06    6.34
   2   1   1  273.23    6.31
  -3  -1  -1    7.32    0.26
  -3  -1  -1    7.29    0.24
  -3  -1  -1    7.56    0.24
   3   1   1    7.79    0.22
   3   1   1    7.23    0.27
   3   1   1    7.10    0.25
   3   1   1    7.28    0.26
  -4  -1  -1  110.88    2.59
  -4  -1  -1  107.13    2.57
  -4  -1  -1  107.78    2.57
   4   1   1  110.18    2.58
   4   1   1  109.36    2.51
   4   1   1  114.89    2.58
   4   1   1  112.46    2.62
  -5  -1  -1    0.01    0.10
  -5  -1  -1    0.21    0.08
  -5  -1  -1    0.05    0.08
   5   1   1    0.18    0.16
   5   1   1    0.03    0.13
   5   1   1    0.10    0.10
   5   1   1    0.21    0.10
   5   1   1    0.19    0.13
  -6  -1  -1   73.26    1.83
  -6  -1  -1   75.31    1.85
   6   1   1   73.62    1.80
   6   1   1   75.71    1.91
   6   1   1   74.68    1.97
   6   1   1   73.90    1.91
  -7  -1  -1    0.14    0.16
  -7  -1  -1    0.15    0.14
  -7  -1  -1    0.22    0.14
   7   1   1    0.41    0.14
   7   1   1    0.27    0.15
   7   1   1   -0.20    0.20
   7   1   1    0.00    0.17
  -8  -1  -1    6.04    0.38
  -8  -1  -1    6.25    0.42
  -8  -1  -1    4.83    0.46
   8   1   1    4.63    0.47
   8   1   1    6.39    0.52
   8   1   1    5.78    0.35
  -9  -1  -1   -0.15    0.24
  -9  -1  -1    0.10    0.25
  -9  -1  -1   -0.14    0.19
   9   1   1    0.34    0.26
   9   1   1    0.09    0.21
   9   1   1    0.40    0.34
 -10  -1  -1    2.22    0.40
 -10  -1  -1    2.15    0.35
 -10  -1  -1    2.86    0.45
  10   1   1    1.62    0.33
  10   1   1    2.02    0.44
   9  -2  -1    3.93    0.52
   9  -2  -1    4.31    0.59
  -9   2   1    3.43    0.43
  -9   2   1    4.38    0.39
   8  -2  -1    0.56    0.32
   8  -2  -1   -0.05    0.22
  -8   2   1    0.40    0.21
  -8   2   1    0.09    0.17
  -8   2   1    0.24    0.22
   7  -2  -1    7.01    0.54
   7  -2  -1    6.78    0.46
   7  -2  -1    7.67    0.37
  -7   2   1    7.35    0.36
  -7   2   1    7.32    0.34
   6  -2  -1   -0.27    0.16
   6  -2  -1    0.09    0.15
   6  -2  -1   -0.01    0.12
   6  -2  -1    0.05    0.19
  -6   2   1   -0.01    0.10
  -6   2   1   -0.07    0.11
   5  -2  -1   41.49    1.14
   5  -2  -1   41.30    1.19
   5  -2  -1   41.34    1.03
   5  -2  -1   40.24    1.11
  -5   2   1   40.63    1.04
  -5   2   1   42.17    1.07
  -5   2   1   42.89    1.03
   4  -2  -1    0.45    0.13
   4  -2  -1    0.55    0.09
   4  -2  -1    0.59    0.11
   4  -2  -1    0.50    0.15
   4  -2  -1    0.51    0.12
  -4   2   1    0.55    0.08
  -4   2   1    0.49    0.10
  -4   2   1    0.44    0.07
  -4   2   1    0.49    0.07
   3  -2  -1   94.61    2.15
   3  -2  -1   95.99    2.19
   3  -2  -1   93.62    2.25
   3  -2  -1   83.99    2.25
  -3   2   1   91.97    2.12
  -3   2   1   90.65    2.11
  -3   2   1   95.73    2.11
  -3   2   1   95.14    2.16
   2  -2  -1    0.14    0.05
   2  -2  -1    0.10    0.06
   2  -2  -1    0.22    0.06
   2  -2  -1    0.09    0.06
  -2   2   1    0.12    0.03
   1  -2  -1   46.65    1.11
   1  -2  -1   47.37    1.10
   1  -2  -1   46.25    1.13
   1  -2  -1   46.97    1.10
   1  -2  -1   47.71    1.11
   0  -2  -1    4.73    0.13
   0  -2  -1    4.82    0.16
   0  -2  -1    4.86    0.15
   0  -2  -1    4.72    0.17
   0  -2  -1    4.80    0.16
   0   2   1    4.64    0.14
   0   2   1    4.54    0.14
   0   2   1    4.74    0.14
  -1  -2  -1  410.56    9.25
  -1  -2  -1  405.58    9.19
  -1  -2  -1  405.04    9.25
  -1  -2  -1  390.08    9.28
   1   2   1  411.53    9.23
   1   2   1  408.86    9.27
   1   2   1  403.09    9.29
  -2  -2  -1    3.53    0.17
  -2  -2  -1    3.36    0.19
  -2  -2  -1    3.51    0.17
   2   2   1    3.58    0.14
   2   2   1    3.42    0.15
  -3  -2  -1  212.65    4.88
  -3  -2  -1  210.07    4.86
  -3  -2  -1  217.15    4.93
   3   2   1  215.07    4.84
   3   2   1  214.88    4.86
   3   2   1  206.59    4.86
   3   2   1  214.89    4.86
  -4  -2  -1    0.15    0.08
  -4  -2  -1    0.04    0.09
  -4  -2  -1    0.04    0.11
   4   2   1    0.05    0.10
   4   2   1    0.22    0.10
   4   2   1    0.30    0.10
   4   2   1    0.19    0.10
  -5  -2  -1   20.58    0.61
  -5  -2  -1   19.93    0.60
  -5  -2  -1   20.28    0.60
   5   2   1   20.96    0.61
   5   2   1   19.40    0.76
   5   2   1   20.12    0.66
   5   2   1   20.47    0.54
  -6  -2  -1    0.16    0.12
  -6  -2  -1    0.18    0.12
  -6  -2  -1    0.26    0.16
   6   2   1    0.26    0.14
   6   2   1    0.66    0.20
   6   2   1    0.40    0.21
   6   2   1    0.23    0.14
   6   2   1    0.24    0.10
  -7  -2  -1   22.50    0.72
  -7  -2  -1   20.71    0.71
  -7  -2  -1   21.84    0.73
   7   2   1   22.70    0.84
   7   2   1   20.65    0.68
   7   2   1   21.62    0.70
   7   2   1   22.47    0.76
  -8  -2  -1    0.36    0.18
  -8  -2  -1    0.13    0.24
  -8  -2  -1    0.30    0.22
   8   2   1   -0.41    0.18
   8   2   1    0.04    0.17
   8   2   1   -0.14    0.21
   8   2   1    0.20    0.32
  -9  -2  -1    7.05    0.53
  -9  -2  -1    6.71    0.49
  -9  -2  -1    7.17    0.52
   9   2   1    6.12    0.49
   9   2   1    6.86    0.54
   9   2   1    6.54    0.58
 -10  -2  -1   -0.62    0.37
 -10  -2  -1    0.20    0.28
 -10  -2  -1   -0.43    0.32
  10   2   1    0.10    0.27
  10   2   1    0.18    0.34
  10   2   1   -0.32    0.29
   9  -3  -1   -0.12    0.35
   9  -3  -1    0.25    0.31
  -9   3   1    0.17    0.25
  -9   3   1    0.06    0.19
   8  -3  -1    3.18    0.42
   8  -3  -1    2.57    0.40
   8  -3  -1    3.04    0.42
  -8   3   1    3.68    0.32
  -8   3   1    2.92    0.34
   7  -3  -1    0.52    0.26
   7  -3  -1    0.40    0.25
   7  -3  -1    0.45    0.18
   7  -3  -1    0.53    0.23
  -7   3   1    0.47    0.24
  -7   3   1    0.62    0.16
  -7   3   1    0.30    0.17
   6  -3  -1   27.55    0.77
   6  -3  -1   28.76    0.90
  -6   3   1   30.21    0.98
  -6   3   1   29.31    0.78
   5  -3  -1    0.10    0.10
   5  -3  -1   -0.07    0.12
   5  -3  -1   -0.12    0.17
   5  -3  -1   -0.12    0.11
   5  -3  -1    0.01    0.13
  -5   3   1    0.11    0.08
  -5   3   1   -0.09    0.06
  -5   3   1   -0.11    0.09
  -5   3   1   -0.02    0.08
   4  -3  -1   52.40    1.33
   4  -3  -1   52.54    1.33
   4  -3  -1   53.36    1.31
   4  -3  -1   51.87    1.26
   4  -3  -1   52.16    1.41
  -4   3   1   52.59    1.24
  -4   3   1   50.27    1.23
  -4   3   1   53.02    1.30
  -4   3   1   53.02    1.23
  -4   3   1   52.64    1.23
   3  -3  -1    0.08    0.09
   3  -3  -1    0.09    0.07
   3  -3  -1    0.12    0.08
   3  -3  -1    0.06    0.08
   3  -3  -1    0.07    0.18
  -3   3   1    0.08    0.04
  -3   3   1    0.06    0.06
  -3   3   1    0.04    0.04
  -3   3   1    0.06    0.07
  -3   3   1    0.12    0.04
   2  -3  -1  130.74    3.08
   2  -3  -1  129.71    2.99
   2  -3  -1  132.93    3.00
   2  -3  -1  128.98    3.02
  -2   3   1  131.87    2.94
  -2   3   1  130.77    2.94
  -2   3   1  128.62    2.94
  -2   3   1  131.26    2.99
   1  -3  -1   18.61    0.49
   1  -3  -1   18.35    0.51
   1  -3  -1   18.66    0.49
   1  -3  -1   19.13    0.47
   1  -3  -1   19.33    0.50
  -1   3   1   18.62    0.54
  -1   3   1   19.49    0.44
  -1   3   1   18.83    0.45
  -1   3   1   18.25    0.45
   0  -3  -1  278.34    6.19
   0  -3  -1  282.24    6.19
   0  -3  -1  253.37    6.05
   0  -3  -1  262.46    6.07
   0  -3  -1  269.40    6.08
   0  -3  -1  274.87    6.11
   0  -3  -1  271.14    6.08
   0   3   1  263.42    6.14
   0   3   1  260.95    6.08
   0   3   1  263.05    6.09
   0   3   1  270.13    6.06
  -1  -3  -1    4.05    0.16
  -1  -3  -1    3.89    0.24
  -1  -3  -1    4.48    0.13
  -1  -3  -1    4.10    0.16
   1   3   1    4.24    0.17
   1   3   1    4.03    0.17
  -2  -3  -1  173.85    4.02
  -2  -3  -1  171.60    4.03
  -2  -3  -1  168.39    4.02
  -2  -3  -1  178.83    4.00
   2   3   1  180.97    3.96
   2   3   1  180.98    4.01
   2   3   1  177.52    4.01
   2   3   1  169.06    4.01
  -3  -3  -1    1.57    0.16
  -3  -3  -1    1.87    0.18
  -3  -3  -1    1.77    0.16
   3   3   1    1.97    0.16
   3   3   1    1.83    0.13
   3   3   1    2.03    0.17
  -4  -3  -1   14.97    0.49
  -4  -3  -1   15.32    0.49
  -4  -3  -1   15.44    0.51
   4   3   1   16.01    0.47
   4   3   1   15.37    0.47
   4   3   1   15.98    0.50
   4   3   1   14.70    0.49
  -5  -3  -1    0.32    0.12
  -5  -3  -1    0.20    0.10
  -5  -3  -1    0.28    0.14
   5   3   1   -0.02    0.15
   5   3   1    0.36    0.13
   5   3   1    0.37    0.13
   5   3   1    0.35    0.12
   5   3   1    0.30    0.11
  -6  -3  -1   40.44    1.13
  -6  -3  -1   38.10    1.11
  -6  -3  -1   40.04    1.12
   6   3   1   39.94    1.11
   6   3   1   40.91    1.03
   6   3   1   40.42    1.20
   6   3   1   40.28    1.11
   6   3   1   42.88    1.11
  -7  -3  -1    0.37    0.16
  -7  -3  -1    0.31    0.16
  -7  -3  -1    0.08    0.19
   7   3   1    0.19    0.16
   7   3   1    0.31    0.14
   7   3   1    0.31    0.22
   7   3   1   -0.04    0.17
  -8  -3  -1    5.61    0.42
  -8  -3  -1    5.19    0.43
  -8  -3  -1    5.46    0.44
   8   3   1    6.27    0.43
   8   3   1    5.25    0.38
   8   3   1    5.32    0.40
  -9  -3  -1    0.04    0.21
  -9  -3  -1   -0.16    0.27
  -9  -3  -1    0.02    0.29
   9   3   1    0.11    0.23
   9   3   1   -0.08    0.26
   9   3   1    0.00    0.29
   9   3   1   -0.04    0.24
 -10  -3  -1    1.87    0.35
 -10  -3  -1    2.38    0.41
 -10  -3  -1    1.17    0.37
  10   3   1    2.09    0.33
  10   3   1    1.53    0.40
  10   3   1    1.55    0.32
   8  -4  -1    0.21    0.27
   8  -4  -1    0.15    0.27
   8  -4  -1    0.47    0.30
  -8   4   1    0.21    0.20
  -8   4   1    0.22    0.16
   7  -4  -1    5.31    0.52
   7  -4  -1    6.22    0.46
   7  -4  -1    6.00    0.45
  -7   4   1    6.45    0.31
   6  -4  -1    0.40    0.14
   6  -4  -1    0.14    0.22
   6  -4  -1    0.00    0.16
   6  -4  -1   -0.07    0.17
  -6   4   1    0.12    0.14
  -6   4   1   -0.01    0.12
  -6   4   1    0.04    0.08
   5  -4  -1   20.09    0.58
   5  -4  -1   20.17    0.64
   5  -4  -1   20.83    0.68
   5  -4  -1   20.87    0.76
   5  -4  -1   20.31    0.65
  -5   4   1   20.43    0.55
  -5   4   1   19.77    0.54
  -5   4   1   21.53    0.63
  -5   4   1   20.81    0.55
   4  -4  -1    0.71    0.13
   4  -4  -1    0.52    0.14
   4  -4  -1    0.69    0.13
   4  -4  -1    0.58    0.19
   4  -4  -1    0.55    0.11
  -4   4   1    0.67    0.07
  -4   4   1    0.68    0.11
  -4   4   1    0.78    0.08
  -4   4   1    0.78    0.09
  -4   4   1    0.43    0.11
   3  -4  -1  170.21    3.91
   3  -4  -1  169.35    3.87
   3  -4  -1  161.81    3.96
   3  -4  -1  165.13    3.89
   3  -4  -1  170.39    3.86
  -3   4   1  166.86    3.81
  -3   4   1  172.16    3.81
  -3   4   1  166.93    3.87
  -3   4   1  171.22    3.80
   2  -4  -1    0.07    0.12
   2  -4  -1    0.00    0.07
   2  -4  -1    0.13    0.07
   2  -4  -1   -0.03    0.06
   2  -4  -1    0.00    0.07
  -2   4   1    0.03    0.08
  -2   4   1    0.05    0.03
  -2   4   1    0.06    0.04
   1  -4  -1  126.07    2.81
   1  -4  -1  119.50    2.82
   1  -4  -1  123.24    2.78
   1  -4  -1  118.47    2.81
   1  -4  -1  116.43    2.82
  -1   4   1  122.87    2.77
  -1   4   1  120.45    2.77
  -1   4   1  125.60    2.75
  -1   4   1  122.28    2.83
   0  -4  -1   18.32    0.44
   0  -4  -1   18.49    0.49
   0  -4  -1   18.02    0.50
   0  -4  -1   18.11    0.45
   0  -4  -1   18.16    0.49
   0  -4  -1   17.75    0.45
   0   4   1   16.72    0.48
   0   4   1   17.19    0.48
   0   4   1   17.83    0.51
   0   4   1   18.80    0.46
  -1  -4  -1   73.33    1.68
  -1  -4  -1   74.57    1.75
  -1  -4  -1   75.21    1.74
  -1  -4  -1   72.85    1.72
  -1  -4  -1   75.53    1.72
   1   4   1   72.03    1.75
   1   4   1   73.58    1.75
  -2  -4  -1    5.97    0.21
  -2  -4  -1    6.06    0.25
  -2  -4  -1    5.58    0.30
  -2  -4  -1    5.47    0.24
  -2  -4  -1    6.20    0.23
   2   4   1    5.83    0.17
   2   4   1    6.23    0.25
   2   4   1    6.01    0.30
   2   4   1    5.95    0.26
  -3  -4  -1  194.99    4.61
  -3  -4  -1  200.71    4.57
  -3  -4  -1  197.02    4.61
   3   4   1  202.02    4.53
   3   4   1  197.28    4.63
   3   4   1  207.06    4.62
   3   4   1  196.69    4.60
  -4  -4  -1    0.32    0.12
  -4  -4  -1    0.34    0.10
  -4  -4  -1    0.61    0.15
   4   4   1    0.22    0.09
   4   4   1    0.22    0.12
   4   4   1    0.25    0.11
   4   4   1    0.37    0.11
  -5  -4  -1   31.91    0.91
  -5  -4  -1   30.99    0.90
  -5  -4  -1   30.50    0.90
   5   4   1   33.20    0.87
   5   4   1   31.30    0.89
   5   4   1   32.51    0.87
   5   4   1   32.02    0.91
  -6  -4  -1    0.06    0.17
  -6  -4  -1   -0.03    0.13
  -6  -4  -1    0.03    0.15
   6   4   1   -0.17    0.13
   6   4   1    0.05    0.14
   6   4   1    0.17    0.21
   6   4   1    0.55    0.18
   6   4   1    0.19    0.14
  -7  -4  -1    8.90    0.45
  -7  -4  -1    7.64    0.43
  -7  -4  -1    8.69    0.46
   7   4   1    9.72    0.50
   7   4   1    8.84    0.43
   7   4   1    8.29    0.42
   7   4   1    7.81    0.36
  -8  -4  -1    0.48    0.22
  -8  -4  -1   -0.09    0.22
  -8  -4  -1   -0.06    0.19
   8   4   1   -0.03    0.22
   8   4   1   -0.10    0.19
   8   4   1   -0.44    0.25
   8   4   1   -0.09    0.25
  -9  -4  -1    7.66    0.55
  -9  -4  -1    7.24    0.55
  -9  -4  -1    7.70    0.68
   9   4   1    7.46    0.55
   9   4   1    7.62    0.54
   9   4   1    7.53    0.50
   9   4   1    7.61    0.57
 -10  -4  -1    0.08    0.33
 -10  -4  -1   -0.05    0.29
 -10  -4  -1    0.20    0.28
  10   4   1    0.36    0.44
  10   4   1    0.12    0.27
  10   4   1    0.41    0.28
  10   4   1    0.11    0.35
   8  -5  -1    3.15    0.41
   8  -5  -1    2.17    0.37
   8  -5  -1    2.95    0.47
  -8   5   1    2.67    0.36
  -8   5   1    2.73    0.29
   7  -5  -1    0.11    0.27
   7  -5  -1    0.12    0.21
   7  -5  -1    0.03    0.25
  -7   5   1   -0.12    0.17
   6  -5  -1   12.62    0.45
   6  -5  -1   12.71    0.53
   6  -5  -1   11.97    0.69
   6  -5  -1   13.02    0.52
   6  -5  -1   13.54    0.69
  -6   5   1   13.32    0.51
  -6   5   1   12.34    0.41
   5  -5  -1   -0.08    0.20
   5  -5  -1    0.06    0.12
   5  -5  -1    0.01    0.16
   5  -5  -1    0.20    0.15
   5  -5  -1    0.07    0.14
  -5   5   1    0.07    0.12
  -5   5   1    0.14    0.08
  -5   5   1   -0.15    0.09
  -5   5   1    0.08    0.09
  -5   5   1   -0.03    0.07
   4  -5  -1   29.71    0.87
   4  -5  -1   29.89    0.83
   4  -5  -1   29.16    0.79
   4  -5  -1   29.46    0.94
   4  -5  -1   29.04    0.84
  -4   5   1   30.39    0.74
  -4   5   1   29.47    0.83
  -4   5   1   30.99    0.74
  -4   5   1   29.39    0.80
  -4   5   1   30.03    0.74
   3  -5  -1    0.90    0.13
   3  -5  -1    0.63    0.17
   3  -5  -1    0.81    0.14
   3  -5  -1    0.75    0.12
   3  -5  -1    0.76    0.14
  -3   5   1    0.80    0.14
  -3   5   1    0.83    0.09
  -3   5   1    0.66    0.07
  -3   5   1    0.72    0.08
   2  -5  -1   89.03    2.07
   2  -5  -1   89.10    2.04
   2  -5  -1   85.51    2.12
   2  -5  -1   84.79    2.09
   2  -5  -1   87.16    2.10
  -2   5   1   85.54    2.01
  -2   5   1   87.57    2.11
  -2   5   1   92.00    2.01
   1  -5  -1    0.35    0.08
   1  -5  -1    0.25    0.08
   1  -5  -1    0.36    0.09
   1  -5  -1    0.32    0.09
   1  -5  -1    0.35    0.11
  -1   5   1    0.43    0.07
  -1   5   1    0.36    0.12
  -1   5   1    0.35    0.07
  -1   5   1    0.36    0.06
   0  -5  -1  119.19    2.69
   0  -5  -1  118.38    2.76
   0  -5  -1  117.96    2.70
   0  -5  -1  118.50    2.75
   0  -5  -1  118.59    2.69
   0   5   1  121.38    2.74
   0   5   1  112.30    2.73
   0   5   1  118.69    2.79
  -1  -5  -1    3.23    0.18
  -1  -5  -1    3.70    0.14
  -1  -5  -1    3.64    0.20
  -1  -5  -1    3.40    0.19
  -1  -5  -1    3.35    0.16
  -1  -5  -1    3.45    0.16
   1   5   1    3.56    0.20
   1   5   1    3.18    0.23
   1   5   1    3.58    0.21
  -2  -5  -1  151.59    3.47
  -2  -5  -1  153.32    3.55
  -2  -5  -1  154.16    3.52
  -2  -5  -1  149.69    3.52
   2   5   1  153.45    3.56
   2   5   1  150.89    3.54
  -3  -5  -1    1.41    0.19
  -3  -5  -1    1.26    0.18
  -3  -5  -1    1.42    0.18
  -3  -5  -1    1.55    0.17
  -3  -5  -1    1.47    0.19
   3   5   1    1.54    0.18
   3   5   1    1.31    0.18
   3   5   1    1.21    0.18
   3   5   1    1.35    0.10
  -4  -5  -1   75.34    1.90
  -4  -5  -1   79.05    1.85
  -4  -5  -1   76.72    1.91
  -4  -5  -1   77.64    1.91
   4   5   1   75.67    1.90
   4   5   1   78.57    1.82
   4   5   1   74.58    1.91
   4   5   1   76.60    1.89
  -5  -5  -1    0.85    0.17
  -5  -5  -1    0.77    0.13
  -5  -5  -1    0.52    0.16
  -5  -5  -1    0.63    0.15
   5   5   1    0.47    0.15
   5   5   1    0.50    0.16
   5   5   1    0.91    0.14
   5   5   1    0.55    0.17
  -6  -5  -1   50.08    1.37
  -6  -5  -1   50.26    1.37
  -6  -5  -1   51.37    1.38
   6   5   1   50.24    1.31
   6   5   1   49.91    1.36
   6   5   1   47.35    1.52
   6   5   1   51.34    1.32
   6   5   1   50.79    1.43
  -7  -5  -1   -0.10    0.18
  -7  -5  -1   -0.02    0.15
  -7  -5  -1    0.07    0.16
   7   5   1    0.14    0.18
   7   5   1    0.05    0.17
   7   5   1   -0.16    0.15
   7   5   1    0.16    0.22
   7   5   1   -0.17    0.23
  -8  -5  -1    6.16    0.45
  -8  -5  -1    5.65    0.48
  -8  -5  -1    5.36    0.46
   8   5   1    5.48    0.50
   8   5   1    5.81    0.40
   8   5   1    5.25    0.44
   8   5   1    4.91    0.38
  -9  -5  -1    0.15    0.26
  -9  -5  -1    0.33    0.28
  -9  -5  -1    0.16    0.26
   9   5   1    0.34    0.30
   9   5   1   -0.77    0.32
   9   5   1    0.18    0.27
   9   5   1    0.07    0.25
 -10  -5  -1    1.61    0.36
 -10  -5  -1    1.75    0.37
 -10  -5  -1    2.43    0.62
  10   5   1    1.42    0.31
  10   5   1    1.58    0.35
  10   5   1    1.93    0.46
  10   5   1    1.31    0.36
   8  -6  -1   -0.12    0.30
   8  -6  -1    0.05    0.32
   8  -6  -1    0.00    0.28
  -8   6   1   -0.42    0.21
  -8   6   1   -0.27    0.15
   7  -6  -1    5.07    0.56
   7  -6  -1    5.62    0.49
   7  -6  -1    4.81    0.47
  -7   6   1    6.03    0.39
  -7   6   1    5.31    0.29
   6  -6  -1    0.45    0.31
   6  -6  -1    0.48    0.24
   6  -6  -1    0.45    0.22
   6  -6  -1    0.29    0.21
   6  -6  -1    0.25    0.21
  -6   6   1    0.26    0.11
  -6   6   1    0.54    0.19
   5  -6  -1    9.13    0.40
   5  -6  -1    9.94    0.46
   5  -6  -1    9.33    0.62
   5  -6  -1    9.65    0.60
   5  -6  -1    9.63    0.47
  -5   6   1    9.60    0.42
  -5   6   1   10.13    0.39
   4  -6  -1    0.66    0.17
   4  -6  -1    0.51    0.16
   4  -6  -1    0.44    0.14
   4  -6  -1    0.25    0.21
   4  -6  -1    0.79    0.16
  -4   6   1    0.63    0.20
  -4   6   1    0.65    0.09
  -4   6   1    0.58    0.10
  -4   6   1    0.65    0.09
   3  -6  -1   44.22    1.09
   3  -6  -1   41.91    1.21
   3  -6  -1   44.56    1.16
   3  -6  -1   42.80    1.17
   3  -6  -1   43.53    1.12
  -3   6   1   45.04    1.06
  -3   6   1   42.81    1.15
  -3   6   1   44.78    1.05
  -3   6   1   44.15    1.06
   2  -6  -1    3.59    0.22
   2  -6  -1    3.58    0.25
   2  -6  -1    3.71    0.18
   2  -6  -1    3.43    0.22
   2  -6  -1    3.47    0.22
  -2   6   1    3.65    0.15
  -2   6   1    3.67    0.16
  -2   6   1    3.77    0.25
   1  -6  -1   79.97    1.94
   1  -6  -1   73.92    1.92
   1  -6  -1   78.23    1.95
   1  -6  -1   82.13    1.87
   1  -6  -1   82.18    1.92
  -1   6   1   85.38    1.88
  -1   6   1   82.43    1.99
  -1   6   1   78.80    1.90
  -1   6   1   81.81    1.89
   0  -6  -1    8.76    0.32
   0  -6  -1    8.26    0.33
   0  -6  -1    8.95    0.27
   0  -6  -1    8.71    0.26
   0  -6  -1    8.79    0.26
   0   6   1    8.86    0.31
   0   6   1    8.81    0.31
   0   6   1    8.23    0.47
  -1  -6  -1   62.22    1.40
  -1  -6  -1   60.67    1.43
  -1  -6  -1   59.79    1.47
  -1  -6  -1   60.51    1.49
   1   6   1   60.03    1.49
   1   6   1   59.82    1.53
   1   6   1   56.57    1.48
  -2  -6  -1    2.94    0.19
  -2  -6  -1    3.09    0.21
  -2  -6  -1    3.01    0.19
  -2  -6  -1    3.25    0.16
  -2  -6  -1    2.84    0.19
  -2  -6  -1    2.98    0.22
   2   6   1    2.92    0.21
   2   6   1    2.90    0.24
   2   6   1    2.68    0.21
  -3  -6  -1  140.37    3.20
  -3  -6  -1  136.50    3.22
  -3  -6  -1  135.72    3.13
  -3  -6  -1  132.34    3.15
  -3  -6  -1  129.45    3.18
   3   6   1  133.94    3.22
   3   6   1  135.51    3.22
   3   6   1  136.93    3.21
  -4  -6  -1    0.49    0.15
  -4  -6  -1    0.15    0.10
  -4  -6  -1    0.11    0.13
  -4  -6  -1    0.31    0.12
  -4  -6  -1    0.03    0.12
   4   6   1    0.15    0.09
   4   6   1    0.01    0.11
   4   6   1    0.23    0.13
   4   6   1    0.18    0.15
  -5  -6  -1   62.71    1.61
  -5  -6  -1   63.93    1.54
  -5  -6  -1   61.66    1.61
  -5  -6  -1   62.25    1.62
  -5  -6  -1   61.51    1.56
   5   6   1   62.84    1.61
   5   6   1   62.69    1.59
   5   6   1   61.42    1.62
   5   6   1   55.50    1.58
  -6  -6  -1    0.11    0.20
  -6  -6  -1    0.04    0.17
  -6  -6  -1   -0.04    0.16
  -6  -6  -1    0.12    0.16
  -6  -6  -1    0.26    0.14
   6   6   1   -0.24    0.13
   6   6   1   -0.19    0.19
   6   6   1    0.11    0.16
   6   6   1   -0.21    0.18
   6   6   1    0.33    0.21
  -7  -6  -1    8.85    0.47
  -7  -6  -1    9.44    0.50
  -7  -6  -1    9.56    0.49
  -7  -6  -1    9.83    0.40
   7   6   1    9.47    0.46
   7   6   1   10.08    0.53
   7   6   1    8.81    0.42
   7   6   1   10.30    0.50
   7   6   1    9.40    0.54
  -8  -6  -1   -0.28    0.21
  -8  -6  -1    0.20    0.17
  -8  -6  -1    0.03    0.25
  -8  -6  -1    0.25    0.25
   8   6   1    0.03    0.19
   8   6   1    0.17    0.24
   8   6   1    0.19    0.30
   8   6   1    0.23    0.23
  -9  -6  -1    5.35    0.49
  -9  -6  -1    6.27    0.52
  -9  -6  -1    6.80    0.59
   9   6   1    5.79    0.54
   9   6   1    6.26    0.48
 -10  -6  -1    0.49    0.34
 -10  -6  -1    0.43    0.30
 -10  -6  -1    0.25    0.29
 -10  -6  -1    0.08    0.34
  10   6   1    0.20    0.31
  10   6   1   -0.19    0.33
  10   6   1    0.19    0.28
  10   6   1   -0.82    0.35
   7  -7  -1    0.16    0.21
   7  -7  -1   -0.41    0.30
   7  -7  -1    0.06    0.32
  -7   7   1   -0.14    0.13
  -7   7   1    0.11    0.24
   6  -7  -1    9.67    0.51
   6  -7  -1    8.84    0.67
   6  -7  -1   10.01    0.47
   6  -7  -1    9.56    0.54
  -6   7   1    9.38    0.46
  -6   7   1    8.64    0.35
   5  -7  -1    0.38    0.17
   5  -7  -1   -0.08    0.23
   5  -7  -1    0.03    0.22
   5  -7  -1    0.47    0.17
   5  -7  -1    0.23    0.20
  -5   7   1    0.13    0.17
  -5   7   1    0.37    0.19
  -5   7   1   -0.03    0.10
   4  -7  -1   24.38    0.78
   4  -7  -1   24.76    0.80
   4  -7  -1   24.46    0.87
   4  -7  -1   23.89    0.69
   4  -7  -1   23.25    0.71
  -4   7   1   24.54    0.65
  -4   7   1   25.47    0.67
  -4   7   1   24.64    0.72
   3  -7  -1   -0.01    0.12
   3  -7  -1   -0.03    0.11
   3  -7  -1    0.07    0.13
   3  -7  -1    0.12    0.26
   3  -7  -1    0.10    0.17
  -3   7   1    0.15    0.08
  -3   7   1   -0.04    0.07
  -3   7   1    0.11    0.16
  -3   7   1   -0.03    0.08
   2  -7  -1   25.09    0.75
   2  -7  -1   25.59    0.66
   2  -7  -1   24.39    0.74
   2  -7  -1   26.13    0.76
  -2   7   1   25.33    0.79
  -2   7   1   26.41    0.66
  -2   7   1   24.39    0.66
   1  -7  -1    0.35    0.10
   1  -7  -1    0.81    0.13
   1  -7  -1    0.59    0.13
   1  -7  -1    0.95    0.14
  -1   7   1    0.55    0.10
  -1   7   1    0.69    0.17
  -1   7   1    0.55    0.09
  -1   7   1    0.70    0.11
   0  -7  -1   83.58    2.07
   0  -7  -1   85.65    2.05
   0  -7  -1   85.61    1.98
   0  -7  -1   88.24    1.97
   0  -7  -1   84.22    1.97
   0   7   1   82.55    2.04
   0   7   1   85.57    2.04
   0   7   1   84.33    2.13
  -1  -7  -1    9.39    0.36
  -1  -7  -1    9.59    0.28
  -1  -7  -1    9.37    0.31
  -1  -7  -1    9.10    0.37
   1   7   1    9.40    0.37
   1   7   1    8.78    0.36
   1   7   1    9.45    0.42
  -2  -7  -1   83.16    2.02
  -2  -7  -1   85.49    2.06
  -2  -7  -1   82.59    1.95
  -2  -7  -1   87.28    2.01
  -2  -7  -1   83.98    2.01
  -2  -7  -1   82.32    2.07
   2   7   1   82.80    2.06
   2   7   1   83.43    2.06
   2   7   1   82.70    2.10
  -3  -7  -1    1.89    0.21
  -3  -7  -1    1.56    0.20
  -3  -7  -1    1.65    0.26
  -3  -7  -1    1.86    0.21
   3   7   1    1.47    0.19
   3   7   1    1.71    0.22
   3   7   1    1.92    0.26
  -4  -7  -1   13.73    0.54
  -4  -7  -1   14.93    0.50
  -4  -7  -1   16.70    0.56
  -4  -7  -1   14.47    0.50
  -4  -7  -1   14.77    0.55
   4   7   1   15.95    0.56
   4   7   1   15.15    0.56
   4   7   1   13.89    0.39
   4   7   1   15.03    0.57
  -5  -7  -1    0.17    0.15
  -5  -7  -1   -0.05    0.17
  -5  -7  -1    0.09    0.17
  -5  -7  -1   -0.11    0.12
  -5  -7  -1   -0.14    0.16
   5   7   1   -0.24    0.12
   5   7   1   -0.03    0.19
   5   7   1    0.15    0.15
   5   7   1    0.09    0.17
  -6  -7  -1   31.92    1.01
  -6  -7  -1   31.54    1.06
  -6  -7  -1   33.86    1.04
  -6  -7  -1   34.67    1.00
  -6  -7  -1   34.19    0.93
   6   7   1   35.17    1.04
   6   7   1   33.10    0.97
   6   7   1   34.36    1.08
   6   7   1   34.67    1.01
  -7  -7  -1    0.19    0.21
  -7  -7  -1    0.57    0.22
  -7  -7  -1    0.32    0.20
  -7  -7  -1   -0.07    0.22
  -7  -7  -1    0.16    0.16
   7   7   1   -0.06    0.21
   7   7   1    0.24    0.25
   7   7   1    0.11    0.24
   7   7   1   -0.30    0.15
   7   7   1   -0.20    0.21
  -8  -7  -1    7.53    0.56
  -8  -7  -1    7.73    0.51
  -8  -7  -1    7.29    0.51
  -8  -7  -1    8.29    0.60
  -8  -7  -1    8.10    0.41
   8   7   1    6.49    0.49
   8   7   1    7.20    0.55
   8   7   1    9.20    0.45
   8   7   1    8.09    0.57
  -9  -7  -1    0.08    0.25
  -9  -7  -1    0.29    0.31
  -9  -7  -1    0.17    0.32
  -9  -7  -1   -0.36    0.25
  -9  -7  -1   -0.03    0.22
   9   7   1    0.25    0.29
   9   7   1    0.21    0.26
   9   7   1    0.31    0.25
   6  -8  -1    0.26    0.24
   6  -8  -1    0.12    0.22
   6  -8  -1   -0.18    0.32
  -6   8   1    0.17    0.12
  -6   8   1    0.26    0.19
   5  -8  -1   12.41    0.89
   5  -8  -1   12.03    0.57
   5  -8  -1   11.34    0.57
   5  -8  -1   11.79    0.48
  -5   8   1   11.33    0.40
  -5   8   1   11.71    0.52
   4  -8  -1    0.18    0.20
   4  -8  -1    0.35    0.23
   4  -8  -1   -0.35    0.34
   4  -8  -1    0.11    0.22
  -4   8   1    0.18    0.17
  -4   8   1    0.15    0.10
   3  -8  -1   25.31    0.80
   3  -8  -1   25.98    0.84
   3  -8  -1   26.01    0.69
   3  -8  -1   25.10    0.81
  -3   8   1   24.83    0.71
  -3   8   1   25.42    0.81
  -3   8   1   26.75    0.71
   2  -8  -1    1.60    0.21
   2  -8  -1    1.29    0.14
   2  -8  -1    1.01    0.18
   2  -8  -1    1.24    0.19
  -2   8   1    1.29    0.25
  -2   8   1    1.21    0.14
  -2   8   1    1.32    0.15
   1  -8  -1   50.28    1.32
   1  -8  -1   49.61    1.23
   1  -8  -1   47.89    1.30
  -1   8   1   49.35    1.25
  -1   8   1   50.68    1.38
   0  -8  -1    2.12    0.14
   0  -8  -1    1.97    0.13
   0  -8  -1    1.91    0.21
   0  -8  -1    2.01    0.22
   0   8   1    1.81    0.20
   0   8   1    2.12    0.28
   0   8   1    1.99    0.20
  -1  -8  -1   45.73    1.22
  -1  -8  -1   46.67    1.13
  -1  -8  -1   46.58    1.11
  -1  -8  -1   47.02    1.20
   1   8   1   43.40    1.21
   1   8   1   45.34    1.28
   1   8   1   44.80    1.21
  -2  -8  -1    1.11    0.15
  -2  -8  -1    1.01    0.16
  -2  -8  -1    1.18    0.19
  -2  -8  -1    1.22    0.18
  -2  -8  -1    1.21    0.15
   2   8   1    0.99    0.22
   2   8   1    1.10    0.17
   2   8   1    1.08    0.18
  -3  -8  -1   26.57    0.77
  -3  -8  -1   25.97    0.78
  -3  -8  -1   26.53    0.71
  -3  -8  -1   27.96    0.80
  -3  -8  -1   26.38    0.85
   3   8   1   26.20    0.82
   3   8   1   26.16    0.82
   3   8   1   25.83    0.85
  -4  -8  -1    0.05    0.15
  -4  -8  -1    0.24    0.19
  -4  -8  -1    0.28    0.15
  -4  -8  -1    0.36    0.15
  -4  -8  -1    0.37    0.14
   4   8   1    0.23    0.15
   4   8   1   -0.09    0.19
   4   8   1    0.28    0.16
  -5  -8  -1   20.41    0.72
  -5  -8  -1   20.68    0.68
  -5  -8  -1   21.64    0.65
  -5  -8  -1   21.31    0.75
  -5  -8  -1   21.94    0.75
   5   8   1   18.57    0.64
   5   8   1   22.14    0.77
   5   8   1   22.85    0.77
   5   8   1   21.36    0.75
  -6  -8  -1    0.73    0.24
  -6  -8  -1    0.93    0.17
  -6  -8  -1    1.31    0.25
  -6  -8  -1    0.87    0.23
  -6  -8  -1    0.91    0.22
   6   8   1    1.03    0.17
   6   8   1    1.08    0.27
   6   8   1    0.85    0.24
   6   8   1    0.94    0.26
   6   8   1    0.84    0.24
  -7  -8  -1    7.37    0.48
  -7  -8  -1    7.19    0.36
  -7  -8  -1    6.90    0.46
  -7  -8  -1    6.33    0.51
   7   8   1    6.83    0.37
   7   8   1    6.40    0.47
   7   8   1    7.26    0.50
   7   8   1    7.59    0.62
   7   8   1    7.03    0.52
  -8  -8  -1   -0.19    0.29
  -8  -8  -1    0.05    0.21
  -8  -8  -1    0.41    0.32
  -8  -8  -1   -0.10    0.22
  -8  -8  -1    0.24    0.19
   8   8   1   -0.06    0.28
   8   8   1    0.47    0.21
   8   8   1   -0.43    0.21
   8   8   1    0.25    0.29
  -9  -8  -1    3.63    0.49
  -9  -8  -1    4.02    0.58
  -9  -8  -1    3.56    0.44
  -9  -8  -1    4.21    0.46
   9   8   1    4.78    0.49
   9   8   1    4.10    0.48
   9   8   1    2.62    0.41
   9   8   1    3.45    0.49
   6  -9  -1    2.72    0.37
   6  -9  -1    2.40    0.46
   6  -9  -1    2.29    0.34
  -6   9   1    2.53    0.35
  -6   9   1    2.82    0.25
   5  -9  -1   -0.26    0.32
   5  -9  -1   -0.06    0.22
   5  -9  -1    0.24    0.23
  -5   9   1    0.13    0.11
  -5   9   1    0.06    0.18
   4  -9  -1   14.97    0.82
   4  -9  -1   14.30    0.61
   4  -9  -1   15.49    0.65
  -4   9   1   14.47    0.48
  -4   9   1   14.89    0.58
   3  -9  -1   -0.23    0.18
   3  -9  -1   -0.09    0.21
   3  -9  -1    0.24    0.17
  -3   9   1   -0.04    0.11
  -3   9   1    0.08    0.20
   2  -9  -1   18.25    0.61
   2  -9  -1   18.20    0.65
   2  -9  -1   18.16    0.66
  -2   9   1   18.02    0.55
  -2   9   1   18.08    0.56
  -2   9   1   18.53    0.70
   1  -9  -1    3.22    0.31
   1  -9  -1    2.95    0.27
   1  -9  -1    2.93    0.23
  -1   9   1    3.22    0.23
  -1   9   1    2.90    0.37
  -1   9   1    3.03    0.23
   0  -9  -1   38.49    0.92
   0  -9  -1   38.20    1.08
   0  -9  -1   38.54    0.97
   0  -9  -1   33.43    0.98
   0  -9  -1   37.99    1.07
   0   9   1   38.64    1.15
   0   9   1   38.96    1.04
   0   9   1   38.66    1.05
  -1  -9  -1    0.29    0.11
  -1  -9  -1    0.14    0.13
  -1  -9  -1    0.27    0.15
  -1  -9  -1    0.43    0.20
   1   9   1    0.12    0.13
   1   9   1    0.20    0.15
   1   9   1   -0.01    0.19
  -2  -9  -1   49.86    1.30
  -2  -9  -1   50.63    1.26
  -2  -9  -1   44.82    1.30
   2   9   1   48.00    1.32
   2   9   1   50.43    1.34
  -3  -9  -1    1.43    0.18
  -3  -9  -1    2.02    0.39
  -3  -9  -1    1.03    0.22
  -3  -9  -1    1.31    0.19
  -3  -9  -1    1.24    0.20
   3   9   1    1.01    0.19
   3   9   1    1.30    0.28
   3   9   1    1.25    0.23
  -4  -9  -1    9.66    0.46
  -4  -9  -1   10.35    0.58
  -4  -9  -1   10.36    0.56
  -4  -9  -1   10.87    0.44
  -4  -9  -1   10.65    0.42
   4   9   1   10.31    0.49
   4   9   1   10.79    0.50
   4   9   1   10.61    0.59
  -5  -9  -1   -0.05    0.14
  -5  -9  -1    0.44    0.20
  -5  -9  -1    0.13    0.22
  -5  -9  -1   -0.03    0.17
  -5  -9  -1   -0.01    0.18
   5   9   1   -0.26    0.17
   5   9   1    0.10    0.19
   5   9   1   -0.52    0.23
  -6  -9  -1    9.63    0.63
  -6  -9  -1   12.41    0.61
  -6  -9  -1   10.66    0.56
  -6  -9  -1   11.75    0.44
  -6  -9  -1   10.44    0.50
   6   9   1   10.70    0.60
   6   9   1   11.20    0.58
   6   9   1   10.71    0.58
   6   9   1   11.35    0.66
  -7  -9  -1    0.08    0.19
  -7  -9  -1   -0.09    0.17
  -7  -9  -1    0.03    0.30
  -7  -9  -1    0.01    0.26
  -7  -9  -1   -0.04    0.21
   7   9   1    0.08    0.26
   7   9   1    0.10    0.28
   7   9   1    0.08    0.22
  -8  -9  -1    5.03    0.54
  -8  -9  -1    4.59    0.43
  -8  -9  -1    4.36    0.50
  -8  -9  -1    4.97    0.61
  -8  -9  -1    4.97    0.46
   8   9   1    4.69    0.48
   8   9   1    5.42    0.69
   8   9   1    5.32    0.53
   8   9   1    4.13    0.52
  -9  -9  -1    0.06    0.36
  -9  -9  -1    0.19    0.27
  -9  -9  -1    0.31    0.26
  -9  -9  -1    0.80    0.32
   9   9   1   -0.50    0.25
   9   9   1   -0.41    0.36
   9   9   1    0.30    0.33
   5 -10  -1    2.55    0.45
   5 -10  -1    2.43    0.34
   5 -10  -1    2.57    0.36
  -5  10   1    2.10    0.24
  -5  10   1    2.51    0.35
   4 -10  -1   -0.20    0.28
   4 -10  -1    0.13    0.20
   4 -10  -1   -0.11    0.19
  -4  10   1   -0.02    0.12
   3 -10  -1    8.27    0.48
   3 -10  -1    7.75    0.48
   3 -10  -1   10.20    0.52
  -3  10   1    8.75    0.37
  -3  10   1    8.07    0.51
   2 -10  -1    0.25    0.20
   2 -10  -1    0.18    0.18
   2 -10  -1   -0.03    0.17
  -2  10   1   -0.21    0.14
  -2  10   1    0.31    0.23
  -2  10   1    0.01    0.12
   1 -10  -1   24.34    0.81
   1 -10  -1   25.01    0.70
   1 -10  -1   25.35    0.91
  -1  10   1   25.58    0.85
  -1  10   1   24.72    0.74
  -1  10   1   24.42    0.89
   0 -10  -1    0.60    0.18
   0 -10  -1    0.30    0.10
   0 -10  -1    0.24    0.15
   0 -10  -1    0.64    0.19
   0  10   1    0.41    0.25
   0  10   1    0.43    0.16
   0  10   1    0.52    0.16
  -1 -10  -1   20.52    0.59
  -1 -10  -1   21.48    0.71
  -1 -10  -1   20.57    0.72
  -1 -10  -1   21.41    0.60
   1  10   1   19.92    0.70
   1  10   1   20.59    0.70
   1  10   1   21.03    0.81
  -2 -10  -1    1.27    0.22
  -2 -10  -1    0.79    0.17
  -2 -10  -1    0.96    0.20
  -2 -10  -1    0.80    0.16
   2  10   1    0.99    0.22
   2  10   1    0.78    0.26
   2  10   1    0.60    0.20
  -3 -10  -1   21.07    0.81
  -3 -10  -1   22.01    0.67
  -3 -10  -1   22.66    0.99
  -3 -10  -1   22.59    0.74
   3  10   1   25.35    0.96
   3  10   1   22.30    0.84
  -4 -10  -1    0.29    0.28
  -4 -10  -1    0.35    0.16
  -4 -10  -1   -0.12    0.19
  -4 -10  -1    0.17    0.22
  -4 -10  -1   -0.03    0.21
  -4 -10  -1    0.20    0.34
   4  10   1    0.10    0.18
  -5 -10  -1   16.46    0.88
  -5 -10  -1   18.77    0.75
  -5 -10  -1   17.03    0.70
  -5 -10  -1   17.78    0.60
  -5 -10  -1   16.79    0.63
  -5 -10  -1   16.54    0.80
   5  10   1   17.26    0.97
   5  10   1   17.71    0.76
  -6 -10  -1   -0.18    0.23
  -6 -10  -1    0.42    0.29
  -6 -10  -1    0.00    0.22
  -6 -10  -1   -0.13    0.19
  -6 -10  -1    0.43    0.29
   6  10   1   -0.08    0.26
   6  10   1   -0.07    0.29
   6  10   1    0.01    0.22
  -7 -10  -1    3.78    0.32
  -7 -10  -1    4.35    0.55
  -7 -10  -1    3.86    0.45
  -7 -10  -1    2.98    0.38
  -7 -10  -1    2.27    0.34
   7  10   1    3.38    0.42
   7  10   1    2.46    0.37
   7  10   1    3.19    0.47
  -8 -10  -1    0.00    0.23
  -8 -10  -1   -0.62    0.28
  -8 -10  -1    0.16    0.24
   8  10   1   -0.08    0.27
   8  10   1    0.58    0.32
   8  10   1    0.15    0.33
   4 -11  -1    3.39    0.54
   4 -11  -1    3.13    0.39
   4 -11  -1    3.55    0.47
  -4  11   1    2.62    0.52
  -4  11   1    3.24    0.26
   3 -11  -1   -0.01    0.22
   3 -11  -1    0.15    0.29
   3 -11  -1    0.12    0.20
  -3  11   1    0.09    0.13
  -3  11   1    0.39    0.35
   2 -11  -1    7.97    0.49
   2 -11  -1    8.18    0.50
  -2  11   1    8.17    0.39
  -2  11   1    8.15    0.61
   1 -11  -1    0.02    0.20
   1 -11  -1   -0.05    0.17
  -1  11   1    0.20    0.16
  -1  11   1   -0.29    0.28
   0 -11  -1   11.36    0.55
   0 -11  -1   11.25    0.35
   0 -11  -1   11.08    0.47
   0 -11  -1   10.92    0.55
   0  11   1   11.13    0.51
   0  11   1   12.69    0.51
   0  11   1   11.77    0.67
  -1 -11  -1    0.78    0.15
  -1 -11  -1    0.97    0.28
  -1 -11  -1    1.13    0.25
  -1 -11  -1    1.09    0.24
   1  11   1    1.16    0.22
   1  11   1    0.80    0.31
   1  11   1    0.98    0.20
  -2 -11  -1   16.01    0.55
  -2 -11  -1   15.00    0.70
  -2 -11  -1   15.92    0.63
   2  11   1   15.66    0.72
   2  11   1   16.01    0.64
  -3 -11  -1    0.16    0.21
  -3 -11  -1    0.12    0.20
  -3 -11  -1   -0.01    0.22
  -3 -11  -1   -0.07    0.17
   3  11   1   -0.02    0.21
   3  11   1    0.13    0.31
   3  11   1   -0.16    0.26
  -4 -11  -1   12.88    0.51
  -4 -11  -1   12.80    0.68
   4  11   1   13.65    0.90
   4  11   1   12.85    0.67
   4  11   1   12.96    0.75
  -5 -11  -1    0.08    0.24
  -5 -11  -1   -0.30    0.25
  -5 -11  -1   -0.12    0.23
  -5 -11  -1    0.08    0.22
   5  11   1    0.34    0.25
   5  11   1    0.30    0.31
   5  11   1   -0.18    0.25
   5  11   1    0.00    0.33
  -6 -11  -1    7.51    0.85
  -6 -11  -1    5.53    0.57
  -6 -11  -1    4.62    0.44
  -6 -11  -1    5.38    0.44
  -6 -11  -1    6.25    0.46
   6  11   1    5.18    0.50
   6  11   1    6.08    0.51
   6  11   1    4.66    0.52
  -7 -11  -1    0.66    0.50
  -7 -11  -1    0.26    0.24
  -7 -11  -1    0.33    0.37
  -7 -11  -1    0.07    0.24
  -7 -11  -1    0.63    0.23
   7  11   1    0.17    0.26
   7  11   1    0.13    0.32
   7  11   1   -0.12    0.76
  -8 -11  -1    3.21    0.75
  -8 -11  -1    2.48    0.37
  -8 -11  -1    2.35    0.42
  -8 -11  -1    3.19    0.43
   8  11   1    3.06    0.63
   8  11   1    1.99    0.37
   8  11   1    2.42    0.56
   8  11   1    2.56    0.46
   3 -12  -1    4.06    0.50
   3 -12  -1    2.99    0.40
  -3  12   1    3.41    0.30
  -3  12   1    3.11    0.44
   2 -12  -1   -0.16    0.23
   2 -12  -1    0.07    0.22
  -2  12   1    0.27    0.35
  -2  12   1    0.03    0.16
   1 -12  -1    8.91    0.54
   1 -12  -1    7.81    0.50
  -1  12   1    8.22    0.44
  -1  12   1    7.62    0.45
  -1  12   1    8.04    0.64
   0 -12  -1    0.61    0.23
   0 -12  -1    0.27    0.19
   0  12   1    0.44    0.32
   0  12   1    0.08    0.22
   0  12   1    0.22    0.18
  -1 -12  -1    5.90    0.31
  -1 -12  -1    6.87    0.49
  -1 -12  -1    5.78    0.45
   1  12   1    6.19    0.56
   1  12   1    6.59    0.58
   1  12   1    5.55    0.43
  -2 -12  -1    0.15    0.23
  -2 -12  -1    0.03    0.18
  -2 -12  -1    0.12    0.19
   2  12   1   -0.35    0.28
   2  12   1   -0.04    0.18
   2  12   1   -0.19    0.21
  -3 -12  -1    6.30    0.50
   3  12   1    6.77    0.57
   3  12   1    6.19    0.46
  -4 -12  -1   -0.38    0.22
  -4 -12  -1    0.11    0.24
   4  12   1    0.22    0.31
   4  12   1   -0.32    0.22
   4  12   1    0.06    0.23
  -5 -12  -1    8.21    0.61
  -5 -12  -1    7.71    0.54
  -5 -12  -1    8.56    0.59
   5  12   1    8.22    0.59
   5  12   1    7.45    0.58
   5  12   1    7.27    0.53
  -6 -12  -1   -0.03    0.26
  -6 -12  -1   -0.18    0.27
   6  12   1    0.11    0.37
   6  12   1    0.21    0.31
   6  12   1   -0.20    0.34
   6  12   1    0.30    0.27
  -7 -12  -1    2.39    0.37
  -7 -12  -1    2.02    0.41
  -7 -12  -1    1.13    0.33
  -7 -12  -1    2.14    0.41
   7  12   1    2.77    0.45
   7  12   1    2.55    0.44
   7  12   1    2.50    0.46
   7  12   1    1.56    0.33
   1 -13  -1    0.25    0.28
   1 -13  -1    0.15    0.25
  -1  13   1   -0.49    0.35
  -1  13   1   -0.05    0.19
   0 -13  -1    5.85    0.48
   0 -13  -1    5.38    0.55
   0  13   1    4.76    0.43
   0  13   1    6.13    0.63
  -1 -13  -1    0.21    0.22
  -1 -13  -1   -0.20    0.24
   1  13   1   -0.20    0.19
   1  13   1    0.03    0.34
   1  13   1   -0.22    0.35
  -2 -13  -1    7.11    0.53
  -2 -13  -1    4.87    0.43
  -2 -13  -1    5.20    0.49
   2  13   1    4.81    0.56
   2  13   1    5.84    0.48
   2  13   1    5.16    0.56
  -3 -13  -1   -0.39    0.26
  -3 -13  -1   -0.06    0.26
  -3 -13  -1    0.18    0.25
   3  13   1    0.31    0.22
   3  13   1    0.02    0.31
   3  13   1   -0.16    0.27
  -4 -13  -1    4.55    0.53
  -4 -13  -1    5.33    0.52
  -4 -13  -1    5.15    0.50
   4  13   1    4.59    0.48
   4  13   1    5.08    0.59
   4  13   1    5.63    0.48
  -5 -13  -1    0.15    0.28
  -5 -13  -1    0.26    0.30
  -5 -13  -1    0.23    0.29
   5  13   1    0.08    0.27
   5  13   1    0.29    0.27
   5  13   1    0.42    0.36
   5  13   1   -0.52    0.31
  -6 -13  -1    1.81    0.38
  -6 -13  -1    1.70    0.40
  -6 -13  -1    2.10    0.36
   6  13   1    1.17    0.64
   6  13   1    1.88    0.38
   6  13   1    1.82    0.35
   6  13   1    2.20    0.47
  -1 -14  -1    4.98    0.54
  -1 -14  -1    5.18    0.60
   1  14   1    5.18    0.48
   1  14   1    5.78    0.66
  -2 -14  -1    0.35    0.26
  -2 -14  -1   -0.21    0.30
   2  14   1   -0.01    0.33
   2  14   1    0.12    0.38
   2  14   1    0.04    0.24
  -3 -14  -1    3.37    0.50
  -3 -14  -1    3.25    0.48
  -3 -14  -1    3.63    0.45
   3  14   1    3.46    0.49
   3  14   1    2.87    0.47
   3  14   1    4.23    0.55
   4  13  -2    0.11    0.33
   4  13  -2    0.05    0.35
  -4 -13   2    0.11    0.28
  -4 -13   2   -0.39    0.35
  -4 -13   2   -0.07    0.31
   3  13  -2    4.11    0.56
   3  13  -2    5.07    0.56
  -3 -13   2    4.22    0.53
  -3 -13   2    4.07    0.46
  -3 -13   2    3.24    0.41
   2  13  -2    0.47    0.27
   2  13  -2   -0.11    0.32
   2  13  -2    0.03    0.28
  -2 -13   2   -0.02    0.24
  -2 -13   2    0.12    0.31
  -2 -13   2    0.29    0.23
   1  13  -2    4.30    0.48
   1  13  -2    4.26    0.50
   1  13  -2    3.05    0.48
  -1 -13   2    3.21    0.39
  -1 -13   2    3.35    0.42
  -1 -13   2    3.16    0.42
   0  13  -2    0.26    0.31
   0  13  -2    0.16    0.36
   0  13  -2    0.21    0.23
   0 -13   2   -0.13    0.29
   0 -13   2   -0.28    0.22
   0 -13   2    0.04    0.22
  -1  13  -2    2.39    0.33
  -1  13  -2    2.15    0.46
  -1  13  -2    2.83    0.38
   1 -13   2    2.94    0.43
   1 -13   2    2.72    0.42
   5  12  -2   -0.18    0.32
   5  12  -2   -0.27    0.33
   5  12  -2   -0.24    0.26
  -5 -12   2   -0.20    0.27
  -5 -12   2    0.34    0.38
  -5 -12   2    0.04    0.29
   4  12  -2    6.43    0.52
   4  12  -2    5.10    0.57
   4  12  -2    5.92    0.56
  -4 -12   2    5.91    0.51
  -4 -12   2    6.63    0.51
  -4 -12   2    5.06    0.69
  -4 -12   2    5.20    0.43
   3  12  -2   -0.28    0.27
   3  12  -2    0.64    0.30
   3  12  -2   -0.22    0.26
  -3 -12   2   -0.59    0.46
  -3 -12   2    0.39    0.25
  -3 -12   2    0.01    0.24
  -3 -12   2   -0.30    0.31
   2  12  -2    5.75    0.52
   2  12  -2    6.77    0.61
  -2 -12   2    4.93    0.57
  -2 -12   2    5.82    0.44
  -2 -12   2    5.91    0.47
   1  12  -2   -0.38    0.30
   1  12  -2    0.17    0.22
   1  12  -2   -0.19    0.24
  -1 -12   2    0.21    0.27
  -1 -12   2    0.57    0.27
  -1 -12   2    0.11    0.21
  -1 -12   2    0.31    0.21
   0  12  -2    6.02    0.45
   0  12  -2    5.97    0.51
   0  12  -2    6.49    0.59
   0 -12   2    6.60    0.49
   0 -12   2    6.29    0.40
   0 -12   2    7.01    0.54
  -1  12  -2   -0.04    0.33
  -1  12  -2   -0.04    0.31
  -1  12  -2   -0.08    0.18
   1 -12   2    0.06    0.20
   1 -12   2    0.38    0.32
   1 -12   2    0.23    0.25
   1 -12   2   -0.09    0.19
  -2  12  -2    3.45    0.47
  -2  12  -2    3.84    0.56
  -2  12  -2    2.71    0.32
   2 -12   2    2.67    0.39
   2 -12   2    4.19    0.50
   2 -12   2    3.43    0.47
  -3  12  -2    0.26    0.35
  -3  12  -2    0.41    0.31
  -3  12  -2    0.15    0.18
   3 -12   2    0.69    0.30
   3 -12   2    0.06    0.24
   6  11  -2   -0.08    0.37
   6  11  -2    0.19    0.32
   6  11  -2    0.76    0.51
   6  11  -2   -0.33    0.23
  -6 -11   2    0.27    0.41
  -6 -11   2    0.37    0.26
  -6 -11   2    0.13    0.28
  -6 -11   2   -0.37    0.32
   5  11  -2    3.03    0.41
   5  11  -2    3.53    0.48
   5  11  -2    2.87    0.68
   5  11  -2    2.21    0.34
  -5 -11   2    2.58    0.39
  -5 -11   2    3.10    0.40
  -5 -11   2    2.90    0.63
  -5 -11   2    2.55    0.40
   4  11  -2   -0.14    0.63
   4  11  -2   -0.17    0.27
   4  11  -2    0.19    0.24
   4  11  -2   -0.26    0.22
  -4 -11   2    0.26    0.27
  -4 -11   2   -0.11    0.23
  -4 -11   2    0.07    0.30
  -4 -11   2   -0.32    0.22
   3  11  -2    8.50    0.58
   3  11  -2    7.29    0.59
   3  11  -2    8.04    0.55
  -3 -11   2    9.20    0.52
  -3 -11   2    8.60    0.54
  -3 -11   2    8.48    0.51
  -3 -11   2    8.61    0.44
   2  11  -2    0.07    0.26
   2  11  -2    0.23    0.22
   2  11  -2   -0.16    0.26
  -2 -11   2    0.24    0.27
  -2 -11   2   -0.16    0.19
  -2 -11   2    0.22    0.22
   1  11  -2   11.46    0.66
   1  11  -2   11.40    0.58
   1  11  -2   10.39    0.58
  -1 -11   2   10.75    0.51
  -1 -11   2   12.45    0.61
  -1 -11   2   12.17    0.58
  -1 -11   2   11.92    0.50
   0  11  -2    0.29    0.20
   0  11  -2    0.24    0.31
   0  11  -2    0.65    0.22
   0 -11   2    0.44    0.17
   0 -11   2    0.56    0.41
   0 -11   2    0.32    0.19
  -1  11  -2    6.59    0.41
  -1  11  -2    6.22    0.53
  -1  11  -2    7.20    0.46
   1 -11   2    6.11    0.43
   1 -11   2    7.35    0.49
   1 -11   2    5.61    0.47
   1 -11   2    6.71    0.43
  -2  11  -2    0.40    0.17
  -2  11  -2    0.55    0.32
   2 -11   2    0.45    0.26
   2 -11   2    0.76    0.24
   2 -11   2    0.38    0.30
  -3  11  -2    6.42    0.53
  -3  11  -2    4.73    0.54
  -3  11  -2    4.87    0.36
   3 -11   2    5.88    0.46
   3 -11   2    4.48    0.53
   3 -11   2    7.02    0.69
   3 -11   2    6.87    0.51
  -4  11  -2    0.24    0.42
  -4  11  -2   -0.23    0.15
   4 -11   2    0.16    0.24
   4 -11   2   -0.13    0.25
   4 -11   2    0.66    0.60
   7  10  -2    0.17    0.25
   7  10  -2    0.19    0.34
   7  10  -2    0.41    0.33
  -7 -10   2    0.07    0.27
  -7 -10   2   -0.23    0.25
  -7 -10   2    0.16    0.39
  -7 -10   2   -0.11    0.29
   6  10  -2    4.21    0.44
   6  10  -2    4.96    0.60
   6  10  -2    3.89    0.48
  -6 -10   2    4.12    0.51
  -6 -10   2    5.44    0.47
  -6 -10   2    3.59    0.50
   5  10  -2    0.64    0.31
   5  10  -2    0.53    0.26
   5  10  -2    0.51    0.26
   5  10  -2    0.18    0.29
  -5 -10   2    0.23    0.19
  -5 -10   2    0.44    0.31
  -5 -10   2   -0.13    0.22
  -5 -10   2   -0.33    0.26
  -5 -10   2   -0.03    0.27
   4  10  -2    9.35    0.58
   4  10  -2    8.67    0.55
   4  10  -2   10.64    0.47
  -4 -10   2   10.50    0.42
  -4 -10   2    9.36    0.54
  -4 -10   2    9.97    0.59
  -4 -10   2    9.27    0.51
  -4 -10   2    9.84    0.62
   3  10  -2    0.33    0.19
   3  10  -2    0.01    0.21
   3  10  -2   -0.05    0.27
   3  10  -2   -0.07    0.21
  -3 -10   2   -0.11    0.25
  -3 -10   2    0.05    0.17
  -3 -10   2    0.45    0.21
  -3 -10   2   -0.26    0.19
   2  10  -2    5.97    0.42
   2  10  -2    5.67    0.42
   2  10  -2    5.86    0.52
  -2 -10   2    5.99    0.39
  -2 -10   2    5.74    0.42
  -2 -10   2    6.18    0.36
  -2 -10   2    6.09    0.39
   1  10  -2   -0.11    0.27
   1  10  -2    0.09    0.18
  -1 -10   2    0.19    0.16
  -1 -10   2    0.51    0.20
  -1 -10   2   -0.07    0.16
   0  10  -2   18.66    0.66
   0  10  -2   18.06    0.64
   0 -10   2   17.08    0.56
   0 -10   2   16.90    0.66
   0 -10   2   17.18    0.60
  -1  10  -2    0.01    0.30
  -1  10  -2    0.29    0.15
  -1  10  -2   -0.22    0.15
   1 -10   2    0.02    0.18
   1 -10   2    0.61    0.21
   1 -10   2    0.50    0.13
   1 -10   2    0.28    0.20
  -2  10  -2   11.06    0.47
  -2  10  -2   10.45    0.46
  -2  10  -2   10.92    0.60
   2 -10   2   11.35    0.56
   2 -10   2   11.29    0.52
   2 -10   2   11.30    0.38
   2 -10   2   11.67    0.55
   2 -10   2   11.85    0.56
  -3  10  -2    0.77    0.18
  -3  10  -2    1.02    0.20
  -3  10  -2    1.35    0.29
   3 -10   2    1.20    0.32
   3 -10   2    0.61    0.30
   3 -10   2    0.59    0.25
   3 -10   2    0.91    0.25
  -4  10  -2    6.02    0.36
  -4  10  -2    7.11    0.47
  -4  10  -2    5.92    0.38
   4 -10   2    7.08    0.49
   4 -10   2    6.91    0.65
   4 -10   2    6.36    0.46
  -5  10  -2    0.44    0.17
  -5  10  -2    0.43    0.22
   5 -10   2   -0.13    0.24
   5 -10   2    0.15    0.43
   5 -10   2   -0.16    0.25
   8   9  -2    0.16    0.32
   8   9  -2   -0.23    0.25
   8   9  -2   -0.05    0.36
  -8  -9   2    0.37    0.32
  -8  -9   2    0.07    0.24
  -8  -9   2   -0.61    0.27
  -8  -9   2    0.57    0.33
   7   9  -2    4.60    0.54
   7   9  -2    5.20    0.52
   7   9  -2    5.90    0.49
  -7  -9   2    4.94    0.45
  -7  -9   2    5.37    0.65
  -7  -9   2    5.28    0.46
  -7  -9   2    5.46    0.52
   6   9  -2    0.02    0.22
   6   9  -2    0.19    0.30
   6   9  -2   -0.32    0.27
   6   9  -2    0.01    0.26
  -6  -9   2    0.11    0.21
  -6  -9   2   -0.33    0.24
   5   9  -2    8.48    0.54
   5   9  -2    6.89    0.53
   5   9  -2    6.91    0.45
   5   9  -2    8.35    0.52
  -5  -9   2    6.84    0.41
  -5  -9   2    7.48    0.54
  -5  -9   2    6.90    0.48
  -5  -9   2    7.09    0.44
  -5  -9   2    7.22    0.63
   4   9  -2    0.05    0.20
   4   9  -2    0.23    0.19
   4   9  -2    0.03    0.20
  -4  -9   2    0.46    0.21
  -4  -9   2    0.10    0.23
  -4  -9   2    0.17    0.14
  -4  -9   2    0.36    0.24
  -4  -9   2   -0.11    0.21
   3   9  -2   12.59    0.57
   3   9  -2   12.29    0.66
   3   9  -2   12.00    0.47
   3   9  -2   12.92    0.62
  -3  -9   2   11.68    0.52
  -3  -9   2   12.29    0.45
  -3  -9   2   13.47    0.57
  -3  -9   2   11.36    0.52
   2   9  -2    0.03    0.16
   2   9  -2   -0.02    0.16
   2   9  -2   -0.18    0.14
   2   9  -2   -0.27    0.22
  -2  -9   2    0.00    0.12
  -2  -9   2    0.01    0.14
  -2  -9   2    0.05    0.13
  -2  -9   2    0.04    0.16
  -2  -9   2    0.26    0.20
   1   9  -2   26.36    0.92
   1   9  -2   27.10    0.84
   1   9  -2   25.32    0.83
  -1  -9   2   26.44    0.78
  -1  -9   2   26.48    0.81
  -1  -9   2   26.43    0.70
  -1  -9   2   26.98    0.79
  -1  -9   2   26.00    0.83
  -1  -9   2   27.28    0.91
   0   9  -2   -0.08    0.14
   0   9  -2    0.09    0.14
   0   9  -2   -0.18    0.23
   0  -9   2    0.02    0.15
   0  -9   2    0.02    0.14
   0  -9   2    0.02    0.13
   0  -9   2    0.11    0.22
   0  -9   2   -0.09    0.11
  -1   9  -2   22.89    0.70
  -1   9  -2   21.39    0.70
   1  -9   2   21.64    0.69
   1  -9   2   22.25    0.69
   1  -9   2   22.02    0.72
   1  -9   2   22.49    0.64
  -2   9  -2    0.10    0.14
  -2   9  -2    0.43    0.15
  -2   9  -2    0.27    0.22
   2  -9   2    0.30    0.18
   2  -9   2    0.17    0.18
   2  -9   2    0.35    0.13
   2  -9   2    0.64    0.22
   2  -9   2    0.58    0.19
  -3   9  -2    9.09    0.41
  -3   9  -2    9.26    0.47
  -3   9  -2    9.55    0.39
   3  -9   2    9.23    0.50
   3  -9   2    9.69    0.55
   3  -9   2    8.85    0.48
  -4   9  -2   -0.01    0.15
  -4   9  -2    0.22    0.19
  -4   9  -2    0.05    0.13
   4  -9   2    0.00    0.18
   4  -9   2   -0.02    0.31
   4  -9   2   -0.23    0.19
  -5   9  -2    5.37    0.40
  -5   9  -2    6.02    0.39
  -5   9  -2    6.24    0.45
  -5   9  -2    5.21    0.32
   5  -9   2    5.27    0.45
   5  -9   2    5.83    0.71
   5  -9   2    5.43    0.46
  -6   9  -2    0.06    0.22
  -6   9  -2    0.21    0.16
   6  -9   2   -0.21    0.39
   6  -9   2    0.40    0.27
   8   8  -2    2.17    0.31
   8   8  -2    1.64    0.31
   8   8  -2    1.99    0.37
   8   8  -2    2.28    0.40
  -8  -8   2    2.33    0.40
  -8  -8   2    2.04    0.32
  -8  -8   2    3.47    0.46
  -8  -8   2    2.24    0.36
   7   8  -2   -0.27    0.21
   7   8  -2    0.47    0.34
   7   8  -2    0.34    0.28
   7   8  -2   -0.20    0.20
  -7  -8   2    0.07    0.27
  -7  -8   2    0.13    0.33
  -7  -8   2   -0.51    0.25
  -7  -8   2   -0.11    0.22
   6   8  -2    6.27    0.53
   6   8  -2    6.22    0.46
   6   8  -2    6.31    0.48
   6   8  -2    6.81    0.52
   6   8  -2    5.43    0.35
  -6  -8   2    6.00    0.48
  -6  -8   2    6.32    0.43
  -6  -8   2    6.20    0.45
  -6  -8   2    6.08    0.53
   5   8  -2    0.34    0.23
   5   8  -2    0.48    0.25
   5   8  -2    0.35    0.16
   5   8  -2    0.38    0.21
   5   8  -2    0.21    0.21
  -5  -8   2    0.33    0.13
  -5  -8   2    0.19    0.19
  -5  -8   2    0.49    0.19
  -5  -8   2    0.38    0.24
  -5  -8   2    0.46    0.23
   4   8  -2   39.44    1.11
   4   8  -2   39.16    1.23
   4   8  -2   40.95    1.18
  -4  -8   2   37.89    1.03
  -4  -8   2   38.70    1.16
  -4  -8   2   39.81    1.24
  -4  -8   2   38.11    1.13
   3   8  -2    0.17    0.17
   3   8  -2    0.05    0.17
   3   8  -2    0.00    0.20
   3   8  -2    0.29    0.16
  -3  -8   2   -0.11    0.16
  -3  -8   2    0.34    0.16
  -3  -8   2   -0.08    0.17
  -3  -8   2   -0.05    0.16
  -3  -8   2    0.10    0.12
   2   8  -2   29.19    0.94
   2   8  -2   29.33    0.98
   2   8  -2   28.07    0.81
   2   8  -2   27.37    0.86
  -2  -8   2   28.12    0.78
  -2  -8   2   28.06    0.84
  -2  -8   2   28.49    0.87
  -2  -8   2   27.35    0.81
  -2  -8   2   27.97    0.83
   1   8  -2    1.31    0.19
   1   8  -2    1.40    0.14
   1   8  -2    1.39    0.20
   1   8  -2    1.96    0.28
  -1  -8   2    1.48    0.19
  -1  -8   2    1.61    0.30
  -1  -8   2    1.51    0.23
  -1  -8   2    1.57    0.20
  -1  -8   2    1.53    0.20
   0   8  -2   37.22    1.12
   0   8  -2   37.88    1.04
   0  -8   2   38.35    1.03
   0  -8   2   36.86    0.98
   0  -8   2   39.13    0.99
   0  -8   2   37.30    1.00
   0  -8   2   38.04    1.05
   0  -8   2   36.29    0.97
  -1   8  -2    2.63    0.31
  -1   8  -2    2.36    0.22
  -1   8  -2    1.71    0.23
   1  -8   2    2.44    0.25
   1  -8   2    2.19    0.26
   1  -8   2    2.72    0.25
   1  -8   2    2.17    0.23
   1  -8   2    2.26    0.19
  -2   8  -2   25.77    0.74
  -2   8  -2   24.84    0.75
  -2   8  -2   26.07    0.83
   2  -8   2   26.05    0.68
   2  -8   2   24.88    0.79
   2  -8   2   26.08    0.79
   2  -8   2   25.97    0.77
   2  -8   2   26.24    0.80
  -3   8  -2   -0.05    0.16
  -3   8  -2    0.01    0.10
  -3   8  -2   -0.06    0.11
   3  -8   2    0.08    0.14
   3  -8   2   -0.07    0.10
   3  -8   2    0.16    0.16
   3  -8   2    0.00    0.21
   3  -8   2   -0.10    0.15
  -4   8  -2    6.77    0.34
  -4   8  -2    7.32    0.37
  -4   8  -2    7.28    0.34
   4  -8   2    7.32    0.53
   4  -8   2    7.16    0.43
   4  -8   2    6.88    0.67
  -5   8  -2   -0.25    0.17
  -5   8  -2    0.27    0.15
  -5   8  -2    0.04    0.16
  -5   8  -2    0.09    0.12
   5  -8   2   -0.04    0.31
   5  -8   2   -0.12    0.19
   5  -8   2   -0.11    0.19
  -6   8  -2    3.13    0.35
  -6   8  -2    3.43    0.29
   6  -8   2    3.43    0.42
   6  -8   2    2.21    0.46
  -7   8  -2   -0.03    0.15
  -7   8  -2    0.17    0.23
   7  -8   2    0.32    0.27
   7  -8   2    0.06    0.38
   9   7  -2    1.16    0.34
   9   7  -2    0.88    0.31
   9   7  -2    0.27    0.36
   9   7  -2    0.01    0.30
  -9  -7   2    0.35    0.30
  -9  -7   2    0.92    0.30
  -9  -7   2    1.20    0.35
  -9  -7   2    0.16    0.33
   8   7  -2   -0.08    0.28
   8   7  -2    0.30    0.24
   8   7  -2   -0.40    0.33
   8   7  -2    0.50    0.39
   8   7  -2    0.23    0.30
  -8  -7   2    0.09    0.28
  -8  -7   2    0.15    0.24
  -8  -7   2    0.81    0.27
  -8  -7   2    1.14    0.31
   7   7  -2   11.24    0.59
   7   7  -2   12.22    0.52
   7   7  -2   11.43    0.61
   7   7  -2   11.88    0.68
  -7  -7   2   12.28    0.54
  -7  -7   2   11.50    0.60
  -7  -7   2   11.62    0.62
   6   7  -2    0.25    0.24
   6   7  -2    0.17    0.22
   6   7  -2    0.27    0.23
   6   7  -2    0.08    0.15
  -6  -7   2    0.03    0.19
  -6  -7   2   -0.03    0.19
  -6  -7   2    0.09    0.21
  -6  -7   2    0.23    0.17
   5   7  -2   17.19    0.55
   5   7  -2   16.26    0.74
   5   7  -2   17.23    0.66
   5   7  -2   16.81    0.67
   5   7  -2   17.31    0.67
  -5  -7   2   17.97    0.66
  -5  -7   2   17.06    0.61
  -5  -7   2   15.86    0.66
   4   7  -2    0.11    0.20
   4   7  -2   -0.09    0.12
   4   7  -2    0.08    0.17
   4   7  -2   -0.08    0.15
   4   7  -2    0.09    0.18
  -4  -7   2    0.01    0.17
  -4  -7   2    0.01    0.11
  -4  -7   2   -0.24    0.14
  -4  -7   2   -0.09    0.14
  -4  -7   2   -0.10    0.18
   3   7  -2   40.49    1.15
   3   7  -2   42.13    1.10
   3   7  -2   40.92    1.19
   3   7  -2   40.31    1.15
  -3  -7   2   41.48    1.03
  -3  -7   2   40.19    1.11
  -3  -7   2   41.50    1.13
  -3  -7   2   40.19    1.13
   2   7  -2   -0.01    0.12
   2   7  -2    0.12    0.12
   2   7  -2    0.06    0.13
   2   7  -2    0.51    0.20
  -2  -7   2   -0.09    0.11
  -2  -7   2    0.02    0.12
  -2  -7   2    0.15    0.14
  -2  -7   2   -0.02    0.09
  -2  -7   2   -0.10    0.11
   1   7  -2   82.71    2.04
   1   7  -2   85.90    1.92
   1   7  -2   81.30    2.10
   1   7  -2   82.19    2.03
  -1  -7   2   81.09    1.99
  -1  -7   2   86.44    2.00
  -1  -7   2   82.09    1.98
  -1  -7   2   80.49    2.00
  -1  -7   2   81.19    2.03
   0   7  -2    3.56    0.31
   0   7  -2    3.61    0.24
   0  -7   2    3.76    0.22
   0  -7   2    3.89    0.23
   0  -7   2    3.79    0.21
   0  -7   2    3.60    0.23
   0  -7   2    3.64    0.24
  -1   7  -2   37.25    1.01
  -1   7  -2   38.06    1.05
  -1   7  -2   38.37    1.09
   1  -7   2   39.34    1.04
   1  -7   2   39.14    1.03
   1  -7   2   38.90    1.02
   1  -7   2   38.66    1.04
   1  -7   2   38.61    1.04
  -2   7  -2    0.53    0.18
  -2   7  -2    0.47    0.12
  -2   7  -2    0.40    0.17
   2  -7   2    0.35    0.16
   2  -7   2    0.65    0.16
   2  -7   2    0.56    0.15
   2  -7   2    0.51    0.11
   2  -7   2    0.52    0.13
  -3   7  -2   22.87    0.70
  -3   7  -2   22.22    0.66
  -3   7  -2   23.51    0.67
   3  -7   2   22.07    0.71
   3  -7   2   23.00    0.72
   3  -7   2   22.06    0.70
   3  -7   2   23.29    0.76
   3  -7   2   23.38    0.60
  -4   7  -2    0.09    0.13
  -4   7  -2    0.10    0.11
  -4   7  -2    0.02    0.10
   4  -7   2    0.05    0.20
   4  -7   2    0.14    0.17
   4  -7   2   -0.02    0.15
   4  -7   2   -0.09    0.16
  -5   7  -2   10.63    0.42
  -5   7  -2   10.07    0.48
  -5   7  -2   11.37    0.41
  -5   7  -2   10.53    0.38
   5  -7   2   11.36    0.64
   5  -7   2   11.41    0.53
   5  -7   2   10.62    0.53
  -6   7  -2    0.02    0.18
  -6   7  -2    0.25    0.25
  -6   7  -2    0.25    0.13
   6  -7   2    0.13    0.20
   6  -7   2    0.14    0.32
  -7   7  -2    2.63    0.35
  -7   7  -2    3.13    0.27
   7  -7   2    3.09    0.43
   7  -7   2    2.86    0.46
   9   6  -2   -0.04    0.29
   9   6  -2   -0.04    0.35
   9   6  -2    0.25    0.29
   9   6  -2    0.21    0.28
  -9  -6   2   -0.25    0.26
  -9  -6   2   -0.20    0.26
  -9  -6   2    0.20    0.30
  -9  -6   2    0.02    0.31
   8   6  -2    7.44    0.55
   8   6  -2    6.16    0.53
   8   6  -2    6.46    0.62
   8   6  -2    6.50    0.50
   8   6  -2    6.50    0.52
  -8  -6   2    7.08    0.52
  -8  -6   2    6.71    0.52
  -8  -6   2    6.20    0.50
   7   6  -2    0.41    0.20
   7   6  -2   -0.30    0.22
   7   6  -2    0.00    0.25
  -7  -6   2    0.22    0.25
  -7  -6   2    0.44    0.26
  -7  -6   2    0.27    0.25
   6   6  -2    5.49    0.33
   6   6  -2    5.45    0.39
   6   6  -2    5.54    0.40
  -6  -6   2    6.08    0.41
  -6  -6   2    5.39    0.34
  -6  -6   2    5.56    0.40
  -6  -6   2    5.64    0.25
   5   6  -2   -0.14    0.11
   5   6  -2    0.28    0.17
   5   6  -2    0.00    0.19
   5   6  -2    0.12    0.17
  -5  -6   2    0.15    0.10
  -5  -6   2   -0.27    0.18
  -5  -6   2   -0.10    0.15
  -5  -6   2    0.25    0.16
  -5  -6   2   -0.05    0.15
   4   6  -2   37.56    1.11
   4   6  -2   38.35    1.05
   4   6  -2   36.14    1.04
   4   6  -2   35.97    1.04
   4   6  -2   34.31    0.95
  -4  -6   2   38.04    0.95
  -4  -6   2   34.31    1.03
  -4  -6   2   34.77    1.03
  -4  -6   2   35.45    1.04
  -4  -6   2   36.35    1.00
   3   6  -2    0.18    0.13
   3   6  -2    0.45    0.17
   3   6  -2    0.39    0.14
   3   6  -2    0.41    0.14
  -3  -6   2    0.29    0.12
  -3  -6   2    0.14    0.11
  -3  -6   2    0.31    0.14
  -3  -6   2    0.08    0.15
  -3  -6   2    0.27    0.09
   2   6  -2   64.05    1.65
   2   6  -2   64.52    1.59
   2   6  -2   64.24    1.69
   2   6  -2   66.51    1.65
  -2  -6   2   64.50    1.62
  -2  -6   2   66.83    1.64
  -2  -6   2   68.39    1.67
  -2  -6   2   64.04    1.62
   1   6  -2    1.91    0.24
   1   6  -2    1.90    0.20
   1   6  -2    1.62    0.18
  -1  -6   2    2.21    0.19
  -1  -6   2    1.74    0.15
  -1  -6   2    2.24    0.18
  -1  -6   2    1.85    0.16
  -1  -6   2    2.10    0.17
   0   6  -2   53.41    1.36
   0   6  -2   54.70    1.43
   0  -6   2   53.27    1.36
   0  -6   2   55.79    1.33
   0  -6   2   54.77    1.34
   0  -6   2   54.48    1.34
   0  -6   2   54.92    1.37
  -1   6  -2    5.63    0.25
  -1   6  -2    5.99    0.32
  -1   6  -2    5.99    0.26
   1  -6   2    5.98    0.27
   1  -6   2    5.81    0.26
   1  -6   2    5.68    0.30
   1  -6   2    5.94    0.25
   1  -6   2    5.82    0.27
   1  -6   2    6.10    0.24
  -2   6  -2   62.22    1.56
  -2   6  -2   61.40    1.51
  -2   6  -2   63.00    1.51
   2  -6   2   61.12    1.54
   2  -6   2   60.44    1.59
   2  -6   2   63.48    1.56
   2  -6   2   60.56    1.54
   2  -6   2   62.16    1.47
  -3   6  -2    2.82    0.19
  -3   6  -2    2.82    0.22
  -3   6  -2    2.95    0.19
   3  -6   2    2.94    0.23
   3  -6   2    2.52    0.25
   3  -6   2    2.46    0.28
   3  -6   2    2.81    0.24
   3  -6   2    2.79    0.16
  -4   6  -2   48.35    1.19
  -4   6  -2   47.34    1.19
  -4   6  -2   46.70    1.20
   4  -6   2   47.80    1.13
   4  -6   2   47.51    1.27
   4  -6   2   48.19    1.35
   4  -6   2   47.57    1.28
   4  -6   2   47.65    1.27
   4  -6   2   43.64    1.20
  -5   6  -2   -0.05    0.15
  -5   6  -2    0.11    0.10
  -5   6  -2   -0.36    0.16
  -5   6  -2    0.17    0.11
   5  -6   2    0.17    0.18
   5  -6   2    0.00    0.13
   5  -6   2    0.03    0.17
   5  -6   2   -0.04    0.21
  -6   6  -2    5.53    0.37
  -6   6  -2    5.29    0.31
  -6   6  -2    6.04    0.31
   6  -6   2    5.73    0.34
   6  -6   2    6.05    0.42
   6  -6   2    6.02    0.72
  -7   6  -2    0.21    0.18
  -7   6  -2    0.03    0.12
  -7   6  -2    0.07    0.19
   7  -6   2   -0.37    0.23
   7  -6   2   -0.16    0.29
   7  -6   2    0.00    0.19
  -8   6  -2    2.38    0.29
  -8   6  -2    2.61    0.37
   8  -6   2    2.85    0.49
   8  -6   2    2.45    0.36
   9   5  -2    1.05    0.33
   9   5  -2    0.48    0.29
   9   5  -2    0.87    0.37
  -9  -5   2    1.35    0.31
  -9  -5   2    1.34    0.31
  -9  -5   2    1.32    0.37
  -9  -5   2    1.30    0.34
   8   5  -2    0.46    0.26
   8   5  -2    0.01    0.27
   8   5  -2   -0.02    0.28
   8   5  -2   -0.33    0.30
  -8  -5   2    0.31    0.24
  -8  -5   2    0.11    0.25
  -8  -5   2   -0.12    0.22
  -8  -5   2    0.24    0.29
   7   5  -2   15.26    0.61
   7   5  -2   14.65    0.61
   7   5  -2   14.12    0.71
   7   5  -2   13.65    0.59
  -7  -5   2   15.16    0.69
  -7  -5   2   14.71    0.66
  -7  -5   2   15.39    0.62
  -7  -5   2   14.61    0.57
   6   5  -2    0.00    0.20
   6   5  -2    0.12    0.16
   6   5  -2    0.20    0.22
   6   5  -2   -0.28    0.17
   6   5  -2   -0.16    0.15
  -6  -5   2    0.22    0.16
  -6  -5   2    0.07    0.15
  -6  -5   2    0.11    0.14
  -6  -5   2    0.12    0.17
   5   5  -2   12.66    0.51
   5   5  -2   12.89    0.49
   5   5  -2   12.64    0.51
   5   5  -2   12.31    0.54
   5   5  -2   13.35    0.53
  -5  -5   2   13.12    0.52
  -5  -5   2   13.40    0.49
  -5  -5   2   12.63    0.53
  -5  -5   2   13.30    0.38
  -5  -5   2   14.28    0.55
   4   5  -2    0.26    0.16
   4   5  -2    0.12    0.12
   4   5  -2    0.19    0.14
   4   5  -2    0.28    0.16
   4   5  -2    0.36    0.14
  -4  -5   2    0.34    0.13
  -4  -5   2    0.22    0.13
  -4  -5   2    0.29    0.13
  -4  -5   2    0.20    0.15
  -4  -5   2    0.25    0.08
   3   5  -2   13.67    0.48
   3   5  -2   14.32    0.48
   3   5  -2   12.44    0.54
   3   5  -2   13.54    0.50
   3   5  -2   13.36    0.42
  -3  -5   2   14.07    0.38
  -3  -5   2   13.28    0.47
  -3  -5   2   13.82    0.48
  -3  -5   2   14.05    0.48
  -3  -5   2   13.66    0.45
   2   5  -2    4.54    0.23
   2   5  -2    4.32    0.29
   2   5  -2    4.84    0.26
   2   5  -2    4.63    0.26
  -2  -5   2    4.68    0.24
  -2  -5   2    5.18    0.25
  -2  -5   2    4.77    0.19
  -2  -5   2    4.57    0.25
   1   5  -2  114.63    2.59
   1   5  -2  112.05    2.65
   1   5  -2  109.06    2.65
   1   5  -2  107.94    2.70
  -1  -5   2  112.61    2.60
  -1  -5   2  114.98    2.66
  -1  -5   2  112.62    2.64
  -1  -5   2  114.92    2.63
  -1  -5   2  114.28    2.63
   0   5  -2    0.21    0.13
   0   5  -2    0.16    0.08
   0  -5   2    0.05    0.07
   0  -5   2    0.02    0.07
   0  -5   2   -0.05    0.08
   0  -5   2    0.00    0.06
   0  -5   2    0.08    0.07
  -1   5  -2   89.83    2.21
  -1   5  -2   94.36    2.21
  -1   5  -2   91.95    2.26
   1  -5   2   96.22    2.22
   1  -5   2   94.89    2.21
   1  -5   2   92.73    2.19
   1  -5   2   92.10    2.23
   1  -5   2  100.19    2.19
  -2   5  -2   15.93    0.46
  -2   5  -2   15.68    0.50
   2  -5   2   15.40    0.49
   2  -5   2   16.74    0.52
   2  -5   2   15.39    0.49
   2  -5   2   16.27    0.44
   2  -5   2   16.55    0.49
  -3   5  -2   52.60    1.33
  -3   5  -2   55.29    1.34
  -3   5  -2   56.54    1.33
   3  -5   2   54.12    1.37
   3  -5   2   53.10    1.37
   3  -5   2   56.05    1.29
   3  -5   2   53.97    1.42
   3  -5   2   53.11    1.37
   3  -5   2   54.23    1.26
  -4   5  -2    0.06    0.08
  -4   5  -2    0.02    0.08
  -4   5  -2   -0.01    0.11
  -4   5  -2    0.13    0.10
   4  -5   2    0.10    0.13
   4  -5   2    0.08    0.08
   4  -5   2    0.13    0.13
   4  -5   2   -0.08    0.10
   4  -5   2    0.01    0.16
   4  -5   2   -0.11    0.12
  -5   5  -2   36.86    0.89
  -5   5  -2   38.22    1.18
  -5   5  -2   36.31    0.95
  -5   5  -2   36.48    0.95
   5  -5   2   35.66    1.03
   5  -5   2   34.35    1.03
   5  -5   2   36.82    1.12
   5  -5   2   36.04    0.95
  -6   5  -2   -0.10    0.13
  -6   5  -2   -0.16    0.29
  -6   5  -2   -0.05    0.12
   6  -5   2    0.02    0.16
   6  -5   2    0.00    0.25
   6  -5   2    0.07    0.32
  -7   5  -2    6.13    0.32
  -7   5  -2    5.54    0.38
  -7   5  -2    5.89    0.32
   7  -5   2    5.12    0.43
   7  -5   2    5.81    0.56
   7  -5   2    6.58    0.42
  -8   5  -2    0.44    0.16
  -8   5  -2    0.20    0.22
   8  -5   2    0.17    0.25
   8  -5   2   -0.02    0.31
   8  -5   2    0.26    0.32
   9   4  -2    0.31    0.35
   9   4  -2    0.22    0.29
   9   4  -2   -0.15    0.26
  -9  -4   2   -0.12    0.22
  -9  -4   2    0.44    0.33
  -9  -4   2    0.45    0.30
  -9  -4   2   -0.05    0.32
   8   4  -2    9.35    0.51
   8   4  -2    9.83    0.58
   8   4  -2    9.01    0.63
   8   4  -2    8.11    0.61
  -8  -4   2    8.50    0.52
  -8  -4   2    9.42    0.52
  -8  -4   2    8.46    0.53
  -8  -4   2    9.37    0.61
   7   4  -2    0.05    0.25
   7   4  -2   -0.02    0.19
   7   4  -2    0.12    0.23
   7   4  -2    0.06    0.19
   7   4  -2    0.17    0.18
  -7  -4   2   -0.25    0.17
  -7  -4   2    0.09    0.31
  -7  -4   2    0.02    0.18
  -7  -4   2   -0.37    0.16
   6   4  -2    5.67    0.43
   6   4  -2    6.84    0.37
   6   4  -2    6.00    0.36
   6   4  -2    5.81    0.46
   6   4  -2    5.90    0.36
  -6  -4   2    6.59    0.37
  -6  -4   2    5.87    0.35
  -6  -4   2    5.56    0.36
  -6  -4   2    6.43    0.42
  -6  -4   2    5.76    0.48
   5   4  -2    0.42    0.17
   5   4  -2    0.33    0.17
   5   4  -2    0.26    0.14
   5   4  -2    0.19    0.19
   5   4  -2    0.17    0.14
  -5  -4   2    0.07    0.13
  -5  -4   2    0.22    0.19
  -5  -4   2    0.17    0.13
  -5  -4   2    0.24    0.09
  -5  -4   2    0.22    0.14
   4   4  -2   53.72    1.40
   4   4  -2   52.97    1.43
   4   4  -2   55.62    1.38
   4   4  -2   55.54    1.39
   4   4  -2   52.29    1.39
  -4  -4   2   54.31    1.41
  -4  -4   2   54.86    1.37
  -4  -4   2   55.30    1.28
  -4  -4   2   53.30    1.40
  -4  -4   2   55.53    1.43
   3   4  -2    0.24    0.10
   3   4  -2    0.54    0.12
   3   4  -2    0.72    0.14
   3   4  -2    0.50    0.14
   3   4  -2    0.12    0.12
  -3  -4   2    0.36    0.10
  -3  -4   2    0.35    0.11
  -3  -4   2    0.35    0.06
  -3  -4   2    0.16    0.10
  -3  -4   2    0.59    0.23
   2   4  -2   88.84    2.14
   2   4  -2   92.20    2.17
   2   4  -2   90.26    2.19
   2   4  -2   91.76    2.22
   2   4  -2   92.19    2.19
  -2  -4   2   93.08    2.19
  -2  -4   2   91.36    2.10
  -2  -4   2   91.89    2.19
  -2  -4   2   92.24    2.19
  -2  -4   2   94.52    2.16
   1   4  -2    1.57    0.19
   1   4  -2    1.91    0.15
   1   4  -2    2.09    0.15
   1   4  -2    2.02    0.13
  -1  -4   2    1.80    0.16
  -1  -4   2    1.75    0.14
  -1  -4   2    2.09    0.15
  -1  -4   2    1.97    0.15
  -1  -4   2    1.82    0.12
   0   4  -2   81.61    2.00
   0   4  -2   84.69    1.88
   0  -4   2   82.65    1.96
   0  -4   2   83.34    1.94
   0  -4   2   82.57    1.94
   0  -4   2   83.87    1.94
  -1   4  -2    4.08    0.18
  -1   4  -2    3.91    0.18
  -1   4  -2    4.16    0.23
   1  -4   2    4.16    0.17
   1  -4   2    3.84    0.19
   1  -4   2    4.14    0.19
   1  -4   2    4.36    0.19
   1  -4   2    4.16    0.22
  -2   4  -2   87.49    2.00
  -2   4  -2   84.88    2.00
  -2   4  -2   85.03    2.02
   2  -4   2   86.10    2.02
   2  -4   2   86.60    2.04
   2  -4   2   83.29    2.02
   2  -4   2   83.12    1.98
   2  -4   2   86.22    2.03
  -3   4  -2    3.30    0.16
  -3   4  -2    3.18    0.16
  -3   4  -2    3.07    0.17
   3  -4   2    3.08    0.20
   3  -4   2    2.91    0.19
   3  -4   2    3.09    0.20
   3  -4   2    3.23    0.23
   3  -4   2    3.57    0.15
   3  -4   2    3.37    0.15
  -4   4  -2   58.62    1.35
  -4   4  -2   51.35    1.40
  -4   4  -2   56.63    1.44
  -4   4  -2   56.26    1.38
   4  -4   2   57.91    1.45
   4  -4   2   57.33    1.45
   4  -4   2   58.31    1.38
   4  -4   2   58.60    1.50
   4  -4   2   56.46    1.44
   4  -4   2   58.83    1.35
  -5   4  -2    0.21    0.09
  -5   4  -2    0.11    0.12
  -5   4  -2    0.04    0.07
  -5   4  -2    0.01    0.08
   5  -4   2    0.03    0.13
   5  -4   2    0.25    0.10
   5  -4   2   -0.05    0.18
   5  -4   2    0.21    0.15
  -6   4  -2   10.57    0.38
  -6   4  -2    9.68    0.37
  -6   4  -2    9.72    0.44
   6  -4   2    9.56    0.46
   6  -4   2   10.63    0.44
  -7   4  -2    0.60    0.20
  -7   4  -2    0.40    0.15
  -7   4  -2    0.31    0.14
   7  -4   2    0.33    0.28
   7  -4   2    0.28    0.21
   7  -4   2    0.63    0.22
  -8   4  -2    4.94    0.32
  -8   4  -2    5.37    0.37
  -8   4  -2    6.25    0.43
   8  -4   2    5.53    0.52
   8  -4   2    5.74    0.57
   8  -4   2    7.25    0.52
  -9   4  -2    0.00    0.17
  -9   4  -2    0.36    0.25
   9  -4   2    0.13    0.33
   9  -4   2    0.12    0.31
   9  -4   2   -0.64    0.35
   9   3  -2    0.71    0.28
   9   3  -2    1.70    0.38
   9   3  -2    1.66    0.42
  -9  -3   2    1.43    0.30
  -9  -3   2    1.64    0.39
  -9  -3   2    1.05    0.34
   8   3  -2   -0.05    0.27
   8   3  -2    0.13    0.28
   8   3  -2   -0.09    0.24
  -8  -3   2    0.08    0.25
  -8  -3   2    0.02    0.21
  -8  -3   2   -0.05    0.27
   7   3  -2    9.73    0.52
   7   3  -2   10.50    0.42
   7   3  -2   10.74    0.79
   7   3  -2    9.59    0.58
   7   3  -2   10.53    0.46
  -7  -3   2   11.20    0.50
  -7  -3   2   11.10    0.48
  -7  -3   2   10.80    0.52
   6   3  -2   -0.10    0.19
   6   3  -2    0.23    0.18
   6   3  -2    0.20    0.15
   6   3  -2    0.15    0.15
   6   3  -2    0.13    0.15
  -6  -3   2   -0.19    0.13
  -6  -3   2    0.23    0.16
  -6  -3   2    0.24    0.15
   5   3  -2   77.97    1.95
   5   3  -2   78.02    2.02
   5   3  -2   78.79    1.93
   5   3  -2   77.76    2.05
   5   3  -2   80.22    1.95
   5   3  -2   79.90    1.98
  -5  -3   2   81.41    1.98
  -5  -3   2   80.34    1.99
  -5  -3   2   80.50    1.98
   4   3  -2   -0.05    0.13
   4   3  -2    0.22    0.11
   4   3  -2    0.07    0.11
   4   3  -2   -0.04    0.11
   4   3  -2    0.00    0.10
  -4  -3   2    0.03    0.09
  -4  -3   2    0.10    0.15
  -4  -3   2   -0.15    0.09
  -4  -3   2   -0.09    0.06
  -4  -3   2   -0.13    0.10
   3   3  -2  108.55    2.52
   3   3  -2  108.76    2.51
   3   3  -2  105.35    2.51
   3   3  -2  108.46    2.55
  -3  -3   2  104.74    2.53
  -3  -3   2  106.44    2.42
  -3  -3   2  103.89    2.54
  -3  -3   2  107.03    2.53
  -3  -3   2  104.42    2.51
   2   3  -2    1.20    0.13
   2   3  -2    1.44    0.17
   2   3  -2    1.51    0.15
   2   3  -2    1.45    0.13
   2   3  -2    1.26    0.14
  -2  -3   2    1.58    0.16
  -2  -3   2    1.44    0.08
  -2  -3   2    1.56    0.13
  -2  -3   2    1.24    0.17
   1   3  -2   93.53    2.26
   1   3  -2   95.62    2.27
   1   3  -2   98.12    2.24
  -1  -3   2   99.11    2.27
  -1  -3   2   96.49    2.22
  -1  -3   2   99.83    2.27
  -1  -3   2   99.02    2.26
   0   3  -2   10.00    0.33
   0   3  -2   10.47    0.25
   0   3  -2    9.47    0.30
   0   3  -2    9.74    0.30
   0  -3   2    9.53    0.29
   0  -3   2    9.71    0.29
   0  -3   2    9.37    0.31
   0  -3   2   10.36    0.30
  -1   3  -2  209.81    4.90
  -1   3  -2  209.40    4.87
  -1   3  -2  212.97    4.87
   1  -3   2  219.54    4.87
   1  -3   2  216.45    4.87
   1  -3   2  225.31    4.97
   1  -3   2  208.45    4.88
   1  -3   2  217.16    4.88
  -2   3  -2    3.03    0.15
  -2   3  -2    3.13    0.17
  -2   3  -2    2.91    0.15
   2  -3   2    2.88    0.18
   2  -3   2    2.98    0.14
   2  -3   2    3.18    0.19
   2  -3   2    3.21    0.12
   2  -3   2    2.91    0.17
  -3   3  -2   34.43    0.82
  -3   3  -2   33.64    0.84
  -3   3  -2   33.52    0.85
   3  -3   2   31.67    0.86
   3  -3   2   34.72    0.84
   3  -3   2   34.55    0.91
   3  -3   2   33.51    0.88
   3  -3   2   33.53    0.87
   3  -3   2   32.99    0.87
  -4   3  -2    0.80    0.08
  -4   3  -2    0.73    0.13
  -4   3  -2    0.88    0.11
  -4   3  -2    0.79    0.11
   4  -3   2    0.85    0.13
   4  -3   2    0.80    0.13
   4  -3   2    0.66    0.14
   4  -3   2    0.89    0.11
   4  -3   2    1.09    0.16
  -5   3  -2   22.59    0.63
  -5   3  -2   23.54    0.63
  -5   3  -2   23.46    0.69
   5  -3   2   23.47    0.69
   5  -3   2   22.85    0.70
   5  -3   2   22.38    0.76
   5  -3   2   23.20    0.62
  -6   3  -2    0.20    0.10
  -6   3  -2    0.13    0.10
  -6   3  -2    0.13    0.14
   6  -3   2    0.15    0.13
   6  -3   2    0.15    0.17
   6  -3   2   -0.07    0.18
   6  -3   2    0.30    0.13
  -7   3  -2   18.82    0.57
  -7   3  -2   15.86    0.60
   7  -3   2   18.04    0.81
   7  -3   2   17.52    0.72
   7  -3   2   18.46    0.68
  -8   3  -2   -0.21    0.17
  -8   3  -2   -0.16    0.16
   8  -3   2   -0.29    0.21
   8  -3   2    0.14    0.28
   8  -3   2    0.20    0.27
  -9   3  -2    1.47    0.24
  -9   3  -2    1.84    0.30
   9  -3   2    1.59    0.37
   9  -3   2    1.97    0.43
   9   2  -2   -0.16    0.43
   9   2  -2    0.03    0.25
   9   2  -2    0.19    0.33
  -9  -2   2    0.00    0.21
  -9  -2   2   -0.36    0.35
  -9  -2   2   -0.42    0.29
   8   2  -2    9.64    0.45
   8   2  -2    9.52    0.57
   8   2  -2    9.96    0.62
   8   2  -2   10.41    0.64
  -8  -2   2    9.25    0.50
  -8  -2   2    9.61    0.51
   7   2  -2    0.37    0.26
   7   2  -2   -0.08    0.16
   7   2  -2   -0.11    0.19
   7   2  -2    0.28    0.16
  -7  -2   2   -0.02    0.15
  -7  -2   2    0.06    0.16
  -7  -2   2    0.24    0.18
   6   2  -2   14.91    0.63
   6   2  -2   15.29    0.59
   6   2  -2   13.44    0.45
   6   2  -2   13.91    0.49
   6   2  -2   13.60    0.55
  -6  -2   2   15.51    0.54
  -6  -2   2   14.74    0.53
  -6  -2   2   14.25    0.53
   5   2  -2    0.20    0.15
   5   2  -2    0.28    0.12
   5   2  -2   -0.05    0.11
   5   2  -2    0.12    0.17
   5   2  -2    0.16    0.13
  -5  -2   2    0.17    0.13
  -5  -2   2   -0.04    0.10
  -5  -2   2    0.11    0.11
   4   2  -2  148.47    3.70
   4   2  -2  159.05    3.67
   4   2  -2  158.54    3.68
   4   2  -2  161.13    3.73
   4   2  -2  161.58    3.77
   4   2  -2  162.81    3.74
  -4  -2   2  153.85    3.71
  -4  -2   2  160.96    3.68
  -4  -2   2  163.60    3.72
   3   2  -2    0.21    0.12
   3   2  -2    0.23    0.09
   3   2  -2    0.12    0.08
   3   2  -2    0.05    0.10
   3   2  -2    0.05    0.09
  -3  -2   2    0.22    0.09
  -3  -2   2    0.02    0.14
  -3  -2   2    0.14    0.09
  -3  -2   2    0.22    0.09
   2   2  -2  202.76    4.53
   2   2  -2  196.17    4.54
   2   2  -2  203.54    4.54
   2   2  -2  202.06    4.55
   2   2  -2  195.36    4.53
  -2  -2   2  191.67    4.60
  -2  -2   2  195.78    4.54
  -2  -2   2  201.27    4.52
  -2  -2   2  200.10    4.54
   1   2  -2   17.85    0.47
   1   2  -2   17.95    0.47
   1   2  -2   17.91    0.49
   1   2  -2   17.83    0.47
   1   2  -2   17.91    0.47
  -1  -2   2   17.90    0.47
  -1  -2   2   17.89    0.47
  -1  -2   2   18.28    0.45
  -1  -2   2   17.84    0.42
  -1  -2   2   17.69    0.49
   0   2  -2  108.30    2.41
   0   2  -2  103.44    2.44
   0   2  -2  106.43    2.46
   0  -2   2  106.36    2.42
   0  -2   2  106.30    2.44
   0  -2   2  106.20    2.43
   0  -2   2  107.69    2.45
   0  -2   2  106.60    2.44
  -1   2  -2    5.42    0.19
  -1   2  -2    5.46    0.20
   1  -2   2    5.58    0.20
   1  -2   2    5.54    0.18
   1  -2   2    5.28    0.18
   1  -2   2    5.34    0.19
   1  -2   2    5.53    0.18
  -2   2  -2  148.65    3.38
  -2   2  -2  145.17    3.38
  -2   2  -2  150.11    3.39
   2  -2   2  147.50    3.40
   2  -2   2  149.56    3.38
   2  -2   2  153.74    3.38
   2  -2   2  146.20    3.44
  -3   2  -2    0.58    0.10
  -3   2  -2    0.66    0.09
  -3   2  -2    0.59    0.08
  -3   2  -2    0.70    0.07
   3  -2   2    0.48    0.11
   3  -2   2    0.50    0.11
   3  -2   2    0.61    0.08
   3  -2   2    0.46    0.09
   3  -2   2    0.66    0.12
  -4   2  -2  107.43    2.57
  -4   2  -2  113.25    2.50
  -4   2  -2  109.13    2.60
  -4   2  -2  113.94    2.57
   4  -2   2  110.17    2.66
   4  -2   2  110.28    2.56
  -5   2  -2    1.46    0.14
  -5   2  -2    1.25    0.13
  -5   2  -2    1.26    0.16
   5  -2   2    1.35    0.20
   5  -2   2    1.16    0.15
   5  -2   2    1.33    0.21
   5  -2   2    1.19    0.15
  -6   2  -2   13.52    0.44
  -6   2  -2   13.22    0.49
  -6   2  -2   12.63    0.43
   6  -2   2   13.52    0.43
   6  -2   2   13.86    0.54
   6  -2   2   13.36    0.57
   6  -2   2   12.66    0.51
  -7   2  -2    0.01    0.16
  -7   2  -2    0.31    0.14
   7  -2   2    0.44    0.15
   7  -2   2    0.24    0.22
   7  -2   2   -0.05    0.16
   7  -2   2   -0.02    0.21
  -8   2  -2   10.07    0.50
  -8   2  -2   10.25    0.51
  -8   2  -2    9.18    0.44
   8  -2   2   10.59    0.62
   8  -2   2   10.08    0.62
   8  -2   2    9.53    0.56
  -9   2  -2    0.39    0.23
   9  -2   2   -0.40    0.28
   9  -2   2    0.27    0.35
   9   1  -2    2.28    0.35
   9   1  -2    2.70    0.41
   9   1  -2    1.76    0.41
  -9  -1   2    2.21    0.48
  -9  -1   2    2.63    0.37
  -9  -1   2    2.13    0.34
   8   1  -2    0.27    0.23
   8   1  -2    0.75    0.28
   8   1  -2    0.72    0.31
  -8  -1   2    0.46    0.28
  -8  -1   2    0.14    0.20
  -8  -1   2    0.56    0.21
   7   1  -2    8.02    0.35
   7   1  -2    8.32    0.50
   7   1  -2    7.62    0.52
   7   1  -2    7.77    0.44
  -7  -1   2    8.73    0.44
  -7  -1   2    8.57    0.41
  -7  -1   2    9.02    0.41
   6   1  -2   -0.20    0.16
   6   1  -2   -0.10    0.10
   6   1  -2   -0.28    0.13
   6   1  -2    0.12    0.17
   6   1  -2   -0.39    0.16
  -6  -1   2   -0.01    0.12
  -6  -1   2    0.03    0.12
  -6  -1   2   -0.01    0.14
   5   1  -2   62.44    1.50
   5   1  -2   61.22    1.47
   5   1  -2   60.95    1.56
   5   1  -2   62.33    1.62
   5   1  -2   60.32    1.63
  -5  -1   2   61.78    1.56
  -5  -1   2   63.31    1.53
  -5  -1   2   63.17    1.56
   4   1  -2    0.55    0.09
   4   1  -2    0.45    0.15
   4   1  -2    0.99    0.17
   4   1  -2    0.61    0.10
   4   1  -2    0.59    0.12
  -4  -1   2    0.71    0.11
  -4  -1   2    0.63    0.11
  -4  -1   2    0.73    0.12
   3   1  -2  120.12    2.82
   3   1  -2  120.60    2.81
   3   1  -2  121.55    2.82
   3   1  -2  120.88    2.74
   3   1  -2  109.54    2.83
  -3  -1   2  122.13    2.79
  -3  -1   2  119.34    2.79
  -3  -1   2  121.98    2.76
   2   1  -2    0.67    0.11
   2   1  -2    0.46    0.09
   2   1  -2    0.44    0.07
   2   1  -2    0.60    0.09
   2   1  -2    0.44    0.07
   2   1  -2    0.59    0.10
  -2  -1   2    0.36    0.07
  -2  -1   2    0.46    0.11
  -2  -1   2    0.52    0.08
  -2  -1   2    0.45    0.08
   1   1  -2  107.56    2.43
   1   1  -2  106.79    2.44
   1   1  -2  106.96    2.44
   1   1  -2  103.58    2.43
   1   1  -2  104.76    2.45
   1   1  -2  104.54    2.45
  -1  -1   2  110.72    2.41
  -1  -1   2  107.63    2.46
  -1  -1   2  105.92    2.44
  -1  -1   2  106.08    2.44
   0   1  -2   18.22    0.48
   0   1  -2   18.66    0.47
   0   1  -2   19.02    0.46
   0  -1   2   18.70    0.48
   0  -1   2   18.93    0.47
   0  -1   2   18.54    0.47
   0  -1   2   19.35    0.46
  -1   1  -2  504.59   11.77
  -1   1  -2  517.04   11.81
  -1   1  -2  508.96   11.81
  -1   1  -2  508.33   11.71
   1  -1   2  520.87   11.74
   1  -1   2  527.80   11.77
   1  -1   2  530.49   11.86
   1  -1   2  524.27   11.85
  -2   1  -2    0.07    0.04
  -2   1  -2    0.04    0.04
  -2   1  -2   -0.05    0.05
  -2   1  -2   -0.03    0.04
   2  -1   2    0.11    0.05
   2  -1   2   -0.02    0.04
   2  -1   2   -0.04    0.04
   2  -1   2   -0.04    0.06
  -3   1  -2  202.83    4.46
  -3   1  -2  175.90    4.47
  -3   1  -2  203.32    4.41
  -3   1  -2  204.09    4.48
   3  -1   2  197.06    4.45
   3  -1   2  178.96    4.55
   3  -1   2  203.53    4.45
   3  -1   2  199.91    4.48
   3  -1   2  198.99    4.49
  -4   1  -2   -0.04    0.06
  -4   1  -2    0.06    0.06
  -4   1  -2    0.01    0.08
   4  -1   2   -0.06    0.10
   4  -1   2    0.11    0.07
   4  -1   2    0.00    0.13
   4  -1   2    0.19    0.08
  -5   1  -2   56.71    1.39
  -5   1  -2   54.43    1.35
  -5   1  -2   56.32    1.35
   5  -1   2   54.44    1.40
   5  -1   2   53.87    1.45
   5  -1   2   55.83    1.35
   5  -1   2   54.42    1.44
  -6   1  -2    0.65    0.16
  -6   1  -2    0.37    0.14
   6  -1   2    0.53    0.14
   6  -1   2    0.51    0.17
   6  -1   2    0.29    0.21
   6  -1   2    0.35    0.16
  -7   1  -2   26.89    0.76
  -7   1  -2   25.04    0.77
  -7   1  -2   25.40    0.88
   7  -1   2   24.67    0.91
   7  -1   2   26.52    0.75
   7  -1   2   25.22    0.99
   7  -1   2   25.49    0.89
  -8   1  -2    0.31    0.17
  -8   1  -2    0.16    0.20
  -8   1  -2    0.30    0.18
   8  -1   2    0.22    0.26
   8  -1   2   -0.12    0.30
   8  -1   2    0.14    0.20
  -9   1  -2    2.68    0.35
  -9   1  -2    2.63    0.37
   9  -1   2    2.32    0.38
   9  -1   2    2.09    0.43
 -10   1  -2   -0.11    0.33
 -10   1  -2    0.05    0.24
 -10   1  -2    0.04    0.27
  10  -1   2    0.37    0.32
  10  -1   2   -0.21    0.40
   9   0  -2    0.09    0.32
   9   0  -2    0.04    0.25
   9   0  -2    0.14    0.37
  -9   0   2    0.53    0.22
  -9   0   2    0.16    0.30
   8   0  -2   11.22    0.63
   8   0  -2   10.43    0.65
   8   0  -2   11.18    0.54
  -8   0   2   10.44    0.52
  -8   0   2   11.72    0.53
  -8   0   2   11.47    0.55
   7   0  -2    0.57    0.19
   7   0  -2    0.51    0.30
   7   0  -2    0.37    0.22
  -7   0   2    0.53    0.17
  -7   0   2    0.43    0.18
  -7   0   2    0.70    0.18
   6   0  -2   10.67    0.52
   6   0  -2   10.85    0.40
   6   0  -2   10.96    0.43
   6   0  -2   10.72    0.52
  -6   0   2   11.39    0.42
  -6   0   2   10.70    0.42
  -6   0   2   11.08    0.43
   5   0  -2    0.13    0.11
   5   0  -2    0.18    0.16
   5   0  -2    0.30    0.15
  -5   0   2    0.19    0.10
  -5   0   2    0.10    0.10
  -5   0   2    0.17    0.11
   4   0  -2   25.98    0.80
   4   0  -2   27.27    0.67
   4   0  -2   27.54    0.74
   4   0  -2   27.30    0.79
  -4   0   2   27.95    0.71
  -4   0   2   27.03    0.72
  -4   0   2   27.14    0.72
   3   0  -2    4.92    0.22
   3   0  -2    5.05    0.27
   3   0  -2    4.91    0.25
   3   0  -2    5.25    0.18
  -3   0   2    5.27    0.19
  -3   0   2    5.12    0.21
  -3   0   2    5.21    0.21
  -3   0   2    5.73    0.24
   2   0  -2  298.29    6.57
   2   0  -2  295.37    6.46
   2   0  -2  278.06    6.50
   2   0  -2  287.42    6.52
   2   0  -2  284.01    6.46
   2   0  -2  285.96    6.47
   2   0  -2  284.66    6.48
  -2   0   2  277.56    6.43
  -2   0   2  273.24    6.45
  -2   0   2  286.51    6.51
  -2   0   2  291.61    6.48
   1   0  -2    6.78    0.21
   1   0  -2    6.97    0.19
   1   0  -2    6.83    0.18
   1   0  -2    6.73    0.23
   1   0  -2    7.05    0.23
   1   0  -2    6.80    0.22
  -1   0   2    7.15    0.20
  -1   0   2    6.96    0.18
  -1   0   2    6.85    0.20
  -1   0   2    6.75    0.25
   0   0  -2  395.67    9.18
   0   0  -2  411.41    9.14
   0   0  -2  404.80    9.17
   0   0  -2  394.35    9.07
   0   0  -2  415.04    9.24
   0   0  -2  409.89    9.20
   0   0   2  404.46    9.15
   0   0   2  392.12    9.23
   0   0   2  404.86    9.16
  -1   0  -2    3.50    0.13
  -1   0  -2    3.58    0.13
  -1   0  -2    3.67    0.13
  -1   0  -2    3.65    0.11
  -1   0  -2    3.70    0.13
   1   0   2    3.68    0.13
   1   0   2    3.57    0.14
   1   0   2    3.73    0.12
  -2   0  -2  112.74    2.53
  -2   0  -2  111.59    2.55
  -2   0  -2  111.82    2.55
  -2   0  -2  110.94    2.56
   2   0   2  112.12    2.55
   2   0   2  110.92    2.55
   2   0   2  111.55    2.55
   2   0   2  110.88    2.56
  -3   0  -2    0.49    0.07
  -3   0  -2    0.39    0.08
  -3   0  -2    0.65    0.08
   3   0   2    0.54    0.09
   3   0   2    0.44    0.09
   3   0   2    0.53    0.08
   3   0   2    0.51    0.08
  -4   0  -2  266.99    6.11
  -4   0  -2  265.78    6.11
  -4   0  -2  275.69    6.14
   4   0   2  271.41    6.11
   4   0   2  262.27    6.15
   4   0   2  276.91    6.06
   4   0   2  267.20    6.16
   4   0   2  268.28    6.13
  -5   0  -2    0.27    0.11
  -5   0  -2    0.41    0.09
   5   0   2    0.53    0.11
   5   0   2    0.06    0.26
   5   0   2    0.28    0.13
   5   0   2    0.13    0.12
   5   0   2    0.19    0.11
   5   0   2    0.45    0.07
  -6   0  -2   30.12    0.88
  -6   0  -2   27.56    0.80
  -6   0  -2   26.82    0.76
   6   0   2   27.50    0.77
   6   0   2   27.21    0.68
   6   0   2   26.31    0.85
   6   0   2   26.16    0.89
  -7   0  -2    0.91    0.20
  -7   0  -2    0.72    0.16
  -7   0  -2    0.79    0.17
   7   0   2    0.62    0.23
   7   0   2    1.06    0.19
   7   0   2    0.65    0.35
   7   0   2    0.94    0.13
  -8   0  -2    8.00    0.46
  -8   0  -2    8.77    0.41
   8   0   2    8.49    0.41
   8   0   2    7.20    0.57
  -9   0  -2    0.07    0.19
  -9   0  -2    0.11    0.24
  -9   0  -2    0.10    0.23
   9   0   2   -0.08    0.33
   9   0   2    0.24    0.27
   9   0   2    0.32    0.22
 -10   0  -2    3.49    0.44
 -10   0  -2    2.93    0.39
 -10   0  -2    2.58    0.43
  10   0   2    2.18    0.39
  10   0   2    2.54    0.49
   9  -1  -2    2.35    0.41
   9  -1  -2    2.03    0.44
  -9   1   2    2.56    0.38
  -9   1   2    2.74    0.39
   8  -1  -2    0.31    0.22
   8  -1  -2   -0.18    0.24
   8  -1  -2   -0.16    0.27
  -8   1   2    0.12    0.21
  -8   1   2    0.40    0.25
  -8   1   2   -0.13    0.16
   7  -1  -2    8.38    0.53
   7  -1  -2    8.29    0.39
  -7   1   2    8.63    0.44
  -7   1   2    9.89    0.66
  -7   1   2    8.87    0.39
   6  -1  -2    0.25    0.13
   6  -1  -2    0.57    0.20
   6  -1  -2   -0.02    0.18
  -6   1   2    0.20    0.11
  -6   1   2    0.24    0.12
  -6   1   2    0.31    0.13
   5  -1  -2   37.59    1.12
   5  -1  -2   38.66    1.00
   5  -1  -2   39.48    1.06
   5  -1  -2   39.02    1.10
  -5   1   2   37.43    0.98
  -5   1   2   38.04    1.00
  -5   1   2   39.68    1.00
   4  -1  -2   -0.02    0.11
   4  -1  -2    0.02    0.11
   4  -1  -2    0.01    0.08
   4  -1  -2   -0.05    0.08
  -4   1   2    0.08    0.11
  -4   1   2    0.03    0.06
  -4   1   2   -0.01    0.06
  -4   1   2   -0.05    0.08
   3  -1  -2  102.14    2.39
   3  -1  -2  104.23    2.37
   3  -1  -2  103.11    2.41
   3  -1  -2  103.92    2.44
   3  -1  -2  101.40    2.47
  -3   1   2  104.76    2.37
  -3   1   2  101.28    2.36
  -3   1   2  104.22    2.36
  -3   1   2  100.78    2.35
   2  -1  -2    7.52    0.26
   2  -1  -2    7.12    0.28
   2  -1  -2    7.39    0.22
   2  -1  -2    7.43    0.24
   2  -1  -2    7.51    0.24
  -2   1   2    7.45    0.19
  -2   1   2    7.37    0.21
  -2   1   2    6.98    0.19
  -2   1   2    7.05    0.20
   1  -1  -2  163.48    3.82
   1  -1  -2  167.72    3.81
   1  -1  -2  164.97    3.78
   1  -1  -2  168.12    3.80
   1  -1  -2  172.01    3.79
   0  -1  -2    6.25    0.19
   0  -1  -2    6.38    0.17
   0  -1  -2    6.21    0.16
   0  -1  -2    6.43    0.19
   0  -1  -2    6.46    0.17
   0  -1  -2    6.48    0.19
   0   1   2    6.25    0.18
   0   1   2    6.36    0.16
   0   1   2    6.25    0.16
   0   1   2    6.16    0.16
  -1  -1  -2  345.55    7.72
  -1  -1  -2  334.58    7.77
  -1  -1  -2  335.73    7.69
  -1  -1  -2  322.67    7.76
   1   1   2  345.20    7.70
   1   1   2  342.63    7.75
   1   1   2  343.73    7.75
  -2  -1  -2    0.16    0.08
  -2  -1  -2    0.11    0.06
  -2  -1  -2    0.09    0.06
   2   1   2   -0.02    0.05
   2   1   2    0.12    0.06
   2   1   2    0.22    0.06
  -3  -1  -2   82.30    1.92
  -3  -1  -2   84.08    1.92
   3   1   2   83.04    1.94
   3   1   2   82.12    1.92
   3   1   2   80.21    1.92
  -4  -1  -2    2.72    0.17
  -4  -1  -2    2.32    0.19
   4   1   2    2.54    0.12
   4   1   2    2.76    0.17
   4   1   2    2.79    0.17
   4   1   2    2.88    0.20
  -5  -1  -2   44.40    1.12
  -5  -1  -2   44.62    1.15
  -5  -1  -2   45.23    1.13
   5   1   2   43.64    1.17
   5   1   2   45.58    1.13
   5   1   2   43.21    1.13
  -6  -1  -2    0.39    0.12
  -6  -1  -2    0.38    0.15
  -6  -1  -2    0.37    0.12
   6   1   2    0.23    0.11
   6   1   2    0.35    0.15
   6   1   2    0.44    0.14
   6   1   2    0.32    0.17
   6   1   2    0.38    0.20
  -7  -1  -2   32.88    0.93
  -7  -1  -2   32.40    0.93
  -7  -1  -2   32.63    0.96
   7   1   2   31.26    1.01
   7   1   2   31.65    0.92
   7   1   2   33.07    1.08
  -8  -1  -2    0.35    0.22
  -8  -1  -2    0.79    0.19
  -8  -1  -2    0.54    0.21
   8   1   2    0.35    0.28
   8   1   2    0.37    0.19
   8   1   2    0.36    0.24
   8   1   2    0.51    0.17
  -9  -1  -2    4.48    0.64
  -9  -1  -2    3.80    0.39
  -9  -1  -2    4.19    0.43
   9   1   2    4.45    0.38
   9   1   2    4.26    0.48
   9   1   2    4.87    0.52
 -10  -1  -2   -0.25    0.22
 -10  -1  -2   -0.01    0.30
 -10  -1  -2    0.62    0.35
  10   1   2    0.22    0.28
  10   1   2    0.35    0.37
   9  -2  -2    0.72    0.35
   9  -2  -2    0.28    0.32
  -9   2   2    0.15    0.21
  -9   2   2    0.04    0.26
   8  -2  -2    6.50    0.55
   8  -2  -2    6.41    0.55
   8  -2  -2    6.50    0.45
  -8   2   2    6.23    0.39
   7  -2  -2   -0.26    0.16
   7  -2  -2   -0.21    0.23
   7  -2  -2    0.06    0.23
  -7   2   2    0.14    0.17
  -7   2   2   -0.03    0.16
  -7   2   2    0.12    0.14
   6  -2  -2   24.66    0.73
   6  -2  -2   26.00    0.83
   6  -2  -2   24.68    0.87
  -6   2   2   27.02    0.73
  -6   2   2   26.40    0.75
  -6   2   2   26.90    0.73
   5  -2  -2    0.68    0.20
   5  -2  -2    0.68    0.13
   5  -2  -2    0.73    0.16
   5  -2  -2    0.61    0.17
  -5   2   2    0.65    0.12
  -5   2   2    0.47    0.11
  -5   2   2    0.66    0.11
  -5   2   2    0.62    0.10
   4  -2  -2   45.61    1.20
   4  -2  -2   45.40    1.19
   4  -2  -2   45.94    1.14
   4  -2  -2   47.17    1.14
   4  -2  -2   44.55    1.26
  -4   2   2   47.55    1.14
  -4   2   2   47.37    1.10
  -4   2   2   46.09    1.12
  -4   2   2   45.14    1.09
   3  -2  -2    6.97    0.33
   3  -2  -2    7.59    0.29
   3  -2  -2    7.62    0.26
   3  -2  -2    7.51    0.28
  -3   2   2    7.48    0.22
  -3   2   2    7.61    0.21
  -3   2   2    8.02    0.21
  -3   2   2    7.38    0.27
   2  -2  -2  151.43    3.60
   2  -2  -2  154.07    3.55
   2  -2  -2  156.06    3.53
   2  -2  -2  156.26    3.54
   2  -2  -2  156.83    3.56
   1  -2  -2   -0.07    0.04
   1  -2  -2   -0.14    0.05
   1  -2  -2   -0.13    0.05
   1  -2  -2   -0.06    0.05
   1  -2  -2   -0.05    0.04
   0  -2  -2  345.37    7.54
   0  -2  -2  312.26    7.44
   0  -2  -2  321.12    7.51
   0  -2  -2  307.46    7.49
   0  -2  -2  330.21    7.55
   0  -2  -2  341.18    7.54
   0   2   2  318.22    7.40
   0   2   2  332.08    7.38
   0   2   2  337.79    7.38
  -1  -2  -2    7.08    0.23
  -1  -2  -2    7.48    0.23
  -1  -2  -2    7.35    0.23
  -1  -2  -2    7.14    0.25
   1   2   2    7.55    0.19
   1   2   2    7.25    0.21
   1   2   2    7.58    0.21
  -2  -2  -2    8.08    0.25
  -2  -2  -2    7.61    0.29
  -2  -2  -2    8.42    0.26
   2   2   2    7.47    0.24
   2   2   2    7.76    0.24
  -3  -2  -2    1.98    0.13
  -3  -2  -2    1.66    0.17
  -3  -2  -2    2.03    0.13
   3   2   2    2.06    0.13
   3   2   2    2.03    0.13
   3   2   2    1.92    0.13
  -4  -2  -2   97.16    2.30
  -4  -2  -2   97.64    2.28
  -4  -2  -2   93.89    2.27
   4   2   2  101.87    2.28
   4   2   2   92.30    2.28
   4   2   2   97.62    2.23
   4   2   2   95.57    2.28
  -5  -2  -2    1.59    0.16
  -5  -2  -2    1.18    0.17
  -5  -2  -2    1.11    0.15
   5   2   2    1.27    0.17
   5   2   2    1.46    0.17
   5   2   2    1.45    0.15
   5   2   2    1.77    0.20
  -6  -2  -2   33.62    0.96
  -6  -2  -2   33.37    0.93
  -6  -2  -2   33.53    0.93
   6   2   2   34.00    0.97
   6   2   2   35.18    0.95
   6   2   2   32.90    0.94
   6   2   2   33.05    1.04
   6   2   2   33.49    0.83
  -7  -2  -2   -0.04    0.17
  -7  -2  -2    0.07    0.14
  -7  -2  -2    0.16    0.14
   7   2   2   -0.24    0.17
   7   2   2   -0.11    0.21
   7   2   2   -0.01    0.15
   7   2   2   -0.30    0.14
  -8  -2  -2    7.66    0.45
  -8  -2  -2    7.20    0.47
  -8  -2  -2    7.69    0.43
   8   2   2    7.52    0.48
   8   2   2    7.96    0.55
   8   2   2    8.00    0.41
   8   2   2    7.40    0.42
  -9  -2  -2   -0.12    0.25
  -9  -2  -2   -0.07    0.24
  -9  -2  -2    0.02    0.21
   9   2   2    0.21    0.23
   9   2   2   -0.02    0.30
   9   2   2    0.32    0.25
 -10  -2  -2    2.32    0.38
 -10  -2  -2    3.00    0.41
  10   2   2    2.41    0.48
  10   2   2    2.75    0.39
   8  -3  -2   -0.04    0.29
   8  -3  -2    0.21    0.27
  -8   3   2    0.02    0.21
  -8   3   2    0.15    0.15
   7  -3  -2    4.47    0.33
   7  -3  -2    4.32    0.44
   7  -3  -2    4.83    0.46
   7  -3  -2    4.53    0.48
  -7   3   2    4.23    0.29
  -7   3   2    4.11    0.30
   6  -3  -2   -0.25    0.19
   6  -3  -2    0.10    0.15
   6  -3  -2   -0.02    0.18
   6  -3  -2   -0.03    0.13
  -6   3   2   -0.11    0.12
  -6   3   2   -0.21    0.12
   5  -3  -2   50.25    1.30
   5  -3  -2   50.73    1.36
   5  -3  -2   50.59    1.28
   5  -3  -2   52.95    1.46
   5  -3  -2   51.19    1.37
  -5   3   2   53.84    1.24
  -5   3   2   50.66    1.25
  -5   3   2   51.36    1.30
   4  -3  -2    0.04    0.09
   4  -3  -2   -0.08    0.09
   4  -3  -2   -0.07    0.11
   4  -3  -2   -0.01    0.08
   4  -3  -2    0.09    0.14
  -4   3   2    0.10    0.07
  -4   3   2   -0.02    0.04
  -4   3   2    0.09    0.06
  -4   3   2    0.02    0.05
  -4   3   2    0.00    0.07
   3  -3  -2  108.19    2.51
   3  -3  -2  103.56    2.60
   3  -3  -2  108.02    2.54
   3  -3  -2  105.76    2.50
   3  -3  -2  108.43    2.54
  -3   3   2  105.27    2.44
  -3   3   2  109.32    2.43
  -3   3   2  110.83    2.44
  -3   3   2  109.17    2.50
   2  -3  -2    8.37    0.33
   2  -3  -2    8.15    0.34
   2  -3  -2    7.92    0.33
   2  -3  -2    8.10    0.28
   2  -3  -2    8.23    0.28
   1  -3  -2   38.59    0.93
   1  -3  -2   37.75    0.93
   1  -3  -2   38.29    0.95
   1  -3  -2   37.74    0.92
   1  -3  -2   38.16    0.93
   0  -3  -2   14.84    0.41
   0  -3  -2   14.69    0.38
   0  -3  -2   15.11    0.39
   0  -3  -2   14.69    0.40
   0  -3  -2   14.84    0.40
   0   3   2   14.84    0.36
   0   3   2   14.80    0.36
   0   3   2   14.84    0.36
  -1  -3  -2  419.80    9.76
  -1  -3  -2  416.41    9.76
  -1  -3  -2  437.70    9.74
  -1  -3  -2  436.06    9.85
  -1  -3  -2  433.85    9.78
   1   3   2  422.48    9.67
   1   3   2  412.14    9.66
  -2  -3  -2    0.26    0.10
  -2  -3  -2    0.36    0.08
  -2  -3  -2    0.29    0.08
  -2  -3  -2    0.30    0.09
   2   3   2    0.28    0.07
   2   3   2    0.36    0.07
  -3  -3  -2  141.68    3.23
  -3  -3  -2  143.11    3.26
   3   3   2  126.77    3.24
   3   3   2  139.68    3.20
   3   3   2  142.60    3.18
   3   3   2  141.46    3.22
  -4  -3  -2    0.22    0.09
  -4  -3  -2    0.23    0.09
  -4  -3  -2    0.13    0.13
   4   3   2    0.27    0.10
   4   3   2    0.24    0.10
   4   3   2    0.18    0.09
   4   3   2    0.04    0.09
  -5  -3  -2   12.85    0.47
  -5  -3  -2   12.96    0.45
  -5  -3  -2   12.67    0.47
   5   3   2   13.01    0.44
   5   3   2   12.96    0.46
   5   3   2   13.74    0.46
   5   3   2   13.06    0.41
  -6  -3  -2    0.10    0.12
  -6  -3  -2   -0.11    0.15
  -6  -3  -2    0.05    0.12
   6   3   2   -0.27    0.12
   6   3   2    0.30    0.16
   6   3   2   -0.06    0.12
   6   3   2    0.07    0.12
  -7  -3  -2   29.96    0.94
  -7  -3  -2   30.49    0.92
  -7  -3  -2   30.19    0.91
   7   3   2   30.18    0.90
   7   3   2   29.93    0.90
   7   3   2   29.28    0.78
   7   3   2   29.48    0.92
   7   3   2   29.43    1.01
  -8  -3  -2    0.41    0.23
  -8  -3  -2    0.54    0.20
  -8  -3  -2    0.35    0.21
   8   3   2    0.05    0.29
   8   3   2    0.57    0.24
   8   3   2    0.54    0.26
  -9  -3  -2    4.10    0.47
  -9  -3  -2    3.66    0.46
  -9  -3  -2    3.50    0.51
   9   3   2    3.97    0.48
   9   3   2    4.25    0.48
   9   3   2    4.06    0.57
   9   3   2    4.24    0.45
 -10  -3  -2    0.25    0.32
 -10  -3  -2    0.11    0.33
 -10  -3  -2   -0.14    0.29
  10   3   2    0.15    0.34
  10   3   2    0.20    0.26
  10   3   2    0.10    0.26
   8  -4  -2    3.10    0.45
   8  -4  -2    2.63    0.40
   8  -4  -2    2.59    0.39
  -8   4   2    2.28    0.30
  -8   4   2    3.21    0.36
   7  -4  -2    0.20    0.20
   7  -4  -2    0.01    0.22
   7  -4  -2   -0.03    0.23
  -7   4   2    0.10    0.13
  -7   4   2   -0.05    0.19
   6  -4  -2   14.93    0.50
   6  -4  -2   15.34    0.61
   6  -4  -2   14.88    0.70
   6  -4  -2   14.87    0.59
  -6   4   2   14.87    0.52
  -6   4   2   14.52    0.45
   5  -4  -2    1.20    0.21
   5  -4  -2    1.06    0.24
   5  -4  -2    1.09    0.18
   5  -4  -2    1.12    0.16
   5  -4  -2    1.01    0.18
  -5   4   2    0.94    0.15
  -5   4   2    1.14    0.12
  -5   4   2    1.02    0.11
  -5   4   2    1.13    0.11
   4  -4  -2   37.58    1.03
   4  -4  -2   36.48    1.10
   4  -4  -2   37.25    0.97
   4  -4  -2   37.31    1.13
   4  -4  -2   37.88    1.00
  -4   4   2   37.24    0.90
  -4   4   2   37.12    0.89
  -4   4   2   38.70    0.92
  -4   4   2   40.20    1.04
  -4   4   2   37.69    0.98
   3  -4  -2   -0.04    0.12
   3  -4  -2    0.26    0.09
   3  -4  -2    0.04    0.09
   3  -4  -2    0.06    0.11
   3  -4  -2    0.05    0.08
  -3   4   2    0.17    0.04
  -3   4   2    0.13    0.08
   2  -4  -2   57.74    1.53
   2  -4  -2   62.83    1.52
   2  -4  -2   66.77    1.63
   2  -4  -2   62.32    1.56
  -2   4   2   63.23    1.50
   1  -4  -2    9.14    0.31
   1  -4  -2    8.98    0.30
   1  -4  -2    9.56    0.31
   1  -4  -2    9.30    0.31
   1  -4  -2    9.51    0.29
  -1   4   2    9.49    0.25
   0  -4  -2  315.46    7.18
   0  -4  -2  318.46    7.16
   0  -4  -2  297.30    7.15
   0  -4  -2  317.15    7.16
   0  -4  -2  322.76    7.24
   0   4   2  320.18    7.14
   0   4   2  314.02    7.18
   0   4   2  324.92    7.15
  -1  -4  -2    0.95    0.12
  -1  -4  -2    0.87    0.11
  -1  -4  -2    1.03    0.17
  -1  -4  -2    0.95    0.09
  -1  -4  -2    0.91    0.11
   1   4   2    0.89    0.09
   1   4   2    0.98    0.18
   1   4   2    0.95    0.09
  -2  -4  -2  181.88    4.16
  -2  -4  -2  182.22    4.14
  -2  -4  -2  176.04    4.07
  -2  -4  -2  177.90    4.13
  -2  -4  -2  172.74    4.13
   2   4   2  184.53    4.12
   2   4   2  184.17    4.05
   2   4   2  178.74    4.13
   2   4   2  181.30    4.12
  -3  -4  -2    4.63    0.27
  -3  -4  -2    4.58    0.26
  -3  -4  -2    3.63    0.28
   3   4   2    4.25    0.22
   3   4   2    4.52    0.18
   3   4   2    4.51    0.23
   3   4   2    4.80    0.23
  -4  -4  -2  107.72    2.60
  -4  -4  -2  114.30    2.63
  -4  -4  -2   96.27    2.65
   4   4   2  110.02    2.54
   4   4   2  108.14    2.60
   4   4   2  111.20    2.57
   4   4   2  114.62    2.60
  -5  -4  -2    1.47    0.19
  -5  -4  -2    1.49    0.21
  -5  -4  -2    1.51    0.20
   5   4   2    1.36    0.19
   5   4   2    1.28    0.16
   5   4   2    1.26    0.17
   5   4   2    1.43    0.19
  -6  -4  -2   36.02    1.05
  -6  -4  -2   36.40    1.04
  -6  -4  -2   36.26    1.04
   6   4   2   34.54    1.02
   6   4   2   37.01    0.96
   6   4   2   35.38    0.99
   6   4   2   36.57    1.02
  -7  -4  -2    0.73    0.21
  -7  -4  -2    0.88    0.20
  -7  -4  -2    0.77    0.23
   7   4   2    0.99    0.18
   7   4   2    0.74    0.19
   7   4   2    0.77    0.24
   7   4   2    0.98    0.26
   7   4   2    1.32    0.22
  -8  -4  -2    6.55    0.46
  -8  -4  -2    6.34    0.46
  -8  -4  -2    6.62    0.48
   8   4   2    6.18    0.41
   8   4   2    6.07    0.43
  -9  -4  -2   -0.22    0.30
  -9  -4  -2    0.24    0.27
  -9  -4  -2    0.34    0.25
   9   4   2   -0.38    0.28
   9   4   2    0.17    0.26
   9   4   2   -0.28    0.24
   9   4   2    0.07    0.29
 -10  -4  -2    1.54    0.36
 -10  -4  -2    1.93    0.36
 -10  -4  -2    2.06    0.40
  10   4   2    1.87    0.33
  10   4   2    2.38    0.43
  10   4   2    2.41    0.37
   8  -5  -2    0.09    0.29
   8  -5  -2    0.04    0.36
   8  -5  -2    0.55    0.30
  -8   5   2    0.16    0.17
  -8   5   2    0.17    0.23
   7  -5  -2    3.90    0.48
   7  -5  -2    3.24    0.41
   7  -5  -2    3.43    0.48
  -7   5   2    3.41    0.26
  -7   5   2    3.01    0.33
   6  -5  -2    0.03    0.18
   6  -5  -2   -0.10    0.19
   6  -5  -2   -0.10    0.18
   6  -5  -2    0.01    0.34
   6  -5  -2   -0.30    0.16
  -6   5   2    0.09    0.15
  -6   5   2    0.01    0.09
   5  -5  -2   15.58    0.68
   5  -5  -2   15.35    0.51
   5  -5  -2   16.16    0.56
   5  -5  -2   15.62    0.70
   5  -5  -2   15.83    0.56
  -5   5   2   15.49    0.43
  -5   5   2   15.27    0.43
  -5   5   2   15.76    0.46
  -5   5   2   15.55    0.53
   4  -5  -2    0.75    0.16
   4  -5  -2    1.31    0.25
   4  -5  -2    0.84    0.17
   4  -5  -2    0.65    0.15
   4  -5  -2    0.86    0.15
  -4   5   2    1.02    0.11
  -4   5   2    0.92    0.15
  -4   5   2    0.83    0.08
  -4   5   2    0.75    0.09
  -4   5   2    0.98    0.15
   3  -5  -2   73.84    1.78
   3  -5  -2   73.66    1.82
   3  -5  -2   72.43    1.80
   3  -5  -2   71.31    1.87
   3  -5  -2   75.73    1.78
  -3   5   2   73.39    1.79
  -3   5   2   74.95    1.69
  -3   5   2   73.37    1.69
  -3   5   2   75.05    1.69
   2  -5  -2   11.51    0.38
   2  -5  -2   11.32    0.39
   2  -5  -2   11.58    0.42
   2  -5  -2   11.75    0.39
   2  -5  -2   11.84    0.37
  -2   5   2   11.69    0.31
  -2   5   2   11.52    0.30
  -2   5   2   11.57    0.39
  -2   5   2   12.04    0.29
   1  -5  -2   60.39    1.46
   1  -5  -2   60.22    1.46
   1  -5  -2   60.39    1.45
   1  -5  -2   60.24    1.43
   1  -5  -2   58.11    1.46
  -1   5   2   61.64    1.41
  -1   5   2   56.93    1.40
  -1   5   2   60.31    1.47
  -1   5   2   61.94    1.38
   0  -5  -2    1.50    0.15
   0  -5  -2    1.29    0.10
   0  -5  -2    1.35    0.12
   0  -5  -2    1.23    0.13
   0  -5  -2    1.16    0.15
   0  -5  -2    1.41    0.06
   0   5   2    1.45    0.12
   0   5   2    1.16    0.15
   0   5   2    1.30    0.11
   0   5   2    1.40    0.10
  -1  -5  -2  171.21    3.92
  -1  -5  -2  167.23    3.91
  -1  -5  -2  169.67    3.91
  -1  -5  -2  173.26    3.87
   1   5   2  168.67    3.89
   1   5   2  172.33    3.93
   1   5   2  167.11    3.90
  -2  -5  -2    0.79    0.12
  -2  -5  -2    0.59    0.11
  -2  -5  -2    0.50    0.12
  -2  -5  -2    1.02    0.15
  -2  -5  -2    0.70    0.08
   2   5   2    0.57    0.11
   2   5   2    0.90    0.12
   2   5   2    0.49    0.13
  -3  -5  -2  196.85    4.66
  -3  -5  -2  198.13    4.64
  -3  -5  -2  202.66    4.59
  -3  -5  -2  198.32    4.68
  -3  -5  -2  207.10    4.66
   3   5   2  203.54    4.66
   3   5   2  204.24    4.56
   3   5   2  204.48    4.65
   3   5   2  198.76    4.66
  -4  -5  -2    0.01    0.10
  -4  -5  -2    0.04    0.10
  -4  -5  -2    0.16    0.13
   4   5   2   -0.07    0.07
   4   5   2    0.19    0.11
   4   5   2    0.03    0.12
   4   5   2   -0.02    0.10
  -5  -5  -2   38.65    1.09
  -5  -5  -2   40.09    1.12
  -5  -5  -2   39.42    1.10
  -5  -5  -2   41.16    1.11
   5   5   2   39.15    1.06
   5   5   2   39.32    1.02
   5   5   2   37.77    1.09
   5   5   2   42.68    1.11
  -6  -5  -2    1.26    0.23
  -6  -5  -2    1.24    0.21
  -6  -5  -2    1.23    0.22
   6   5   2    1.43    0.19
   6   5   2    0.97    0.20
   6   5   2    0.92    0.19
   6   5   2    1.44    0.21
  -7  -5  -2   19.80    0.72
  -7  -5  -2   20.55    0.97
  -7  -5  -2   19.70    0.72
   7   5   2   19.72    0.67
   7   5   2   19.76    0.64
   7   5   2   19.11    0.70
   7   5   2   20.82    0.73
  -8  -5  -2   -0.07    0.21
  -8  -5  -2   -0.15    0.20
   8   5   2    0.12    0.21
   8   5   2    0.23    0.31
   8   5   2    0.09    0.18
   8   5   2   -0.01    0.20
  -9  -5  -2    6.53    0.57
  -9  -5  -2    7.03    0.54
  -9  -5  -2    6.44    0.52
   9   5   2    6.86    0.50
   9   5   2    6.02    0.56
 -10  -5  -2    0.26    0.31
 -10  -5  -2   -0.23    0.31
 -10  -5  -2    0.19    0.31
  10   5   2   -0.18    0.25
  10   5   2    0.27    0.30
  10   5   2    0.15    0.40
  10   5   2    0.28    0.28
   7  -6  -2    0.17    0.30
   7  -6  -2    0.08    0.28
   7  -6  -2    0.19    0.23
  -7   6   2    0.27    0.20
   6  -6  -2   13.46    0.61
   6  -6  -2   12.96    0.57
   6  -6  -2   12.30    0.50
   6  -6  -2   12.06    0.70
  -6   6   2   11.84    0.40
  -6   6   2   12.81    0.53
   5  -6  -2    0.16    0.22
   5  -6  -2    0.01    0.16
   5  -6  -2    0.12    0.17
   5  -6  -2   -0.28    0.14
   5  -6  -2    0.12    0.16
  -5   6   2    0.39    0.13
  -5   6   2   -0.13    0.12
   4  -6  -2   16.64    0.66
   4  -6  -2   16.48    0.53
   4  -6  -2   15.99    0.56
   4  -6  -2   15.77    0.59
   4  -6  -2   16.26    0.53
  -4   6   2   16.89    0.55
  -4   6   2   16.76    0.44
  -4   6   2   16.65    0.44
   3  -6  -2    1.56    0.23
   3  -6  -2    1.13    0.17
   3  -6  -2    1.22    0.18
   3  -6  -2    1.68    0.21
   3  -6  -2    1.46    0.19
  -3   6   2    1.62    0.21
  -3   6   2    1.38    0.11
  -3   6   2    1.44    0.09
  -3   6   2    1.34    0.10
   2  -6  -2   60.47    1.45
   2  -6  -2   57.51    1.50
   2  -6  -2   58.11    1.49
   2  -6  -2   59.56    1.48
   2  -6  -2   60.80    1.52
  -2   6   2   60.80    1.41
  -2   6   2   60.17    1.51
  -2   6   2   61.01    1.40
  -2   6   2   60.95    1.40
   1  -6  -2    6.37    0.28
   1  -6  -2    5.95    0.27
   1  -6  -2    5.75    0.27
   1  -6  -2    6.18    0.23
   1  -6  -2    6.03    0.25
  -1   6   2    6.54    0.23
  -1   6   2    6.52    0.20
  -1   6   2    6.03    0.30
  -1   6   2    5.96    0.22
   0  -6  -2  127.55    3.01
   0  -6  -2  128.25    3.02
   0  -6  -2  130.99    2.90
   0  -6  -2  128.65    3.02
   0  -6  -2  127.99    2.94
   0   6   2  129.44    2.95
   0   6   2  128.69    2.99
   0   6   2  124.74    2.98
   0   6   2  130.37    3.04
  -1  -6  -2    3.97    0.25
  -1  -6  -2    5.16    0.24
  -1  -6  -2    5.04    0.24
   1   6   2    4.93    0.27
   1   6   2    5.15    0.24
   1   6   2    5.05    0.23
  -2  -6  -2   34.00    0.87
  -2  -6  -2   33.86    0.89
  -2  -6  -2   33.02    0.91
  -2  -6  -2   33.49    0.79
  -2  -6  -2   34.03    0.87
  -2  -6  -2   33.74    0.91
   2   6   2   31.46    0.89
   2   6   2   32.58    0.90
   2   6   2   33.69    0.92
  -3  -6  -2    0.12    0.12
  -3  -6  -2    0.05    0.11
  -3  -6  -2    0.21    0.10
  -3  -6  -2   -0.09    0.10
  -3  -6  -2    0.18    0.11
   3   6   2    0.16    0.10
   3   6   2    0.08    0.10
   3   6   2   -0.12    0.12
  -4  -6  -2   86.13    2.05
  -4  -6  -2   85.02    2.01
  -4  -6  -2   85.99    2.09
  -4  -6  -2   87.89    2.09
  -4  -6  -2   84.55    2.11
   4   6   2   82.36    2.08
   4   6   2   83.65    2.02
   4   6   2   79.67    2.08
   4   6   2   82.65    2.07
  -5  -6  -2    0.10    0.13
  -5  -6  -2    0.05    0.15
  -5  -6  -2    0.13    0.12
  -5  -6  -2    0.07    0.12
   5   6   2   -0.20    0.13
   5   6   2    0.19    0.10
   5   6   2    0.10    0.13
   5   6   2    0.00    0.14
  -6  -6  -2   47.26    1.31
  -6  -6  -2   48.50    1.25
  -6  -6  -2   47.27    1.31
  -6  -6  -2   46.41    1.31
   6   6   2   45.38    1.29
   6   6   2   45.37    1.25
   6   6   2   47.10    1.21
   6   6   2   45.64    1.30
  -7  -6  -2   -0.09    0.18
  -7  -6  -2   -0.10    0.17
  -7  -6  -2   -0.07    0.18
  -7  -6  -2    0.15    0.16
   7   6   2    0.35    0.22
   7   6   2    0.18    0.21
   7   6   2   -0.28    0.19
   7   6   2   -0.04    0.15
   7   6   2   -0.07    0.17
  -8  -6  -2    5.50    0.47
  -8  -6  -2    5.32    0.36
  -8  -6  -2    5.77    0.60
  -8  -6  -2    5.67    0.46
   8   6   2    5.75    0.44
   8   6   2    5.21    0.38
   8   6   2    5.86    0.51
   8   6   2    5.35    0.40
  -9  -6  -2    0.25    0.31
  -9  -6  -2    0.03    0.25
  -9  -6  -2    0.27    0.25
   9   6   2   -0.10    0.25
   9   6   2    0.15    0.24
   9   6   2   -0.43    0.28
 -10  -6  -2    2.54    0.40
 -10  -6  -2    2.88    0.42
 -10  -6  -2    2.20    0.38
  10   6   2    1.69    0.37
  10   6   2    3.10    0.49
  10   6   2    1.85    0.34
  10   6   2    1.68    0.38
   7  -7  -2    5.56    0.64
   7  -7  -2    5.61    0.52
   7  -7  -2    4.31    0.49
  -7   7   2    4.17    0.38
   6  -7  -2    0.08    0.28
   6  -7  -2    0.46    0.27
   6  -7  -2   -0.43    0.19
   6  -7  -2    0.29    0.20
  -6   7   2    0.32    0.18
  -6   7   2    0.03    0.10
   5  -7  -2   10.61    0.53
   5  -7  -2   10.85    0.63
   5  -7  -2   10.09    0.45
   5  -7  -2   11.65    0.58
   5  -7  -2   10.48    0.45
  -5   7   2   10.23    0.34
   4  -7  -2    1.27    0.22
   4  -7  -2    1.14    0.19
   4  -7  -2    1.37    0.26
   4  -7  -2    1.38    0.22
   4  -7  -2    1.49    0.23
  -4   7   2    1.69    0.13
  -4   7   2    1.35    0.12
  -4   7   2    1.62    0.21
   3  -7  -2   41.54    1.13
   3  -7  -2   40.46    1.15
   3  -7  -2   41.40    1.07
   3  -7  -2   41.12    1.18
   3  -7  -2   41.67    1.11
  -3   7   2   41.04    1.15
  -3   7   2   43.06    1.01
  -3   7   2   42.76    1.00
  -3   7   2   42.08    1.01
   2  -7  -2    1.61    0.17
   2  -7  -2    1.74    0.22
   2  -7  -2    1.90    0.21
   2  -7  -2    1.98    0.22
   2  -7  -2    1.56    0.20
  -2   7   2    1.93    0.14
  -2   7   2    1.73    0.22
  -2   7   2    1.75    0.13
  -2   7   2    1.68    0.12
   1  -7  -2   67.50    1.68
   1  -7  -2   66.28    1.68
   1  -7  -2   65.66    1.68
  -1   7   2   69.11    1.62
  -1   7   2   70.22    1.60
  -1   7   2   67.83    1.63
  -1   7   2   66.67    1.72
   0  -7  -2    4.83    0.26
   0  -7  -2    5.04    0.26
   0  -7  -2    4.62    0.24
   0  -7  -2    4.81    0.15
   0   7   2    4.52    0.29
   0   7   2    4.57    0.23
   0   7   2    5.46    0.31
   0   7   2    4.69    0.24
  -1  -7  -2   30.88    0.73
  -1  -7  -2   30.79    0.85
  -1  -7  -2   31.13    0.84
  -1  -7  -2   30.68    0.76
   1   7   2   29.70    0.88
   1   7   2   29.50    0.83
  -2  -7  -2    0.07    0.09
  -2  -7  -2   -0.01    0.10
  -2  -7  -2    0.05    0.10
  -2  -7  -2   -0.05    0.11
  -2  -7  -2    0.04    0.06
  -2  -7  -2    0.13    0.10
   2   7   2    0.00    0.12
   2   7   2   -0.01    0.10
   2   7   2   -0.09    0.09
  -3  -7  -2   63.98    1.63
  -3  -7  -2   66.09    1.67
  -3  -7  -2   63.86    1.62
  -3  -7  -2   66.49    1.63
  -3  -7  -2   66.84    1.54
   3   7   2   64.08    1.65
   3   7   2   64.23    1.65
   3   7   2   64.05    1.67
  -4  -7  -2    4.49    0.26
  -4  -7  -2    4.35    0.31
  -4  -7  -2    4.32    0.26
  -4  -7  -2    4.61    0.29
  -4  -7  -2    4.58    0.32
   4   7   2    4.71    0.31
   4   7   2    4.30    0.32
   4   7   2    5.00    0.31
  -5  -7  -2   38.89    1.10
  -5  -7  -2   37.95    1.02
  -5  -7  -2   37.07    1.08
  -5  -7  -2   37.91    1.03
  -5  -7  -2   38.27    1.11
   5   7   2   38.46    0.95
   5   7   2   36.32    1.10
   5   7   2   38.14    1.11
   5   7   2   37.75    1.09
  -6  -7  -2    0.63    0.20
  -6  -7  -2    0.33    0.21
  -6  -7  -2    0.40    0.16
  -6  -7  -2    0.74    0.20
  -6  -7  -2    0.93    0.22
   6   7   2    0.12    0.20
   6   7   2    0.31    0.21
   6   7   2    0.44    0.14
   6   7   2    0.63    0.19
  -7  -7  -2    8.89    0.47
  -7  -7  -2    8.93    0.41
  -7  -7  -2    8.92    0.49
  -7  -7  -2    8.61    0.50
  -7  -7  -2    8.42    0.49
   7   7   2    8.64    0.39
   7   7   2    8.81    0.55
   7   7   2    8.01    0.48
   7   7   2    8.31    0.47
   7   7   2    9.73    0.53
  -8  -7  -2   -0.25    0.23
  -8  -7  -2    0.13    0.27
  -8  -7  -2   -0.06    0.19
  -8  -7  -2    0.29    0.24
  -8  -7  -2    0.24    0.23
   8   7   2    0.14    0.23
   8   7   2    0.01    0.28
   8   7   2   -0.02    0.24
   8   7   2    0.45    0.31
   8   7   2   -0.08    0.19
  -9  -7  -2    5.60    0.49
  -9  -7  -2    4.92    0.55
  -9  -7  -2    5.10    0.61
  -9  -7  -2    5.85    0.51
  -9  -7  -2    5.19    0.47
   9   7   2    5.59    0.45
   9   7   2    4.81    0.55
   9   7   2    5.10    0.49
   9   7   2    5.34    0.53
 -10  -7  -2    0.35    0.35
 -10  -7  -2    0.17    0.37
 -10  -7  -2    0.48    0.31
 -10  -7  -2    0.28    0.30
  10   7   2   -0.14    0.34
  10   7   2    0.28    0.27
  10   7   2    0.12    0.31
   6  -8  -2    7.68    0.53
   6  -8  -2    7.02    0.49
   6  -8  -2    5.94    0.63
   6  -8  -2    7.09    0.52
  -6   8   2    6.58    0.41
  -6   8   2    6.33    0.29
   5  -8  -2   -0.06    0.20
   5  -8  -2   -0.40    0.19
   5  -8  -2    0.24    0.20
   5  -8  -2    0.32    0.21
  -5   8   2    0.12    0.10
  -5   8   2   -0.05    0.17
   4  -8  -2   13.26    0.48
   4  -8  -2   12.77    0.51
   4  -8  -2   13.02    0.61
   4  -8  -2   13.89    0.60
   4  -8  -2   12.50    0.61
  -4   8   2   13.30    0.40
  -4   8   2   13.04    0.52
   3  -8  -2    0.89    0.19
   3  -8  -2    0.69    0.18
   3  -8  -2    0.76    0.16
   3  -8  -2    0.55    0.20
   3  -8  -2    0.57    0.18
  -3   8   2    0.77    0.21
  -3   8   2    0.87    0.11
   2  -8  -2   32.28    0.84
   2  -8  -2   31.13    0.93
   2  -8  -2   31.93    0.91
   2  -8  -2   32.45    0.92
   2  -8  -2   32.41    0.94
  -2   8   2   33.71    0.82
  -2   8   2   33.00    0.99
  -2   8   2   32.02    0.84
   1  -8  -2    1.03    0.16
   1  -8  -2    1.01    0.17
   1  -8  -2    0.88    0.16
  -1   8   2    0.99    0.22
  -1   8   2    1.08    0.19
  -1   8   2    1.08    0.15
  -1   8   2    1.05    0.13
   0  -8  -2   82.88    2.02
   0  -8  -2   83.79    1.89
   0  -8  -2   82.82    2.02
   0   8   2   82.91    2.08
   0   8   2   77.46    2.07
   0   8   2   79.18    1.99
  -1  -8  -2    1.96    0.21
  -1  -8  -2    1.65    0.14
  -1  -8  -2    1.76    0.21
  -1  -8  -2    1.68    0.13
   1   8   2    1.50    0.24
   1   8   2    2.19    0.21
   1   8   2    1.67    0.19
  -2  -8  -2   38.82    0.91
  -2  -8  -2   37.79    1.03
  -2  -8  -2   38.15    0.99
  -2  -8  -2   37.60    1.06
   2   8   2   38.92    1.06
   2   8   2   36.99    1.05
   2   8   2   37.07    1.09
  -3  -8  -2    0.10    0.15
  -3  -8  -2    0.03    0.12
  -3  -8  -2    0.08    0.14
  -3  -8  -2    0.00    0.12
  -3  -8  -2   -0.02    0.11
  -3  -8  -2    0.16    0.15
   3   8   2   -0.03    0.17
   3   8   2    0.23    0.14
   3   8   2    0.16    0.14
  -4  -8  -2   22.69    0.75
  -4  -8  -2   23.92    0.72
  -4  -8  -2   23.59    0.67
  -4  -8  -2   24.03    0.76
  -4  -8  -2   24.15    0.78
   4   8   2   22.99    0.79
   4   8   2   23.26    0.77
   4   8   2   23.89    0.77
  -5  -8  -2    0.11    0.16
  -5  -8  -2   -0.17    0.13
  -5  -8  -2   -0.02    0.17
  -5  -8  -2    0.28    0.17
  -5  -8  -2    0.27    0.18
   5   8   2   -0.04    0.21
   5   8   2    0.04    0.09
   5   8   2    0.02    0.17
   5   8   2    0.14    0.17
  -6  -8  -2   21.55    0.78
  -6  -8  -2   22.17    0.78
  -6  -8  -2   21.34    0.76
  -6  -8  -2   22.69    0.73
  -6  -8  -2   21.09    0.70
   6   8   2   21.52    0.78
   6   8   2   20.64    0.77
   6   8   2   22.29    0.77
  -7  -8  -2    0.89    0.41
  -7  -8  -2    1.11    0.25
  -7  -8  -2    0.80    0.26
  -7  -8  -2    0.48    0.24
  -7  -8  -2    0.62    0.19
   7   8   2    0.74    0.30
   7   8   2    0.39    0.26
   7   8   2    1.03    0.21
   7   8   2    0.60    0.21
  -8  -8  -2    3.71    0.47
  -8  -8  -2    4.06    0.42
  -8  -8  -2    3.49    0.41
  -8  -8  -2    3.38    0.41
  -8  -8  -2    4.67    0.51
   8   8   2    4.11    0.59
   8   8   2    3.41    0.47
   8   8   2    3.67    0.43
   8   8   2    4.17    0.36
   8   8   2    3.48    0.43
  -9  -8  -2   -0.03    0.24
  -9  -8  -2    0.29    0.34
  -9  -8  -2    0.32    0.23
  -9  -8  -2    0.50    0.25
  -9  -8  -2   -0.29    0.31
   9   8   2    0.01    0.25
   9   8   2    0.58    0.32
   9   8   2    0.67    0.38
   6  -9  -2   -0.14    0.40
   6  -9  -2    0.43    0.27
   6  -9  -2    0.31    0.28
  -6   9   2    0.27    0.23
   5  -9  -2    5.74    0.47
   5  -9  -2    5.24    0.46
   5  -9  -2    6.19    0.67
  -5   9   2    5.07    0.38
  -5   9   2    4.92    0.26
   4  -9  -2    0.05    0.19
   4  -9  -2    0.07    0.20
   4  -9  -2   -0.27    0.25
   4  -9  -2   -0.08    0.19
  -4   9   2    0.05    0.21
  -4   9   2    0.02    0.10
   3  -9  -2   18.49    0.59
   3  -9  -2   19.70    0.70
   3  -9  -2   19.74    0.72
   3  -9  -2   19.28    0.70
  -3   9   2   18.80    0.56
  -3   9   2   18.53    0.71
   2  -9  -2    0.95    0.38
   2  -9  -2    0.32    0.16
   2  -9  -2    0.76    0.19
  -2   9   2    0.44    0.11
  -2   9   2    0.64    0.23
   1  -9  -2   29.97    0.98
   1  -9  -2   31.52    0.83
  -1   9   2   31.19    0.86
  -1   9   2   29.62    0.85
  -1   9   2   32.29    1.01
   0  -9  -2    0.11    0.14
   0  -9  -2    0.19    0.15
   0   9   2    0.15    0.12
   0   9   2    0.30    0.14
   0   9   2    0.21    0.21
  -1  -9  -2   40.02    1.09
  -1  -9  -2   39.45    0.94
  -1  -9  -2   38.75    0.97
  -1  -9  -2   37.73    1.08
   1   9   2   38.22    1.12
   1   9   2   37.01    1.07
   1   9   2   38.70    1.16
  -2  -9  -2    0.99    0.18
  -2  -9  -2    0.97    0.17
  -2  -9  -2    0.94    0.15
  -2  -9  -2    1.03    0.15
   2   9   2    1.09    0.19
   2   9   2    1.10    0.20
   2   9   2    0.97    0.25
  -3  -9  -2   42.97    1.25
  -3  -9  -2   44.35    1.27
  -3  -9  -2   47.92    1.21
  -3  -9  -2   41.74    1.20
  -3  -9  -2   44.94    1.08
  -3  -9  -2   44.55    1.19
   3   9   2   45.03    1.30
   3   9   2   42.42    1.23
   3   9   2   45.18    1.25
  -4  -9  -2   -0.09    0.19
  -4  -9  -2   -0.04    0.19
  -4  -9  -2   -0.13    0.14
  -4  -9  -2    0.31    0.15
  -4  -9  -2   -0.01    0.14
  -4  -9  -2   -0.14    0.18
   4   9   2    0.24    0.16
   4   9   2   -0.24    0.17
  -5  -9  -2   17.11    0.59
  -5  -9  -2   17.78    0.68
  -5  -9  -2   15.99    0.66
  -5  -9  -2   16.38    0.64
  -5  -9  -2   16.39    0.57
   5   9   2   16.70    0.68
   5   9   2   17.18    0.67
  -6  -9  -2    0.37    0.24
  -6  -9  -2   -0.03    0.15
  -6  -9  -2    0.13    0.23
  -6  -9  -2    0.05    0.21
   6   9   2   -0.40    0.21
   6   9   2    0.10    0.21
   6   9   2    0.03    0.26
  -7  -9  -2    4.47    0.42
  -7  -9  -2    6.08    0.43
  -7  -9  -2    5.74    0.44
  -7  -9  -2    5.76    0.52
  -7  -9  -2    4.88    0.37
   7   9   2    5.18    0.46
   7   9   2    5.25    0.53
   7   9   2    4.63    0.49
   7   9   2    4.89    0.55
  -8  -9  -2   -0.40    0.31
  -8  -9  -2   -0.14    0.23
  -8  -9  -2   -0.01    0.21
  -8  -9  -2    0.10    0.31
   8   9   2   -0.46    0.31
   8   9   2    0.26    0.25
   8   9   2    0.14    0.29
   8   9   2   -0.41    0.31
  -9  -9  -2    3.01    0.48
  -9  -9  -2    4.08    0.51
  -9  -9  -2    4.41    0.44
  -9  -9  -2    4.00    0.47
  -9  -9  -2    3.66    0.45
   9   9   2    3.25    0.47
   9   9   2    3.67    0.46
   9   9   2    2.64    0.38
   5 -10  -2   -0.07    0.23
   5 -10  -2    0.51    0.28
   5 -10  -2    0.34    0.38
  -5  10   2    0.24    0.21
  -5  10   2    0.16    0.12
   4 -10  -2    7.08    0.51
   4 -10  -2    6.29    0.61
   4 -10  -2    6.65    0.46
  -4  10   2    6.34    0.30
   3 -10  -2    0.34    0.20
   3 -10  -2    0.33    0.20
   3 -10  -2    0.19    0.23
  -3  10   2    0.29    0.25
  -3  10   2    0.37    0.14
   2 -10  -2   10.04    0.45
   2 -10  -2   10.01    0.50
   2 -10  -2    9.82    0.51
  -2  10   2   11.18    0.58
  -2  10   2    9.45    0.40
   1 -10  -2    1.25    0.24
   1 -10  -2    1.20    0.18
   1 -10  -2    0.73    0.21
  -1  10   2    1.25    0.20
  -1  10   2    1.90    0.31
  -1  10   2    1.27    0.18
   0 -10  -2   18.29    0.67
   0 -10  -2   18.39    0.72
   0  10   2   19.22    0.77
   0  10   2   18.16    0.63
   0  10   2   18.63    0.62
  -1 -10  -2    0.13    0.13
  -1 -10  -2    0.03    0.09
  -1 -10  -2   -0.19    0.13
   1  10   2    0.07    0.16
   1  10   2    0.08    0.14
   1  10   2   -0.26    0.22
  -2 -10  -2   35.54    0.96
  -2 -10  -2   38.79    1.17
  -2 -10  -2   35.93    1.05
   2  10   2   35.81    1.15
   2  10   2   36.75    1.06
   2  10   2   34.12    1.08
  -3 -10  -2    0.03    0.15
  -3 -10  -2    0.21    0.16
  -3 -10  -2    0.22    0.19
  -3 -10  -2    0.20    0.14
   3  10   2    0.19    0.19
   3  10   2    0.06    0.17
   3  10   2   -0.03    0.25
  -4 -10  -2   13.47    0.53
  -4 -10  -2   12.86    0.45
  -4 -10  -2   11.56    0.64
  -4 -10  -2   14.81    0.73
  -4 -10  -2   13.04    0.62
   4  10   2   13.19    0.58
   4  10   2   11.67    0.68
   4  10   2   12.98    0.69
  -5 -10  -2    1.66    0.31
  -5 -10  -2    0.94    0.24
  -5 -10  -2    0.98    0.26
  -5 -10  -2    1.19    0.26
  -5 -10  -2    1.22    0.21
   5  10   2    1.21    0.36
   5  10   2    0.72    0.28
   5  10   2    1.31    0.26
  -6 -10  -2   10.69    0.56
  -6 -10  -2   11.17    0.51
  -6 -10  -2   10.86    0.65
  -6 -10  -2   11.21    0.49
  -6 -10  -2    9.77    0.55
   6  10   2   10.74    0.60
   6  10   2   10.92    0.61
   6  10   2   10.37    0.66
  -7 -10  -2    0.00    0.26
  -7 -10  -2   -0.06    0.29
  -7 -10  -2    0.13    0.22
  -7 -10  -2    0.22    0.21
  -7 -10  -2   -0.20    0.21
   7  10   2   -0.10    0.30
   7  10   2   -0.02    0.31
   7  10   2   -0.06    0.23
   7  10   2   -0.28    0.27
  -8 -10  -2    5.24    0.41
  -8 -10  -2    4.36    0.53
  -8 -10  -2    4.50    0.47
  -8 -10  -2    4.60    0.43
   8  10   2    4.43    0.53
   8  10   2    5.07    0.49
   8  10   2    5.28    0.51
   8  10   2    6.12    0.69
  -9 -10  -2    0.22    0.28
  -9 -10  -2    0.80    0.42
  -9 -10  -2    0.25    0.25
  -9 -10  -2    0.87    0.37
  -9 -10  -2    0.22    0.36
   9  10   2    0.47    0.37
   9  10   2    0.61    0.37
   9  10   2    0.48    0.29
   4 -11  -2   -0.28    0.25
   4 -11  -2    0.12    0.28
  -4  11   2   -0.18    0.44
  -4  11   2   -0.03    0.12
   3 -11  -2    6.72    0.50
   3 -11  -2    6.73    0.51
   3 -11  -2    6.76    0.50
  -3  11   2    5.81    0.62
  -3  11   2    6.45    0.33
   2 -11  -2    0.25    0.18
   2 -11  -2    0.16    0.21
  -2  11   2    0.10    0.15
  -2  11   2    0.09    0.31
   1 -11  -2    8.91    0.49
   1 -11  -2    8.09    0.47
  -1  11   2    9.81    0.42
  -1  11   2    8.51    0.42
  -1  11   2    7.98    0.62
   0 -11  -2   -0.05    0.18
   0 -11  -2   -0.20    0.18
   0  11   2   -0.12    0.27
   0  11   2    0.43    0.17
   0  11   2   -0.24    0.16
  -1 -11  -2    9.61    0.53
  -1 -11  -2   10.03    0.34
  -1 -11  -2    9.92    0.53
   1  11   2   10.52    0.50
   1  11   2   10.38    0.48
   1  11   2    9.47    0.58
  -2 -11  -2    0.08    0.14
  -2 -11  -2    0.20    0.20
  -2 -11  -2    0.01    0.36
   2  11   2    0.07    0.17
   2  11   2    0.06    0.26
  -3 -11  -2   16.24    0.66
  -3 -11  -2   16.51    0.74
  -3 -11  -2   16.37    0.64
   3  11   2   17.04    0.76
   3  11   2   17.30    0.68
   3  11   2   15.46    0.95
  -4 -11  -2    0.04    0.21
  -4 -11  -2    0.13    0.18
  -4 -11  -2    0.16    0.26
   4  11   2    0.08    0.26
   4  11   2    0.21    0.22
   4  11   2    0.25    0.37
  -5 -11  -2   10.86    0.66
  -5 -11  -2   11.37    0.51
  -5 -11  -2   11.45    0.59
  -5 -11  -2   10.71    0.59
   5  11   2   12.03    0.61
   5  11   2   11.49    0.63
  -6 -11  -2    0.04    0.22
  -6 -11  -2    0.07    0.21
  -6 -11  -2   -0.29    0.20
  -6 -11  -2    0.26    0.28
   6  11   2    0.19    0.24
   6  11   2   -0.09    0.38
   6  11   2    0.04    0.29
  -7 -11  -2    3.10    0.42
  -7 -11  -2    2.23    0.34
  -7 -11  -2    2.33    0.31
  -7 -11  -2    4.61    0.65
   7  11   2    3.38    0.44
   7  11   2    2.64    0.43
   7  11   2    3.65    0.48
   7  11   2    2.64    0.42
  -8 -11  -2    0.04    0.24
  -8 -11  -2   -0.48    0.28
  -8 -11  -2    0.03    0.25
   8  11   2   -0.17    0.32
   8  11   2   -0.09    0.36
   8  11   2   -0.26    0.38
   8  11   2    0.14    0.29
   3 -12  -2    0.23    0.26
   3 -12  -2    0.23    0.28
  -3  12   2    0.27    0.38
  -3  12   2   -0.04    0.14
   2 -12  -2    6.10    0.51
   2 -12  -2    6.96    0.50
  -2  12   2    5.30    0.63
  -2  12   2    6.89    0.38
   1 -12  -2    0.21    0.23
   1 -12  -2    0.03    0.19
  -1  12   2    0.15    0.32
  -1  12   2   -0.04    0.15
   0 -12  -2    7.91    0.49
   0 -12  -2    7.46    0.48
   0  12   2    8.57    0.46
   0  12   2    9.01    0.63
   0  12   2    7.54    0.45
  -1 -12  -2    0.04    0.21
  -1 -12  -2   -0.13    0.19
   1  12   2    0.36    0.30
   1  12   2    0.04    0.18
   1  12   2   -0.07    0.21
  -2 -12  -2   10.57    0.43
  -2 -12  -2   10.34    0.56
  -2 -12  -2   11.20    0.56
   2  12   2   10.75    0.63
   2  12   2   10.21    0.54
  -3 -12  -2    0.94    0.26
  -3 -12  -2    0.80    0.26
  -3 -12  -2    0.76    0.23
   3  12   2    0.33    0.28
   3  12   2    0.35    0.22
   3  12   2    0.37    0.24
  -4 -12  -2    5.46    0.51
  -4 -12  -2    5.29    0.44
  -4 -12  -2    5.35    0.48
   4  12   2    5.14    0.52
   4  12   2    5.04    0.45
   4  12   2    6.42    0.66
  -5 -12  -2   -0.04    0.25
  -5 -12  -2    0.05    0.26
  -5 -12  -2    0.06    0.23
   5  12   2    0.28    0.27
   5  12   2    0.28    0.32
   5  12   2    0.23    0.25
  -6 -12  -2    4.27    0.47
  -6 -12  -2    3.83    0.49
  -6 -12  -2    4.45    0.46
  -6 -12  -2    4.01    0.54
   6  12   2    4.79    0.53
   6  12   2    4.08    0.55
   6  12   2    4.20    0.58
   6  12   2    4.50    0.48
  -7 -12  -2   -0.04    0.25
  -7 -12  -2    0.27    0.32
  -7 -12  -2    0.31    0.27
  -7 -12  -2   -0.13    0.24
   7  12   2   -0.78    0.33
   7  12   2   -0.53    0.33
   7  12   2    0.31    0.35
   7  12   2    0.13    0.28
   1 -13  -2    7.88    0.59
   1 -13  -2    8.19    0.60
  -1  13   2    6.99    0.45
  -1  13   2    9.72    0.72
   0 -13  -2    0.18    0.22
   0 -13  -2   -0.09    0.24
   0  13   2   -0.05    0.33
   0  13   2   -0.39    0.18
   0  13   2    0.24    0.34
  -1 -13  -2    6.59    0.50
  -1 -13  -2    6.61    0.55
   1  13   2    8.37    0.53
   1  13   2    6.57    0.48
   1  13   2    7.57    0.65
  -2 -13  -2    0.19    0.26
  -2 -13  -2    0.25    0.22
  -2 -13  -2   -0.10    0.18
   2  13   2    0.13    0.21
   2  13   2    0.23    0.32
  -3 -13  -2    4.56    0.48
  -3 -13  -2    4.89    0.51
  -3 -13  -2    4.59    0.65
   3  13   2    6.26    0.53
   3  13   2    4.38    0.53
   3  13   2    4.66    0.44
  -4 -13  -2   -0.26    0.25
  -4 -13  -2   -0.08    0.28
  -4 -13  -2    0.14    0.24
   4  13   2   -0.14    0.31
   4  13   2   -0.26    0.25
   4  13   2    0.06    0.23
  -5 -13  -2    4.90    0.59
  -5 -13  -2    4.95    0.46
  -5 -13  -2    4.32    0.51
   5  13   2    5.84    0.61
   5  13   2    4.33    0.50
   5  13   2    5.29    0.56
   5  13   2    4.78    0.52
  -6 -13  -2    0.60    0.35
  -6 -13  -2   -0.11    0.28
  -6 -13  -2    0.72    0.32
   6  13   2   -0.06    0.36
   6  13   2    0.11    0.39
   6  13   2    0.49    0.33
   6  13   2   -0.11    0.26
  -1 -14  -2    0.10    0.27
  -1 -14  -2   -0.60    0.28
   1  14   2    0.05    0.38
   1  14   2   -0.09    0.23
  -2 -14  -2    6.43    0.56
  -2 -14  -2    5.96    0.57
   2  14   2    6.15    0.62
   2  14   2    6.79    0.60
   2  14   2    5.66    0.53
  -3 -14  -2    0.34    0.26
  -3 -14  -2    0.79    0.34
  -3 -14  -2    0.13    0.26
   3  14   2    0.09    0.23
   3  14   2   -0.17    0.37
   3  14   2    0.44    0.31
  -4 -14  -2    3.19    0.49
  -4 -14  -2    4.07    0.51
  -4 -14  -2    3.28    0.44
   4  14   2    3.52    0.46
   4  14   2    4.04    0.61
   4  14   2    3.46    0.51
   3  13  -3    0.16    0.30
  -3 -13   3   -0.02    0.38
  -3 -13   3    0.21    0.27
  -3 -13   3    0.33    0.43
  -3 -13   3   -0.30    0.28
   2  13  -3    3.29    0.44
   2  13  -3    2.01    0.43
   2  13  -3    2.26    0.39
  -2 -13   3    3.05    0.48
  -2 -13   3    2.33    0.38
  -2 -13   3    2.35    0.33
  -2 -13   3    3.33    0.47
   1  13  -3    0.27    0.31
   1  13  -3    0.29    0.28
   1  13  -3    0.34    0.38
  -1 -13   3   -0.27    0.38
  -1 -13   3   -0.26    0.34
  -1 -13   3   -0.01    0.23
  -1 -13   3    0.14    0.23
   0  13  -3    1.80    0.45
   0  13  -3    1.98    0.33
   0  13  -3    2.55    0.40
   0 -13   3    2.38    0.29
   0 -13   3    2.83    0.43
   0 -13   3    2.65    0.42
   0 -13   3    1.97    0.33
   5  12  -3    2.41    0.42
   5  12  -3    1.68    0.44
  -5 -12   3    1.71    0.35
  -5 -12   3    1.45    0.40
  -5 -12   3    1.39    0.35
   4  12  -3   -0.04    0.34
   4  12  -3    0.02    0.34
   4  12  -3    0.09    0.26
  -4 -12   3    0.11    0.26
  -4 -12   3   -0.12    0.28
  -4 -12   3    0.27    0.37
   3  12  -3    5.12    0.58
   3  12  -3    3.38    0.43
   3  12  -3    4.17    0.51
  -3 -12   3    4.01    0.48
  -3 -12   3    3.88    0.57
  -3 -12   3    3.39    0.44
  -3 -12   3    3.50    0.47
   2  12  -3    0.01    0.26
   2  12  -3    0.03    0.27
   2  12  -3   -0.15    0.32
  -2 -12   3    0.16    0.22
  -2 -12   3    0.50    0.31
  -2 -12   3   -0.14    0.22
  -2 -12   3    0.32    0.47
   1  12  -3    4.20    0.48
   1  12  -3    3.69    0.45
   1  12  -3    3.90    0.53
  -1 -12   3    3.92    0.43
  -1 -12   3    3.57    0.73
  -1 -12   3    4.41    0.39
  -1 -12   3    4.23    0.50
   0  12  -3    0.79    0.36
   0  12  -3    0.01    0.22
   0  12  -3    0.93    0.29
   0 -12   3    0.44    0.23
   0 -12   3    0.71    0.29
   0 -12   3    0.22    0.21
  -1  12  -3    5.55    0.57
  -1  12  -3    3.48    0.46
  -1  12  -3    3.98    0.39
   1 -12   3    3.79    0.44
   1 -12   3    4.79    0.53
   1 -12   3    4.47    0.51
  -2  12  -3    0.36    0.52
  -2  12  -3   -0.12    0.26
  -2  12  -3   -0.04    0.19
   2 -12   3    0.64    0.37
   2 -12   3    1.32    0.35
   2 -12   3    0.33    0.28
   6  11  -3    2.64    0.43
   6  11  -3    2.54    0.68
   6  11  -3    2.07    0.43
  -6 -11   3    2.20    0.38
  -6 -11   3    2.91    0.43
  -6 -11   3    2.49    0.39
  -6 -11   3    2.53    0.72
   5  11  -3    0.24    0.32
   5  11  -3    0.00    0.34
  -5 -11   3   -0.04    0.42
  -5 -11   3    0.22    0.27
  -5 -11   3   -0.54    0.31
  -5 -11   3    0.35    0.26
   4  11  -3    2.51    0.48
   4  11  -3    2.67    0.42
  -4 -11   3    2.24    0.35
  -4 -11   3    2.54    0.28
  -4 -11   3    3.30    0.42
  -4 -11   3    2.29    0.69
   3  11  -3    0.11    0.30
   3  11  -3   -0.31    0.27
  -3 -11   3    0.06    0.19
  -3 -11   3    0.40    0.24
  -3 -11   3    0.11    0.23
  -3 -11   3   -0.47    0.29
   2  11  -3    8.32    0.55
   2  11  -3    6.89    0.55
   2  11  -3    8.22    0.54
  -2 -11   3    6.95    0.49
  -2 -11   3    7.44    0.51
  -2 -11   3    7.06    0.45
  -2 -11   3    6.66    0.42
   1  11  -3    0.01    0.23
   1  11  -3   -0.18    0.29
   1  11  -3   -0.22    0.23
  -1 -11   3    0.22    0.21
  -1 -11   3    0.10    0.20
  -1 -11   3    0.18    0.27
  -1 -11   3   -0.03    0.20
   0  11  -3    8.19    0.58
   0  11  -3    7.57    0.48
   0 -11   3    8.09    0.50
   0 -11   3    8.07    0.48
  -1  11  -3    0.47    0.19
  -1  11  -3    0.69    0.25
  -1  11  -3    0.34    0.31
   1 -11   3    0.31    0.24
   1 -11   3    0.52    0.18
   1 -11   3    0.67    0.22
   1 -11   3    0.60    0.28
  -2  11  -3    6.67    0.46
  -2  11  -3    5.88    0.40
  -2  11  -3    7.24    0.58
   2 -11   3    6.21    0.36
   2 -11   3    7.81    0.62
   2 -11   3    6.68    0.50
   2 -11   3    6.67    0.51
  -3  11  -3    0.04    0.30
  -3  11  -3    0.15    0.35
  -3  11  -3   -0.29    0.15
   3 -11   3    0.19    0.41
   3 -11   3    0.49    0.28
   3 -11   3    0.96    0.34
   3 -11   3    0.28    0.22
  -4  11  -3    4.37    0.54
  -4  11  -3    3.83    0.35
  -4  11  -3    4.78    0.51
   4 -11   3    5.20    0.52
   4 -11   3    3.99    0.60
   4 -11   3    4.84    0.55
   7  10  -3    2.10    0.41
   7  10  -3    2.10    0.42
  -7 -10   3    2.14    0.46
  -7 -10   3    1.84    0.39
  -7 -10   3    1.95    0.36
   6  10  -3    0.60    0.39
   6  10  -3    0.53    0.35
   6  10  -3   -0.53    0.29
   6  10  -3    0.33    0.26
  -6 -10   3   -0.70    0.29
  -6 -10   3   -0.73    0.43
  -6 -10   3    0.20    0.25
   5  10  -3    3.42    0.46
   5  10  -3    3.00    0.43
   5  10  -3    2.76    0.49
   5  10  -3    3.05    0.41
  -5 -10   3    2.21    0.37
  -5 -10   3    2.57    0.38
  -5 -10   3    3.29    0.43
  -5 -10   3    2.52    0.40
   4  10  -3    0.03    0.21
   4  10  -3    0.12    0.24
   4  10  -3   -0.38    0.33
   4  10  -3   -0.02    0.29
  -4 -10   3    0.54    0.30
  -4 -10   3    0.14    0.22
  -4 -10   3    0.17    0.25
  -4 -10   3   -0.38    0.17
  -4 -10   3    0.21    0.28
   3  10  -3    9.89    0.60
   3  10  -3   10.61    0.60
  -3 -10   3   10.21    0.53
  -3 -10   3   11.05    0.63
  -3 -10   3    9.71    0.43
   2  10  -3    0.19    0.20
   2  10  -3    0.02    0.26
  -2 -10   3   -0.28    0.20
  -2 -10   3    0.28    0.17
  -2 -10   3    0.31    0.22
   1  10  -3   15.34    0.66
   1  10  -3   16.51    0.65
   1  10  -3   16.33    0.75
  -1 -10   3   16.33    0.64
  -1 -10   3   15.91    0.59
  -1 -10   3   16.75    0.60
  -1 -10   3   15.80    0.65
   0  10  -3    0.37    0.18
   0  10  -3    0.25    0.29
   0 -10   3   -0.09    0.18
   0 -10   3   -0.08    0.17
   0 -10   3   -0.01    0.14
  -1  10  -3    5.79    0.53
  -1  10  -3    5.97    0.39
  -1  10  -3    6.72    0.56
   1 -10   3    5.74    0.43
   1 -10   3    5.57    0.41
   1 -10   3    6.20    0.32
   1 -10   3    5.39    0.43
   1 -10   3    6.14    0.45
  -2  10  -3    0.05    0.29
  -2  10  -3    0.04    0.17
  -2  10  -3    0.12    0.14
   2 -10   3   -0.03    0.25
   2 -10   3    0.23    0.15
   2 -10   3   -0.23    0.21
   2 -10   3    0.13    0.21
   2 -10   3    0.44    0.24
  -3  10  -3    7.27    0.65
  -3  10  -3    5.89    0.57
  -3  10  -3    6.03    0.37
   3 -10   3    7.33    0.60
   3 -10   3    6.44    0.48
   3 -10   3    6.78    0.37
   3 -10   3    6.82    0.46
   3 -10   3    7.43    0.58
  -4  10  -3   -0.08    0.20
  -4  10  -3    0.15    0.47
  -4  10  -3    0.21    0.16
   4 -10   3    0.01    0.22
   4 -10   3    0.01    0.21
   4 -10   3    0.22    0.37
   4 -10   3   -0.02    0.29
  -5  10  -3    3.62    0.38
  -5  10  -3    4.56    0.45
  -5  10  -3    4.00    0.34
   5 -10   3    5.37    0.73
   5 -10   3    4.61    0.49
   5 -10   3    5.50    0.55
   7   9  -3    0.23    0.27
   7   9  -3    0.44    0.32
   7   9  -3    0.86    0.35
  -7  -9   3    0.64    0.35
  -7  -9   3   -0.04    0.30
  -7  -9   3    0.26    0.27
  -7  -9   3    0.34    0.28
   6   9  -3    7.50    0.59
   6   9  -3    7.18    0.52
   6   9  -3    8.62    0.69
  -6  -9   3    8.82    0.55
  -6  -9   3    7.03    0.57
  -6  -9   3    8.71    0.69
   5   9  -3   -0.02    0.28
   5   9  -3    0.33    0.22
   5   9  -3    0.55    0.27
  -5  -9   3   -0.14    0.21
  -5  -9   3    0.10    0.26
  -5  -9   3    0.05    0.36
   4   9  -3   13.59    0.70
   4   9  -3   15.00    0.66
   4   9  -3   13.49    0.64
   4   9  -3   14.02    0.55
  -4  -9   3   12.59    0.70
  -4  -9   3   13.37    0.48
  -4  -9   3   13.26    0.66
  -4  -9   3   13.29    0.63
  -4  -9   3   13.50    0.66
   3   9  -3    0.91    0.37
   3   9  -3    0.77    0.24
   3   9  -3    1.04    0.25
  -3  -9   3    0.93    0.25
  -3  -9   3    1.12    0.17
  -3  -9   3    0.47    0.21
  -3  -9   3    1.03    0.23
  -3  -9   3    0.81    0.25
   2   9  -3   16.99    0.74
   2   9  -3   17.12    0.66
   2   9  -3   16.24    0.57
  -2  -9   3   17.50    0.65
  -2  -9   3   15.81    0.65
  -2  -9   3   15.95    0.60
  -2  -9   3   15.93    0.60
  -2  -9   3   17.30    0.55
   1   9  -3    0.90    0.29
   1   9  -3    0.95    0.21
   1   9  -3    0.74    0.20
  -1  -9   3    1.38    0.20
  -1  -9   3    1.22    0.22
  -1  -9   3    0.86    0.19
  -1  -9   3    0.89    0.19
  -1  -9   3    1.27    0.23
   0   9  -3   16.64    0.59
   0   9  -3   16.04    0.70
   0  -9   3   16.62    0.57
   0  -9   3   16.17    0.57
   0  -9   3   15.83    0.54
   0  -9   3   16.00    0.54
   0  -9   3   15.14    0.60
  -1   9  -3    0.02    0.13
  -1   9  -3   -0.03    0.14
  -1   9  -3    0.04    0.21
   1  -9   3    0.02    0.13
   1  -9   3    0.17    0.17
   1  -9   3    0.01    0.17
   1  -9   3   -0.01    0.12
   1  -9   3    0.11    0.16
  -2   9  -3    9.80    0.52
  -2   9  -3   10.54    0.43
  -2   9  -3    8.81    0.51
   2  -9   3    9.84    0.45
   2  -9   3   10.55    0.49
   2  -9   3   10.46    0.49
   2  -9   3   10.10    0.38
   2  -9   3    9.53    0.49
  -3   9  -3    0.17    0.24
  -3   9  -3    0.26    0.15
  -3   9  -3    0.34    0.16
   3  -9   3    0.17    0.21
   3  -9   3    0.18    0.18
   3  -9   3    0.29    0.14
   3  -9   3    0.12    0.24
   3  -9   3    0.84    0.25
  -4   9  -3    5.48    0.34
  -4   9  -3    4.29    0.31
   4  -9   3    4.68    0.42
   4  -9   3    5.06    0.71
   4  -9   3    4.81    0.51
   4  -9   3    3.85    0.40
  -5   9  -3   -0.02    0.14
  -5   9  -3    0.14    0.19
  -5   9  -3    0.39    0.19
  -5   9  -3    0.55    0.20
   5  -9   3    0.19    0.22
   5  -9   3    0.23    0.23
   5  -9   3   -0.27    0.37
  -6   9  -3    4.19    0.42
  -6   9  -3    4.20    0.35
   6  -9   3    3.88    0.54
   6  -9   3    4.53    0.52
   8   8  -3    0.40    0.36
   8   8  -3   -0.46    0.36
   8   8  -3    0.00    0.29
   8   8  -3    0.29    0.36
  -8  -8   3   -0.14    0.33
  -8  -8   3    0.01    0.28
  -8  -8   3    0.08    0.29
  -8  -8   3    0.28    0.25
   7   8  -3    5.10    0.48
   7   8  -3    5.08    0.49
   7   8  -3    4.12    0.43
   7   8  -3    4.82    0.54
  -7  -8   3    4.99    0.46
  -7  -8   3    5.86    0.57
  -7  -8   3    4.67    0.50
  -7  -8   3    5.18    0.58
   6   8  -3    0.19    0.30
   6   8  -3    0.02    0.23
   6   8  -3    0.43    0.27
   6   8  -3    0.02    0.19
   6   8  -3    0.15    0.32
  -6  -8   3    0.31    0.29
  -6  -8   3    0.01    0.19
  -6  -8   3   -0.24    0.26
  -6  -8   3    0.10    0.24
   5   8  -3    9.56    0.49
   5   8  -3   10.75    0.59
   5   8  -3    8.95    0.73
   5   8  -3    9.96    0.54
  -5  -8   3    9.34    0.46
  -5  -8   3   10.57    0.58
  -5  -8   3    7.99    0.60
  -5  -8   3    9.47    0.58
   4   8  -3    0.13    0.19
   4   8  -3    0.26    0.25
   4   8  -3   -0.38    0.18
   4   8  -3    0.08    0.20
  -4  -8   3   -0.22    0.19
  -4  -8   3    0.05    0.20
  -4  -8   3    0.18    0.20
  -4  -8   3   -0.10    0.12
   3   8  -3   25.31    0.88
   3   8  -3   23.01    0.85
   3   8  -3   24.36    0.82
   3   8  -3   23.93    0.72
  -3  -8   3   25.04    0.97
  -3  -8   3   25.00    0.81
  -3  -8   3   23.11    0.80
  -3  -8   3   22.65    0.97
   2   8  -3    0.72    0.20
   2   8  -3    0.83    0.20
  -2  -8   3    0.59    0.17
  -2  -8   3    0.90    0.18
  -2  -8   3    0.77    0.20
  -2  -8   3    0.85    0.16
  -2  -8   3    0.86    0.21
   1   8  -3   31.91    0.95
   1   8  -3   32.01    0.95
   1   8  -3   32.99    0.78
   1   8  -3   30.90    1.01
  -1  -8   3   32.66    0.92
  -1  -8   3   32.18    0.94
  -1  -8   3   31.72    0.91
  -1  -8   3   32.43    0.88
  -1  -8   3   32.43    0.91
   0   8  -3    0.65    0.17
   0   8  -3    0.50    0.23
   0   8  -3    0.82    0.17
   0  -8   3    0.85    0.15
   0  -8   3    0.60    0.14
   0  -8   3    0.59    0.18
   0  -8   3    0.55    0.15
   0  -8   3    0.80    0.17
  -1   8  -3   21.71    0.77
  -1   8  -3   21.12    0.67
  -1   8  -3   21.80    0.67
   1  -8   3   21.49    0.62
   1  -8   3   21.02    0.68
   1  -8   3   21.35    0.67
   1  -8   3   18.50    0.64
   1  -8   3   21.40    0.67
  -2   8  -3    0.28    0.20
  -2   8  -3   -0.06    0.12
   2  -8   3   -0.11    0.14
   2  -8   3    0.23    0.18
   2  -8   3    0.00    0.12
   2  -8   3    0.02    0.13
  -3   8  -3   16.58    0.54
  -3   8  -3   15.94    0.58
  -3   8  -3   15.38    0.54
   3  -8   3   16.06    0.48
   3  -8   3   14.86    0.59
   3  -8   3   16.09    0.59
   3  -8   3   15.92    0.65
   3  -8   3   15.84    0.60
  -4   8  -3    0.16    0.13
  -4   8  -3   -0.18    0.13
  -4   8  -3    0.24    0.15
   4  -8   3    0.00    0.12
   4  -8   3    0.16    0.22
   4  -8   3    0.10    0.23
   4  -8   3   -0.05    0.19
   4  -8   3    0.09    0.24
  -5   8  -3    7.60    0.35
  -5   8  -3    6.41    0.41
  -5   8  -3    5.98    0.35
  -5   8  -3    6.44    0.35
   5  -8   3    6.62    0.44
   5  -8   3    6.44    0.47
   5  -8   3    6.73    0.65
  -6   8  -3    0.01    0.15
  -6   8  -3    0.35    0.20
  -6   8  -3   -0.15    0.18
   6  -8   3   -0.34    0.33
   6  -8   3    0.29    0.22
  -7   8  -3    1.96    0.33
  -7   8  -3    2.20    0.30
   7  -8   3    2.66    0.51
   7  -8   3    2.41    0.39
   8   7  -3    1.88    0.38
   8   7  -3    1.36    0.38
   8   7  -3    1.72    0.42
   8   7  -3    0.88    0.34
  -8  -7   3    1.51    0.32
  -8  -7   3    1.61    0.33
  -8  -7   3    1.03    0.33
  -8  -7   3    1.61    0.31
   7   7  -3    0.21    0.30
   7   7  -3   -0.04    0.34
   7   7  -3    0.35    0.24
  -7  -7   3   -0.41    0.21
  -7  -7   3   -0.05    0.25
  -7  -7   3   -0.23    0.26
  -7  -7   3    0.45    0.23
   6   7  -3    5.29    0.44
   6   7  -3    5.56    0.37
   6   7  -3    6.62    0.46
   6   7  -3    6.53    0.48
  -6  -7   3    4.42    0.49
  -6  -7   3    5.26    0.37
  -6  -7   3    4.81    0.53
  -6  -7   3    5.59    0.51
   5   7  -3    0.73    0.22
   5   7  -3    0.87    0.24
   5   7  -3    0.38    0.27
   5   7  -3    0.46    0.16
   5   7  -3    0.87    0.23
  -5  -7   3    0.15    0.19
  -5  -7   3    0.40    0.16
  -5  -7   3    0.19    0.18
  -5  -7   3    0.47    0.23
   4   7  -3   28.13    0.87
   4   7  -3   29.67    0.94
   4   7  -3   28.67    0.90
   4   7  -3   27.45    0.90
  -4  -7   3   27.59    0.89
  -4  -7   3   27.90    0.91
  -4  -7   3   29.25    0.85
  -4  -7   3   26.60    0.88
   3   7  -3    0.53    0.18
   3   7  -3    0.32    0.20
   3   7  -3    0.52    0.18
   3   7  -3    0.42    0.16
  -3  -7   3    0.38    0.18
  -3  -7   3    0.37    0.16
  -3  -7   3    0.59    0.18
   2   7  -3   26.12    0.81
   2   7  -3   26.61    0.86
   2   7  -3   26.23    0.81
  -2  -7   3   26.56    0.78
  -2  -7   3   26.12    0.71
  -2  -7   3   26.20    0.78
  -2  -7   3   25.74    0.78
  -2  -7   3   26.22    0.80
   1   7  -3    2.62    0.15
   1   7  -3    2.51    0.30
   1   7  -3    2.45    0.25
  -1  -7   3    2.49    0.20
  -1  -7   3    2.06    0.22
  -1  -7   3    2.60    0.24
  -1  -7   3    2.60    0.23
  -1  -7   3    2.26    0.21
   0   7  -3   41.26    1.10
   0   7  -3   41.01    1.10
   0   7  -3   40.88    1.18
   0  -7   3   41.65    1.07
   0  -7   3   40.82    1.07
   0  -7   3   40.90    1.10
   0  -7   3   40.11    1.08
   0  -7   3   42.89    1.07
  -1   7  -3    1.80    0.24
  -1   7  -3    1.36    0.19
  -1   7  -3    1.67    0.19
   1  -7   3    1.68    0.21
   1  -7   3    1.43    0.18
   1  -7   3    2.05    0.21
   1  -7   3    1.74    0.18
   1  -7   3    1.79    0.21
  -2   7  -3   74.34    1.84
  -2   7  -3   73.39    1.78
  -2   7  -3   68.92    1.78
   2  -7   3   71.31    1.81
   2  -7   3   73.06    1.74
   2  -7   3   72.07    1.81
   2  -7   3   72.45    1.83
   2  -7   3   72.50    1.80
  -3   7  -3    0.11    0.11
  -3   7  -3   -0.04    0.09
  -3   7  -3    0.12    0.14
   3  -7   3   -0.31    0.16
   3  -7   3    0.03    0.10
   3  -7   3    0.11    0.12
   3  -7   3    0.06    0.15
   3  -7   3   -0.17    0.14
  -4   7  -3    9.29    0.39
  -4   7  -3    9.70    0.38
  -4   7  -3   10.09    0.39
   4  -7   3   10.70    0.34
   4  -7   3   10.33    0.52
   4  -7   3    9.28    0.46
   4  -7   3    9.42    0.45
  -5   7  -3    0.56    0.15
  -5   7  -3    0.57    0.15
  -5   7  -3    0.39    0.14
  -5   7  -3    0.48    0.18
   5  -7   3    0.24    0.20
   5  -7   3    0.26    0.26
   5  -7   3    0.38    0.21
  -6   7  -3    6.09    0.41
  -6   7  -3    5.92    0.34
  -6   7  -3    5.61    0.33
   6  -7   3    5.26    0.44
   6  -7   3    6.13    0.62
  -7   7  -3    0.07    0.21
  -7   7  -3    0.09    0.14
  -7   7  -3   -0.09    0.21
   7  -7   3   -0.05    0.33
   7  -7   3   -0.30    0.21
   8   6  -3    0.38    0.31
   8   6  -3    0.43    0.29
   8   6  -3   -0.32    0.28
   8   6  -3    0.09    0.34
  -8  -6   3    0.07    0.25
  -8  -6   3   -0.05    0.24
  -8  -6   3    0.31    0.27
  -8  -6   3    0.14    0.24
   7   6  -3    5.10    0.58
   7   6  -3    5.21    0.46
   7   6  -3    4.77    0.46
   7   6  -3    4.76    0.51
  -7  -6   3    4.72    0.36
  -7  -6   3    4.55    0.44
  -7  -6   3    4.72    0.46
  -7  -6   3    4.58    0.48
   6   6  -3    0.25    0.21
   6   6  -3   -0.05    0.22
   6   6  -3   -0.03    0.21
   6   6  -3    0.10    0.16
  -6  -6   3   -0.17    0.17
  -6  -6   3   -0.31    0.15
  -6  -6   3   -0.04    0.19
  -6  -6   3    0.28    0.26
   5   6  -3    8.38    0.48
   5   6  -3    8.24    0.45
   5   6  -3    8.28    0.46
   5   6  -3    7.63    0.44
   5   6  -3    8.26    0.38
  -5  -6   3    7.85    0.45
  -5  -6   3    8.63    0.38
  -5  -6   3    7.62    0.45
  -5  -6   3    7.97    0.43
   4   6  -3    1.50    0.25
   4   6  -3    1.36    0.22
   4   6  -3    1.13    0.21
   4   6  -3    1.21    0.18
   4   6  -3    1.13    0.20
  -4  -6   3    1.24    0.24
  -4  -6   3    1.31    0.18
  -4  -6   3    1.13    0.11
  -4  -6   3    1.30    0.21
  -4  -6   3    1.38    0.24
   3   6  -3   28.64    0.87
   3   6  -3   28.66    0.83
   3   6  -3   30.42    0.87
   3   6  -3   28.40    0.90
  -3  -6   3   29.65    0.74
  -3  -6   3   29.15    0.86
  -3  -6   3   29.15    0.87
  -3  -6   3   29.13    0.86
   2   6  -3    0.61    0.15
   2   6  -3    0.58    0.15
   2   6  -3    0.30    0.17
  -2  -6   3    0.36    0.09
  -2  -6   3    0.58    0.13
  -2  -6   3    0.43    0.14
  -2  -6   3    0.45    0.15
  -2  -6   3    0.47    0.14
   1   6  -3   74.49    1.94
   1   6  -3   76.41    1.89
   1   6  -3   79.95    1.80
  -1  -6   3   79.00    1.83
  -1  -6   3   76.18    1.88
  -1  -6   3   73.73    1.86
  -1  -6   3   79.80    1.87
  -1  -6   3   75.13    1.87
   0   6  -3    8.25    0.38
   0   6  -3    7.92    0.32
   0   6  -3    7.96    0.32
   0  -6   3    8.38    0.31
   0  -6   3    7.77    0.32
   0  -6   3    7.99    0.30
   0  -6   3    7.73    0.30
   0  -6   3    7.66    0.32
  -1   6  -3   54.05    1.36
  -1   6  -3   54.33    1.41
  -1   6  -3   54.84    1.41
   1  -6   3   53.39    1.33
   1  -6   3   55.05    1.37
   1  -6   3   53.66    1.36
   1  -6   3   55.29    1.33
   1  -6   3   52.91    1.35
  -2   6  -3    0.50    0.14
  -2   6  -3    0.52    0.11
  -2   6  -3    0.43    0.11
   2  -6   3    0.56    0.15
   2  -6   3    0.26    0.12
   2  -6   3    0.44    0.13
   2  -6   3    0.59    0.11
   2  -6   3    0.58    0.13
   2  -6   3    0.36    0.13
  -3   6  -3   44.11    1.15
  -3   6  -3   45.96    1.16
  -3   6  -3   45.81    1.15
   3  -6   3   43.67    1.18
   3  -6   3   44.42    1.19
   3  -6   3   44.20    1.22
   3  -6   3   44.24    1.10
   3  -6   3   44.03    1.18
  -4   6  -3    0.11    0.10
  -4   6  -3    0.02    0.13
  -4   6  -3    0.11    0.12
  -4   6  -3    0.07    0.09
   4  -6   3    0.21    0.10
   4  -6   3    0.20    0.14
   4  -6   3    0.25    0.15
   4  -6   3    0.09    0.17
   4  -6   3    0.11    0.10
   4  -6   3    0.07    0.28
  -5   6  -3   14.68    0.51
  -5   6  -3   14.65    0.45
  -5   6  -3   14.73    0.50
   5  -6   3   15.15    0.67
   5  -6   3   15.52    0.47
   5  -6   3   14.44    0.44
   5  -6   3   15.21    0.59
  -6   6  -3    0.84    0.16
  -6   6  -3    0.99    0.17
  -6   6  -3    0.93    0.22
   6  -6   3    1.03    0.22
  -7   6  -3    3.44    0.32
  -7   6  -3    3.55    0.36
  -7   6  -3    3.70    0.29
   7  -6   3    3.74    0.42
   7  -6   3    3.36    0.46
  -8   6  -3   -0.01    0.16
  -8   6  -3   -0.02    0.22
   8  -6   3   -0.33    0.34
   8  -6   3    0.01    0.24
   9   5  -3   -0.01    0.27
   9   5  -3   -0.17    0.35
   9   5  -3    0.14    0.30
   9   5  -3   -0.07    0.29
  -9  -5   3   -0.04    0.28
  -9  -5   3   -0.59    0.29
  -9  -5   3    0.39    0.33
  -9  -5   3   -0.29    0.26
   8   5  -3    3.40    0.44
   8   5  -3    2.13    0.40
   8   5  -3    2.75    0.39
   8   5  -3    2.43    0.40
  -8  -5   3    3.30    0.44
  -8  -5   3    3.72    0.41
  -8  -5   3    2.36    0.36
  -8  -5   3    2.11    0.35
   7   5  -3   -0.13    0.21
   7   5  -3    0.65    0.25
   7   5  -3   -0.33    0.21
   7   5  -3    0.34    0.28
  -7  -5   3    0.20    0.23
  -7  -5   3    0.29    0.21
  -7  -5   3    0.11    0.19
  -7  -5   3   -0.08    0.24
   6   5  -3    7.62    0.45
   6   5  -3    7.22    0.53
   6   5  -3    8.45    0.42
   6   5  -3    7.91    0.48
  -6  -5   3    8.14    0.38
  -6  -5   3    7.84    0.48
  -6  -5   3    7.97    0.44
  -6  -5   3    7.75    0.44
   5   5  -3    0.26    0.20
   5   5  -3    0.38    0.19
   5   5  -3    0.24    0.15
   5   5  -3    0.52    0.17
   5   5  -3    0.44    0.20
  -5  -5   3    0.32    0.15
  -5  -5   3    0.18    0.14
  -5  -5   3    0.31    0.20
  -5  -5   3    0.31    0.16
   4   5  -3   39.86    1.12
   4   5  -3   39.14    1.12
   4   5  -3   39.24    1.10
   4   5  -3   40.71    1.10
   4   5  -3   39.06    1.06
  -4  -5   3   40.64    0.93
  -4  -5   3   39.17    1.11
  -4  -5   3   38.87    1.11
  -4  -5   3   40.23    1.05
  -4  -5   3   38.56    1.12
   3   5  -3    0.35    0.11
   3   5  -3    0.16    0.11
   3   5  -3    0.35    0.16
   3   5  -3    0.35    0.14
  -3  -5   3    0.40    0.12
  -3  -5   3    0.31    0.10
  -3  -5   3    0.30    0.13
  -3  -5   3    0.27    0.07
  -3  -5   3    0.36    0.14
   2   5  -3   56.67    1.44
   2   5  -3   57.01    1.44
   2   5  -3   56.74    1.48
  -2  -5   3   58.03    1.34
  -2  -5   3   58.01    1.44
  -2  -5   3   56.42    1.44
  -2  -5   3   56.37    1.43
   1   5  -3    1.69    0.17
   1   5  -3    1.70    0.22
   1   5  -3    1.48    0.12
  -1  -5   3    1.44    0.16
  -1  -5   3    1.48    0.17
  -1  -5   3    1.40    0.13
  -1  -5   3    1.79    0.19
  -1  -5   3    1.92    0.16
   0   5  -3   34.89    0.98
   0   5  -3   35.96    0.94
   0   5  -3   34.83    0.94
   0  -5   3   37.19    0.91
   0  -5   3   36.56    0.92
   0  -5   3   37.61    1.05
   0  -5   3   36.73    0.93
   0  -5   3   35.25    0.93
  -1   5  -3    2.41    0.17
  -1   5  -3    2.29    0.17
  -1   5  -3    2.61    0.22
   1  -5   3    2.48    0.16
   1  -5   3    2.71    0.28
   1  -5   3    2.43    0.17
   1  -5   3    2.62    0.17
   1  -5   3    2.66    0.16
  -2   5  -3   77.92    1.88
  -2   5  -3   79.24    1.89
  -2   5  -3   81.67    2.01
   2  -5   3   76.76    1.89
   2  -5   3   77.80    1.86
   2  -5   3   76.48    1.90
   2  -5   3   81.91    1.86
   2  -5   3   77.45    1.90
  -3   5  -3    0.06    0.08
  -3   5  -3    0.08    0.08
  -3   5  -3    0.12    0.11
   3  -5   3    0.07    0.08
   3  -5   3    0.20    0.12
   3  -5   3    0.27    0.14
   3  -5   3    0.16    0.11
   3  -5   3    0.07    0.09
  -4   5  -3   22.29    0.67
  -4   5  -3   21.93    0.64
  -4   5  -3   22.07    0.61
  -4   5  -3   21.38    0.68
   4  -5   3   22.10    0.74
   4  -5   3   22.59    0.58
   4  -5   3   21.73    0.69
   4  -5   3   22.20    0.61
   4  -5   3   21.80    0.69
   4  -5   3   22.40    0.69
  -5   5  -3    1.31    0.16
  -5   5  -3    1.49    0.18
  -5   5  -3    1.43    0.21
  -5   5  -3    1.26    0.15
   5  -5   3    1.15    0.19
   5  -5   3    1.58    0.17
   5  -5   3    1.21    0.24
   5  -5   3    1.59    0.18
  -6   5  -3   12.86    0.53
  -6   5  -3   11.95    0.56
  -6   5  -3   12.98    0.46
   6  -5   3   12.83    0.48
   6  -5   3   12.78    0.56
   6  -5   3   13.04    0.41
   6  -5   3   13.17    0.64
  -7   5  -3    0.55    0.20
  -7   5  -3    0.55    0.16
   7  -5   3    0.37    0.28
   7  -5   3    0.44    0.22
   7  -5   3    0.98    0.25
  -8   5  -3    4.65    0.37
  -8   5  -3    4.49    0.41
  -8   5  -3    4.07    0.32
   8  -5   3    3.96    0.46
   8  -5   3    4.35    0.53
   8  -5   3    3.93    0.55
   9   4  -3    1.27    0.63
   9   4  -3    1.16    0.37
   9   4  -3    0.81    0.35
   9   4  -3    1.18    0.31
  -9  -4   3    1.34    0.34
  -9  -4   3    1.07    0.37
  -9  -4   3    1.10    0.29
  -9  -4   3    0.81    0.38
   8   4  -3   -0.04    0.25
   8   4  -3    0.13    0.33
   8   4  -3    0.09    0.24
   8   4  -3   -0.14    0.26
  -8  -4   3    0.28    0.29
  -8  -4   3    0.26    0.22
   7   4  -3   16.03    0.68
   7   4  -3   15.83    0.76
   7   4  -3   15.97    0.62
   7   4  -3   14.90    0.73
  -7  -4   3   16.03    0.68
  -7  -4   3   15.83    0.73
  -7  -4   3   16.51    0.59
   6   4  -3   -0.21    0.16
   6   4  -3    0.27    0.17
   6   4  -3   -0.19    0.17
   6   4  -3   -0.10    0.22
   6   4  -3    0.14    0.26
  -6  -4   3    0.18    0.25
  -6  -4   3   -0.15    0.16
  -6  -4   3   -0.07    0.14
   5   4  -3   31.93    0.95
   5   4  -3   33.17    1.04
   5   4  -3   32.21    0.95
   5   4  -3   32.58    1.01
   5   4  -3   34.62    0.97
   5   4  -3   33.40    0.95
  -5  -4   3   33.51    0.91
  -5  -4   3   32.53    1.00
  -5  -4   3   33.58    0.97
  -5  -4   3   31.79    0.96
   4   4  -3    0.58    0.17
   4   4  -3    0.80    0.16
   4   4  -3    0.93    0.17
   4   4  -3    0.52    0.15
   4   4  -3    0.69    0.18
  -4  -4   3    0.75    0.16
  -4  -4   3    0.50    0.18
  -4  -4   3    0.60    0.14
  -4  -4   3    0.66    0.14
   3   4  -3   23.02    0.66
   3   4  -3   22.24    0.67
   3   4  -3   22.52    0.69
   3   4  -3   23.68    0.67
   3   4  -3   22.81    0.68
  -3  -4   3   22.55    0.68
  -3  -4   3   23.53    0.64
  -3  -4   3   22.95    0.71
  -3  -4   3   23.75    0.78
   2   4  -3    1.73    0.15
   2   4  -3    2.03    0.17
   2   4  -3    1.68    0.21
   2   4  -3    1.84    0.18
  -2  -4   3    1.78    0.18
  -2  -4   3    1.88    0.21
  -2  -4   3    1.56    0.16
  -2  -4   3    1.89    0.10
   1   4  -3  140.37    3.35
   1   4  -3  143.48    3.35
   1   4  -3  144.64    3.39
   1   4  -3  147.84    3.30
  -1  -4   3  145.63    3.29
  -1  -4   3  142.83    3.34
  -1  -4   3  144.07    3.34
  -1  -4   3  145.59    3.39
   0   4  -3    1.22    0.16
   0   4  -3    0.99    0.13
   0   4  -3    1.04    0.07
   0   4  -3    1.06    0.13
   0  -4   3    1.03    0.13
   0  -4   3    1.35    0.12
   0  -4   3    1.10    0.14
   0  -4   3    1.02    0.13
   0  -4   3    0.97    0.12
  -1   4  -3   48.52    1.19
  -1   4  -3   48.51    1.19
  -1   4  -3   48.73    1.22
   1  -4   3   48.05    1.21
   1  -4   3   48.81    1.18
   1  -4   3   48.34    1.19
   1  -4   3   50.06    1.18
   1  -4   3   47.94    1.19
  -2   4  -3    3.65    0.18
  -2   4  -3    3.54    0.18
  -2   4  -3    3.53    0.20
   2  -4   3    3.26    0.18
   2  -4   3    3.74    0.29
   2  -4   3    3.76    0.18
   2  -4   3    3.70    0.20
   2  -4   3    3.58    0.17
  -3   4  -3   24.77    0.68
  -3   4  -3   25.44    0.67
  -3   4  -3   24.59    0.68
   3  -4   3   24.74    0.70
   3  -4   3   26.11    0.67
   3  -4   3   25.14    0.71
   3  -4   3   25.67    0.74
   3  -4   3   27.39    0.63
   3  -4   3   25.43    0.71
  -4   4  -3   -0.01    0.10
  -4   4  -3    0.15    0.08
  -4   4  -3    0.15    0.09
  -4   4  -3    0.17    0.09
   4  -4   3    0.18    0.11
   4  -4   3    0.20    0.10
   4  -4   3    0.14    0.13
   4  -4   3    0.14    0.09
   4  -4   3    0.07    0.12
  -5   4  -3   45.35    1.17
  -5   4  -3   46.89    1.18
  -5   4  -3   44.81    1.22
  -5   4  -3   46.42    1.10
   5  -4   3   46.57    1.14
   5  -4   3   44.90    1.23
   5  -4   3   45.57    1.30
   5  -4   3   46.69    1.17
  -6   4  -3    0.01    0.11
  -6   4  -3    0.01    0.10
  -6   4  -3   -0.30    0.14
   6  -4   3    0.03    0.15
   6  -4   3   -0.01    0.25
   6  -4   3    0.01    0.16
   6  -4   3    0.19    0.13
  -7   4  -3    6.47    0.33
  -7   4  -3    5.98    0.33
  -7   4  -3    6.30    0.40
   7  -4   3    7.38    0.43
   7  -4   3    7.03    0.44
   7  -4   3    6.96    0.54
  -8   4  -3    0.16    0.14
  -8   4  -3    0.20    0.20
  -8   4  -3    0.16    0.32
   8  -4   3    0.04    0.29
   8  -4   3    0.18    0.23
  -9   4  -3    1.38    0.29
  -9   4  -3    1.53    0.25
   9  -4   3    2.49    0.47
   9  -4   3    2.21    0.43
   9  -4   3    1.91    0.39
   9   3  -3   -0.10    0.31
   9   3  -3    0.58    0.36
   9   3  -3    0.35    0.28
  -9  -3   3    0.55    0.37
  -9  -3   3    0.12    0.24
  -9  -3   3   -0.20    0.36
  -9  -3   3    0.36    0.29
   8   3  -3    5.49    0.50
   8   3  -3    5.57    0.42
   8   3  -3    5.13    0.54
  -8  -3   3    6.49    0.48
  -8  -3   3    5.04    0.42
  -8  -3   3    5.44    0.54
  -8  -3   3    5.17    0.45
   7   3  -3    0.43    0.24
   7   3  -3    0.13    0.19
   7   3  -3    0.08    0.27
   7   3  -3    0.15    0.20
   7   3  -3    0.35    0.25
  -7  -3   3    0.26    0.19
  -7  -3   3    0.09    0.16
  -7  -3   3    0.34    0.19
  -7  -3   3    0.32    0.29
   6   3  -3   17.66    0.60
   6   3  -3   18.20    0.70
   6   3  -3   18.76    0.68
  -6  -3   3   18.13    0.72
  -6  -3   3   18.18    0.64
  -6  -3   3   18.97    0.61
   5   3  -3    0.10    0.18
   5   3  -3    0.09    0.18
   5   3  -3   -0.20    0.12
   5   3  -3   -0.15    0.16
   5   3  -3   -0.27    0.14
   5   3  -3    0.07    0.15
  -5  -3   3   -0.18    0.19
  -5  -3   3    0.02    0.12
  -5  -3   3    0.02    0.08
  -5  -3   3   -0.13    0.13
  -5  -3   3    0.13    0.14
   4   3  -3   67.75    1.62
   4   3  -3   63.74    1.62
   4   3  -3   67.64    1.70
   4   3  -3   64.44    1.68
   4   3  -3   65.98    1.63
   4   3  -3   64.83    1.65
  -4  -3   3   65.87    1.68
  -4  -3   3   62.11    1.64
  -4  -3   3   67.90    1.60
  -4  -3   3   64.18    1.69
   3   3  -3    3.81    0.24
   3   3  -3    4.14    0.24
   3   3  -3    4.26    0.24
   3   3  -3    4.14    0.22
   3   3  -3    4.43    0.23
  -3  -3   3    4.57    0.24
  -3  -3   3    3.95    0.20
  -3  -3   3    4.02    0.27
  -3  -3   3    3.88    0.23
   2   3  -3  108.51    2.48
   2   3  -3  103.72    2.47
   2   3  -3  106.54    2.52
  -2  -3   3  103.60    2.48
  -2  -3   3  105.48    2.45
  -2  -3   3  103.82    2.48
  -2  -3   3  106.33    2.51
   1   3  -3    1.37    0.13
   1   3  -3    1.43    0.17
   1   3  -3    1.30    0.11
   1   3  -3    1.25    0.13
  -1  -3   3    1.38    0.08
  -1  -3   3    1.20    0.13
  -1  -3   3    1.19    0.13
  -1  -3   3    1.42    0.15
   0   3  -3   85.06    1.88
   0   3  -3   82.47    1.93
   0   3  -3   73.15    1.96
   0   3  -3   83.85    1.96
   0  -3   3   83.03    1.94
   0  -3   3   81.50    1.90
   0  -3   3   85.24    1.92
   0  -3   3   82.86    1.92
  -1   3  -3    0.04    0.06
  -1   3  -3   -0.01    0.06
  -1   3  -3   -0.03    0.09
   1  -3   3    0.05    0.06
   1  -3   3    0.01    0.07
   1  -3   3    0.06    0.06
   1  -3   3   -0.12    0.06
   1  -3   3   -0.05    0.05
  -2   3  -3  187.71    4.28
  -2   3  -3  188.66    4.28
   2  -3   3  186.28    4.27
   2  -3   3  186.07    4.29
   2  -3   3  191.79    4.26
   2  -3   3  182.91    4.29
  -3   3  -3    2.06    0.16
  -3   3  -3    2.00    0.15
  -3   3  -3    2.18    0.14
  -3   3  -3    2.25    0.13
   3  -3   3    2.14    0.17
   3  -3   3    1.90    0.15
   3  -3   3    2.22    0.15
   3  -3   3    1.95    0.15
   3  -3   3    2.21    0.13
   3  -3   3    2.09    0.19
  -4   3  -3   43.98    1.04
  -4   3  -3   43.08    1.09
  -4   3  -3   43.26    1.12
  -4   3  -3   44.05    1.08
   4  -3   3   44.19    1.10
   4  -3   3   43.40    1.12
   4  -3   3   42.91    1.13
   4  -3   3   43.48    1.07
   4  -3   3   42.86    1.16
  -5   3  -3    0.07    0.08
  -5   3  -3    0.03    0.06
  -5   3  -3    0.13    0.09
  -5   3  -3    0.21    0.11
   5  -3   3    0.21    0.11
   5  -3   3   -0.10    0.13
   5  -3   3   -0.07    0.10
   5  -3   3   -0.24    0.13
  -6   3  -3   21.11    0.63
  -6   3  -3   21.66    0.63
   6  -3   3   21.41    0.61
   6  -3   3   21.77    0.79
   6  -3   3   21.55    0.72
   6  -3   3   21.16    0.70
  -7   3  -3    0.56    0.15
  -7   3  -3    0.23    0.19
  -7   3  -3    0.38    0.18
   7  -3   3    0.31    0.23
   7  -3   3    0.46    0.21
   7  -3   3    0.66    0.17
   7  -3   3    0.42    0.26
  -8   3  -3    4.18    0.38
  -8   3  -3    4.17    0.33
  -8   3  -3    3.68    0.30
   8  -3   3    4.79    0.45
   8  -3   3    4.30    0.49
  -9   3  -3   -0.19    0.17
  -9   3  -3    0.16    0.21
  -9   3  -3   -0.21    0.22
   9  -3   3    0.67    0.39
   9  -3   3   -0.03    0.31
   9   2  -3    1.30    0.38
   9   2  -3    0.99    0.30
   9   2  -3    2.13    0.42
  -9  -2   3    1.45    0.27
  -9  -2   3    1.68    0.40
  -9  -2   3    1.47    0.39
  -9  -2   3    1.21    0.48
   8   2  -3   -0.12    0.23
   8   2  -3   -0.43    0.27
   8   2  -3    0.18    0.30
  -8  -2   3   -0.20    0.19
  -8  -2   3   -0.01    0.22
  -8  -2   3   -0.01    0.23
   7   2  -3    9.36    0.42
   7   2  -3   10.21    0.56
   7   2  -3    9.24    0.52
   7   2  -3    8.40    0.58
   7   2  -3    9.80    0.41
  -7  -2   3   10.59    0.47
  -7  -2   3   10.29    0.47
  -7  -2   3    9.63    0.51
   6   2  -3    0.34    0.23
   6   2  -3    0.34    0.15
   6   2  -3    0.30    0.18
   6   2  -3    0.26    0.15
   6   2  -3    0.08    0.17
  -6  -2   3    0.10    0.14
  -6  -2   3    0.47    0.15
  -6  -2   3    0.21    0.15
   5   2  -3   52.85    1.43
   5   2  -3   53.24    1.46
   5   2  -3   52.51    1.43
   5   2  -3   52.22    1.33
  -5  -2   3   54.42    1.35
  -5  -2   3   52.09    1.39
  -5  -2   3   53.66    1.42
  -5  -2   3   54.21    1.45
   4   2  -3    0.91    0.14
   4   2  -3    0.78    0.17
   4   2  -3    0.94    0.18
   4   2  -3    0.60    0.15
  -4  -2   3    0.96    0.14
  -4  -2   3    0.95    0.19
  -4  -2   3    0.72    0.17
  -4  -2   3    0.94    0.14
   3   2  -3   39.75    1.03
   3   2  -3   39.68    1.03
   3   2  -3   39.81    0.99
   3   2  -3   39.19    0.97
   3   2  -3   39.36    1.04
  -3  -2   3   37.32    1.05
  -3  -2   3   34.48    1.04
  -3  -2   3   40.35    0.96
  -3  -2   3   38.51    1.01
   2   2  -3    1.73    0.13
   2   2  -3    1.93    0.14
   2   2  -3    1.59    0.16
   2   2  -3    2.03    0.16
  -2  -2   3    2.02    0.16
  -2  -2   3    1.95    0.19
  -2  -2   3    2.05    0.12
  -2  -2   3    1.93    0.15
   1   2  -3  252.51    5.71
   1   2  -3  254.08    5.72
   1   2  -3  261.97    5.72
   1   2  -3  250.46    5.71
  -1  -2   3  253.77    5.71
  -1  -2   3  233.81    5.76
  -1  -2   3  256.33    5.72
   0   2  -3    0.01    0.05
   0   2  -3   -0.02    0.04
   0   2  -3    0.03    0.07
   0   2  -3   -0.04    0.05
   0  -2   3    0.03    0.05
   0  -2   3    0.08    0.05
   0  -2   3    0.08    0.07
   0  -2   3    0.01    0.05
  -1   2  -3  402.57    9.06
  -1   2  -3  385.89    8.90
  -1   2  -3  397.86    9.06
   1  -2   3  394.87    9.06
   1  -2   3  390.96    8.94
   1  -2   3  390.16    9.04
  -2   2  -3   -0.02    0.06
  -2   2  -3   -0.03    0.06
  -2   2  -3    0.01    0.05
  -2   2  -3   -0.05    0.04
   2  -2   3   -0.06    0.07
   2  -2   3    0.01    0.05
   2  -2   3    0.04    0.05
   2  -2   3   -0.01    0.05
  -3   2  -3   94.27    2.21
  -3   2  -3   93.15    2.23
  -3   2  -3   94.15    2.18
  -3   2  -3   94.02    2.21
   3  -2   3   94.34    2.24
   3  -2   3   93.99    2.22
   3  -2   3   99.34    2.20
   3  -2   3   94.83    2.20
   3  -2   3   94.89    2.26
  -4   2  -3    2.84    0.12
  -4   2  -3    2.64    0.16
  -4   2  -3    2.70    0.18
  -4   2  -3    2.71    0.16
   4  -2   3    2.61    0.23
   4  -2   3    2.58    0.22
   4  -2   3    2.69    0.18
   4  -2   3    2.75    0.17
   4  -2   3    2.72    0.16
   4  -2   3    2.52    0.19
  -5   2  -3   61.45    1.51
  -5   2  -3   63.30    1.51
  -5   2  -3   60.46    1.55
   5  -2   3   61.72    1.51
   5  -2   3   61.72    1.60
   5  -2   3   61.62    1.56
   5  -2   3   62.55    1.59
  -6   2  -3    0.22    0.11
  -6   2  -3    0.32    0.12
  -6   2  -3    0.22    0.14
   6  -2   3    0.33    0.13
   6  -2   3    0.22    0.16
   6  -2   3    0.47    0.19
   6  -2   3    0.38    0.20
  -7   2  -3   13.66    0.48
  -7   2  -3   12.12    0.47
  -7   2  -3   12.94    0.53
   7  -2   3   13.21    0.61
   7  -2   3   13.13    0.60
   7  -2   3   13.42    0.56
   7  -2   3   12.94    0.48
  -8   2  -3   -0.19    0.12
  -8   2  -3   -0.02    0.18
  -8   2  -3   -0.01    0.16
   8  -2   3    0.25    0.22
   8  -2   3    0.02    0.20
   8  -2   3    0.39    0.29
   8  -2   3    0.23    0.24
  -9   2  -3    2.13    0.31
  -9   2  -3    1.92    0.25
  -9   2  -3    2.27    0.30
   9  -2   3    2.05    0.40
   9  -2   3    1.77    0.45
   9   1  -3    0.29    0.29
   9   1  -3    0.02    0.29
   9   1  -3    0.46    0.37
  -9  -1   3    0.07    0.30
  -9  -1   3   -0.65    0.39
  -9  -1   3   -0.18    0.22
   8   1  -3    4.91    0.49
   8   1  -3    5.44    0.50
   8   1  -3    4.47    0.51
  -8  -1   3    4.07    0.38
  -8  -1   3    5.17    0.45
  -8  -1   3    6.31    0.50
   7   1  -3    0.04    0.28
   7   1  -3    0.02    0.12
   7   1  -3    0.42    0.38
   7   1  -3   -0.25    0.19
  -7  -1   3    0.26    0.18
  -7  -1   3   -0.05    0.17
  -7  -1   3    0.10    0.18
   6   1  -3    6.49    0.28
   6   1  -3    6.48    0.42
   6   1  -3    5.99    0.44
   6   1  -3    6.69    0.29
   6   1  -3    7.06    0.38
  -6  -1   3    7.54    0.35
  -6  -1   3    7.84    0.37
  -6  -1   3    6.09    0.35
   5   1  -3    2.18    0.19
   5   1  -3    2.24    0.24
   5   1  -3    2.27    0.18
   5   1  -3    2.54    0.28
   5   1  -3    2.40    0.28
  -5  -1   3    2.03    0.21
  -5  -1   3    2.27    0.22
  -5  -1   3    2.50    0.23
   4   1  -3   87.19    2.16
   4   1  -3   88.79    2.04
   4   1  -3   87.46    2.16
   4   1  -3   88.55    2.05
   4   1  -3   88.50    2.12
  -4  -1   3   89.60    2.10
  -4  -1   3   82.30    2.19
  -4  -1   3   84.46    2.10
   3   1  -3    2.92    0.21
   3   1  -3    2.51    0.21
   3   1  -3    3.03    0.20
   3   1  -3    2.72    0.17
  -3  -1   3    2.63    0.23
  -3  -1   3    2.90    0.16
  -3  -1   3    2.81    0.18
  -3  -1   3    2.83    0.20
   2   1  -3  215.81    4.77
   2   1  -3  207.16    4.78
   2   1  -3  196.32    4.85
  -2  -1   3  212.49    4.79
  -2  -1   3  219.12    4.85
  -2  -1   3  209.63    4.75
  -2  -1   3  210.72    4.79
   1   1  -3   -0.03    0.04
   1   1  -3   -0.04    0.06
   1   1  -3   -0.01    0.06
   1   1  -3    0.06    0.06
   1   1  -3    0.09    0.06
   1   1  -3   -0.01    0.04
  -1  -1   3   -0.02    0.07
  -1  -1   3    0.03    0.04
  -1  -1   3    0.00    0.05
   0   1  -3   75.07    1.70
   0   1  -3   70.78    1.70
   0   1  -3   73.66    1.69
   0   1  -3   73.62    1.71
   0   1  -3   71.04    1.71
   0  -1   3   70.69    1.70
   0  -1   3   74.25    1.71
   0  -1   3   73.77    1.70
   0  -1   3   76.27    1.67
  -1   1  -3    0.97    0.08
  -1   1  -3    0.84    0.08
  -1   1  -3    1.01    0.08
  -1   1  -3    0.98    0.09
  -1   1  -3    0.85    0.09
  -1   1  -3    0.90    0.08
   1  -1   3    0.90    0.10
   1  -1   3    0.90    0.08
   1  -1   3    0.86    0.06
   1  -1   3    0.93    0.08
  -2   1  -3  429.24    9.97
  -2   1  -3  435.20    9.99
  -2   1  -3  436.84    9.90
  -2   1  -3  438.04    9.78
  -2   1  -3  436.05    9.95
   2  -1   3  432.40    9.79
   2  -1   3  424.68    9.85
   2  -1   3  445.21    9.89
   2  -1   3  430.49    9.83
  -3   1  -3    0.97    0.11
  -3   1  -3    1.12    0.08
  -3   1  -3    1.01    0.11
  -3   1  -3    1.06    0.14
   3  -1   3    1.10    0.13
   3  -1   3    1.05    0.11
   3  -1   3    0.88    0.13
   3  -1   3    1.14    0.12
  -4   1  -3  102.22    2.42
  -4   1  -3  101.29    2.41
  -4   1  -3  102.73    2.45
   4  -1   3  107.00    2.41
   4  -1   3  103.98    2.41
   4  -1   3  103.29    2.48
   4  -1   3  103.25    2.45
   4  -1   3  104.76    2.45
  -5   1  -3    6.47    0.26
  -5   1  -3    6.14    0.26
  -5   1  -3    6.58    0.30
   5  -1   3    6.62    0.31
   5  -1   3    6.77    0.31
   5  -1   3    5.81    0.33
   5  -1   3    6.72    0.28
   5  -1   3    6.46    0.36
  -6   1  -3   23.10    0.69
  -6   1  -3   25.21    0.69
  -6   1  -3   24.70    0.73
   6  -1   3   23.95    0.79
   6  -1   3   22.60    0.80
   6  -1   3   23.53    0.73
   6  -1   3   24.94    0.75
  -7   1  -3    0.10    0.15
  -7   1  -3   -0.21    0.12
   7  -1   3    0.02    0.24
   7  -1   3    0.03    0.21
   7  -1   3   -0.14    0.15
  -8   1  -3   11.81    0.51
  -8   1  -3   12.08    0.55
  -8   1  -3   12.31    0.49
   8  -1   3   12.82    0.67
   8  -1   3   13.29    0.51
   8  -1   3   11.83    0.64
  -9   1  -3   -0.51    0.20
  -9   1  -3    0.23    0.23
  -9   1  -3    0.05    0.18
   9  -1   3    0.50    0.38
   9  -1   3    0.19    0.24
   9  -1   3    0.05    0.25
 -10   1  -3    2.41    0.38
 -10   1  -3    2.03    0.36
 -10   1  -3    1.82    0.32
  10  -1   3    1.60    0.38
  10  -1   3    2.92    0.52
   9   0  -3    1.54    0.37
   9   0  -3    1.81    0.50
   9   0  -3    1.63    0.42
  -9   0   3    1.21    0.25
  -9   0   3    2.03    0.42
   8   0  -3   -0.11    0.26
   8   0  -3    0.39    0.31
   8   0  -3    0.38    0.25
  -8   0   3   -0.06    0.27
  -8   0   3    0.38    0.19
  -8   0   3    0.18    0.23
   7   0  -3    7.61    0.52
   7   0  -3    7.43    0.57
   7   0  -3    7.45    0.43
  -7   0   3    7.93    0.39
  -7   0   3    8.34    0.40
  -7   0   3    7.10    0.40
   6   0  -3   -0.07    0.16
   6   0  -3    0.07    0.21
   6   0  -3   -0.01    0.14
  -6   0   3    0.04    0.13
  -6   0   3    0.00    0.12
  -6   0   3   -0.09    0.24
   5   0  -3   55.49    1.48
   5   0  -3   53.81    1.40
   5   0  -3   54.60    1.49
  -5   0   3   52.26    1.38
  -5   0   3   55.88    1.35
   4   0  -3    2.32    0.20
   4   0  -3    2.90    0.25
   4   0  -3    2.63    0.12
   4   0  -3    2.73    0.23
   4   0  -3    2.64    0.15
  -4   0   3    2.59    0.18
  -4   0   3    2.80    0.18
   3   0  -3   58.66    1.49
   3   0  -3   57.86    1.40
   3   0  -3   59.72    1.37
   3   0  -3   59.15    1.45
   3   0  -3   62.25    1.48
  -3   0   3   60.25    1.39
  -3   0   3   57.35    1.45
  -3   0   3   57.65    1.43
   2   0  -3    3.84    0.22
   2   0  -3    4.64    0.14
   2   0  -3    4.28    0.17
   2   0  -3    4.11    0.26
   2   0  -3    4.45    0.14
  -2   0   3    4.78    0.18
  -2   0   3    4.22    0.24
  -2   0   3    4.25    0.14
   1   0  -3  130.16    3.03
   1   0  -3  130.99    2.99
   1   0  -3  135.24    3.04
   1   0  -3  132.53    3.02
   1   0  -3  131.51    3.04
   1   0  -3  134.45    2.99
  -1   0   3  131.76    3.01
  -1   0   3  130.47    3.00
   0   0  -3   -0.16    0.05
   0   0  -3   -0.10    0.04
   0   0  -3   -0.19    0.04
   0   0  -3   -0.19    0.05
   0   0  -3   -0.25    0.05
   0   0   3   -0.17    0.04
   0   0   3   -0.03    0.06
   0   0   3   -0.08    0.04
  -1   0  -3  221.98    5.12
  -1   0  -3  233.50    5.17
  -1   0  -3  223.84    5.15
  -1   0  -3  220.69    5.09
  -1   0  -3  220.93    5.11
  -1   0  -3  225.97    5.17
   1   0   3  225.48    5.09
   1   0   3  227.57    5.12
   1   0   3  223.57    5.10
   1   0   3  231.70    5.09
  -2   0  -3   17.02    0.43
  -2   0  -3   17.00    0.45
  -2   0  -3   17.13    0.44
  -2   0  -3   17.07    0.45
  -2   0  -3   17.10    0.41
   2   0   3   17.15    0.45
   2   0   3   16.56    0.44
   2   0   3   16.84    0.43
   2   0   3   16.58    0.44
  -3   0  -3   71.91    1.68
  -3   0  -3   70.28    1.67
  -3   0  -3   70.10    1.67
   3   0   3   71.53    1.68
   3   0   3   70.70    1.68
   3   0   3   69.36    1.67
   3   0   3   72.34    1.67
  -4   0  -3    1.11    0.14
  -4   0  -3    0.82    0.10
  -4   0  -3    0.87    0.11
   4   0   3    0.89    0.11
   4   0   3    0.95    0.11
   4   0   3    0.93    0.13
   4   0   3    0.97    0.15
  -5   0  -3   85.35    2.04
  -5   0  -3   82.87    2.04
  -5   0  -3   85.88    2.08
   5   0   3   87.15    2.14
   5   0   3   86.56    2.03
   5   0   3   87.39    2.09
   5   0   3   83.54    2.10
  -6   0  -3    3.34    0.23
  -6   0  -3    3.41    0.23
  -6   0  -3    3.55    0.26
   6   0   3    3.22    0.24
   6   0   3    3.27    0.29
   6   0   3    2.95    0.29
   6   0   3    3.31    0.34
  -7   0  -3   27.00    0.77
  -7   0  -3   25.61    0.77
   7   0   3   24.42    0.85
   7   0   3   26.60    0.78
   7   0   3   24.85    0.91
  -8   0  -3    0.30    0.16
  -8   0  -3    0.02    0.21
   8   0   3    0.59    0.28
   8   0   3    0.08    0.17
  -9   0  -3    5.63    0.43
  -9   0  -3    5.01    0.41
  -9   0  -3    5.55    0.44
   9   0   3    5.18    0.41
   9   0   3    5.58    0.51
   9   0   3    5.77    0.61
 -10   0  -3    0.60    0.28
 -10   0  -3   -0.22    0.29
 -10   0  -3    0.22    0.24
  10   0   3    0.16    0.31
  10   0   3    0.45    0.40
   9  -1  -3    0.32    0.35
   9  -1  -3    0.43    0.29
  -9   1   3   -0.32    0.35
  -9   1   3   -0.16    0.20
   8  -1  -3    8.26    0.61
   8  -1  -3    7.96    0.58
  -8   1   3    8.14    0.45
  -8   1   3    7.92    0.47
   7  -1  -3    0.51    0.25
   7  -1  -3    0.29    0.27
   7  -1  -3    0.25    0.19
  -7   1   3    0.08    0.30
  -7   1   3    0.09    0.16
  -7   1   3    0.18    0.17
   6  -1  -3   13.91    0.51
   6  -1  -3   13.53    0.62
  -6   1   3   13.81    0.47
  -6   1   3   12.71    0.57
  -6   1   3   13.91    0.49
   5  -1  -3    0.61    0.15
   5  -1  -3    0.69    0.21
   5  -1  -3    0.92    0.20
  -5   1   3    0.71    0.14
  -5   1   3    0.50    0.13
  -5   1   3    0.91    0.15
  -5   1   3    0.54    0.13
   4  -1  -3   39.18    1.12
   4  -1  -3   39.56    1.03
   4  -1  -3   38.34    1.08
   4  -1  -3   39.58    1.04
  -4   1   3   40.38    0.99
  -4   1   3   40.69    0.98
  -4   1   3   41.74    1.03
  -4   1   3   37.85    0.99
   3  -1  -3    0.32    0.11
   3  -1  -3    0.34    0.09
   3  -1  -3    0.21    0.11
   3  -1  -3    0.21    0.07
   3  -1  -3    0.20    0.09
  -3   1   3    0.27    0.07
  -3   1   3    0.28    0.08
  -3   1   3    0.31    0.07
  -3   1   3    0.35    0.06
   2  -1  -3  232.09    5.40
   2  -1  -3  237.20    5.35
   2  -1  -3  231.80    5.38
   2  -1  -3  232.63    5.37
   2  -1  -3  241.21    5.32
  -2   1   3  240.59    5.32
  -2   1   3  244.16    5.31
  -2   1   3  232.56    5.33
  -2   1   3  228.84    5.32
   1  -1  -3    5.12    0.18
   1  -1  -3    5.15    0.16
   1  -1  -3    5.36    0.17
   1  -1  -3    5.27    0.21
  -1   1   3    5.25    0.22
  -1   1   3    5.44    0.15
  -1   1   3    5.42    0.16
  -1   1   3    5.37    0.16
   0  -1  -3   52.20    1.19
   0  -1  -3   52.13    1.23
   0  -1  -3   50.87    1.20
   0  -1  -3   53.21    1.23
   0  -1  -3   52.08    1.22
   0  -1  -3   51.94    1.19
   0  -1  -3   52.86    1.23
   0   1   3   51.79    1.20
   0   1   3   52.69    1.20
   0   1   3   51.59    1.22
  -1  -1  -3    0.43    0.07
  -1  -1  -3    0.47    0.07
  -1  -1  -3    0.59    0.09
  -1  -1  -3    0.38    0.07
  -1  -1  -3    0.51    0.11
   1   1   3    0.57    0.07
   1   1   3    0.44    0.07
   1   1   3    0.46    0.08
  -2  -1  -3   69.15    1.57
  -2  -1  -3   66.97    1.60
  -2  -1  -3   68.23    1.59
   2   1   3   66.53    1.59
   2   1   3   70.55    1.59
  -3  -1  -3    5.18    0.20
  -3  -1  -3    4.91    0.19
  -3  -1  -3    5.19    0.22
   3   1   3    5.13    0.19
   3   1   3    4.93    0.19
   3   1   3    5.27    0.20
  -4  -1  -3  132.97    3.07
  -4  -1  -3  132.35    3.09
   4   1   3  133.49    3.06
   4   1   3  133.72    3.09
   4   1   3  128.98    3.06
  -5  -1  -3    0.27    0.09
  -5  -1  -3    0.21    0.09
  -5  -1  -3    0.10    0.12
   5   1   3    0.45    0.10
   5   1   3    0.29    0.09
   5   1   3    0.10    0.11
   5   1   3    0.40    0.07
  -6  -1  -3   28.64    0.81
  -6  -1  -3   28.40    0.80
  -6  -1  -3   29.18    0.84
   6   1   3   28.89    0.74
   6   1   3   28.35    0.81
   6   1   3   29.55    0.82
   6   1   3   28.55    0.86
  -7  -1  -3    0.98    0.18
  -7  -1  -3    0.38    0.15
  -7  -1  -3    0.35    0.18
   7   1   3    0.60    0.19
   7   1   3    0.56    0.17
   7   1   3    0.82    0.27
   7   1   3    0.58    0.13
  -8  -1  -3   11.16    0.47
  -8  -1  -3   10.08    0.50
   8   1   3    9.63    0.56
   8   1   3   11.43    0.49
   8   1   3   10.57    0.64
  -9  -1  -3    0.20    0.24
  -9  -1  -3    0.04    0.22
  -9  -1  -3   -0.38    0.17
   9   1   3    0.02    0.30
   9   1   3   -0.24    0.21
   9   1   3    0.04    0.25
 -10  -1  -3    3.93    0.48
 -10  -1  -3    3.69    0.44
 -10  -1  -3    3.74    0.47
  10   1   3    3.70    0.49
  10   1   3    3.94    0.52
  10   1   3    3.94    0.59
   8  -2  -3    0.16    0.29
   8  -2  -3    0.00    0.26
   8  -2  -3    0.51    0.27
  -8   2   3    0.34    0.22
  -8   2   3   -0.23    0.16
   7  -2  -3    8.91    0.55
   7  -2  -3    8.88    0.44
   7  -2  -3    9.03    0.58
  -7   2   3    8.84    0.41
  -7   2   3    9.32    0.43
   6  -2  -3   -0.04    0.18
   6  -2  -3   -0.23    0.13
  -6   2   3    0.00    0.14
  -6   2   3   -0.14    0.11
  -6   2   3    0.00    0.18
   5  -2  -3   44.44    1.29
   5  -2  -3   43.26    1.14
   5  -2  -3   43.08    1.22
   5  -2  -3   44.02    1.11
   5  -2  -3   42.31    1.18
  -5   2   3   44.08    1.11
  -5   2   3   45.15    1.12
  -5   2   3   44.07    1.10
  -5   2   3   44.88    1.10
   4  -2  -3    1.42    0.17
   4  -2  -3    1.12    0.15
   4  -2  -3    1.30    0.19
   4  -2  -3    1.45    0.19
   4  -2  -3    1.65    0.16
  -4   2   3    1.23    0.13
  -4   2   3    1.32    0.11
  -4   2   3    1.68    0.13
  -4   2   3    1.55    0.13
   3  -2  -3   36.30    0.97
   3  -2  -3   35.52    1.01
   3  -2  -3   36.56    0.96
   3  -2  -3   36.99    0.94
  -3   2   3   37.87    0.90
  -3   2   3   37.30    0.87
  -3   2   3   37.30    0.88
  -3   2   3   36.10    0.86
   2  -2  -3    2.04    0.19
   2  -2  -3    2.06    0.14
   2  -2  -3    1.98    0.16
   2  -2  -3    2.06    0.13
   1  -2  -3  271.32    6.19
   1  -2  -3  274.19    6.22
   1  -2  -3  274.89    6.21
   1  -2  -3  281.08    6.31
   1  -2  -3  270.26    6.23
   0  -2  -3    4.08    0.17
   0  -2  -3    4.26    0.14
   0  -2  -3    4.39    0.17
   0  -2  -3    4.48    0.17
   0  -2  -3    4.32    0.14
   0   2   3    4.24    0.13
   0   2   3    4.47    0.13
   0   2   3    4.41    0.15
   0   2   3    4.57    0.13
  -1  -2  -3  307.02    6.76
  -1  -2  -3  288.11    6.57
  -1  -2  -3  278.29    6.67
  -1  -2  -3  278.67    6.59
  -1  -2  -3  283.25    6.68
   1   2   3  296.16    6.64
   1   2   3  310.25    6.61
   1   2   3  285.62    6.59
  -2  -2  -3    0.83    0.08
  -2  -2  -3    0.86    0.09
  -2  -2  -3    0.90    0.13
  -2  -2  -3    0.76    0.09
   2   2   3    0.81    0.08
   2   2   3    0.97    0.07
   2   2   3    0.95    0.08
  -3  -2  -3   22.02    0.59
  -3  -2  -3   21.90    0.59
  -3  -2  -3   22.98    0.62
   3   2   3   22.43    0.58
   3   2   3   21.73    0.59
  -4  -2  -3    0.95    0.12
  -4  -2  -3    0.75    0.14
  -4  -2  -3    0.66    0.11
   4   2   3    0.66    0.11
   4   2   3    0.85    0.12
   4   2   3    0.68    0.11
  -5  -2  -3   65.03    1.64
  -5  -2  -3   66.28    1.68
  -5  -2  -3   67.20    1.65
   5   2   3   68.68    1.65
   5   2   3   67.87    1.58
   5   2   3   66.14    1.66
   5   2   3   68.71    1.64
  -6  -2  -3    1.31    0.20
  -6  -2  -3    1.27    0.17
  -6  -2  -3    1.17    0.16
   6   2   3    1.02    0.17
   6   2   3    0.94    0.18
   6   2   3    0.89    0.16
   6   2   3    1.17    0.13
  -7  -2  -3   20.62    0.68
  -7  -2  -3   20.57    0.69
  -7  -2  -3   21.44    0.73
   7   2   3   21.08    0.69
   7   2   3   21.89    0.71
   7   2   3   20.02    0.79
   7   2   3   21.42    0.73
  -8  -2  -3    0.47    0.18
  -8  -2  -3   -0.03    0.21
  -8  -2  -3    0.19    0.16
   8   2   3    0.25    0.18
   8   2   3   -0.12    0.20
   8   2   3    0.29    0.19
   8   2   3   -0.10    0.25
  -9  -2  -3    3.17    0.42
  -9  -2  -3    2.60    0.36
  -9  -2  -3    3.31    0.41
   9   2   3    3.21    0.45
   9   2   3    3.61    0.49
   9   2   3    3.12    0.35
 -10  -2  -3   -0.20    0.27
 -10  -2  -3    0.07    0.31
 -10  -2  -3    0.43    0.27
  10   2   3    0.46    0.28
  10   2   3   -0.21    0.32
  10   2   3    0.34    0.28
   8  -3  -3    5.01    0.55
   8  -3  -3    4.02    0.51
   8  -3  -3    3.81    0.47
  -8   3   3    4.56    0.45
  -8   3   3    4.64    0.37
   7  -3  -3    0.30    0.20
   7  -3  -3    0.12    0.27
   7  -3  -3    0.30    0.26
   7  -3  -3    0.35    0.23
  -7   3   3    0.41    0.16
  -7   3   3    0.30    0.19
   6  -3  -3   14.06    0.60
   6  -3  -3   14.40    0.69
   6  -3  -3   14.14    0.58
   6  -3  -3   13.89    0.51
  -6   3   3   14.13    0.45
  -6   3   3   14.28    0.48
   5  -3  -3    0.66    0.19
   5  -3  -3    0.91    0.16
   5  -3  -3    0.80    0.25
   5  -3  -3    0.83    0.17
   5  -3  -3    0.81    0.15
  -5   3   3    0.93    0.12
  -5   3   3    0.90    0.13
  -5   3   3    0.99    0.12
  -5   3   3    0.92    0.14
   4  -3  -3   19.15    0.56
   4  -3  -3   18.58    0.67
   4  -3  -3   19.27    0.60
   4  -3  -3   18.37    0.59
   4  -3  -3   18.74    0.60
  -4   3   3   19.74    0.54
  -4   3   3   19.28    0.48
  -4   3   3   19.14    0.50
   3  -3  -3    4.30    0.26
   3  -3  -3    4.33    0.24
   3  -3  -3    4.16    0.28
   3  -3  -3    4.29    0.21
   3  -3  -3    4.45    0.21
  -3   3   3    4.69    0.19
   2  -3  -3  207.73    4.77
   2  -3  -3  209.26    4.78
   2  -3  -3  211.71    4.77
   2  -3  -3  208.14    4.75
   2  -3  -3  206.18    4.82
   1  -3  -3    0.74    0.11
   1  -3  -3    0.76    0.11
   1  -3  -3    0.78    0.10
   1  -3  -3    0.72    0.09
   1  -3  -3    0.62    0.10
   0  -3  -3  289.10    6.72
   0  -3  -3  288.54    6.78
   0  -3  -3  302.40    6.86
   0  -3  -3  301.73    6.83
   0  -3  -3  293.32    6.73
   0   3   3  289.59    6.74
   0   3   3  286.15    6.71
   0   3   3  324.14    6.80
   0   3   3  301.34    6.70
  -1  -3  -3    5.31    0.20
  -1  -3  -3    4.88    0.18
  -1  -3  -3    5.03    0.18
  -1  -3  -3    5.05    0.19
  -1  -3  -3    5.06    0.21
   1   3   3    5.13    0.17
   1   3   3    4.92    0.16
  -2  -3  -3   90.77    2.18
  -2  -3  -3   90.91    2.18
  -2  -3  -3   92.94    2.15
  -2  -3  -3   96.17    2.14
  -2  -3  -3   87.80    2.14
   2   3   3   91.42    2.12
   2   3   3   92.14    2.13
  -3  -3  -3   20.31    0.61
  -3  -3  -3   20.57    0.57
  -3  -3  -3   19.70    0.57
   3   3   3   21.22    0.56
  -4  -3  -3  114.45    3.20
  -4  -3  -3  138.49    3.13
  -4  -3  -3  137.19    3.17
   4   3   3  137.37    3.13
   4   3   3  139.43    3.12
   4   3   3  136.36    3.11
  -5  -3  -3    2.38    0.19
  -5  -3  -3    2.11    0.22
  -5  -3  -3    2.54    0.20
   5   3   3    2.50    0.22
   5   3   3    2.59    0.20
   5   3   3    2.36    0.19
   5   3   3    2.21    0.19
  -6  -3  -3   28.20    0.82
  -6  -3  -3   28.09    0.85
  -6  -3  -3   28.31    0.82
   6   3   3   27.76    0.75
   6   3   3   27.95    0.82
   6   3   3   28.05    0.82
   6   3   3   27.92    0.82
  -7  -3  -3    0.13    0.15
  -7  -3  -3    0.05    0.18
  -7  -3  -3   -0.07    0.23
   7   3   3    0.13    0.21
   7   3   3    0.01    0.15
   7   3   3    0.10    0.16
   7   3   3    0.11    0.19
   7   3   3    0.00    0.15
  -8  -3  -3    6.34    0.42
  -8  -3  -3    6.49    0.43
  -8  -3  -3    6.14    0.45
   8   3   3    5.53    0.42
   8   3   3    6.23    0.46
   8   3   3    5.68    0.51
  -9  -3  -3   -0.10    0.22
  -9  -3  -3    0.59    0.26
   9   3   3    0.27    0.26
   9   3   3    0.47    0.32
   9   3   3    0.89    0.43
 -10  -3  -3    3.14    0.44
 -10  -3  -3    4.35    0.51
 -10  -3  -3    3.18    0.43
  10   3   3    2.35    0.44
  10   3   3    3.79    0.48
  10   3   3    3.19    0.43
   8  -4  -3    0.30    0.31
   8  -4  -3   -0.25    0.28
   8  -4  -3   -0.07    0.28
  -8   4   3    0.10    0.17
  -8   4   3   -0.01    0.23
   7  -4  -3    3.61    0.37
   7  -4  -3    3.34    0.44
   7  -4  -3    2.93    0.43
   7  -4  -3    2.88    0.43
  -7   4   3    3.36    0.31
  -7   4   3    3.51    0.27
   6  -4  -3    0.05    0.17
   6  -4  -3    0.20    0.17
   6  -4  -3    0.19    0.20
   6  -4  -3   -0.16    0.19
  -6   4   3    0.11    0.10
  -6   4   3    0.08    0.12
   5  -4  -3   30.62    0.92
   5  -4  -3   30.10    1.01
   5  -4  -3   31.02    0.92
   5  -4  -3   30.19    0.86
   5  -4  -3   31.34    0.87
  -5   4   3   31.88    0.86
  -5   4   3   30.21    0.81
  -5   4   3   31.49    0.85
  -5   4   3   31.14    0.77
   4  -4  -3    3.99    0.27
   4  -4  -3    3.72    0.26
   4  -4  -3    3.86    0.24
   4  -4  -3    3.84    0.33
   4  -4  -3    3.93    0.24
  -4   4   3    3.88    0.16
  -4   4   3    3.93    0.13
  -4   4   3    3.69    0.21
  -4   4   3    3.83    0.15
   3  -4  -3   46.23    1.17
   3  -4  -3   46.95    1.17
   3  -4  -3   45.92    1.25
   3  -4  -3   46.96    1.19
   3  -4  -3   46.17    1.19
   2  -4  -3    0.31    0.09
   2  -4  -3    0.27    0.11
   2  -4  -3    0.15    0.09
   2  -4  -3    0.24    0.08
   2  -4  -3    0.17    0.08
   1  -4  -3   85.01    1.99
   1  -4  -3   85.52    1.99
   1  -4  -3   82.93    1.99
   1  -4  -3   84.17    2.00
   0  -4  -3    2.99    0.15
   0  -4  -3    2.78    0.18
   0  -4  -3    3.22    0.15
   0  -4  -3    2.83    0.18
   0  -4  -3    2.99    0.15
   0   4   3    3.02    0.11
   0   4   3    2.95    0.10
   0   4   3    3.00    0.11
  -1  -4  -3  346.43    7.51
  -1  -4  -3  327.70    7.50
  -1  -4  -3  320.84    7.41
   1   4   3  313.10    7.50
   1   4   3  320.89    7.40
  -2  -4  -3    0.45    0.10
  -2  -4  -3    0.52    0.10
  -2  -4  -3    0.56    0.13
   2   4   3    0.48    0.08
  -3  -4  -3  171.36    3.83
  -3  -4  -3  162.01    3.83
  -3  -4  -3  167.08    3.84
  -3  -4  -3  169.57    3.87
   3   4   3  166.93    3.75
   3   4   3  158.33    3.80
   3   4   3  159.33    3.80
  -4  -4  -3    3.95    0.25
  -4  -4  -3    3.62    0.27
  -4  -4  -3    3.68    0.23
   4   4   3    3.84    0.22
   4   4   3    3.58    0.22
   4   4   3    3.63    0.18
   4   4   3    3.96    0.20
  -5  -4  -3   43.53    1.21
  -5  -4  -3   44.49    1.20
  -5  -4  -3   44.09    1.18
   5   4   3   45.94    1.17
   5   4   3   45.16    1.13
   5   4   3   43.31    1.17
   5   4   3   44.89    1.13
  -6  -4  -3    0.30    0.15
  -6  -4  -3    0.31    0.17
  -6  -4  -3    0.24    0.15
   6   4   3   -0.14    0.12
   6   4   3    0.18    0.21
   6   4   3   -0.02    0.14
   6   4   3    0.18    0.12
  -7  -4  -3   30.42    0.94
  -7  -4  -3   29.19    0.97
  -7  -4  -3   32.02    0.96
   7   4   3   29.70    0.84
   7   4   3   30.91    0.94
   7   4   3   31.01    0.92
   7   4   3   30.31    0.94
  -8  -4  -3    0.10    0.20
  -8  -4  -3    0.04    0.20
  -8  -4  -3   -0.22    0.24
   8   4   3   -0.04    0.27
   8   4   3   -0.18    0.17
   8   4   3    0.06    0.18
   8   4   3   -0.01    0.18
  -9  -4  -3    5.45    0.53
  -9  -4  -3    4.86    0.50
  -9  -4  -3    4.74    0.46
   9   4   3    5.26    0.54
   9   4   3    4.20    0.51
   9   4   3    4.21    0.50
   9   4   3    4.59    0.45
 -10  -4  -3    0.26    0.29
 -10  -4  -3   -0.51    0.27
 -10  -4  -3   -0.08    0.28
  10   4   3   -0.16    0.30
  10   4   3    0.14    0.27
  10   4   3   -0.09    0.26
   8  -5  -3    3.84    0.54
   8  -5  -3    4.09    0.60
   8  -5  -3    2.59    0.42
  -8   5   3    3.39    0.33
  -8   5   3    3.26    0.40
   7  -5  -3   -0.48    0.23
   7  -5  -3    0.25    0.24
   7  -5  -3    0.05    0.26
   7  -5  -3   -0.30    0.31
  -7   5   3    0.08    0.13
  -7   5   3    0.09    0.20
   6  -5  -3    8.53    0.44
   6  -5  -3    7.85    0.62
   6  -5  -3    8.20    0.50
   6  -5  -3    7.37    0.46
   6  -5  -3    8.20    0.40
  -6   5   3    7.50    0.30
  -6   5   3    7.45    0.37
   5  -5  -3    1.11    0.21
   5  -5  -3    1.39    0.20
   5  -5  -3    1.70    0.23
   5  -5  -3    1.22    0.28
   5  -5  -3    1.05    0.22
  -5   5   3    1.12    0.18
  -5   5   3    1.41    0.11
  -5   5   3    1.44    0.19
   4  -5  -3   25.17    0.76
   4  -5  -3   24.48    0.73
   4  -5  -3   24.69    0.84
   4  -5  -3   24.91    0.74
   4  -5  -3   24.44    0.71
  -4   5   3   25.40    0.70
  -4   5   3   23.50    0.70
  -4   5   3   24.98    0.60
   3  -5  -3    2.85    0.21
   3  -5  -3    2.62    0.27
   3  -5  -3    2.90    0.21
   3  -5  -3    2.58    0.22
   3  -5  -3    2.74    0.20
  -3   5   3    2.75    0.19
   2  -5  -3   78.42    1.94
   2  -5  -3   79.83    1.95
   2  -5  -3   81.30    1.95
   2  -5  -3   80.83    1.98
   2  -5  -3   84.66    2.04
   1  -5  -3    1.95    0.16
   1  -5  -3    1.77    0.16
   1  -5  -3    2.11    0.15
   1  -5  -3    1.81    0.15
   1  -5  -3    1.79    0.19
  -1   5   3    2.04    0.07
  -1   5   3    2.04    0.08
  -1   5   3    1.79    0.10
   0  -5  -3   72.70    1.75
   0  -5  -3   71.82    1.75
   0  -5  -3   71.24    1.73
   0  -5  -3   72.13    1.70
   0  -5  -3   74.23    1.75
   0   5   3   70.66    1.68
   0   5   3   73.37    1.69
   0   5   3   77.77    1.69
  -1  -5  -3    5.93    0.25
  -1  -5  -3    5.99    0.20
  -1  -5  -3    5.94    0.26
  -1  -5  -3    5.92    0.24
   1   5   3    6.04    0.21
   1   5   3    6.17    0.22
  -2  -5  -3  131.58    3.03
  -2  -5  -3  131.56    2.99
  -2  -5  -3  131.17    3.01
  -2  -5  -3  127.10    3.01
  -2  -5  -3  128.27    2.99
   2   5   3  122.81    2.98
   2   5   3  129.09    2.98
   2   5   3  126.69    3.00
  -3  -5  -3    0.38    0.12
  -3  -5  -3    0.49    0.12
  -3  -5  -3    0.50    0.13
  -3  -5  -3    0.38    0.14
   3   5   3    0.42    0.06
   3   5   3    0.34    0.10
   3   5   3    0.32    0.10
   3   5   3    0.57    0.13
  -4  -5  -3  148.67    3.54
  -4  -5  -3  141.86    3.50
  -4  -5  -3  152.72    3.51
  -4  -5  -3  155.81    3.51
   4   5   3  142.62    3.49
   4   5   3  152.25    3.49
   4   5   3  149.99    3.41
   4   5   3  146.68    3.47
  -5  -5  -3    0.02    0.12
  -5  -5  -3    0.05    0.14
  -5  -5  -3   -0.08    0.11
   5   5   3   -0.19    0.12
   5   5   3   -0.11    0.09
   5   5   3   -0.04    0.11
   5   5   3   -0.01    0.12
  -6  -5  -3   27.39    0.88
  -6  -5  -3   27.04    0.90
  -6  -5  -3   26.65    0.85
   6   5   3   27.60    0.89
   6   5   3   27.09    0.79
   6   5   3   27.69    0.84
   6   5   3   27.38    0.85
  -7  -5  -3    0.33    0.19
  -7  -5  -3   -0.09    0.17
   7   5   3   -0.26    0.16
   7   5   3   -0.19    0.16
   7   5   3   -0.04    0.14
   7   5   3    0.09    0.20
  -8  -5  -3   10.85    0.57
  -8  -5  -3   10.31    0.58
  -8  -5  -3    8.45    0.72
   8   5   3   11.17    0.50
   8   5   3   10.60    0.46
   8   5   3   10.25    0.54
   8   5   3   11.11    0.59
  -9  -5  -3    0.02    0.28
  -9  -5  -3    0.13    0.24
  -9  -5  -3   -0.04    0.26
   9   5   3   -0.10    0.30
   9   5   3    0.09    0.24
   9   5   3    0.03    0.24
 -10  -5  -3    4.58    0.54
 -10  -5  -3    3.02    0.43
 -10  -5  -3    5.66    0.61
  10   5   3    4.00    0.53
  10   5   3    4.47    0.53
  10   5   3    3.89    0.47
   7  -6  -3    2.71    0.39
   7  -6  -3    2.99    0.49
   7  -6  -3    2.61    0.38
  -7   6   3    2.61    0.35
  -7   6   3    2.90    0.25
   6  -6  -3    0.28    0.20
   6  -6  -3    0.72    0.34
   6  -6  -3    0.36    0.23
   6  -6  -3    0.19    0.24
   6  -6  -3    0.60    0.20
   5  -6  -3   16.38    0.57
   5  -6  -3   15.98    0.59
   5  -6  -3   16.60    0.75
   5  -6  -3   16.85    0.60
   5  -6  -3   15.88    0.68
  -5   6   3   16.61    0.48
  -5   6   3   16.12    0.54
   4  -6  -3    0.74    0.18
   4  -6  -3    0.27    0.14
   4  -6  -3    0.45    0.17
   4  -6  -3    0.45    0.16
   4  -6  -3    0.64    0.23
  -4   6   3    0.54    0.08
  -4   6   3    0.46    0.15
  -4   6   3    0.61    0.14
  -4   6   3    0.47    0.07
   3  -6  -3   59.54    1.57
   3  -6  -3   59.81    1.48
   3  -6  -3   60.05    1.53
   3  -6  -3   58.50    1.49
   3  -6  -3   59.58    1.51
  -3   6   3   58.33    1.63
   2  -6  -3    7.10    0.31
   2  -6  -3    6.93    0.31
   2  -6  -3    6.94    0.33
   2  -6  -3    6.68    0.30
   2  -6  -3    6.69    0.28
  -2   6   3    6.72    0.31
  -2   6   3    7.16    0.19
  -2   6   3    6.85    0.22
   1  -6  -3   31.33    0.79
   1  -6  -3   29.42    0.81
   1  -6  -3   29.91    0.82
   1  -6  -3   29.59    0.79
   1  -6  -3   29.16    0.81
  -1   6   3   29.66    0.74
  -1   6   3   31.39    0.72
  -1   6   3   30.11    0.83
   0  -6  -3    0.13    0.07
   0  -6  -3    0.07    0.08
   0  -6  -3    0.08    0.08
   0  -6  -3    0.14    0.10
   0  -6  -3    0.11    0.09
   0   6   3    0.05    0.06
   0   6   3    0.03    0.06
   0   6   3   -0.07    0.10
   0   6   3    0.16    0.07
  -1  -6  -3   94.69    2.21
  -1  -6  -3   95.39    2.26
  -1  -6  -3   91.99    2.22
  -1  -6  -3   92.73    2.13
   1   6   3   90.50    2.23
   1   6   3   92.73    2.18
   1   6   3   91.10    2.18
  -2  -6  -3    7.62    0.32
  -2  -6  -3    7.88    0.29
  -2  -6  -3    7.99    0.32
  -2  -6  -3    7.54    0.33
   2   6   3    8.25    0.35
  -3  -6  -3  137.34    3.34
  -3  -6  -3  137.32    3.27
  -3  -6  -3  140.15    3.23
  -3  -6  -3  140.37    3.13
  -3  -6  -3  138.09    3.42
   3   6   3  134.36    3.23
   3   6   3  133.71    3.22
   3   6   3  133.22    3.23
   3   6   3  139.75    3.10
  -4  -6  -3    6.22    0.32
  -4  -6  -3    6.17    0.34
  -4  -6  -3    6.59    0.32
  -4  -6  -3    6.79    0.33
   4   6   3    5.74    0.31
   4   6   3    6.08    0.27
   4   6   3    5.82    0.30
   4   6   3    6.03    0.31
  -5  -6  -3   18.17    0.61
  -5  -6  -3   17.70    0.59
  -5  -6  -3   18.13    0.62
  -5  -6  -3   17.02    0.63
   5   6   3   17.16    0.59
   5   6   3   18.14    0.61
   5   6   3   17.42    0.61
   5   6   3   17.41    0.51
  -6  -6  -3    0.76    0.19
  -6  -6  -3    0.83    0.18
  -6  -6  -3    0.76    0.19
  -6  -6  -3    1.18    0.22
   6   6   3    1.02    0.15
   6   6   3    0.93    0.22
   6   6   3    0.74    0.19
   6   6   3    0.72    0.20
  -7  -6  -3   21.11    0.86
  -7  -6  -3   21.47    0.78
  -7  -6  -3   22.24    0.72
  -7  -6  -3   21.64    0.80
   7   6   3   21.35    0.77
   7   6   3   21.43    0.71
   7   6   3   21.67    0.76
   7   6   3   22.06    0.69
  -8  -6  -3    0.15    0.40
  -8  -6  -3   -0.39    0.41
  -8  -6  -3    0.19    0.24
   8   6   3   -0.43    0.27
   8   6   3    0.15    0.27
   8   6   3   -0.35    0.22
   8   6   3   -0.09    0.17
   8   6   3    0.71    0.25
  -9  -6  -3    6.12    0.50
  -9  -6  -3    6.97    0.54
  -9  -6  -3    8.11    0.65
   9   6   3    7.24    0.51
   9   6   3    7.03    0.50
   9   6   3    7.10    0.59
 -10  -6  -3   -0.13    0.28
 -10  -6  -3    0.02    0.31
 -10  -6  -3    0.10    0.33
  10   6   3   -0.08    0.30
  10   6   3    0.58    0.28
  10   6   3    0.32    0.34
   7  -7  -3    0.29    0.30
   7  -7  -3    0.04    0.44
   7  -7  -3    0.03    0.27
  -7   7   3    0.54    0.23
  -7   7   3    0.12    0.14
   6  -7  -3    5.60    0.60
   6  -7  -3    7.38    0.53
   6  -7  -3    7.33    0.51
   6  -7  -3    6.82    0.48
   6  -7  -3    6.25    0.64
  -6   7   3    6.02    0.39
  -6   7   3    6.04    0.26
   5  -7  -3   -0.08    0.18
   5  -7  -3   -0.05    0.19
   5  -7  -3    0.00    0.35
   5  -7  -3   -0.13    0.18
   5  -7  -3    0.13    0.21
  -5   7   3    0.06    0.07
  -5   7   3    0.37    0.19
   4  -7  -3   18.69    0.74
   4  -7  -3   18.38    0.61
   4  -7  -3   18.75    0.67
   4  -7  -3   17.93    0.61
   4  -7  -3   18.35    0.65
  -4   7   3   17.91    0.48
  -4   7   3   18.91    0.48
  -4   7   3   18.05    0.62
   3  -7  -3    0.34    0.15
   3  -7  -3    0.32    0.14
   3  -7  -3    0.22    0.14
   3  -7  -3    0.27    0.14
   3  -7  -3    0.07    0.17
  -3   7   3    0.25    0.16
  -3   7   3    0.22    0.06
   2  -7  -3   64.12    1.64
   2  -7  -3   63.52    1.64
   2  -7  -3   66.62    1.68
   2  -7  -3   65.41    1.63
   2  -7  -3   63.90    1.63
  -2   7   3   66.96    1.51
  -2   7   3   63.62    1.65
  -2   7   3   63.85    1.53
  -2   7   3   65.65    1.52
   1  -7  -3    0.44    0.13
   1  -7  -3    0.40    0.12
   1  -7  -3    0.32    0.11
   1  -7  -3    0.42    0.11
   1  -7  -3    0.32    0.12
  -1   7   3    0.30    0.09
  -1   7   3    0.57    0.10
  -1   7   3    0.17    0.13
  -1   7   3    0.22    0.07
   0  -7  -3   81.52    1.90
   0  -7  -3   83.34    2.00
   0  -7  -3   79.35    1.99
   0  -7  -3   81.95    2.00
   0   7   3   83.32    1.92
   0   7   3   82.60    1.96
   0   7   3   80.12    1.95
   0   7   3   81.94    2.02
  -1  -7  -3    1.71    0.18
  -1  -7  -3    1.19    0.11
  -1  -7  -3    1.35    0.17
   1   7   3    1.32    0.18
   1   7   3    1.45    0.15
   1   7   3    1.43    0.17
  -2  -7  -3   38.23    1.03
  -2  -7  -3   39.06    0.97
  -2  -7  -3   38.21    1.03
  -2  -7  -3   38.35    1.04
   2   7   3   37.45    1.04
   2   7   3   37.91    1.02
   2   7   3   37.81    1.01
  -3  -7  -3    0.33    0.13
  -3  -7  -3    0.18    0.11
  -3  -7  -3    0.15    0.13
  -3  -7  -3    0.43    0.14
  -3  -7  -3    0.21    0.13
   3   7   3    0.19    0.12
   3   7   3    0.27    0.12
   3   7   3    0.18    0.14
  -4  -7  -3   55.00    1.48
  -4  -7  -3   55.33    1.52
  -4  -7  -3   56.85    1.48
  -4  -7  -3   57.44    1.38
  -4  -7  -3   56.92    1.47
   4   7   3   56.34    1.48
   4   7   3   56.45    1.49
   4   7   3   55.97    1.48
   4   7   3   61.08    1.33
  -5  -7  -3    1.49    0.22
  -5  -7  -3    1.32    0.20
  -5  -7  -3    1.23    0.23
  -5  -7  -3    1.62    0.21
  -5  -7  -3    1.14    0.20
   5   7   3    1.20    0.13
   5   7   3    1.39    0.21
   5   7   3    1.09    0.22
   5   7   3    1.50    0.25
  -6  -7  -3   20.82    0.75
  -6  -7  -3   22.48    0.71
  -6  -7  -3   22.10    0.76
   6   7   3   22.20    0.64
   6   7   3   21.21    0.74
   6   7   3   22.31    0.77
   6   7   3   21.91    0.76
  -7  -7  -3    0.09    0.19
  -7  -7  -3    0.29    0.16
  -7  -7  -3    0.27    0.21
  -7  -7  -3    0.01    0.20
   7   7   3    0.37    0.22
   7   7   3    0.38    0.23
   7   7   3    0.49    0.16
   7   7   3    0.26    0.22
  -8  -7  -3    4.66    0.36
  -8  -7  -3    4.01    0.42
  -8  -7  -3    4.80    0.43
   8   7   3    4.16    0.51
   8   7   3    5.28    0.42
   8   7   3    5.92    0.38
   8   7   3    5.37    0.55
   8   7   3    4.89    0.43
  -9  -7  -3   -0.08    0.23
  -9  -7  -3   -0.42    0.23
  -9  -7  -3    0.22    0.24
  -9  -7  -3    0.10    0.34
   9   7   3    0.20    0.30
   9   7   3    0.17    0.29
   9   7   3    0.04    0.22
   9   7   3   -0.10    0.23
 -10  -7  -3    2.37    0.38
 -10  -7  -3    3.15    0.46
 -10  -7  -3    2.25    0.39
 -10  -7  -3    1.97    0.35
  10   7   3    1.93    0.35
  10   7   3    2.42    0.40
  10   7   3    1.68    0.43
   6  -8  -3    0.02    0.26
   6  -8  -3    0.11    0.25
   6  -8  -3   -0.09    0.36
  -6   8   3    0.13    0.10
  -6   8   3   -0.01    0.19
   5  -8  -3    8.44    0.68
   5  -8  -3    8.31    0.50
   5  -8  -3    7.42    0.45
   5  -8  -3    8.22    0.45
   5  -8  -3    7.86    0.48
  -5   8   3    8.19    0.43
  -5   8   3    7.88    0.32
   4  -8  -3    0.46    0.21
   4  -8  -3    0.70    0.22
   4  -8  -3    0.51    0.20
   4  -8  -3    0.32    0.19
  -4   8   3    0.65    0.21
  -4   8   3    0.54    0.08
   3  -8  -3   24.33    0.79
   3  -8  -3   24.58    0.77
   3  -8  -3   24.63    0.72
   3  -8  -3   25.54    0.83
   3  -8  -3   25.50    0.81
  -3   8   3   25.31    0.64
  -3   8   3   24.57    0.64
  -3   8   3   24.84    0.81
   2  -8  -3    0.06    0.12
   2  -8  -3    0.15    0.13
   2  -8  -3    0.15    0.16
   2  -8  -3   -0.04    0.14
   2  -8  -3    0.35    0.15
  -2   8   3    0.22    0.08
  -2   8   3    0.06    0.08
  -2   8   3    0.15    0.10
  -2   8   3    0.09    0.16
   1  -8  -3   45.20    1.23
   1  -8  -3   45.54    1.24
   1  -8  -3   45.44    1.23
   1  -8  -3   44.48    1.16
   1  -8  -3   47.30    1.17
  -1   8   3   47.39    1.16
  -1   8   3   45.37    1.16
  -1   8   3   46.92    1.28
  -1   8   3   48.10    1.13
   0  -8  -3    0.39    0.09
   0  -8  -3    0.42    0.14
   0  -8  -3    0.65    0.16
   0  -8  -3    0.39    0.12
   0   8   3    0.65    0.19
   0   8   3    0.44    0.15
   0   8   3    0.50    0.11
   0   8   3    0.41    0.12
  -1  -8  -3   58.00    1.34
  -1  -8  -3   55.44    1.46
  -1  -8  -3   56.27    1.47
   1   8   3   56.58    1.45
   1   8   3   56.95    1.45
   1   8   3   58.15    1.52
  -2  -8  -3    1.29    0.19
  -2  -8  -3    1.64    0.21
  -2  -8  -3    1.53    0.21
  -2  -8  -3    1.46    0.17
   2   8   3    1.47    0.19
   2   8   3    1.49    0.20
   2   8   3    1.74    0.24
  -3  -8  -3   60.33    1.56
  -3  -8  -3   60.10    1.59
  -3  -8  -3   62.74    1.52
  -3  -8  -3   61.11    1.59
  -3  -8  -3   59.63    1.53
   3   8   3   59.60    1.59
   3   8   3   59.45    1.56
   3   8   3   59.18    1.56
  -4  -8  -3    1.00    0.15
  -4  -8  -3    1.06    0.21
  -4  -8  -3    0.73    0.17
  -4  -8  -3    0.77    0.17
  -4  -8  -3    0.75    0.19
   4   8   3    0.83    0.19
   4   8   3    0.85    0.19
   4   8   3    0.67    0.22
  -5  -8  -3   20.65    0.67
  -5  -8  -3   18.40    0.76
  -5  -8  -3   21.19    0.72
  -5  -8  -3   20.23    0.62
  -5  -8  -3   22.04    0.83
   5   8   3   19.38    0.72
   5   8   3   20.27    0.72
   5   8   3   20.22    0.53
   5   8   3   21.45    0.73
  -6  -8  -3    0.10    0.18
  -6  -8  -3    0.29    0.17
  -6  -8  -3    0.26    0.16
  -6  -8  -3    0.15    0.21
  -6  -8  -3    0.17    0.22
   6   8   3   -0.38    0.21
   6   8   3   -0.16    0.19
   6   8   3   -0.08    0.12
   6   8   3   -0.01    0.18
  -7  -8  -3   13.17    0.62
  -7  -8  -3   12.81    0.51
  -7  -8  -3   12.21    0.53
  -7  -8  -3   11.84    0.64
  -7  -8  -3   12.51    0.60
   7   8   3   12.63    0.46
   7   8   3   11.85    0.68
   7   8   3   12.90    0.63
   7   8   3   12.04    0.60
  -8  -8  -3   -0.19    0.21
  -8  -8  -3   -0.39    0.24
  -8  -8  -3    0.31    0.49
  -8  -8  -3    0.39    0.28
  -8  -8  -3   -0.20    0.22
   8   8   3    0.07    0.27
   8   8   3    0.17    0.30
   8   8   3    0.17    0.21
   8   8   3    0.05    0.19
   8   8   3    0.27    0.28
  -9  -8  -3    3.20    0.38
  -9  -8  -3    3.18    0.44
  -9  -8  -3    3.43    0.48
  -9  -8  -3    3.22    0.43
  -9  -8  -3    2.69    0.39
   9   8   3    3.34    0.42
   9   8   3    3.38    0.41
   9   8   3    2.97    0.45
   9   8   3    2.46    0.37
 -10  -8  -3    0.57    0.37
 -10  -8  -3   -0.79    0.47
 -10  -8  -3    0.08    0.28
 -10  -8  -3    0.76    0.32
 -10  -8  -3    0.17    0.39
  10   8   3   -0.39    0.32
  10   8   3    0.62    0.30
   5  -9  -3    0.60    0.24
   5  -9  -3    0.53    0.27
   5  -9  -3    0.63    0.35
   5  -9  -3    0.09    0.22
  -5   9   3    0.57    0.20
  -5   9   3    0.29    0.11
   4  -9  -3    6.73    0.47
   4  -9  -3    6.90    0.46
   4  -9  -3    6.46    0.52
   4  -9  -3    6.36    0.38
   4  -9  -3    5.28    0.42
  -4   9   3    6.41    0.27
  -4   9   3    7.54    0.43
   3  -9  -3    0.56    0.20
   3  -9  -3    0.15    0.20
   3  -9  -3    0.40    0.17
   3  -9  -3    0.27    0.19
   3  -9  -3    0.18    0.19
  -3   9   3    0.38    0.11
  -3   9   3    0.88    0.26
   2  -9  -3   12.75    0.48
   2  -9  -3   11.50    0.43
   2  -9  -3   11.37    0.50
   2  -9  -3   11.46    0.50
   2  -9  -3   12.26    0.52
  -2   9   3   12.41    0.56
  -2   9   3   13.18    0.48
   1  -9  -3   -0.16    0.13
   1  -9  -3    0.02    0.12
   1  -9  -3    0.15    0.27
  -1   9   3   -0.03    0.10
  -1   9   3    0.13    0.13
  -1   9   3   -0.08    0.22
   0  -9  -3   55.24    1.47
   0  -9  -3   56.65    1.32
   0  -9  -3   55.83    1.47
   0   9   3   53.10    1.42
   0   9   3   56.73    1.53
   0   9   3   54.92    1.42
  -1  -9  -3    0.68    0.16
  -1  -9  -3    1.04    0.18
  -1  -9  -3    0.97    0.10
   1   9   3    0.99    0.23
   1   9   3    0.78    0.16
   1   9   3    0.78    0.17
  -2  -9  -3   29.35    0.79
  -2  -9  -3   29.26    0.89
  -2  -9  -3   28.72    0.88
   2   9   3   29.43    0.88
   2   9   3   29.21    0.93
   2   9   3   30.18    0.88
  -3  -9  -3    2.25    0.29
  -3  -9  -3    2.07    0.27
  -3  -9  -3    2.42    0.28
  -3  -9  -3    2.27    0.25
   3   9   3    2.64    0.32
   3   9   3    2.74    0.29
   3   9   3    2.64    0.28
  -4  -9  -3   28.64    1.01
  -4  -9  -3   29.29    0.90
  -4  -9  -3   28.72    0.87
  -4  -9  -3   28.34    0.74
  -4  -9  -3   28.19    0.87
  -4  -9  -3   29.18    0.96
   4   9   3   28.58    0.91
   4   9   3   29.03    0.90
  -5  -9  -3    0.47    0.19
  -5  -9  -3    0.33    0.17
  -5  -9  -3    0.25    0.22
  -5  -9  -3    0.47    0.21
   5   9   3    0.73    0.21
   5   9   3    0.29    0.22
   5   9   3    0.09    0.17
  -6  -9  -3   24.33    0.78
  -6  -9  -3   24.54    0.76
  -6  -9  -3   24.24    0.86
  -6  -9  -3   25.57    0.88
  -6  -9  -3   23.88    0.89
   6   9   3   24.29    0.86
   6   9   3   23.74    0.86
   6   9   3   25.36    0.88
  -7  -9  -3    0.19    0.22
  -7  -9  -3   -0.17    0.22
  -7  -9  -3    0.46    0.23
  -7  -9  -3    0.75    0.30
   7   9   3    0.21    0.22
   7   9   3    0.43    0.29
   7   9   3    0.70    0.27
  -8  -9  -3    3.55    0.56
  -8  -9  -3    3.92    0.45
  -8  -9  -3    3.43    0.41
  -8  -9  -3    4.26    0.40
  -8  -9  -3    3.85    0.42
   8   9   3    2.63    0.42
   8   9   3    4.33    0.62
   8   9   3    4.31    0.58
   8   9   3    3.09    0.38
  -9  -9  -3    0.24    0.25
  -9  -9  -3    0.23    0.28
  -9  -9  -3   -0.39    0.37
  -9  -9  -3   -0.07    0.26
  -9  -9  -3   -0.36    0.31
   9   9   3    0.17    0.28
   9   9   3   -0.41    0.33
   9   9   3    0.10    0.33
   5 -10  -3    3.05    0.41
   5 -10  -3    3.11    0.41
   5 -10  -3    4.63    0.63
  -5  10   3    3.23    0.37
  -5  10   3    3.10    0.23
   4 -10  -3   -0.03    0.22
   4 -10  -3    0.07    0.24
   4 -10  -3   -0.37    0.36
  -4  10   3   -0.04    0.27
  -4  10   3    0.18    0.11
   3 -10  -3    7.27    0.46
   3 -10  -3    8.42    0.41
   3 -10  -3    8.22    0.49
   3 -10  -3    8.11    0.47
  -3  10   3    8.19    0.33
  -3  10   3    8.70    0.54
   2 -10  -3    0.18    0.17
   2 -10  -3    0.16    0.18
   2 -10  -3    0.21    0.18
  -2  10   3    0.43    0.25
  -2  10   3   -0.04    0.15
   1 -10  -3   12.24    0.43
   1 -10  -3   12.79    0.55
  -1  10   3   13.02    0.45
  -1  10   3   12.53    0.47
  -1  10   3   11.59    0.60
   0 -10  -3    0.23    0.16
   0 -10  -3    0.16    0.16
   0  10   3    0.23    0.17
   0  10   3    0.44    0.24
   0  10   3    0.49    0.15
  -1 -10  -3   21.65    0.55
  -1 -10  -3   21.70    0.77
  -1 -10  -3   23.09    0.78
   1  10   3   21.25    0.82
   1  10   3   22.33    0.72
   1  10   3   21.30    0.71
  -2 -10  -3   -0.13    0.11
  -2 -10  -3    0.09    0.17
   2  10   3   -0.19    0.21
   2  10   3    0.14    0.14
   2  10   3   -0.13    0.14
  -3 -10  -3   30.12    0.86
  -3 -10  -3   29.02    0.91
  -3 -10  -3   28.87    0.97
   3  10   3   31.37    0.95
   3  10   3   29.59    0.94
   3  10   3   29.83    1.01
  -4 -10  -3   -0.25    0.15
  -4 -10  -3    0.07    0.17
  -4 -10  -3    0.19    0.20
  -4 -10  -3    0.01    0.25
   4  10   3    0.28    0.18
   4  10   3    0.15    0.18
   4  10   3   -0.33    0.23
  -5 -10  -3   10.28    0.73
  -5 -10  -3   10.69    0.53
  -5 -10  -3   11.40    0.47
  -5 -10  -3   10.44    0.57
  -5 -10  -3   11.53    0.54
   5  10   3   11.22    0.55
   5  10   3   11.36    0.93
   5  10   3   11.19    0.56
  -6 -10  -3   -0.06    0.21
  -6 -10  -3    0.40    0.25
  -6 -10  -3   -0.21    0.28
  -6 -10  -3    0.08    0.21
  -6 -10  -3    0.03    0.20
   6  10   3    0.25    0.28
   6  10   3    0.32    0.25
   6  10   3   -0.07    0.22
  -7 -10  -3    7.46    0.48
  -7 -10  -3    6.04    0.63
  -7 -10  -3    7.79    0.50
  -7 -10  -3    7.04    0.48
  -7 -10  -3    9.05    0.45
   7  10   3    7.03    0.57
   7  10   3    7.82    0.61
   7  10   3    6.91    0.48
  -8 -10  -3   -0.12    0.21
  -8 -10  -3    0.26    0.33
  -8 -10  -3    0.60    0.41
  -8 -10  -3    0.24    0.23
   8  10   3    0.29    0.33
   8  10   3   -0.41    0.30
   8  10   3    0.12    0.28
   8  10   3    1.01    0.40
  -9 -10  -3    2.87    0.42
  -9 -10  -3    1.93    0.37
  -9 -10  -3    2.73    0.36
  -9 -10  -3    1.87    0.34
  -9 -10  -3    2.26    0.49
   9  10   3    2.88    0.43
   9  10   3    2.51    0.46
   9  10   3    1.96    0.36
   4 -11  -3    5.80    0.57
   4 -11  -3    7.29    0.57
   4 -11  -3    6.51    0.64
  -4  11   3    5.91    0.29
  -4  11   3    5.35    0.73
   3 -11  -3    0.44    0.24
   3 -11  -3    0.12    0.24
   3 -11  -3   -0.41    0.25
  -3  11   3   -0.09    0.12
  -3  11   3    0.47    0.42
   2 -11  -3    7.07    0.47
   2 -11  -3    5.87    0.44
  -2  11   3    6.72    0.34
  -2  11   3    7.37    0.59
   1 -11  -3   -0.10    0.16
   1 -11  -3   -0.14    0.17
  -1  11   3    0.21    0.15
  -1  11   3   -0.28    0.29
   0 -11  -3   15.57    0.64
   0 -11  -3   15.21    0.64
   0  11   3   16.07    0.74
   0  11   3   16.05    0.58
   0  11   3   14.91    0.59
  -1 -11  -3    0.75    0.27
   1  11   3    0.78    0.29
   1  11   3    1.24    0.23
   1  11   3    1.08    0.22
  -2 -11  -3   13.24    0.59
  -2 -11  -3   13.55    0.45
   2  11   3   14.37    0.67
   2  11   3   14.16    0.56
   2  11   3   11.18    0.63
  -3 -11  -3    0.98    0.20
  -3 -11  -3    0.86    0.23
   3  11   3    1.00    0.31
   3  11   3    0.86    0.21
  -4 -11  -3    7.75    0.54
  -4 -11  -3    8.21    0.46
  -4 -11  -3    8.50    0.46
   4  11   3    8.04    0.49
   4  11   3    7.53    0.55
   4  11   3    7.51    0.78
  -5 -11  -3    0.16    0.23
  -5 -11  -3    0.37    0.21
  -5 -11  -3    0.03    0.23
  -5 -11  -3   -0.03    0.21
   5  11   3   -0.38    0.25
   5  11   3    0.00    0.26
   5  11   3   -0.46    0.27
  -6 -11  -3    8.10    0.51
  -6 -11  -3    7.95    0.51
  -6 -11  -3    7.95    0.65
  -6 -11  -3    7.26    0.51
   6  11   3    8.15    0.59
   6  11   3    7.18    0.54
   6  11   3    8.07    0.56
  -7 -11  -3    0.12    0.26
  -7 -11  -3    0.59    0.25
  -7 -11  -3    0.18    0.24
   7  11   3   -0.17    0.31
   7  11   3    0.25    0.33
   7  11   3    0.20    0.26
  -8 -11  -3    3.51    0.43
  -8 -11  -3    4.18    0.46
  -8 -11  -3    2.76    0.38
   8  11   3    3.79    0.49
   8  11   3    3.27    0.47
   8  11   3    3.47    0.50
   8  11   3    4.66    0.81
   3 -12  -3    7.68    0.58
   3 -12  -3    7.30    0.60
  -3  12   3    7.21    0.36
  -3  12   3    5.44    0.67
   2 -12  -3    0.49    0.22
   2 -12  -3    0.34    0.25
  -2  12   3    0.11    0.15
  -2  12   3    0.12    0.36
   1 -12  -3    8.66    0.51
   1 -12  -3    8.79    0.55
  -1  12   3    8.34    0.64
  -1  12   3    9.31    0.44
   0 -12  -3    0.02    0.18
   0 -12  -3   -0.38    0.20
   0  12   3   -0.19    0.21
   0  12   3    0.06    0.30
   0  12   3    0.06    0.16
  -1 -12  -3    7.90    0.49
  -1 -12  -3    6.95    0.48
   1  12   3    7.09    0.56
   1  12   3    7.52    0.45
   1  12   3    7.14    0.45
  -2 -12  -3    0.22    0.14
  -2 -12  -3    0.01    0.22
  -2 -12  -3   -0.02    0.19
   2  12   3    0.15    0.19
   2  12   3    0.12    0.21
  -3 -12  -3   12.03    0.58
  -3 -12  -3   12.62    0.64
   3  12   3   11.31    0.56
   3  12   3   11.86    0.67
   3  12   3   11.66    0.58
  -4 -12  -3    0.61    0.24
  -4 -12  -3    1.09    0.27
   4  12   3    1.08    0.24
   4  12   3    0.38    0.36
   4  12   3    1.23    0.34
  -5 -12  -3    5.44    0.48
  -5 -12  -3    5.40    0.55
  -5 -12  -3    5.78    0.63
   5  12   3    5.86    0.48
   5  12   3    5.73    0.56
   5  12   3    5.80    0.51
  -6 -12  -3    0.39    0.25
  -6 -12  -3    0.28    0.25
  -6 -12  -3    0.22    0.28
  -6 -12  -3    0.39    0.27
   6  12   3    0.05    0.33
   6  12   3    0.05    0.25
   6  12   3    0.25    0.25
  -7 -12  -3    2.47    0.44
  -7 -12  -3    2.52    0.34
  -7 -12  -3    3.47    0.45
  -7 -12  -3    3.49    0.45
   7  12   3    2.72    0.40
   7  12   3    3.48    0.47
   7  12   3    2.10    0.42
   1 -13  -3   -0.19    0.27
   1 -13  -3    0.27    0.26
  -1  13   3    0.50    0.20
  -1  13   3    0.15    0.36
   0 -13  -3    8.88    0.57
   0 -13  -3    9.52    0.59
   0  13   3    8.64    0.50
   0  13   3    9.69    0.70
  -1 -13  -3    0.18    0.26
  -1 -13  -3   -0.21    0.21
   1  13   3    0.34    0.20
   1  13   3    0.12    0.33
   1  13   3    0.44    0.30
  -2 -13  -3    8.23    0.57
  -2 -13  -3    8.62    0.55
   2  13   3    8.58    0.52
   2  13   3    7.59    0.75
   2  13   3    8.65    0.67
  -3 -13  -3    0.36    0.24
  -3 -13  -3    0.01    0.27
  -3 -13  -3    0.80    0.24
   3  13   3    0.24    0.30
   3  13   3   -0.01    0.20
   3  13   3   -0.31    0.31
  -4 -13  -3    7.50    0.59
  -4 -13  -3    7.41    0.52
  -4 -13  -3    6.62    0.48
   4  13   3    6.93    0.54
   4  13   3    5.68    0.48
   4  13   3    7.26    0.60
  -5 -13  -3    0.34    0.31
  -5 -13  -3    0.00    0.27
  -5 -13  -3   -0.43    0.25
   5  13   3    0.10    0.34
   5  13   3   -0.36    0.24
   5  13   3    0.03    0.24
  -6 -13  -3    4.60    0.47
  -6 -13  -3    2.84    0.46
  -6 -13  -3    4.05    0.52
   6  13   3    3.08    0.50
   6  13   3    2.87    0.41
   6  13   3    4.34    0.54
  -1 -14  -3    6.91    0.63
  -1 -14  -3    6.30    0.65
   1  14   3    6.44    0.68
   1  14   3    5.18    0.49
  -2 -14  -3    0.22    0.32
  -2 -14  -3    0.29    0.28
   2  14   3   -0.06    0.33
   2  14   3    0.34    0.23
   2  14   3    0.56    0.35
  -3 -14  -3    5.40    0.51
  -3 -14  -3    6.46    0.60
  -3 -14  -3    5.09    0.58
   3  14   3    5.90    0.58
   3  14   3    5.99    0.49
   3  14   3    7.64    0.69
  -4 -14  -3   -0.33    0.31
  -4 -14  -3    0.24    0.34
  -4 -14  -3    0.01    0.28
   4  14   3   -0.33    0.35
   4  14   3   -0.15    0.29
   4  14   3    0.20    0.26
   4  12  -4    2.72    0.43
   4  12  -4    2.35    0.38
   4  12  -4    2.79    0.47
  -4 -12   4    2.12    0.36
  -4 -12   4    2.54    0.40
  -4 -12   4    2.47    0.45
   3  12  -4   -0.15    0.33
   3  12  -4    0.02    0.32
   3  12  -4    0.15    0.28
  -3 -12   4   -0.04    0.26
  -3 -12   4    0.16    0.37
  -3 -12   4   -0.04    0.26
   2  12  -4    3.55    0.48
   2  12  -4    4.39    0.53
   2  12  -4    2.64    0.44
  -2 -12   4    3.49    0.44
  -2 -12   4    3.77    0.48
  -2 -12   4    3.16    0.45
  -2 -12   4    4.27    0.44
   1  12  -4    0.21    0.34
   1  12  -4   -0.36    0.25
   1  12  -4    0.07    0.25
  -1 -12   4   -0.03    0.22
  -1 -12   4    0.57    0.31
  -1 -12   4   -0.39    0.32
  -1 -12   4    0.05    0.20
   0  12  -4    4.99    0.57
   0  12  -4    3.98    0.48
   0  12  -4    3.98    0.45
   0 -12   4    3.72    0.53
   0 -12   4    3.42    0.41
   0 -12   4    4.16    0.39
   0 -12   4    3.75    0.43
  -1  12  -4    0.19    0.22
  -1  12  -4    0.37    0.37
  -1  12  -4    0.00    0.26
   1 -12   4    0.17    0.21
   1 -12   4    0.03    0.22
   1 -12   4    0.18    0.30
   1 -12   4    0.82    0.31
  -2  12  -4    4.88    0.62
  -2  12  -4    4.07    0.57
  -2  12  -4    2.98    0.40
   2 -12   4    4.37    0.60
   2 -12   4    3.68    0.42
   2 -12   4    3.50    0.46
   2 -12   4    3.61    0.44
   5  11  -4    2.43    0.59
   5  11  -4    3.03    0.47
   5  11  -4    2.16    0.42
   5  11  -4    1.82    0.36
  -5 -11   4    2.44    0.43
  -5 -11   4    1.58    0.54
  -5 -11   4    2.33    0.38
  -5 -11   4    1.61    0.35
   4  11  -4    0.04    0.32
   4  11  -4   -0.33    0.40
   4  11  -4    0.12    0.26
  -4 -11   4   -0.52    0.23
  -4 -11   4   -0.25    0.31
  -4 -11   4   -0.13    0.23
   3  11  -4    6.94    0.53
   3  11  -4    7.23    0.65
   3  11  -4    7.00    0.61
  -3 -11   4    5.97    0.57
  -3 -11   4    6.54    0.41
  -3 -11   4    6.83    0.51
  -3 -11   4    6.97    0.53
   2  11  -4   -0.10    0.29
   2  11  -4   -0.23    0.23
   2  11  -4   -0.35    0.26
  -2 -11   4    0.17    0.21
  -2 -11   4    0.07    0.20
  -2 -11   4    0.10    0.39
  -2 -11   4   -0.18    0.21
   1  11  -4    3.80    0.49
   1  11  -4    2.35    0.35
   1  11  -4    2.35    0.34
  -1 -11   4    2.07    0.28
  -1 -11   4    3.25    0.37
  -1 -11   4    2.10    0.30
   0  11  -4    0.16    0.30
   0  11  -4    0.29    0.24
   0  11  -4    0.28    0.22
   0 -11   4    0.06    0.20
   0 -11   4   -0.18    0.18
  -1  11  -4    3.85    0.44
  -1  11  -4    4.14    0.37
  -1  11  -4    5.87    0.56
   1 -11   4    4.60    0.48
   1 -11   4    3.54    0.46
   1 -11   4    4.47    0.37
   1 -11   4    4.22    0.41
  -2  11  -4   -0.16    0.18
  -2  11  -4    0.24    0.33
  -2  11  -4   -0.40    0.22
   2 -11   4    0.53    0.38
   2 -11   4    0.16    0.27
   2 -11   4   -0.22    0.25
   2 -11   4    0.24    0.24
  -3  11  -4    4.74    0.47
  -3  11  -4    4.03    0.37
  -3  11  -4    5.63    0.52
   3 -11   4    5.47    0.58
   3 -11   4    5.66    0.73
   3 -11   4    5.61    0.52
   3 -11   4    5.69    0.51
   6  10  -4    3.95    0.53
   6  10  -4    3.14    0.47
   6  10  -4    3.32    0.43
  -6 -10   4    4.12    0.55
  -6 -10   4    2.75    0.47
  -6 -10   4    3.79    0.53
  -6 -10   4    3.87    0.49
   5  10  -4    0.30    0.25
   5  10  -4    0.01    0.30
   5  10  -4    0.31    0.30
   5  10  -4    0.16    0.54
  -5 -10   4   -0.01    0.24
  -5 -10   4    0.30    0.31
  -5 -10   4    0.85    0.39
  -5 -10   4    0.21    0.24
   4  10  -4    6.69    0.56
   4  10  -4    5.42    0.56
   4  10  -4    5.10    0.40
   4  10  -4    4.99    0.49
  -4 -10   4    5.47    0.48
  -4 -10   4    5.47    0.58
  -4 -10   4    5.94    0.62
  -4 -10   4    5.58    0.52
   3  10  -4    0.27    0.28
   3  10  -4    0.18    0.28
   3  10  -4   -0.21    0.22
  -3 -10   4    0.10    0.23
  -3 -10   4    0.15    0.29
  -3 -10   4   -0.23    0.31
  -3 -10   4    0.46    0.22
   2  10  -4    5.92    0.47
   2  10  -4    5.86    0.54
   2  10  -4    6.41    0.50
  -2 -10   4    5.82    0.44
  -2 -10   4    6.05    0.38
  -2 -10   4    6.92    0.48
   1  10  -4    0.07    0.26
   1  10  -4   -0.17    0.25
   1  10  -4    0.17    0.23
  -1 -10   4    0.20    0.23
  -1 -10   4    0.25    0.20
  -1 -10   4   -0.04    0.20
   0  10  -4    7.65    0.48
   0  10  -4    8.00    0.48
   0  10  -4    7.13    0.54
   0 -10   4    9.91    0.70
   0 -10   4    7.28    0.47
   0 -10   4    8.59    0.47
  -1  10  -4    0.04    0.17
  -1  10  -4   -0.09    0.19
  -1  10  -4    0.23    0.29
   1 -10   4    0.53    0.24
   1 -10   4   -0.21    0.16
   1 -10   4   -0.37    0.20
   1 -10   4   -0.53    0.23
   1 -10   4    0.32    0.20
  -2  10  -4    5.22    0.39
  -2  10  -4    4.82    0.49
  -2  10  -4    4.54    0.37
   2 -10   4    5.73    0.34
   2 -10   4    4.50    0.48
   2 -10   4    5.32    0.70
   2 -10   4    5.59    0.46
   2 -10   4    5.59    0.46
  -3  10  -4   -0.03    0.26
  -3  10  -4    0.09    0.20
  -3  10  -4   -0.03    0.16
   3 -10   4    0.36    0.28
   3 -10   4    0.03    0.23
   3 -10   4    0.40    0.33
   3 -10   4    0.37    0.21
   3 -10   4    0.08    0.18
  -4  10  -4    4.82    0.37
  -4  10  -4    6.33    0.57
   4 -10   4    5.63    0.53
   4 -10   4    6.15    0.57
   4 -10   4    6.11    0.50
  -5  10  -4    0.01    0.23
  -5  10  -4   -0.27    0.27
  -5  10  -4   -0.06    0.17
   5 -10   4    0.32    0.46
   5 -10   4    0.12    0.29
   7   9  -4    2.21    0.47
   7   9  -4    2.08    0.38
  -7  -9   4    2.67    0.39
  -7  -9   4    2.71    0.40
  -7  -9   4    2.54    0.43
   6   9  -4   -0.09    0.25
   6   9  -4    0.54    0.31
   6   9  -4   -0.09    0.33
  -6  -9   4    0.11    0.35
  -6  -9   4    0.19    0.25
  -6  -9   4   -0.19    0.29
   5   9  -4    5.25    0.76
   5   9  -4    4.17    0.47
   5   9  -4    4.91    0.56
   5   9  -4    3.73    0.43
  -5  -9   4    3.22    0.47
  -5  -9   4    4.09    0.44
  -5  -9   4    4.18    0.54
   4   9  -4   -0.25    0.26
   4   9  -4   -0.39    0.21
   4   9  -4   -0.32    0.24
   4   9  -4    0.09    0.22
  -4  -9   4   -0.14    0.31
  -4  -9   4    0.21    0.27
  -4  -9   4    0.04    0.25
  -4  -9   4    0.31    0.22
   3   9  -4   14.08    0.69
   3   9  -4   13.88    0.50
   3   9  -4   14.31    0.65
   3   9  -4   14.38    0.65
  -3  -9   4   13.78    0.52
  -3  -9   4   14.21    0.64
  -3  -9   4   13.76    0.62
  -3  -9   4   13.89    0.63
  -3  -9   4   15.11    0.67
   2   9  -4    0.12    0.25
   2   9  -4   -0.22    0.19
   2   9  -4    0.06    0.19
  -2  -9   4    0.20    0.20
  -2  -9   4    0.12    0.26
  -2  -9   4    0.26    0.15
  -2  -9   4    0.35    0.24
  -2  -9   4    0.08    0.33
   1   9  -4   13.58    0.78
   1   9  -4   14.93    0.60
   1   9  -4   14.13    0.62
  -1  -9   4   14.70    0.58
  -1  -9   4   15.12    0.60
  -1  -9   4   14.74    0.52
  -1  -9   4   15.94    0.81
  -1  -9   4   14.13    0.56
   0   9  -4    0.21    0.17
   0   9  -4   -0.18    0.32
   0  -9   4   -0.19    0.14
   0  -9   4    0.25    0.15
   0  -9   4    0.14    0.19
  -1   9  -4   11.85    0.52
  -1   9  -4   12.74    0.53
  -1   9  -4   14.26    0.65
   1  -9   4   13.25    0.54
   1  -9   4   12.44    0.52
   1  -9   4   13.59    0.55
  -2   9  -4    0.19    0.34
  -2   9  -4    0.03    0.16
  -2   9  -4   -0.01    0.15
   2  -9   4    0.01    0.14
   2  -9   4    0.00    0.18
   2  -9   4    0.10    0.22
   2  -9   4    0.10    0.20
   2  -9   4   -0.11    0.19
  -3   9  -4    8.52    0.48
  -3   9  -4    8.09    0.41
  -3   9  -4    9.01    0.44
   3  -9   4    8.69    0.38
   3  -9   4    8.75    0.49
   3  -9   4    8.95    0.55
   3  -9   4    8.77    0.49
  -4   9  -4    0.68    0.20
  -4   9  -4   -0.29    0.13
  -4   9  -4    0.01    0.21
   4  -9   4   -0.06    0.27
   4  -9   4    0.40    0.17
   4  -9   4    0.08    0.20
   4  -9   4    0.27    0.22
   4  -9   4    0.13    0.33
  -5   9  -4    4.30    0.41
  -5   9  -4    3.92    0.38
  -5   9  -4    4.50    0.44
  -5   9  -4    4.09    0.34
   5  -9   4    4.50    0.51
   5  -9   4    3.94    0.52
   5  -9   4    4.80    0.48
  -6   9  -4    0.12    0.17
  -6   9  -4   -0.22    0.22
  -6   9  -4    0.26    0.31
   6  -9   4    0.40    0.41
   6  -9   4    0.16    0.28
   7   8  -4    0.95    0.39
   7   8  -4    0.64    0.31
   7   8  -4   -0.27    0.33
   7   8  -4    0.44    0.29
   7   8  -4    0.66    0.30
  -7  -8   4   -0.20    0.26
  -7  -8   4    0.26    0.39
  -7  -8   4    0.52    0.34
  -7  -8   4    0.14    0.30
   6   8  -4    6.79    0.45
   6   8  -4    7.49    0.57
   6   8  -4    6.50    0.56
  -6  -8   4    7.33    0.66
  -6  -8   4    7.72    0.54
  -6  -8   4    6.69    0.52
   5   8  -4   -0.03    0.28
   5   8  -4   -0.07    0.24
   5   8  -4   -0.52    0.25
  -5  -8   4   -0.10    0.23
  -5  -8   4    0.10    0.31
  -5  -8   4   -0.04    0.27
   4   8  -4    9.54    0.69
   4   8  -4   10.86    0.59
   4   8  -4   10.68    0.49
  -4  -8   4   11.45    0.57
  -4  -8   4   11.65    0.59
   3   8  -4    0.62    0.29
   3   8  -4    0.26    0.18
   3   8  -4    0.74    0.21
   3   8  -4    0.55    0.18
  -3  -8   4    0.28    0.22
  -3  -8   4    0.65    0.22
  -3  -8   4    0.56    0.19
  -3  -8   4    0.18    0.12
  -3  -8   4    0.59    0.20
   2   8  -4   16.11    0.49
   2   8  -4   15.14    0.67
   2   8  -4   15.87    0.62
  -2  -8   4   16.37    0.61
  -2  -8   4   16.56    0.60
  -2  -8   4   16.56    0.73
  -2  -8   4   15.30    0.50
  -2  -8   4   14.88    0.59
   1   8  -4    0.42    0.16
   1   8  -4    0.24    0.16
   1   8  -4    0.45    0.23
   1   8  -4    0.12    0.10
  -1  -8   4    0.39    0.16
  -1  -8   4    0.58    0.14
  -1  -8   4    0.22    0.14
  -1  -8   4    0.20    0.17
  -1  -8   4    0.29    0.18
   0   8  -4   50.03    1.36
   0   8  -4   51.94    1.39
   0   8  -4   50.42    1.66
   0  -8   4   51.06    1.35
   0  -8   4   49.49    1.34
   0  -8   4   49.77    1.31
   0  -8   4   50.50    1.32
   0  -8   4   50.67    1.31
  -1   8  -4    0.07    0.13
  -1   8  -4   -0.08    0.21
  -1   8  -4   -0.05    0.12
   1  -8   4   -0.15    0.16
   1  -8   4    0.05    0.12
   1  -8   4   -0.11    0.12
   1  -8   4   -0.02    0.13
  -2   8  -4   13.12    0.50
  -2   8  -4   13.45    0.56
  -2   8  -4   13.58    0.49
   2  -8   4   13.25    0.51
   2  -8   4   13.18    0.52
   2  -8   4   12.33    0.53
   2  -8   4   13.37    0.48
   2  -8   4   12.76    0.52
  -3   8  -4    1.39    0.22
  -3   8  -4    1.40    0.19
  -3   8  -4    0.87    0.18
   3  -8   4    1.30    0.17
   3  -8   4    1.05    0.23
   3  -8   4    0.82    0.23
   3  -8   4    1.07    0.19
   3  -8   4    1.37    0.24
  -4   8  -4    7.57    0.49
  -4   8  -4    8.00    0.46
  -4   8  -4    6.77    0.37
  -4   8  -4    7.48    0.43
   4  -8   4    7.77    0.47
   4  -8   4    7.62    0.34
   4  -8   4    7.20    0.56
   4  -8   4    7.31    0.48
   4  -8   4    6.98    0.58
  -5   8  -4    0.12    0.18
  -5   8  -4    0.08    0.18
  -5   8  -4    0.02    0.17
  -5   8  -4   -0.09    0.13
   5  -8   4    0.30    0.26
   5  -8   4   -0.26    0.21
  -6   8  -4    4.44    0.42
  -6   8  -4    5.41    0.40
  -6   8  -4    4.02    0.35
   6  -8   4    5.13    0.48
   6  -8   4    6.91    0.68
   8   7  -4    0.01    0.37
   8   7  -4    0.20    0.33
   8   7  -4    0.25    0.31
   8   7  -4   -0.34    0.29
   8   7  -4    0.50    0.33
  -8  -7   4    0.56    0.32
  -8  -7   4   -0.14    0.26
  -8  -7   4    0.22    0.32
  -8  -7   4   -0.21    0.30
   7   7  -4    3.29    0.45
   7   7  -4    3.02    0.45
   7   7  -4    3.83    0.48
   7   7  -4    2.88    0.41
   7   7  -4    3.63    0.47
  -7  -7   4    3.57    0.45
  -7  -7   4    3.85    0.40
  -7  -7   4    3.35    0.43
  -7  -7   4    3.00    0.40
   6   7  -4    0.28    0.20
  -6  -7   4    0.29    0.27
  -6  -7   4    0.54    0.22
  -6  -7   4    0.12    0.22
   5   7  -4    5.74    0.41
   5   7  -4    5.40    0.37
   5   7  -4    5.67    0.48
   5   7  -4    5.44    0.49
  -5  -7   4    5.21    0.43
  -5  -7   4    5.67    0.50
  -5  -7   4    5.69    0.52
   4   7  -4    0.46    0.22
   4   7  -4    0.30    0.20
   4   7  -4   -0.14    0.22
  -4  -7   4    0.21    0.18
  -4  -7   4    0.32    0.20
   3   7  -4   28.29    0.90
   3   7  -4   28.92    0.84
   3   7  -4   28.96    0.90
  -3  -7   4   28.34    0.90
  -3  -7   4   29.71    0.92
  -3  -7   4   29.39    0.91
  -3  -7   4   28.17    0.89
   2   7  -4    1.30    0.25
   2   7  -4    1.20    0.16
   2   7  -4    1.10    0.20
   2   7  -4    1.14    0.21
  -2  -7   4    1.07    0.18
  -2  -7   4    0.98    0.21
  -2  -7   4    1.12    0.14
  -2  -7   4    1.06    0.20
  -2  -7   4    1.04    0.18
   1   7  -4   35.15    0.85
   1   7  -4   34.53    0.99
   1   7  -4   34.41    0.99
   1   7  -4   33.69    1.04
  -1  -7   4   35.16    0.96
  -1  -7   4   35.15    0.97
  -1  -7   4   35.03    0.96
  -1  -7   4   33.97    0.97
  -1  -7   4   34.36    0.91
   0   7  -4    0.53    0.15
   0   7  -4    0.64    0.16
   0   7  -4    0.54    0.21
   0  -7   4    0.42    0.14
   0  -7   4    0.76    0.24
   0  -7   4    0.50    0.13
   0  -7   4    0.56    0.17
   0  -7   4    0.52    0.14
  -1   7  -4   31.25    0.94
  -1   7  -4   30.23    0.87
  -1   7  -4   30.19    0.87
   1  -7   4   30.07    0.88
   1  -7   4   30.90    0.86
   1  -7   4   30.51    0.84
   1  -7   4   31.06    0.87
   1  -7   4   31.69    0.84
  -2   7  -4    0.12    0.11
  -2   7  -4    0.02    0.11
  -2   7  -4    0.08    0.17
   2  -7   4    0.06    0.14
   2  -7   4    0.00    0.15
   2  -7   4    0.11    0.16
   2  -7   4   -0.01    0.13
   2  -7   4   -0.05    0.10
  -3   7  -4   19.64    0.63
  -3   7  -4   20.00    0.64
   3  -7   4   20.05    0.67
   3  -7   4   19.85    0.59
   3  -7   4   20.03    0.79
   3  -7   4   20.32    0.72
   3  -7   4   19.29    0.66
  -4   7  -4    2.68    0.23
  -4   7  -4    1.73    0.23
  -4   7  -4    1.91    0.23
  -4   7  -4    1.45    0.23
   4  -7   4    1.84    0.28
   4  -7   4    2.20    0.21
   4  -7   4    1.52    0.26
   4  -7   4    2.33    0.31
   4  -7   4    2.22    0.30
  -5   7  -4    9.18    0.36
  -5   7  -4    8.91    0.40
  -5   7  -4    8.26    0.40
  -5   7  -4    8.18    0.46
   5  -7   4    8.35    0.35
   5  -7   4    9.87    0.74
   5  -7   4    8.32    0.52
   5  -7   4    8.17    0.50
  -6   7  -4    0.51    0.22
  -6   7  -4    0.57    0.18
  -6   7  -4    0.47    0.16
   6  -7   4    0.36    0.23
   6  -7   4    0.59    0.32
  -7   7  -4    3.46    0.40
  -7   7  -4    4.29    0.40
  -7   7  -4    3.83    0.32
   7  -7   4    3.85    0.49
   7  -7   4    3.05    0.47
   8   6  -4    0.90    0.30
   8   6  -4    0.96    0.34
   8   6  -4    1.23    0.35
   8   6  -4    1.25    0.32
  -8  -6   4    1.23    0.35
  -8  -6   4    1.53    0.33
  -8  -6   4    1.00    0.31
  -8  -6   4    1.67    0.30
   7   6  -4   -0.17    0.25
   7   6  -4    0.67    0.30
   7   6  -4    0.13    0.27
   7   6  -4    0.04    0.32
   7   6  -4    0.11    0.26
  -7  -6   4    0.25    0.24
  -7  -6   4    0.29    0.20
  -7  -6   4   -0.04    0.24
  -7  -6   4   -0.15    0.25
   6   6  -4    8.37    0.54
   6   6  -4    9.12    0.55
   6   6  -4    8.56    0.64
   6   6  -4    8.82    0.46
  -6  -6   4    7.52    0.53
  -6  -6   4    8.85    0.41
  -6  -6   4    7.76    0.57
  -6  -6   4    7.60    0.49
   5   6  -4    0.24    0.17
   5   6  -4   -0.30    0.23
   5   6  -4    0.02    0.18
  -5  -6   4    0.34    0.21
  -5  -6   4    0.03    0.18
  -5  -6   4    0.01    0.15
  -5  -6   4   -0.38    0.20
   4   6  -4   26.32    0.79
   4   6  -4   25.56    0.91
   4   6  -4   27.45    0.83
   4   6  -4   26.08    0.84
  -4  -6   4   26.46    0.85
  -4  -6   4   26.68    0.86
  -4  -6   4   25.90    0.87
   3   6  -4    0.13    0.15
   3   6  -4    0.61    0.16
   3   6  -4    0.44    0.19
  -3  -6   4    0.27    0.08
  -3  -6   4    0.30    0.15
  -3  -6   4    0.10    0.17
  -3  -6   4    0.17    0.15
   2   6  -4   10.22    0.48
   2   6  -4   11.38    0.38
   2   6  -4   11.31    0.44
  -2  -6   4   10.41    0.44
  -2  -6   4   11.35    0.44
  -2  -6   4   11.35    0.44
  -2  -6   4   10.47    0.45
  -2  -6   4   11.00    0.39
   1   6  -4    1.09    0.12
   1   6  -4    0.93    0.15
   1   6  -4    1.18    0.17
   1   6  -4    0.95    0.20
  -1  -6   4    1.03    0.14
  -1  -6   4    1.09    0.13
  -1  -6   4    0.97    0.16
  -1  -6   4    1.33    0.17
  -1  -6   4    1.09    0.17
   0   6  -4   43.74    1.20
   0   6  -4   44.26    1.15
   0   6  -4   42.33    1.14
   0  -6   4   45.06    1.13
   0  -6   4   42.97    1.12
   0  -6   4   43.05    1.14
   0  -6   4   44.13    1.12
   0  -6   4   43.55    1.10
  -1   6  -4   -0.17    0.09
  -1   6  -4   -0.13    0.09
  -1   6  -4   -0.01    0.14
   1  -6   4   -0.06    0.10
   1  -6   4   -0.13    0.10
   1  -6   4   -0.04    0.12
   1  -6   4   -0.18    0.09
   1  -6   4   -0.15    0.08
  -2   6  -4   35.28    0.94
  -2   6  -4   33.89    0.96
  -2   6  -4   34.12    0.94
   2  -6   4   35.42    0.91
   2  -6   4   34.51    0.99
   2  -6   4   34.43    0.91
   2  -6   4   33.38    0.93
   2  -6   4   35.02    0.95
  -3   6  -4    1.74    0.22
  -3   6  -4    1.78    0.20
  -3   6  -4    1.97    0.20
   3  -6   4    1.76    0.23
   3  -6   4    1.84    0.19
   3  -6   4    2.03    0.25
   3  -6   4    2.02    0.22
   3  -6   4    2.04    0.28
  -4   6  -4   18.98    0.58
  -4   6  -4   19.33    0.59
  -4   6  -4   18.46    0.74
  -4   6  -4   17.11    0.62
   4  -6   4   18.10    0.62
   4  -6   4   18.83    0.67
   4  -6   4   18.99    0.70
   4  -6   4   18.55    0.55
  -5   6  -4    1.15    0.18
  -5   6  -4    1.11    0.22
  -5   6  -4    1.32    0.18
  -5   6  -4    1.75    0.18
   5  -6   4    1.89    0.28
   5  -6   4    1.11    0.16
   5  -6   4    1.07    0.26
  -6   6  -4    8.58    0.41
  -6   6  -4    9.97    0.41
  -6   6  -4    8.60    0.47
   6  -6   4    9.08    0.50
   6  -6   4    9.27    0.37
   6  -6   4    8.99    0.65
  -7   6  -4   -0.05    0.20
  -7   6  -4    0.53    0.22
  -7   6  -4    0.22    0.15
   7  -6   4    0.10    0.30
   7  -6   4    0.00    0.20
  -8   6  -4    4.91    0.60
  -8   6  -4    3.51    0.42
  -8   6  -4    4.01    0.34
   8  -6   4    4.58    0.51
   8  -6   4    2.81    0.48
   8   5  -4    0.02    0.26
   8   5  -4    0.07    0.30
   8   5  -4    0.14    0.31
   8   5  -4   -0.09    0.30
  -8  -5   4   -0.04    0.23
  -8  -5   4    0.10    0.27
  -8  -5   4    0.09    0.26
  -8  -5   4    0.50    0.26
   7   5  -4    7.93    0.57
   7   5  -4    8.01    0.52
   7   5  -4    7.56    0.61
   7   5  -4    8.28    0.62
  -7  -5   4    8.26    0.53
  -7  -5   4    8.57    0.43
  -7  -5   4    7.55    0.53
   6   5  -4    0.26    0.25
   6   5  -4    0.38    0.21
   6   5  -4    0.02    0.28
   6   5  -4   -0.25    0.17
   6   5  -4   -0.15    0.24
  -6  -5   4    0.21    0.20
  -6  -5   4   -0.19    0.19
  -6  -5   4   -0.14    0.15
  -6  -5   4    0.31    0.24
   5   5  -4    6.41    0.43
   5   5  -4    5.92    0.39
   5   5  -4    6.77    0.36
   5   5  -4    5.87    0.42
  -5  -5   4    5.42    0.41
  -5  -5   4    6.27    0.31
  -5  -5   4    6.64    0.39
  -5  -5   4    5.87    0.40
   4   5  -4    0.40    0.17
   4   5  -4    0.21    0.15
   4   5  -4    0.51    0.19
   4   5  -4    0.74    0.20
  -4  -5   4    0.43    0.15
  -4  -5   4    0.46    0.14
  -4  -5   4    0.35    0.17
  -4  -5   4    0.29    0.19
   3   5  -4   41.42    1.13
   3   5  -4   41.81    1.11
   3   5  -4   39.88    1.15
   3   5  -4   42.65    1.12
  -3  -5   4   40.99    1.16
  -3  -5   4   41.08    1.14
  -3  -5   4   42.20    1.14
   2   5  -4    0.57    0.17
   2   5  -4    0.37    0.12
   2   5  -4    0.58    0.13
   2   5  -4    0.61    0.14
  -2  -5   4    0.43    0.08
  -2  -5   4    0.54    0.12
  -2  -5   4    0.60    0.14
  -2  -5   4    0.50    0.15
   1   5  -4   44.50    1.17
   1   5  -4   47.21    1.10
   1   5  -4   43.75    1.17
   1   5  -4   45.56    1.22
  -1  -5   4   45.12    1.18
  -1  -5   4   43.82    1.16
  -1  -5   4   45.32    1.10
  -1  -5   4   46.05    1.17
  -1  -5   4   47.28    1.16
   0   5  -4    3.47    0.21
   0   5  -4    3.11    0.13
   0   5  -4    3.62    0.26
   0   5  -4    3.17    0.20
   0  -5   4    3.42    0.19
   0  -5   4    3.26    0.20
   0  -5   4    3.11    0.19
   0  -5   4    3.06    0.22
   0  -5   4    3.19    0.19
  -1   5  -4   24.36    0.68
  -1   5  -4   24.70    0.68
  -1   5  -4   24.14    0.71
   1  -5   4   24.57    0.67
   1  -5   4   23.94    0.69
   1  -5   4   25.01    0.67
   1  -5   4   23.97    0.67
   1  -5   4   23.99    0.67
  -2   5  -4   -0.08    0.10
  -2   5  -4    0.01    0.08
  -2   5  -4   -0.03    0.07
   2  -5   4   -0.05    0.07
   2  -5   4    0.11    0.10
   2  -5   4    0.10    0.11
   2  -5   4    0.08    0.08
   2  -5   4    0.25    0.10
  -3   5  -4   55.60    1.38
  -3   5  -4   54.43    1.39
  -3   5  -4   56.90    1.39
   3  -5   4   54.91    1.42
   3  -5   4   54.63    1.44
   3  -5   4   56.23    1.43
   3  -5   4   54.03    1.40
   3  -5   4   57.00    1.36
   3  -5   4   55.43    1.37
  -4   5  -4    0.00    0.09
  -4   5  -4    0.03    0.12
  -4   5  -4    0.14    0.10
  -4   5  -4    0.26    0.11
   4  -5   4   -0.03    0.10
   4  -5   4    0.18    0.09
   4  -5   4   -0.04    0.15
   4  -5   4    0.09    0.13
   4  -5   4   -0.12    0.11
  -5   5  -4   17.06    0.58
  -5   5  -4   16.74    0.48
  -5   5  -4   16.80    0.54
  -5   5  -4   16.96    0.60
   5  -5   4   16.45    0.68
   5  -5   4   16.58    0.51
   5  -5   4   16.33    0.59
   5  -5   4   16.54    0.60
  -6   5  -4    0.46    0.20
  -6   5  -4    0.67    0.15
  -6   5  -4    0.56    0.20
   6  -5   4    1.00    0.23
   6  -5   4    0.85    0.16
   6  -5   4    0.29    0.24
   6  -5   4    1.13    0.20
  -7   5  -4    4.92    0.36
  -7   5  -4    5.14    0.33
  -7   5  -4    3.78    0.30
   7  -5   4    4.49    0.50
   7  -5   4    4.61    0.40
   7  -5   4    3.91    0.40
  -8   5  -4    0.07    0.17
  -8   5  -4   -0.02    0.22
  -8   5  -4   -0.01    0.22
   8  -5   4    0.09    0.30
   8  -5   4    0.10    0.24
   8   4  -4    2.20    0.40
   8   4  -4    1.44    0.38
   8   4  -4    2.55    0.35
   8   4  -4    3.00    0.40
  -8  -4   4    2.00    0.30
  -8  -4   4    2.35    0.37
  -8  -4   4    3.09    0.39
  -8  -4   4    2.43    0.37
   7   4  -4   -0.02    0.28
   7   4  -4   -0.14    0.27
   7   4  -4    0.16    0.26
   7   4  -4    0.24    0.22
  -7  -4   4    0.25    0.25
  -7  -4   4    0.22    0.19
  -7  -4   4    0.28    0.21
  -7  -4   4   -0.02    0.20
   6   4  -4   10.86    0.60
   6   4  -4   10.20    0.50
   6   4  -4    9.92    0.56
   6   4  -4   11.16    0.49
   6   4  -4   11.13    0.51
  -6  -4   4    9.35    0.71
  -6  -4   4   12.52    0.52
  -6  -4   4   10.34    0.42
  -6  -4   4   10.29    0.51
   5   4  -4   -0.23    0.20
   5   4  -4    0.52    0.20
   5   4  -4    0.33    0.18
   5   4  -4    0.40    0.16
   5   4  -4    0.32    0.17
  -5  -4   4    0.33    0.14
  -5  -4   4    0.38    0.16
  -5  -4   4    0.29    0.16
   4   4  -4   46.56    1.26
   4   4  -4   46.12    1.32
   4   4  -4   46.91    1.21
   4   4  -4   44.72    1.24
   4   4  -4   44.98    1.23
   4   4  -4   45.91    1.22
  -4  -4   4   46.09    1.18
  -4  -4   4   44.46    1.28
  -4  -4   4   46.12    1.25
  -4  -4   4   44.36    1.23
   3   4  -4    0.24    0.15
   3   4  -4    0.06    0.12
   3   4  -4    0.17    0.11
   3   4  -4    0.22    0.11
   3   4  -4    0.25    0.14
  -3  -4   4    0.37    0.13
  -3  -4   4    0.34    0.13
  -3  -4   4    0.23    0.10
  -3  -4   4    0.25    0.15
   2   4  -4   40.10    1.10
   2   4  -4   42.47    1.05
   2   4  -4   41.90    1.07
   2   4  -4   40.64    1.07
  -2  -4   4   39.61    1.07
  -2  -4   4   41.34    1.08
  -2  -4   4   41.21    1.10
   1   4  -4    0.12    0.08
   1   4  -4    0.25    0.12
   1   4  -4    0.19    0.10
   1   4  -4    0.08    0.09
  -1  -4   4    0.13    0.11
  -1  -4   4    0.19    0.07
  -1  -4   4    0.15    0.09
  -1  -4   4    0.14    0.09
  -1  -4   4    0.10    0.09
   0   4  -4  113.57    2.73
   0   4  -4  119.15    2.74
   0   4  -4  116.48    2.77
   0   4  -4  120.56    2.66
   0  -4   4  117.48    2.72
   0  -4   4  113.99    2.74
   0  -4   4  116.81    2.73
   0  -4   4  115.37    2.69
  -1   4  -4    1.62    0.19
  -1   4  -4    1.70    0.15
  -1   4  -4    1.56    0.15
   1  -4   4    1.36    0.16
   1  -4   4    1.48    0.14
   1  -4   4    1.29    0.13
   1  -4   4    1.61    0.15
   1  -4   4    1.58    0.14
  -2   4  -4   79.40    1.86
  -2   4  -4   77.60    1.86
  -2   4  -4   76.38    1.86
   2  -4   4   77.27    1.87
   2  -4   4   76.38    1.84
   2  -4   4   79.87    1.84
   2  -4   4   76.36    1.85
   2  -4   4   76.36    1.86
  -3   4  -4    0.03    0.08
  -3   4  -4    0.03    0.07
  -3   4  -4    0.00    0.07
  -3   4  -4   -0.13    0.08
   3  -4   4   -0.12    0.09
   3  -4   4    0.05    0.08
   3  -4   4   -0.05    0.10
   3  -4   4   -0.09    0.07
   3  -4   4   -0.13    0.07
  -4   4  -4   32.41    0.82
  -4   4  -4   31.20    0.86
  -4   4  -4   31.77    0.89
  -4   4  -4   31.71    0.85
   4  -4   4   30.91    0.89
   4  -4   4   32.77    0.81
   4  -4   4   31.89    0.88
   4  -4   4   32.07    0.85
   4  -4   4   32.47    0.94
  -5   4  -4    0.76    0.11
  -5   4  -4    0.70    0.13
  -5   4  -4    0.85    0.18
  -5   4  -4    0.89    0.14
   5  -4   4    1.06    0.17
   5  -4   4    1.02    0.22
   5  -4   4    0.66    0.19
   5  -4   4    0.91    0.16
   5  -4   4    0.96    0.15
  -6   4  -4    9.51    0.37
  -6   4  -4    7.75    0.35
  -6   4  -4    8.32    0.43
   6  -4   4    8.15    0.52
   6  -4   4    8.69    0.40
   6  -4   4    8.61    0.49
   6  -4   4    8.25    0.35
  -7   4  -4    0.18    0.14
  -7   4  -4    0.30    0.14
  -7   4  -4    0.18    0.19
   7  -4   4    0.38    0.23
   7  -4   4   -0.31    0.27
   7  -4   4    0.19    0.19
   7  -4   4    0.23    0.17
  -8   4  -4    5.58    0.63
  -8   4  -4    4.26    0.33
  -8   4  -4    4.06    0.39
   8  -4   4    5.36    0.48
   8  -4   4    4.51    0.50
   8  -4   4    4.44    0.46
  -9   4  -4    0.07    0.23
  -9   4  -4    0.08    0.31
   9  -4   4    0.50    0.32
   9  -4   4    0.39    0.33
   9  -4   4   -0.16    0.42
  -9  -3   4    1.63    0.38
  -9  -3   4    0.65    0.27
  -9  -3   4    1.20    0.39
   8   3  -4    0.15    0.31
   8   3  -4    0.22    0.33
   8   3  -4    0.21    0.25
   8   3  -4   -0.13    0.29
  -8  -3   4    0.29    0.23
  -8  -3   4    0.11    0.26
  -8  -3   4   -0.13    0.19
  -8  -3   4   -0.09    0.29
   7   3  -4   13.11    0.71
   7   3  -4   14.14    0.55
   7   3  -4   13.64    0.57
   7   3  -4   14.34    0.75
   7   3  -4   14.33    0.70
  -7  -3   4   14.92    0.53
  -7  -3   4   15.63    0.62
  -7  -3   4   13.82    0.61
  -7  -3   4   14.33    0.71
   6   3  -4    0.14    0.21
   6   3  -4    0.30    0.20
   6   3  -4    0.39    0.18
   6   3  -4    0.41    0.26
  -6  -3   4    0.44    0.17
  -6  -3   4    0.23    0.15
  -6  -3   4    0.33    0.44
  -6  -3   4    0.65    0.18
   5   3  -4   14.14    0.51
   5   3  -4   14.06    0.60
   5   3  -4   15.57    0.60
   5   3  -4   14.03    0.53
   5   3  -4   14.71    0.60
  -5  -3   4   15.15    0.60
  -5  -3   4   13.74    0.60
  -5  -3   4   14.25    0.54
  -5  -3   4   14.59    0.47
   4   3  -4   -0.09    0.13
   4   3  -4    0.06    0.14
   4   3  -4    0.02    0.13
   4   3  -4    0.17    0.12
   4   3  -4    0.11    0.15
   4   3  -4    0.11    0.17
  -4  -3   4    0.00    0.17
  -4  -3   4    0.25    0.11
  -4  -3   4    0.25    0.12
  -4  -3   4   -0.01    0.11
   3   3  -4   51.36    1.27
   3   3  -4   51.42    1.36
   3   3  -4   51.13    1.28
   3   3  -4   49.46    1.31
   3   3  -4   51.32    1.31
   3   3  -4   52.04    1.32
  -3  -3   4   50.01    1.30
  -3  -3   4   52.57    1.23
  -3  -3   4   50.04    1.31
  -3  -3   4   49.64    1.35
   2   3  -4    0.12    0.08
   2   3  -4    0.14    0.10
   2   3  -4    0.15    0.09
   2   3  -4    0.09    0.12
   2   3  -4   -0.05    0.09
  -2  -3   4   -0.05    0.08
  -2  -3   4    0.14    0.09
  -2  -3   4    0.14    0.12
   1   3  -4  254.69    5.86
   1   3  -4  259.99    5.83
   1   3  -4  264.36    5.81
   1   3  -4  250.14    5.83
  -1  -3   4  255.66    5.83
  -1  -3   4  251.55    5.83
  -1  -3   4  254.79    5.86
   0   3  -4    0.05    0.06
   0   3  -4    0.35    0.12
   0   3  -4   -0.08    0.06
   0   3  -4   -0.03    0.07
   0  -3   4    0.01    0.07
   0  -3   4    0.03    0.10
   0  -3   4    0.02    0.07
   0  -3   4   -0.08    0.05
  -1   3  -4  106.46    2.50
  -1   3  -4  102.28    2.58
  -1   3  -4  106.25    2.48
   1  -3   4  106.62    2.47
   1  -3   4  106.67    2.45
   1  -3   4  108.04    2.47
   1  -3   4  106.68    2.49
  -2   3  -4    6.21    0.25
  -2   3  -4    6.72    0.25
  -2   3  -4    6.70    0.25
   2  -3   4    6.49    0.25
   2  -3   4    6.55    0.29
   2  -3   4    6.87    0.25
  -3   3  -4   71.21    1.57
  -3   3  -4   67.99    1.66
  -3   3  -4   67.45    1.62
  -3   3  -4   68.83    1.65
  -3   3  -4   68.68    1.64
   3  -3   4   67.10    1.64
   3  -3   4   67.18    1.62
   3  -3   4   68.35    1.63
   3  -3   4   66.72    1.67
  -4   3  -4    0.08    0.08
  -4   3  -4   -0.08    0.07
  -4   3  -4    0.10    0.10
  -4   3  -4    0.01    0.07
   4  -3   4    0.08    0.10
   4  -3   4    0.03    0.08
   4  -3   4    0.11    0.11
   4  -3   4    0.02    0.08
   4  -3   4    0.05    0.11
   4  -3   4    0.03    0.12
  -5   3  -4   41.21    1.13
  -5   3  -4   43.25    1.09
  -5   3  -4   40.83    1.08
  -5   3  -4   43.03    1.01
   5  -3   4   41.28    1.18
   5  -3   4   42.35    1.12
   5  -3   4   41.44    1.07
   5  -3   4   41.95    1.14
   5  -3   4   40.93    1.12
  -6   3  -4    0.03    0.14
  -6   3  -4    0.23    0.13
  -6   3  -4    0.01    0.10
   6  -3   4   -0.22    0.15
   6  -3   4   -0.10    0.19
   6  -3   4   -0.03    0.13
   6  -3   4    0.06    0.12
  -7   3  -4    5.76    0.32
  -7   3  -4    6.02    0.40
   7  -3   4    5.91    0.34
   7  -3   4    6.12    0.42
   7  -3   4    6.82    0.43
   7  -3   4    5.70    0.65
  -8   3  -4   -0.03    0.17
  -8   3  -4    0.06    0.13
  -8   3  -4    0.27    0.20
   8  -3   4    0.28    0.29
   8  -3   4   -0.09    0.22
   8  -3   4    0.38    0.22
   8  -3   4    0.31    0.26
  -9   3  -4    1.97    0.28
  -9   3  -4    1.45    0.29
   9  -3   4    1.88    0.46
   9  -3   4    1.99    0.42
   9  -3   4    1.97    0.35
   9   2  -4    0.17    0.34
   9   2  -4   -0.12    0.29
   9   2  -4    0.64    0.39
  -9  -2   4    0.29    0.37
  -9  -2   4    0.46    0.36
  -9  -2   4    0.05    0.24
   8   2  -4    1.46    0.34
   8   2  -4    1.68    0.32
  -8  -2   4    2.75    0.38
  -8  -2   4    2.16    0.39
  -8  -2   4    2.37    0.30
  -8  -2   4    3.31    0.41
   7   2  -4    1.08    0.23
   7   2  -4    0.75    0.27
   7   2  -4    0.62    0.26
   7   2  -4    0.79    0.18
   7   2  -4    0.69    0.31
  -7  -2   4    1.06    0.22
  -7  -2   4    0.76    0.21
  -7  -2   4    1.12    0.31
  -7  -2   4    0.84    0.23
   6   2  -4   14.00    0.48
   6   2  -4   14.65    0.62
   6   2  -4   14.55    0.86
   6   2  -4   14.09    0.65
   6   2  -4   13.95    0.50
  -6  -2   4   15.93    0.51
  -6  -2   4   15.39    0.98
  -6  -2   4   13.52    0.57
  -6  -2   4   14.36    0.55
   5   2  -4    1.04    0.16
   5   2  -4    1.03    0.18
   5   2  -4    0.61    0.20
   5   2  -4    1.06    0.21
   5   2  -4    0.69    0.20
  -5  -2   4    1.04    0.26
  -5  -2   4    1.19    0.17
  -5  -2   4    0.86    0.17
  -5  -2   4    0.86    0.17
   4   2  -4   61.20    1.61
   4   2  -4   64.29    1.51
   4   2  -4   60.29    1.60
   4   2  -4   62.11    1.54
   4   2  -4   62.71    1.62
  -4  -2   4   59.68    1.55
  -4  -2   4   62.79    1.63
  -4  -2   4   57.78    1.55
  -4  -2   4   64.53    1.49
   3   2  -4    0.06    0.10
   3   2  -4   -0.02    0.11
   3   2  -4    0.12    0.11
   3   2  -4    0.05    0.08
   3   2  -4    0.10    0.11
   3   2  -4   -0.02    0.10
  -3  -2   4    0.01    0.09
  -3  -2   4   -0.11    0.12
  -3  -2   4    0.00    0.08
  -3  -2   4    0.10    0.13
   2   2  -4   58.63    1.48
   2   2  -4   58.56    1.46
   2   2  -4   58.62    1.42
   2   2  -4   57.73    1.44
   2   2  -4   61.39    1.42
   2   2  -4   59.59    1.45
  -2  -2   4   58.94    1.44
  -2  -2   4   58.30    1.48
  -2  -2   4   58.62    1.44
   1   2  -4    1.64    0.16
   1   2  -4    1.51    0.17
   1   2  -4    1.63    0.13
   1   2  -4    1.62    0.13
   1   2  -4    1.54    0.13
  -1  -2   4    1.99    0.18
  -1  -2   4    1.47    0.14
  -1  -2   4    1.30    0.14
   0   2  -4  207.30    4.84
   0   2  -4  216.94    4.86
   0   2  -4  219.14    4.82
   0   2  -4  219.25    4.85
   0   2  -4  209.53    4.86
   0  -2   4  196.17    4.87
   0  -2   4  213.20    4.84
   0  -2   4  220.52    4.81
  -1   2  -4    1.22    0.13
  -1   2  -4    1.38    0.12
  -1   2  -4    1.38    0.10
  -1   2  -4    1.20    0.13
  -1   2  -4    1.40    0.12
   1  -2   4    1.20    0.15
   1  -2   4    1.39    0.09
   1  -2   4    1.37    0.11
   1  -2   4    1.00    0.11
  -2   2  -4  172.64    3.79
  -2   2  -4  166.69    3.83
  -2   2  -4  170.65    3.83
  -2   2  -4  148.59    3.86
  -2   2  -4  165.10    3.83
   2  -2   4  170.54    3.85
   2  -2   4  167.87    3.81
   2  -2   4  167.83    3.83
   2  -2   4  174.26    3.83
  -3   2  -4   18.04    0.49
  -3   2  -4   18.50    0.53
  -3   2  -4   18.03    0.51
  -3   2  -4   17.93    0.51
   3  -2   4   18.33    0.51
   3  -2   4   18.19    0.50
   3  -2   4   18.33    0.53
   3  -2   4   17.88    0.50
  -4   2  -4   68.53    1.66
  -4   2  -4   67.88    1.66
  -4   2  -4   69.17    1.61
  -4   2  -4   68.51    1.68
   4  -2   4   67.34    1.69
   4  -2   4   71.77    1.65
   4  -2   4   69.35    1.69
   4  -2   4   68.47    1.72
   4  -2   4   67.60    1.67
  -5   2  -4    0.74    0.12
  -5   2  -4    0.50    0.11
  -5   2  -4    0.66    0.14
  -5   2  -4    0.64    0.09
   5  -2   4    0.67    0.12
   5  -2   4    0.64    0.14
   5  -2   4    0.38    0.18
   5  -2   4    0.45    0.16
   5  -2   4    0.79    0.15
   5  -2   4    0.47    0.16
  -6   2  -4   30.77    0.85
  -6   2  -4   29.91    0.90
  -6   2  -4   30.88    0.85
   6  -2   4   31.44    0.84
   6  -2   4   30.89    0.90
   6  -2   4   31.36    0.96
   6  -2   4   29.16    0.94
  -7   2  -4   -0.21    0.12
  -7   2  -4   -0.07    0.13
  -7   2  -4   -0.16    0.17
   7  -2   4   -0.01    0.23
   7  -2   4    0.10    0.17
   7  -2   4    0.28    0.21
   7  -2   4    0.12    0.15
  -8   2  -4    7.86    0.45
  -8   2  -4    9.11    0.50
   8  -2   4    8.08    0.55
   8  -2   4    8.09    0.70
   8  -2   4    8.97    0.53
   8  -2   4    9.52    0.45
  -9   2  -4   -0.18    0.16
  -9   2  -4    0.12    0.21
  -9   2  -4    0.22    0.23
   9  -2   4   -0.03    0.39
   9  -2   4   -0.07    0.25
   9  -2   4    0.67    0.35
   9   1  -4    0.83    0.35
  -9  -1   4    0.90    0.39
  -9  -1   4    1.14    0.26
   8   1  -4   -0.03    0.32
   8   1  -4    0.19    0.27
   8   1  -4   -0.06    0.23
  -8  -1   4   -0.02    0.16
  -8  -1   4    0.03    0.23
  -8  -1   4   -0.35    0.24
  -8  -1   4   -0.33    0.31
   7   1  -4   13.41    0.67
   7   1  -4   12.15    0.67
   7   1  -4   13.64    0.63
  -7  -1   4   15.43    0.55
  -7  -1   4   13.63    0.70
  -7  -1   4   12.58    0.56
  -7  -1   4   13.39    0.55
   6   1  -4    0.57    0.22
   6   1  -4    0.27    0.21
   6   1  -4    0.55    0.23
   6   1  -4    0.35    0.19
   6   1  -4    0.64    0.16
  -6  -1   4    0.35    0.27
  -6  -1   4    0.49    0.17
  -6  -1   4    0.42    0.15
  -6  -1   4    0.86    0.19
   5   1  -4   23.47    0.79
   5   1  -4   23.30    0.62
   5   1  -4   24.41    0.88
   5   1  -4   22.89    0.79
   5   1  -4   23.19    0.67
  -5  -1   4   23.58    0.72
  -5  -1   4   23.49    0.72
  -5  -1   4   24.19    0.83
  -5  -1   4   24.63    0.67
   4   1  -4    2.65    0.23
   4   1  -4    2.30    0.26
   4   1  -4    2.70    0.16
   4   1  -4    2.51    0.24
   4   1  -4    2.56    0.19
  -4  -1   4    2.25    0.18
  -4  -1   4    2.72    0.28
  -4  -1   4    2.38    0.21
  -4  -1   4    2.55    0.20
   3   1  -4   29.44    0.82
   3   1  -4   29.77    0.84
   3   1  -4   28.84    0.74
   3   1  -4   29.00    0.82
   3   1  -4   29.53    0.77
  -3  -1   4   28.95    0.86
  -3  -1   4   30.81    0.73
  -3  -1   4   28.99    0.79
  -3  -1   4   28.99    0.78
   2   1  -4   -0.06    0.08
   2   1  -4   -0.04    0.08
   2   1  -4   -0.12    0.08
   2   1  -4    0.10    0.09
  -2  -1   4    0.04    0.11
  -2  -1   4    0.16    0.07
  -2  -1   4    0.04    0.07
  -2  -1   4   -0.01    0.04
   1   1  -4  175.99    4.14
   1   1  -4  183.78    4.13
   1   1  -4  180.73    4.12
   1   1  -4  190.64    4.10
   1   1  -4  177.20    4.10
  -1  -1   4  185.44    4.15
  -1  -1   4  169.32    4.11
  -1  -1   4  177.90    4.11
   0   1  -4   18.86    0.50
   0   1  -4   17.75    0.52
   0   1  -4   19.95    0.54
   0   1  -4   19.17    0.50
   0   1  -4   20.12    0.58
   0  -1   4   18.54    0.50
   0  -1   4   19.82    0.46
   0  -1   4   18.41    0.50
  -1   1  -4  115.03    2.63
  -1   1  -4  116.91    2.62
  -1   1  -4  109.97    2.64
  -1   1  -4  108.60    2.63
  -1   1  -4  116.44    2.62
  -1   1  -4  120.67    2.64
   1  -1   4  115.95    2.59
   1  -1   4  112.02    2.63
  -2   1  -4    0.12    0.06
  -2   1  -4    0.02    0.04
  -2   1  -4    0.01    0.07
  -2   1  -4    0.06    0.06
  -2   1  -4    0.00    0.06
   2  -1   4    0.01    0.06
   2  -1   4    0.06    0.07
   2  -1   4    0.01    0.04
  -3   1  -4  113.20    2.64
  -3   1  -4  114.22    2.61
  -3   1  -4  114.58    2.65
  -3   1  -4  108.38    2.63
   3  -1   4  118.89    2.63
   3  -1   4  114.28    2.66
   3  -1   4  110.16    2.63
   3  -1   4  115.04    2.63
  -4   1  -4   10.31    0.34
  -4   1  -4   10.72    0.37
  -4   1  -4   10.27    0.34
  -4   1  -4   11.05    0.32
   4  -1   4   10.49    0.36
   4  -1   4   10.34    0.39
   4  -1   4   10.37    0.34
   4  -1   4   10.50    0.34
   4  -1   4   10.49    0.37
  -5   1  -4   88.05    2.20
  -5   1  -4   96.62    2.33
  -5   1  -4   91.60    2.24
   5  -1   4   90.66    2.24
   5  -1   4   92.51    2.20
   5  -1   4   95.44    2.20
   5  -1   4   93.69    2.24
  -6   1  -4    0.09    0.13
  -6   1  -4    0.25    0.11
  -6   1  -4   -0.10    0.10
   6  -1   4   -0.05    0.13
   6  -1   4    0.22    0.16
   6  -1   4   -0.17    0.15
   6  -1   4    0.43    0.13
   6  -1   4    0.36    0.20
  -7   1  -4   20.95    0.71
  -7   1  -4   20.06    0.70
  -7   1  -4   21.04    0.65
   7  -1   4   20.34    0.79
   7  -1   4   19.87    0.76
   7  -1   4   19.54    0.72
   7  -1   4   21.41    0.66
  -8   1  -4   -0.07    0.15
  -8   1  -4   -0.04    0.18
  -8   1  -4    0.20    0.15
   8  -1   4    0.42    0.23
   8  -1   4   -0.01    0.21
  -9   1  -4    3.50    0.36
  -9   1  -4    3.12    0.39
  -9   1  -4    2.85    0.37
   9  -1   4    3.70    0.46
   9  -1   4    3.37    0.46
   9  -1   4    3.23    0.50
 -10   1  -4    0.29    0.30
 -10   1  -4    0.35    0.29
 -10   1  -4    0.02    0.23
  10  -1   4    0.06    0.30
  10  -1   4    0.47    0.41
   8   0  -4    4.45    0.48
   8   0  -4    2.99    0.40
  -8   0   4    3.81    0.44
  -8   0   4    4.15    0.37
   7   0  -4    0.15    0.24
   7   0  -4   -0.03    0.23
  -7   0   4   -0.07    0.17
  -7   0   4    0.32    0.19
  -7   0   4   -0.22    0.18
   6   0  -4    6.88    0.47
   6   0  -4    6.93    0.39
   6   0  -4    6.00    0.45
  -6   0   4    7.00    0.33
  -6   0   4    7.09    0.36
  -6   0   4    6.45    0.35
   5   0  -4    0.23    0.16
   5   0  -4   -0.04    0.17
   5   0  -4    0.12    0.14
  -5   0   4   -0.01    0.12
  -5   0   4    0.02    0.11
  -5   0   4    0.11    0.11
   4   0  -4   79.73    1.80
   4   0  -4   77.69    2.00
   4   0  -4   79.58    1.94
   4   0  -4   77.65    1.98
   4   0  -4   77.95    1.87
  -4   0   4   77.78    1.92
  -4   0   4   82.40    1.87
  -4   0   4   77.17    1.91
   3   0  -4    1.11    0.13
   3   0  -4    1.58    0.19
   3   0  -4    1.22    0.09
   3   0  -4    1.10    0.16
   3   0  -4    1.13    0.17
   3   0  -4    1.16    0.10
  -3   0   4    1.09    0.13
  -3   0   4    1.34    0.20
  -3   0   4    1.24    0.13
  -3   0   4    1.44    0.11
   2   0  -4  106.27    2.36
   2   0  -4  105.58    2.46
   2   0  -4  102.96    2.38
   2   0  -4  102.48    2.48
   2   0  -4  103.89    2.43
   2   0  -4  105.85    2.46
  -2   0   4  105.19    2.42
  -2   0   4  105.50    2.49
  -2   0   4  101.56    2.42
   1   0  -4    0.40    0.09
   1   0  -4    0.45    0.07
   1   0  -4    0.51    0.06
  -1   0   4    0.42    0.07
  -1   0   4    0.56    0.11
   0   0  -4   15.85    0.44
   0   0  -4   16.05    0.42
   0   0  -4   15.99    0.44
   0   0  -4   16.21    0.39
   0   0  -4   16.00    0.44
   0   0  -4   15.94    0.41
   0   0   4   16.09    0.46
   0   0   4   15.77    0.42
   0   0   4   15.82    0.44
  -1   0  -4    8.60    0.26
  -1   0  -4    8.43    0.24
  -1   0  -4    8.30    0.26
  -1   0  -4    8.65    0.26
  -1   0  -4    8.23    0.25
  -1   0  -4    8.62    0.26
   1   0   4    8.82    0.26
   1   0   4    8.15    0.25
   1   0   4    8.33    0.26
  -2   0  -4  214.60    4.89
  -2   0  -4  216.60    4.90
  -2   0  -4  215.29    4.86
  -2   0  -4  215.94    4.90
  -2   0  -4  219.15    4.90
   2   0   4  213.81    4.87
   2   0   4  220.42    4.90
   2   0   4  212.62    4.90
   2   0   4  212.48    4.90
  -3   0  -4    1.81    0.09
  -3   0  -4    1.74    0.14
  -3   0  -4    1.80    0.16
  -3   0  -4    1.94    0.12
  -3   0  -4    2.07    0.14
   3   0   4    1.77    0.14
   3   0   4    1.93    0.14
   3   0   4    1.84    0.15
   3   0   4    1.66    0.13
  -4   0  -4   94.68    2.30
  -4   0  -4   94.94    2.30
  -4   0  -4   96.59    2.32
   4   0   4  103.72    2.30
   4   0   4   99.78    2.32
   4   0   4   97.78    2.30
  -5   0  -4    1.24    0.14
  -5   0  -4    1.41    0.17
  -5   0  -4    0.73    0.11
   5   0   4    0.91    0.14
   5   0   4    1.08    0.14
   5   0   4    1.12    0.14
   5   0   4    0.93    0.16
  -6   0  -4   20.64    0.62
  -6   0  -4   19.64    0.62
  -6   0  -4   20.52    0.66
   6   0   4   19.88    0.68
   6   0   4   20.96    0.62
   6   0   4   21.06    0.62
  -7   0  -4    0.40    0.14
  -7   0  -4    0.35    0.14
  -7   0  -4    0.27    0.17
   7   0   4    0.09    0.19
   7   0   4    0.29    0.24
   7   0   4    0.35    0.16
  -8   0  -4   15.75    0.86
  -8   0  -4   15.87    0.65
  -8   0  -4   17.05    0.61
   8   0   4   16.64    0.79
   8   0   4   17.48    0.62
  -9   0  -4    0.05    0.19
  -9   0  -4   -0.16    0.22
  -9   0  -4   -0.36    0.21
   9   0   4   -0.08    0.23
   9   0   4   -0.16    0.22
   9   0   4    0.29    0.35
 -10   0  -4    1.61    0.33
 -10   0  -4    1.51    0.31
 -10   0  -4    2.09    0.36
  10   0   4    2.19    0.44
  10   0   4    1.78    0.45
  10   0   4    1.56    0.36
   8  -1  -4    0.12    0.40
   8  -1  -4   -0.34    0.26
   8  -1  -4    0.23    0.30
  -8   1   4   -0.15    0.17
  -8   1   4   -0.17    0.35
   7  -1  -4    8.95    0.57
   7  -1  -4    8.67    0.57
  -7   1   4   10.13    0.48
  -7   1   4    8.78    0.44
  -7   1   4    9.38    0.50
   6  -1  -4    0.12    0.20
   6  -1  -4    0.32    0.22
   6  -1  -4   -0.10    0.16
  -6   1   4    0.30    0.14
  -6   1   4    0.16    0.16
  -6   1   4    0.34    0.14
   5  -1  -4   23.74    0.83
   5  -1  -4   24.00    0.73
   5  -1  -4   21.88    0.83
  -5   1   4   24.11    0.66
  -5   1   4   23.19    0.69
  -5   1   4   25.96    0.70
   4  -1  -4    0.28    0.17
   4  -1  -4    0.11    0.09
   4  -1  -4    0.18    0.13
   4  -1  -4   -0.02    0.11
  -4   1   4    0.07    0.08
  -4   1   4    0.11    0.09
  -4   1   4    0.14    0.10
   3  -1  -4   89.88    2.05
   3  -1  -4   88.32    2.13
   3  -1  -4   87.25    2.11
   3  -1  -4   87.59    2.15
   3  -1  -4   87.15    2.18
  -3   1   4   86.45    2.08
  -3   1   4   92.44    2.06
  -3   1   4   86.68    2.08
  -3   1   4   92.29    2.05
   2  -1  -4    1.39    0.18
   2  -1  -4    1.14    0.12
   2  -1  -4    1.27    0.15
   2  -1  -4    1.54    0.13
   2  -1  -4    1.41    0.14
   2  -1  -4    1.60    0.10
  -2   1   4    1.45    0.09
  -2   1   4    1.30    0.10
  -2   1   4    1.67    0.19
  -2   1   4    1.26    0.08
  -2   1   4    1.28    0.11
   1  -1  -4  177.39    3.89
   1  -1  -4  174.97    3.88
   1  -1  -4  174.63    3.86
   1  -1  -4  160.42    3.94
  -1   1   4  175.96    3.88
  -1   1   4  173.94    3.89
  -1   1   4  162.54    3.97
  -1   1   4  172.95    3.88
   0  -1  -4    4.11    0.18
   0  -1  -4    4.25    0.13
   0  -1  -4    4.19    0.17
   0  -1  -4    4.18    0.14
   0  -1  -4    4.06    0.17
   0  -1  -4    4.32    0.17
   0  -1  -4    4.20    0.12
   0   1   4    4.26    0.14
   0   1   4    4.22    0.17
   0   1   4    4.08    0.14
  -1  -1  -4   67.57    1.59
  -1  -1  -4   68.19    1.58
  -1  -1  -4   69.04    1.60
  -1  -1  -4   69.68    1.58
  -1  -1  -4   67.85    1.59
   1   1   4   67.20    1.58
   1   1   4   68.15    1.58
   1   1   4   66.95    1.58
  -2  -1  -4    3.60    0.14
  -2  -1  -4    3.75    0.16
  -2  -1  -4    3.69    0.15
  -2  -1  -4    3.87    0.17
   2   1   4    3.85    0.15
   2   1   4    3.71    0.15
  -3  -1  -4   93.46    2.06
  -3  -1  -4   88.18    2.10
  -3  -1  -4   92.29    2.11
  -3  -1  -4   90.22    2.12
   3   1   4   90.81    2.10
   3   1   4   83.94    2.12
  -4  -1  -4    2.40    0.19
  -4  -1  -4    2.31    0.16
  -4  -1  -4    2.18    0.15
   4   1   4    2.03    0.15
   4   1   4    2.38    0.16
   4   1   4    2.41    0.16
  -5  -1  -4   52.91    1.36
  -5  -1  -4   53.33    1.37
   5   1   4   53.05    1.34
   5   1   4   53.84    1.38
   5   1   4   55.14    1.34
  -6  -1  -4    0.77    0.18
  -6  -1  -4    0.64    0.13
  -6  -1  -4    0.78    0.14
   6   1   4    0.78    0.15
   6   1   4    0.66    0.09
   6   1   4    0.76    0.17
   6   1   4    0.70    0.14
  -7  -1  -4   14.34    0.53
  -7  -1  -4   14.27    0.53
   7   1   4   14.70    0.65
   7   1   4   14.28    0.53
   7   1   4   14.78    0.66
   7   1   4   15.38    0.59
  -8  -1  -4   -0.08    0.15
  -8  -1  -4   -0.01    0.16
  -8  -1  -4    0.13    0.23
   8   1   4    0.09    0.20
   8   1   4    0.01    0.17
   8   1   4    0.09    0.26
  -9  -1  -4    4.38    0.44
  -9  -1  -4    4.99    0.43
  -9  -1  -4    5.52    0.44
   9   1   4    4.69    0.45
   9   1   4    4.00    0.53
   9   1   4    4.47    0.48
 -10  -1  -4   -0.25    0.28
 -10  -1  -4    0.33    0.27
 -10  -1  -4   -0.39    0.25
  10   1   4   -0.09    0.34
  10   1   4   -0.14    0.27
  10   1   4    0.08    0.29
   8  -2  -4    5.18    0.55
   8  -2  -4    4.79    0.53
   8  -2  -4    4.99    0.56
  -8   2   4    3.65    0.44
  -8   2   4    3.97    0.36
   7  -2  -4    0.95    0.27
   7  -2  -4    0.85    0.29
   7  -2  -4    0.66    0.27
  -7   2   4    0.50    0.17
  -7   2   4    0.95    0.18
   6  -2  -4    5.10    0.33
   6  -2  -4    5.02    0.40
   6  -2  -4    4.85    0.50
  -6   2   4    5.33    0.28
  -6   2   4    5.30    0.30
  -6   2   4    5.91    0.35
   5  -2  -4    0.19    0.16
   5  -2  -4    0.29    0.17
   5  -2  -4    0.27    0.13
   5  -2  -4    0.26    0.18
   5  -2  -4    0.27    0.14
  -5   2   4    0.34    0.11
  -5   2   4    0.34    0.12
  -5   2   4    0.50    0.12
  -5   2   4    0.37    0.12
   4  -2  -4   54.93    1.48
   4  -2  -4   53.66    1.53
   4  -2  -4   56.47    1.58
   4  -2  -4   58.59    1.39
   4  -2  -4   56.87    1.45
  -4   2   4   59.67    1.39
  -4   2   4   59.53    1.38
  -4   2   4   56.53    1.38
  -4   2   4   59.08    1.37
   3  -2  -4    0.42    0.10
   3  -2  -4    0.66    0.13
   3  -2  -4    0.60    0.17
   3  -2  -4    0.44    0.11
  -3   2   4    0.52    0.08
  -3   2   4    0.62    0.08
  -3   2   4    0.53    0.07
  -3   2   4    0.62    0.09
   2  -2  -4  207.47    4.81
   2  -2  -4  207.64    4.82
   2  -2  -4  205.43    4.78
   2  -2  -4  209.10    4.85
   2  -2  -4  212.60    4.76
  -2   2   4  199.29    4.73
  -2   2   4  217.93    4.72
  -2   2   4  215.99    4.74
  -2   2   4  212.39    4.74
   1  -2  -4    0.16    0.09
   1  -2  -4    0.25    0.07
   1  -2  -4    0.18    0.09
   1  -2  -4    0.14    0.08
   1  -2  -4    0.21    0.06
  -1   2   4    0.20    0.04
  -1   2   4    0.35    0.05
  -1   2   4    0.21    0.04
  -1   2   4    0.23    0.10
   0  -2  -4   47.91    1.16
   0  -2  -4   48.20    1.16
   0  -2  -4   46.54    1.10
   0  -2  -4   47.94    1.15
   0  -2  -4   47.49    1.16
   0  -2  -4   47.90    1.11
   0  -2  -4   48.53    1.11
   0   2   4   47.39    1.11
   0   2   4   47.31    1.11
   0   2   4   47.96    1.14
   0   2   4   49.07    1.11
  -1  -2  -4   44.53    1.09
  -1  -2  -4   45.00    1.10
  -1  -2  -4   43.70    1.07
  -1  -2  -4   47.30    1.06
  -1  -2  -4   45.14    1.12
   1   2   4   46.76    1.07
   1   2   4   44.53    1.07
   1   2   4   46.20    1.07
  -2  -2  -4  230.23    5.39
  -2  -2  -4  235.03    5.43
  -2  -2  -4  241.83    5.39
  -2  -2  -4  237.15    5.39
   2   2   4  244.43    5.37
   2   2   4  239.72    5.39
   2   2   4  237.16    5.39
  -3  -2  -4    1.62    0.12
  -3  -2  -4    1.57    0.14
  -3  -2  -4    1.42    0.19
  -3  -2  -4    1.58    0.13
   3   2   4    1.73    0.13
   3   2   4    1.63    0.12
   3   2   4    1.75    0.13
  -4  -2  -4  107.42    2.55
  -4  -2  -4  109.42    2.58
  -4  -2  -4  105.82    2.54
   4   2   4  112.00    2.54
   4   2   4  107.09    2.54
  -5  -2  -4    1.12    0.15
  -5  -2  -4    0.88    0.14
  -5  -2  -4    0.94    0.16
   5   2   4    0.84    0.14
   5   2   4    1.05    0.14
   5   2   4    1.18    0.15
  -6  -2  -4   11.39    0.44
  -6  -2  -4   12.28    0.45
  -6  -2  -4   11.80    0.48
   6   2   4   12.66    0.45
   6   2   4   12.20    0.47
   6   2   4   12.29    0.45
   6   2   4   12.31    0.37
  -7  -2  -4    1.23    0.25
  -7  -2  -4    1.60    0.22
  -7  -2  -4    1.60    0.21
   7   2   4    1.81    0.25
   7   2   4    1.52    0.23
   7   2   4    2.06    0.26
   7   2   4    1.82    0.20
  -8  -2  -4   13.11    0.56
  -8  -2  -4   13.06    0.54
   8   2   4   13.34    0.60
   8   2   4   12.84    0.66
  -9  -2  -4   -0.10    0.21
  -9  -2  -4   -0.16    0.23
  -9  -2  -4   -0.30    0.28
   9   2   4   -0.25    0.24
   9   2   4    0.03    0.30
   9   2   4    0.18    0.29
 -10  -2  -4    2.89    0.38
 -10  -2  -4    2.59    0.40
 -10  -2  -4    2.93    0.39
  10   2   4    3.19    0.46
  10   2   4    1.87    0.40
  10   2   4    2.53    0.39
   8  -3  -4    0.39    0.31
   8  -3  -4   -0.31    0.37
   8  -3  -4    0.25    0.29
  -8   3   4    0.34    0.33
  -8   3   4    0.14    0.19
   7  -3  -4    6.81    0.52
   7  -3  -4    7.57    0.57
  -7   3   4    6.18    0.35
  -7   3   4    6.43    0.37
   6  -3  -4    0.65    0.18
   6  -3  -4    0.55    0.22
   6  -3  -4    0.13    0.25
   6  -3  -4    0.25    0.25
  -6   3   4    0.73    0.16
  -6   3   4    0.53    0.14
   5  -3  -4   23.03    0.70
   5  -3  -4   20.55    0.97
   5  -3  -4   23.30    0.67
   5  -3  -4   22.82    0.77
   5  -3  -4   23.06    0.74
  -5   3   4   23.64    0.65
  -5   3   4   23.51    0.63
  -5   3   4   23.81    0.64
   4  -3  -4    0.62    0.19
   4  -3  -4    0.63    0.15
   4  -3  -4    0.91    0.16
   4  -3  -4    0.46    0.12
   4  -3  -4    0.69    0.16
  -4   3   4    0.63    0.09
  -4   3   4    0.64    0.11
  -4   3   4    0.80    0.11
  -4   3   4    0.67    0.09
   3  -3  -4   27.42    0.84
   3  -3  -4   28.32    0.78
   3  -3  -4   28.46    0.78
   3  -3  -4   28.22    0.80
   3  -3  -4   28.38    0.74
  -3   3   4   28.57    0.69
  -3   3   4   29.65    0.72
   2  -3  -4    0.04    0.09
   2  -3  -4    0.26    0.12
   2  -3  -4    0.32    0.08
   2  -3  -4    0.20    0.11
   2  -3  -4    0.13    0.08
   1  -3  -4  177.74    4.08
   1  -3  -4  172.71    4.09
   1  -3  -4  183.35    4.06
   1  -3  -4  183.50    4.09
   1  -3  -4  174.32    4.06
  -1   3   4  175.13    4.07
   0  -3  -4    2.59    0.15
   0  -3  -4    2.57    0.16
   0  -3  -4    2.59    0.12
   0  -3  -4    2.44    0.15
   0   3   4    2.53    0.10
   0   3   4    2.50    0.09
   0   3   4    2.39    0.10
   0   3   4    2.62    0.12
  -1  -3  -4  327.67    7.63
  -1  -3  -4  336.07    7.61
  -1  -3  -4  328.06    7.67
  -1  -3  -4  347.27    7.72
  -1  -3  -4  326.21    7.60
  -1  -3  -4  333.11    7.61
   1   3   4  334.62    7.73
   1   3   4  355.06    7.62
   1   3   4  340.30    7.59
  -2  -3  -4    5.61    0.23
  -2  -3  -4    5.14    0.32
  -2  -3  -4    5.70    0.22
  -2  -3  -4    5.58    0.21
  -2  -3  -4    5.19    0.26
   2   3   4    5.82    0.17
   2   3   4    5.63    0.20
   2   3   4    5.33    0.20
  -3  -3  -4   74.57    1.81
  -3  -3  -4   76.79    1.86
  -3  -3  -4   79.77    1.80
  -3  -3  -4   72.64    1.80
   3   3   4   75.09    1.80
  -4  -3  -4    1.10    0.14
  -4  -3  -4    0.75    0.12
  -4  -3  -4    1.06    0.17
   4   3   4    0.95    0.12
   4   3   4    0.93    0.12
  -5  -3  -4   77.46    1.90
  -5  -3  -4   77.76    1.94
  -5  -3  -4   75.86    1.90
   5   3   4   78.58    1.90
   5   3   4   79.53    1.89
  -6  -3  -4   -0.08    0.11
  -6  -3  -4   -0.03    0.12
  -6  -3  -4    0.15    0.16
   6   3   4   -0.15    0.11
   6   3   4   -0.02    0.12
   6   3   4    0.22    0.14
   6   3   4    0.13    0.11
  -7  -3  -4   27.28    0.86
  -7  -3  -4   28.93    0.87
  -7  -3  -4   26.20    0.93
   7   3   4   29.14    0.88
   7   3   4   28.24    0.86
   7   3   4   29.16    0.88
  -8  -3  -4    0.13    0.18
   8   3   4    0.21    0.19
   8   3   4   -0.18    0.24
  -9  -3  -4    3.84    0.45
  -9  -3  -4    3.53    0.47
  -9  -3  -4    3.44    0.44
   9   3   4    2.63    0.34
   9   3   4    2.54    0.44
   9   3   4    2.73    0.36
 -10  -3  -4    0.29    0.30
 -10  -3  -4    0.00    0.27
 -10  -3  -4    0.44    0.29
  10   3   4    0.07    0.33
  10   3   4    0.27    0.27
  10   3   4    0.21    0.28
   8  -4  -4    2.58    0.46
   8  -4  -4    1.87    0.40
  -8   4   4    2.30    0.28
  -8   4   4    2.37    0.33
   7  -4  -4    0.72    0.28
   7  -4  -4    0.21    0.30
   7  -4  -4    0.71    0.28
  -7   4   4    0.50    0.19
  -7   4   4    0.15    0.16
   6  -4  -4    8.66    0.41
   6  -4  -4    8.96    0.60
   6  -4  -4    8.17    0.43
   6  -4  -4    8.73    0.58
  -6   4   4    8.56    0.34
  -6   4   4    7.80    0.36
   5  -4  -4    1.85    0.27
   5  -4  -4    1.69    0.24
   5  -4  -4    2.12    0.27
   5  -4  -4    1.78    0.31
   5  -4  -4    1.47    0.20
  -5   4   4    1.80    0.13
  -5   4   4    1.34    0.16
  -5   4   4    1.68    0.18
   4  -4  -4   21.70    0.64
   4  -4  -4   21.86    0.69
   4  -4  -4   21.73    0.66
   4  -4  -4   21.61    0.77
   4  -4  -4   21.92    0.69
  -4   4   4   22.14    0.61
  -4   4   4   22.15    0.54
   3  -4  -4    0.00    0.11
   3  -4  -4    0.07    0.09
   3  -4  -4   -0.13    0.09
   3  -4  -4    0.06    0.12
   3  -4  -4   -0.02    0.09
   2  -4  -4   81.27    1.97
   2  -4  -4   84.68    2.11
   2  -4  -4   80.08    1.97
   2  -4  -4   79.95    2.00
   2  -4  -4   84.19    1.98
   1  -4  -4   10.74    0.35
   1  -4  -4   10.54    0.36
   1  -4  -4   11.02    0.35
   1  -4  -4   11.01    0.34
   1  -4  -4   10.29    0.36
   0  -4  -4  126.19    2.90
   0  -4  -4  126.50    2.88
   0  -4  -4  123.48    2.90
   0  -4  -4  125.95    2.90
   0  -4  -4  125.99    2.88
   0   4   4  126.26    2.84
   0   4   4  117.40    2.83
   0   4   4  121.98    2.85
   0   4   4  129.53    2.83
  -1  -4  -4    0.03    0.08
  -1  -4  -4   -0.03    0.06
  -1  -4  -4    0.08    0.06
  -1  -4  -4    0.07    0.09
  -1  -4  -4    0.10    0.09
   1   4   4    0.07    0.05
   1   4   4    0.14    0.05
  -2  -4  -4  197.12    4.40
  -2  -4  -4  194.22    4.40
  -2  -4  -4  186.51    4.40
  -2  -4  -4  188.18    4.43
  -2  -4  -4  191.92    4.43
   2   4   4  193.53    4.37
   2   4   4  190.84    4.37
  -3  -4  -4    1.94    0.18
  -3  -4  -4    2.47    0.23
  -3  -4  -4    2.09    0.22
  -3  -4  -4    1.81    0.17
  -3  -4  -4    2.12    0.16
   3   4   4    1.98    0.15
   3   4   4    2.04    0.15
  -4  -4  -4   88.98    2.11
  -4  -4  -4   88.55    2.16
  -4  -4  -4   85.28    2.10
   4   4   4   87.62    2.05
   4   4   4   86.32    2.08
   4   4   4   86.37    2.09
  -5  -4  -4   -0.09    0.10
  -5  -4  -4   -0.21    0.13
  -5  -4  -4   -0.09    0.10
   5   4   4    0.01    0.10
   5   4   4   -0.03    0.09
   5   4   4    0.03    0.09
   5   4   4    0.16    0.11
  -6  -4  -4   39.20    1.10
  -6  -4  -4   38.80    1.10
  -6  -4  -4   39.59    1.15
   6   4   4   39.97    1.03
   6   4   4   39.31    1.06
   6   4   4   40.71    1.09
  -7  -4  -4    0.27    0.19
  -7  -4  -4    0.47    0.18
   7   4   4    0.22    0.17
   7   4   4    0.22    0.16
   7   4   4   -0.05    0.20
   7   4   4    0.42    0.17
  -8  -4  -4   13.95    0.61
   8   4   4   14.46    0.62
   8   4   4   14.25    0.60
   8   4   4   14.54    0.51
   8   4   4   13.26    0.78
  -9  -4  -4   -0.08    0.25
  -9  -4  -4   -0.17    0.25
  -9  -4  -4   -0.13    0.25
   9   4   4    0.05    0.23
   9   4   4    0.12    0.30
 -10  -4  -4    3.51    0.49
 -10  -4  -4    2.78    0.44
 -10  -4  -4    2.88    0.42
  10   4   4    3.30    0.49
  10   4   4    4.07    0.45
  10   4   4    3.81    0.49
   7  -5  -4    3.53    0.46
   7  -5  -4    3.01    0.43
   7  -5  -4    3.35    0.48
   7  -5  -4    4.35    0.49
  -7   5   4    3.77    0.37
  -7   5   4    3.68    0.29
   6  -5  -4    0.13    0.29
   6  -5  -4    0.21    0.28
   6  -5  -4    0.23    0.21
   6  -5  -4   -0.08    0.19
   6  -5  -4    0.05    0.19
  -6   5   4    0.27    0.17
  -6   5   4   -0.04    0.20
   5  -5  -4   28.06    0.82
   5  -5  -4   29.25    0.90
   5  -5  -4   27.71    0.99
   5  -5  -4   27.16    1.01
   5  -5  -4   27.86    0.83
  -5   5   4   27.18    0.70
  -5   5   4   28.26    0.77
  -5   5   4   26.41    0.70
  -5   5   4   28.75    0.79
   4  -5  -4    3.14    0.26
   4  -5  -4    2.95    0.25
   4  -5  -4    2.66    0.26
   4  -5  -4    3.49    0.36
   4  -5  -4    2.70    0.33
  -4   5   4    3.53    0.20
   3  -5  -4   25.91    0.73
   3  -5  -4   25.63    0.75
   3  -5  -4   26.49    0.75
   3  -5  -4   25.52    0.75
   3  -5  -4   25.77    0.81
   2  -5  -4    0.38    0.11
   2  -5  -4    0.02    0.10
   2  -5  -4    0.18    0.09
   2  -5  -4    0.17    0.12
   2  -5  -4    0.16    0.10
   1  -5  -4   57.70    1.42
   1  -5  -4   58.19    1.47
   1  -5  -4   59.06    1.43
   1  -5  -4   58.16    1.43
   1  -5  -4   57.50    1.43
   0  -5  -4    3.74    0.20
   0  -5  -4    3.52    0.20
   0  -5  -4    3.81    0.18
   0  -5  -4    3.75    0.19
   0  -5  -4    3.57    0.18
   0   5   4    3.85    0.15
   0   5   4    3.87    0.13
   0   5   4    3.78    0.15
   0   5   4    3.69    0.14
  -1  -5  -4  217.31    5.06
  -1  -5  -4  220.85    5.05
  -1  -5  -4  218.25    5.03
  -1  -5  -4  223.51    4.97
  -1  -5  -4  220.34    5.04
   1   5   4  217.30    4.99
   1   5   4  221.48    5.04
   1   5   4  222.47    5.00
  -2  -5  -4   19.55    0.59
  -2  -5  -4   18.76    0.58
  -2  -5  -4   18.88    0.55
  -2  -5  -4   19.34    0.56
  -2  -5  -4   19.51    0.56
   2   5   4   19.74    0.53
   2   5   4   19.43    0.53
  -3  -5  -4   36.31    0.97
  -3  -5  -4   34.59    1.00
  -3  -5  -4   37.94    0.97
  -3  -5  -4   36.05    0.98
   3   5   4   36.27    0.93
   3   5   4   35.75    0.93
  -4  -5  -4    1.34    0.18
  -4  -5  -4    1.03    0.18
  -4  -5  -4    1.43    0.19
  -4  -5  -4    1.54    0.19
   4   5   4    1.21    0.15
   4   5   4    1.59    0.17
   4   5   4    1.18    0.15
   4   5   4    1.22    0.13
  -5  -5  -4   46.86    1.30
  -5  -5  -4   45.56    1.26
  -5  -5  -4   47.01    1.26
   5   5   4   46.48    1.21
   5   5   4   49.48    1.25
   5   5   4   47.56    1.25
   5   5   4   47.50    1.18
  -6  -5  -4   -0.06    0.14
  -6  -5  -4   -0.09    0.17
  -6  -5  -4   -0.18    0.13
   6   5   4    0.06    0.12
   6   5   4    0.01    0.15
   6   5   4    0.13    0.15
   6   5   4   -0.16    0.13
  -7  -5  -4   36.88    1.15
  -7  -5  -4   38.66    1.14
  -7  -5  -4   38.76    1.13
   7   5   4   37.09    1.03
   7   5   4   35.65    1.12
   7   5   4   37.31    1.10
   7   5   4   38.32    1.06
  -8  -5  -4    0.26    0.21
  -8  -5  -4    0.35    0.22
  -8  -5  -4    0.07    0.25
   8   5   4    0.26    0.18
   8   5   4    0.32    0.23
   8   5   4    0.30    0.27
   8   5   4    0.20    0.22
  -9  -5  -4    3.36    0.45
  -9  -5  -4    3.39    0.42
  -9  -5  -4    3.28    0.42
   9   5   4    3.70    0.43
   9   5   4    4.07    0.44
   9   5   4    3.69    0.51
 -10  -5  -4    0.05    0.31
 -10  -5  -4   -0.16    0.29
 -10  -5  -4    0.18    0.29
  10   5   4    0.17    0.32
  10   5   4   -0.20    0.24
  10   5   4   -0.03    0.28
   7  -6  -4    0.49    0.38
   7  -6  -4    0.15    0.30
   7  -6  -4   -0.19    0.37
   7  -6  -4   -0.35    0.27
  -7   6   4    0.10    0.14
  -7   6   4    0.31    0.22
   6  -6  -4    6.85    0.50
   6  -6  -4    6.19    0.50
   6  -6  -4    6.99    0.50
   6  -6  -4    6.97    0.61
   6  -6  -4    7.21    0.49
  -6   6   4    6.85    0.29
  -6   6   4    7.18    0.43
   5  -6  -4    0.29    0.31
   5  -6  -4    0.16    0.18
   5  -6  -4    0.15    0.34
   5  -6  -4    0.27    0.21
  -5   6   4    0.06    0.07
  -5   6   4    0.16    0.24
  -5   6   4    0.08    0.14
   4  -6  -4   25.31    0.78
   4  -6  -4   25.36    0.88
   4  -6  -4   25.20    0.77
   4  -6  -4   24.64    0.94
   4  -6  -4   25.82    0.79
  -4   6   4   26.77    0.74
  -4   6   4   25.82    0.75
   3  -6  -4    0.00    0.12
   3  -6  -4    0.04    0.13
   3  -6  -4    0.02    0.13
   3  -6  -4   -0.09    0.15
   3  -6  -4    0.06    0.14
  -3   6   4   -0.18    0.11
   2  -6  -4   78.35    1.90
   2  -6  -4   74.99    1.91
   2  -6  -4   78.79    1.90
   2  -6  -4   77.36    1.88
   2  -6  -4   76.01    1.88
   1  -6  -4    1.26    0.15
   1  -6  -4    0.90    0.13
   1  -6  -4    1.19    0.16
   1  -6  -4    1.16    0.15
   1  -6  -4    0.87    0.13
  -1   6   4    1.01    0.10
  -1   6   4    1.13    0.07
  -1   6   4    1.14    0.08
   0  -6  -4   50.53    1.29
   0  -6  -4   51.52    1.26
   0  -6  -4   49.75    1.29
   0  -6  -4   51.66    1.23
   0  -6  -4   51.20    1.27
   0   6   4   51.24    1.22
   0   6   4   50.73    1.21
   0   6   4   51.00    1.21
  -1  -6  -4    2.15    0.19
  -1  -6  -4    2.22    0.17
  -1  -6  -4    2.30    0.17
  -1  -6  -4    2.41    0.11
  -1  -6  -4    2.42    0.19
   1   6   4    2.21    0.14
   1   6   4    2.41    0.14
   1   6   4    2.78    0.22
  -2  -6  -4   91.07    2.13
  -2  -6  -4   92.34    2.18
  -2  -6  -4   89.00    2.19
  -2  -6  -4   91.88    2.19
  -2  -6  -4   91.78    2.17
   2   6   4   87.92    2.14
   2   6   4   88.00    2.13
  -3  -6  -4    1.14    0.16
  -3  -6  -4    1.19    0.17
  -3  -6  -4    1.37    0.19
  -3  -6  -4    1.25    0.17
   3   6   4    0.99    0.14
   3   6   4    0.96    0.13
   3   6   4    1.28    0.17
  -4  -6  -4   72.74    1.84
  -4  -6  -4   71.69    1.83
  -4  -6  -4   75.46    1.84
  -4  -6  -4   72.81    1.88
   4   6   4   72.30    1.82
   4   6   4   74.29    1.72
   4   6   4   73.19    1.81
   4   6   4   74.02    1.82
  -5  -6  -4    1.78    0.22
  -5  -6  -4    1.56    0.22
  -5  -6  -4    2.04    0.24
  -5  -6  -4    1.75    0.25
   5   6   4    2.04    0.23
   5   6   4    1.76    0.23
   5   6   4    1.66    0.23
  -6  -6  -4   20.85    0.77
  -6  -6  -4   22.05    0.76
  -6  -6  -4   21.45    0.74
  -6  -6  -4   23.13    0.74
   6   6   4   22.38    0.74
   6   6   4   22.31    0.75
   6   6   4   21.99    0.70
   6   6   4   22.90    0.66
  -7  -6  -4    0.92    0.26
  -7  -6  -4    0.33    0.19
  -7  -6  -4    0.58    0.21
   7   6   4    0.45    0.21
   7   6   4    0.83    0.24
   7   6   4    0.72    0.17
   7   6   4    0.64    0.21
  -8  -6  -4    7.51    0.67
  -8  -6  -4    7.17    0.51
  -8  -6  -4    8.28    0.53
   8   6   4    9.16    0.57
   8   6   4    7.96    0.43
   8   6   4    8.65    0.52
   8   6   4    8.61    0.46
  -9  -6  -4   -0.14    0.25
  -9  -6  -4   -0.31    0.30
  -9  -6  -4   -0.22    0.25
   9   6   4    0.20    0.30
   9   6   4   -0.05    0.24
   9   6   4   -0.13    0.22
 -10  -6  -4    3.39    0.45
 -10  -6  -4    3.42    0.47
 -10  -6  -4    3.93    0.52
  10   6   4    3.84    0.47
  10   6   4    3.70    0.52
  10   6   4    3.12    0.48
   6  -7  -4    0.51    0.25
   6  -7  -4   -0.09    0.25
   6  -7  -4    0.35    0.34
   6  -7  -4   -0.06    0.22
   6  -7  -4   -0.47    0.27
  -6   7   4    0.07    0.11
  -6   7   4    0.55    0.21
   5  -7  -4   11.71    0.55
   5  -7  -4   11.87    0.57
   5  -7  -4   10.47    0.50
   5  -7  -4   11.37    0.52
   5  -7  -4   11.23    0.68
  -5   7   4   11.45    0.47
  -5   7   4   10.85    0.32
   4  -7  -4    0.36    0.19
   4  -7  -4    0.23    0.17
   4  -7  -4    0.19    0.16
   4  -7  -4    0.27    0.18
  -4   7   4    0.48    0.18
   3  -7  -4   32.92    0.95
   3  -7  -4   33.57    1.00
   3  -7  -4   34.22    0.94
   3  -7  -4   33.28    0.97
   3  -7  -4   32.83    0.95
  -3   7   4   34.71    0.97
   2  -7  -4    0.69    0.14
   2  -7  -4    0.78    0.16
   2  -7  -4    0.73    0.15
   2  -7  -4    0.75    0.16
   2  -7  -4    0.49    0.15
  -2   7   4    0.79    0.17
   1  -7  -4   38.89    1.05
   1  -7  -4   39.45    1.01
   1  -7  -4   37.72    1.04
   1  -7  -4   38.90    1.04
   1  -7  -4   38.41    1.00
  -1   7   4   38.14    0.95
  -1   7   4   40.18    0.94
  -1   7   4   38.64    0.97
  -1   7   4   38.62    1.06
   0  -7  -4    4.60    0.27
   0  -7  -4    5.05    0.21
   0  -7  -4    4.25    0.26
   0  -7  -4    4.97    0.24
   0  -7  -4    4.58    0.25
   0   7   4    4.84    0.22
   0   7   4    4.96    0.20
   0   7   4    4.67    0.28
   0   7   4    4.79    0.21
  -1  -7  -4  107.44    2.38
  -1  -7  -4  103.72    2.50
  -1  -7  -4  104.97    2.52
  -1  -7  -4  104.62    2.52
   1   7   4  104.26    2.46
   1   7   4  102.81    2.53
   1   7   4  104.09    2.46
  -2  -7  -4    1.10    0.18
  -2  -7  -4    1.04    0.16
  -2  -7  -4    1.23    0.14
  -2  -7  -4    0.82    0.13
   2   7   4    0.88    0.12
   2   7   4    1.14    0.17
   2   7   4    1.03    0.14
  -3  -7  -4   81.58    1.93
  -3  -7  -4   80.02    1.99
  -3  -7  -4   76.38    1.92
  -3  -7  -4   80.78    1.97
  -3  -7  -4   77.74    1.96
   3   7   4   77.20    1.96
   3   7   4   77.26    1.93
   3   7   4   78.97    1.96
  -4  -7  -4    0.94    0.18
  -4  -7  -4    0.75    0.18
  -4  -7  -4    1.01    0.18
  -4  -7  -4    1.02    0.14
  -4  -7  -4    0.54    0.19
   4   7   4    0.72    0.17
   4   7   4    0.73    0.16
   4   7   4    0.79    0.16
   4   7   4    0.81    0.11
  -5  -7  -4   29.09    0.93
  -5  -7  -4   28.48    0.89
  -5  -7  -4   28.72    0.90
  -5  -7  -4   29.72    0.88
   5   7   4   29.00    0.88
   5   7   4   30.81    0.90
   5   7   4   29.90    0.76
   5   7   4   29.74    0.90
  -6  -7  -4   -0.11    0.17
  -6  -7  -4    0.01    0.25
  -6  -7  -4   -0.19    0.15
  -6  -7  -4   -0.16    0.14
   6   7   4   -0.02    0.17
   6   7   4    0.09    0.17
   6   7   4   -0.21    0.17
   6   7   4   -0.05    0.12
  -7  -7  -4   12.63    0.68
  -7  -7  -4   12.89    0.54
  -7  -7  -4   13.13    0.59
  -7  -7  -4   13.58    0.62
   7   7   4   13.21    0.48
   7   7   4   13.29    0.61
   7   7   4   14.13    0.64
   7   7   4   14.00    0.57
  -8  -7  -4    0.45    0.21
  -8  -7  -4    0.88    0.25
  -8  -7  -4    0.39    0.23
  -8  -7  -4    0.94    0.27
   8   7   4    0.44    0.23
   8   7   4    0.98    0.20
   8   7   4    0.81    0.30
   8   7   4    0.60    0.25
  -9  -7  -4    3.55    0.43
  -9  -7  -4    4.31    0.74
  -9  -7  -4    3.15    0.44
   9   7   4    3.95    0.43
   9   7   4    3.72    0.41
   9   7   4    2.66    0.44
   9   7   4    4.08    0.44
 -10  -7  -4   -0.33    0.29
 -10  -7  -4    0.12    0.36
 -10  -7  -4    0.13    0.26
 -10  -7  -4   -0.04    0.27
  10   7   4    0.06    0.25
  10   7   4    0.44    0.35
  10   7   4    0.10    0.33
   6  -8  -4    3.30    0.51
   6  -8  -4    3.21    0.46
   6  -8  -4    2.84    0.38
   6  -8  -4    3.41    0.42
   6  -8  -4    3.84    0.49
  -6   8   4    2.85    0.35
   5  -8  -4    0.12    0.22
   5  -8  -4   -0.14    0.23
   5  -8  -4   -0.23    0.19
   5  -8  -4   -0.38    0.22
   5  -8  -4    0.38    0.35
  -5   8   4    0.35    0.19
   4  -8  -4    4.86    0.36
   4  -8  -4    5.14    0.42
   4  -8  -4    5.65    0.35
   4  -8  -4    6.18    0.48
   4  -8  -4    5.90    0.42
  -4   8   4    5.22    0.45
  -4   8   4    5.37    0.19
   3  -8  -4    0.08    0.15
   3  -8  -4    0.01    0.15
   3  -8  -4   -0.05    0.15
   3  -8  -4   -0.30    0.15
   3  -8  -4   -0.09    0.17
  -3   8   4    0.18    0.06
  -3   8   4    0.00    0.06
  -3   8   4    0.12    0.18
   2  -8  -4   44.20    1.21
   2  -8  -4   43.23    1.21
   2  -8  -4   44.06    1.16
   2  -8  -4   42.55    1.17
   2  -8  -4   41.95    1.32
  -2   8   4   45.92    1.24
  -2   8   4   44.41    1.08
  -2   8   4   45.39    1.06
   1  -8  -4    1.30    0.18
   1  -8  -4    1.08    0.20
   1  -8  -4    1.39    0.20
   1  -8  -4    0.99    0.15
   1  -8  -4    0.98    0.17
  -1   8   4    1.29    0.18
  -1   8   4    1.22    0.15
  -1   8   4    0.96    0.12
  -1   8   4    1.20    0.21
   0  -8  -4   45.70    1.21
   0  -8  -4   44.54    1.22
   0  -8  -4   44.40    1.20
   0  -8  -4   45.92    1.11
   0   8   4   45.14    1.13
   0   8   4   43.82    1.15
   0   8   4   45.88    1.16
   0   8   4   45.82    1.25
  -1  -8  -4    1.15    0.19
  -1  -8  -4    1.11    0.17
  -1  -8  -4    1.19    0.17
   1   8   4    1.16    0.16
   1   8   4    0.97    0.20
   1   8   4    1.00    0.25
  -2  -8  -4   51.03    1.34
  -2  -8  -4   50.30    1.36
  -2  -8  -4   51.45    1.36
  -2  -8  -4   52.52    1.26
   2   8   4   50.70    1.32
   2   8   4   51.90    1.33
   2   8   4   50.90    1.38
  -3  -8  -4    2.62    0.25
  -3  -8  -4    2.39    0.26
  -3  -8  -4    2.01    0.25
  -3  -8  -4    2.47    0.22
  -3  -8  -4    2.26    0.28
   3   8   4    1.95    0.23
   3   8   4    1.87    0.25
   3   8   4    2.05    0.23
  -4  -8  -4   61.26    1.68
  -4  -8  -4   63.48    1.62
  -4  -8  -4   62.45    1.63
  -4  -8  -4   64.69    1.62
   4   8   4   61.39    1.62
   4   8   4   63.36    1.64
   4   8   4   61.64    1.65
  -5  -8  -4    0.33    0.19
  -5  -8  -4    0.09    0.16
  -5  -8  -4    0.35    0.21
  -5  -8  -4    0.37    0.17
   5   8   4    0.40    0.18
   5   8   4    0.16    0.17
   5   8   4    0.36    0.10
   5   8   4    0.42    0.20
  -6  -8  -4   18.55    0.73
  -6  -8  -4   19.23    0.72
  -6  -8  -4   20.10    0.71
  -6  -8  -4   19.09    0.68
  -6  -8  -4   18.75    0.61
   6   8   4   18.57    0.61
   6   8   4   19.31    0.90
   6   8   4   19.82    0.72
   6   8   4   18.66    0.72
  -7  -8  -4   -0.19    0.17
  -7  -8  -4    0.09    0.22
  -7  -8  -4    0.04    0.23
  -7  -8  -4   -0.56    0.34
   7   8   4   -0.04    0.15
   7   8   4   -0.05    0.27
   7   8   4   -0.30    0.22
  -8  -8  -4    2.43    0.34
  -8  -8  -4    2.70    0.36
  -8  -8  -4    2.98    0.38
  -8  -8  -4    3.35    0.37
   8   8   4    3.29    0.41
   8   8   4    3.78    0.51
   8   8   4    3.52    0.35
   8   8   4    3.41    0.41
  -9  -8  -4   -0.66    0.26
  -9  -8  -4   -0.23    0.23
  -9  -8  -4   -0.08    0.23
   9   8   4    0.10    0.24
   9   8   4    0.29    0.24
   9   8   4   -0.23    0.29
   9   8   4    0.09    0.32
 -10  -8  -4    2.91    0.41
 -10  -8  -4    1.81    0.44
 -10  -8  -4    1.99    0.35
 -10  -8  -4    3.90    0.49
  10   8   4    1.87    0.33
  10   8   4    2.44    0.45
  10   8   4    2.78    0.45
   5  -9  -4    5.42    0.48
   5  -9  -4    5.20    0.49
   5  -9  -4    4.87    0.62
   5  -9  -4    4.19    0.61
  -5   9   4    4.58    0.22
  -5   9   4    4.66    0.38
   4  -9  -4   -0.21    0.20
   4  -9  -4    0.10    0.21
   4  -9  -4    0.29    0.29
   4  -9  -4    0.27    0.23
   4  -9  -4    0.00    0.23
  -4   9   4    0.21    0.09
  -4   9   4    0.50    0.25
   3  -9  -4   10.75    0.53
   3  -9  -4    9.93    0.50
   3  -9  -4   10.23    0.44
   3  -9  -4   11.42    0.66
   3  -9  -4   10.35    0.51
  -3   9   4   10.80    0.33
  -3   9   4    9.79    0.53
   2  -9  -4    1.10    0.22
   2  -9  -4    1.36    0.20
   2  -9  -4    1.30    0.23
   2  -9  -4    1.35    0.20
   2  -9  -4    1.09    0.20
  -2   9   4    1.44    0.24
  -2   9   4    1.35    0.25
   1  -9  -4   19.08    0.67
   1  -9  -4   18.96    0.58
   1  -9  -4   19.54    0.68
   1  -9  -4   19.56    0.60
  -1   9   4   20.33    0.72
  -1   9   4   20.62    0.60
  -1   9   4   18.61    0.58
   0  -9  -4   -0.10    0.11
   0  -9  -4    0.00    0.14
   0  -9  -4   -0.03    0.10
   0  -9  -4   -0.05    0.14
   0   9   4    0.20    0.15
   0   9   4   -0.04    0.12
   0   9   4   -0.20    0.15
  -1  -9  -4   39.51    1.13
  -1  -9  -4   40.19    1.12
   1   9   4   39.67    1.09
   1   9   4   40.28    1.17
   1   9   4   41.53    1.10
  -2  -9  -4   -0.13    0.12
  -2  -9  -4    0.03    0.14
  -2  -9  -4   -0.03    0.11
   2   9   4    0.29    0.22
   2   9   4   -0.09    0.16
   2   9   4    0.18    0.14
  -3  -9  -4   27.59    0.90
  -3  -9  -4   28.64    0.81
  -3  -9  -4   28.32    0.87
  -3  -9  -4   28.54    0.89
   3   9   4   29.91    0.88
   3   9   4   28.42    0.87
   3   9   4   26.72    0.93
  -4  -9  -4   -0.26    0.14
  -4  -9  -4    0.14    0.15
  -4  -9  -4   -0.01    0.17
  -4  -9  -4   -0.17    0.16
   4   9   4   -0.07    0.15
   4   9   4    0.11    0.15
  -5  -9  -4   22.96    0.79
  -5  -9  -4   20.53    0.80
  -5  -9  -4   21.83    0.74
  -5  -9  -4   20.97    0.69
  -5  -9  -4   20.76    0.79
   5   9   4   22.56    0.79
   5   9   4   22.19    0.77
   5   9   4   20.71    0.76
  -6  -9  -4    1.19    0.27
  -6  -9  -4    1.10    0.23
  -6  -9  -4    0.96    0.26
  -6  -9  -4    1.18    0.25
  -6  -9  -4    1.50    0.33
   6   9   4    0.33    0.22
   6   9   4    0.59    0.26
   6   9   4    0.93    0.24
  -7  -9  -4   12.70    0.66
  -7  -9  -4   12.47    0.54
  -7  -9  -4   11.01    0.59
  -7  -9  -4   12.11    0.54
  -7  -9  -4   11.72    0.60
   7   9   4   12.39    0.64
   7   9   4   12.96    0.65
   7   9   4   12.08    0.63
  -8  -9  -4    0.49    0.28
  -8  -9  -4    0.23    0.23
  -8  -9  -4   -0.05    0.22
  -8  -9  -4    0.25    0.30
   8   9   4   -0.39    0.43
   8   9   4   -0.04    0.22
   8   9   4    0.12    0.33
  -9  -9  -4    4.20    0.45
  -9  -9  -4    3.58    0.45
  -9  -9  -4    3.85    0.45
  -9  -9  -4    3.38    0.46
   9   9   4    3.26    0.45
   9   9   4    2.96    0.46
   9   9   4    3.40    0.45
   9   9   4    4.58    0.90
   4 -10  -4    5.54    0.60
   4 -10  -4    3.95    0.47
   4 -10  -4    4.23    0.44
   4 -10  -4    5.08    0.49
  -4  10   4    4.32    0.22
  -4  10   4    5.30    0.52
   3 -10  -4   -0.10    0.20
   3 -10  -4    0.23    0.19
   3 -10  -4    0.34    0.26
   3 -10  -4    0.07    0.20
   3 -10  -4    0.40    0.23
  -3  10   4    0.62    0.28
   2 -10  -4   11.32    0.46
   2 -10  -4   12.07    0.49
   2 -10  -4   11.20    0.53
   2 -10  -4   11.09    0.54
   2 -10  -4   11.22    0.54
  -2  10   4   10.83    0.48
  -2  10   4   11.70    0.61
   1 -10  -4    0.27    0.21
   1 -10  -4    0.40    0.17
   1 -10  -4    0.71    0.22
  -1  10   4    0.27    0.14
  -1  10   4    0.19    0.24
   0 -10  -4   19.75    0.69
   0 -10  -4   19.56    0.70
   0  10   4   20.03    0.75
   0  10   4   18.68    0.64
   0  10   4   19.03    0.63
  -1 -10  -4    3.40    0.32
  -1 -10  -4    3.22    0.31
   1  10   4    3.05    0.29
   1  10   4    3.14    0.36
   1  10   4    3.53    0.32
  -2 -10  -4   12.50    0.58
  -2 -10  -4   11.73    0.38
   2  10   4   11.80    0.50
   2  10   4   12.12    0.50
   2  10   4   11.89    0.57
  -3 -10  -4    0.14    0.15
  -3 -10  -4    0.41    0.19
   3  10   4    0.16    0.17
   3  10   4    0.23    0.22
   3  10   4    0.27    0.18
  -4 -10  -4   13.63    0.62
  -4 -10  -4   13.94    0.54
   4  10   4   14.66    0.71
   4  10   4   13.32    0.59
   4  10   4   14.37    0.60
  -5 -10  -4   -0.13    0.21
  -5 -10  -4   -0.19    0.18
  -5 -10  -4    0.19    0.25
  -5 -10  -4    0.37    0.29
   5  10   4    0.08    0.32
   5  10   4    0.03    0.19
   5  10   4   -0.21    0.19
  -6 -10  -4   19.19    0.74
  -6 -10  -4   18.06    0.76
  -6 -10  -4   19.22    0.71
   6  10   4   19.17    0.82
   6  10   4   19.27    0.80
   6  10   4   18.47    0.77
  -7 -10  -4   -0.09    0.31
  -7 -10  -4   -0.09    0.20
  -7 -10  -4   -0.07    0.33
  -7 -10  -4    0.47    0.28
  -7 -10  -4    0.13    0.22
   7  10   4   -0.24    0.28
   7  10   4    0.29    0.31
   7  10   4   -0.09    0.24
  -8 -10  -4    5.03    0.65
  -8 -10  -4    3.38    0.47
  -8 -10  -4    2.68    0.38
  -8 -10  -4    3.53    0.43
  -8 -10  -4    3.48    0.44
   8  10   4    3.20    0.42
   8  10   4    3.82    0.48
   8  10   4    2.51    0.41
  -9 -10  -4    0.37    0.27
  -9 -10  -4   -0.25    0.26
  -9 -10  -4    0.81    0.37
  -9 -10  -4   -0.21    0.27
   9  10   4    0.01    0.30
   9  10   4    0.58    0.68
   9  10   4    0.27    0.33
   9  10   4    0.39    0.37
   4 -11  -4    0.11    0.28
   4 -11  -4    0.25    0.28
   3 -11  -4    7.39    0.53
   3 -11  -4    7.31    0.51
   3 -11  -4    6.80    0.53
  -3  11   4    7.02    0.32
  -3  11   4    5.40    0.63
   2 -11  -4   -0.15    0.24
   2 -11  -4   -0.03    0.20
   2 -11  -4   -0.06    0.18
  -2  11   4    0.31    0.33
  -2  11   4    0.05    0.13
   1 -11  -4    8.57    0.51
   1 -11  -4    8.39    0.51
  -1  11   4    8.67    0.41
  -1  11   4   10.74    0.62
   0 -11  -4   -0.05    0.19
   0 -11  -4    0.12    0.17
   0  11   4    0.15    0.16
   0  11   4   -0.01    0.27
   0  11   4   -0.39    0.21
  -1 -11  -4   17.61    0.70
  -1 -11  -4   19.67    1.04
   1  11   4   16.65    0.64
   1  11   4   17.76    0.78
   1  11   4   17.95    0.64
  -2 -11  -4    1.01    0.14
   2  11   4    0.75    0.28
   2  11   4    0.76    0.21
   2  11   4    0.96    0.21
  -3 -11  -4   12.89    0.60
  -3 -11  -4   13.72    0.49
   3  11   4   13.16    0.59
   3  11   4   13.38    0.66
   3  11   4   13.75    0.58
  -4 -11  -4    0.94    0.25
  -4 -11  -4    0.86    0.24
  -4 -11  -4    1.03    0.28
  -4 -11  -4    0.82    0.26
   4  11   4    0.61    0.24
   4  11   4    1.00    0.31
   4  11   4    1.29    0.34
  -5 -11  -4    8.70    0.54
  -5 -11  -4    7.73    0.58
   5  11   4    8.50    0.65
   5  11   4    8.77    0.57
   5  11   4    9.02    0.54
  -6 -11  -4    0.00    0.22
  -6 -11  -4   -0.03    0.23
  -6 -11  -4   -0.29    0.28
  -6 -11  -4   -0.43    0.44
   6  11   4    0.37    0.28
   6  11   4    0.06    0.27
   6  11   4    0.10    0.23
  -7 -11  -4    5.53    0.49
  -7 -11  -4    5.17    0.45
  -7 -11  -4    6.44    0.46
   7  11   4    4.68    0.47
   7  11   4    5.94    0.56
   7  11   4    5.56    0.71
  -8 -11  -4    0.18    0.24
  -8 -11  -4   -0.17    0.25
  -8 -11  -4   -0.54    0.22
   8  11   4   -0.03    0.36
   8  11   4    0.37    0.35
   8  11   4    0.14    0.29
   2 -12  -4    7.57    0.56
   2 -12  -4    8.09    0.55
  -2  12   4    7.49    0.67
  -2  12   4    8.10    0.39
   1 -12  -4    0.26    0.21
   1 -12  -4    0.34    0.23
  -1  12   4    0.04    0.17
  -1  12   4   -0.12    0.33
   0 -12  -4   13.13    0.64
   0 -12  -4   13.40    0.63
   0  12   4   13.46    0.70
   0  12   4   12.55    0.56
  -1 -12  -4    0.65    0.22
  -1 -12  -4    0.70    0.23
   1  12   4    0.71    0.23
   1  12   4    0.42    0.18
   1  12   4   -0.04    0.27
  -2 -12  -4   15.03    0.67
  -2 -12  -4   15.02    0.67
   2  12   4   14.60    0.63
   2  12   4   16.46    0.65
   2  12   4   15.21    0.74
  -3 -12  -4    0.17    0.23
  -3 -12  -4    0.06    0.21
  -3 -12  -4    0.13    0.18
   3  12   4   -0.09    0.27
   3  12   4    0.16    0.18
  -4 -12  -4    8.65    0.53
  -4 -12  -4    8.50    0.49
  -4 -12  -4    8.72    0.58
   4  12   4    8.21    0.51
   4  12   4    9.17    0.56
   4  12   4    7.81    0.58
  -5 -12  -4   -0.05    0.21
  -5 -12  -4    0.41    0.26
  -5 -12  -4   -0.42    0.26
  -5 -12  -4   -0.18    0.23
   5  12   4   -0.05    0.22
   5  12   4   -0.20    0.23
   5  12   4    0.00    0.30
  -6 -12  -4    7.03    0.51
  -6 -12  -4    5.89    0.45
  -6 -12  -4    6.00    0.49
  -6 -12  -4    7.12    0.63
   6  12   4    6.91    0.56
   6  12   4    5.35    0.52
   6  12   4    5.97    0.58
  -7 -12  -4    0.91    0.30
  -7 -12  -4    0.02    0.25
  -7 -12  -4    0.35    0.30
  -7 -12  -4    0.35    0.25
   7  12   4    0.23    0.36
   7  12   4    0.35    0.30
   7  12   4    1.00    0.31
   1 -13  -4    5.53    0.54
   1 -13  -4    7.18    0.56
  -1  13   4    6.45    0.41
  -1  13   4    8.02    0.68
   0 -13  -4    0.44    0.27
   0 -13  -4    0.48    0.25
   0  13   4    0.25    0.37
   0  13   4    0.34    0.19
  -1 -13  -4    9.00    0.60
  -1 -13  -4    8.90    0.56
   1  13   4    9.62    0.55
   1  13   4    8.89    0.70
   1  13   4    8.37    0.51
  -2 -13  -4    0.20    0.22
  -2 -13  -4   -0.24    0.24
   2  13   4   -0.34    0.33
   2  13   4    0.06    0.19
   2  13   4   -0.02    0.26
  -3 -13  -4   10.85    0.59
  -3 -13  -4   11.88    0.66
  -3 -13  -4   11.36    0.49
   3  13   4   11.38    0.99
   3  13   4   11.17    0.70
   3  13   4   11.81    0.58
  -4 -13  -4    0.55    0.29
  -4 -13  -4    0.09    0.25
  -4 -13  -4    0.48    0.29
   4  13   4    0.35    0.21
   4  13   4    0.61    0.32
   4  13   4    0.51    0.29
  -5 -13  -4    5.77    0.63
  -5 -13  -4    5.94    0.48
  -5 -13  -4    6.05    0.52
   5  13   4    6.44    0.59
   5  13   4    6.09    0.50
   5  13   4    5.58    0.52
  -6 -13  -4   -0.05    0.27
  -6 -13  -4    0.17    0.29
  -6 -13  -4    0.04    0.33
  -6 -13  -4   -0.23    0.24
   6  13   4   -0.68    0.33
   6  13   4   -0.34    0.25
   6  13   4    0.03    0.27
  -1 -14  -4    0.26    0.29
  -1 -14  -4    0.46    0.27
   1  14   4   -0.02    0.20
   1  14   4   -0.55    0.36
  -2 -14  -4    4.79    0.56
  -2 -14  -4    5.28    0.57
   2  14   4    5.05    0.60
   2  14   4    5.84    0.48
   2  14   4    6.13    0.62
  -3 -14  -4   -0.13    0.31
  -3 -14  -4    0.35    0.28
   3  14   4    0.08    0.34
   3  14   4    0.08    0.26
   3  14   4    0.17    0.32
  -4 -14  -4    5.02    0.50
  -4 -14  -4    4.97    0.49
  -4 -14  -4    3.93    0.50
   4  14   4    4.79    0.64
   4  14   4    4.78    0.49
   4  14   4    5.25    0.54
  -3 -12   5    1.07    0.42
   2  12  -5    0.29    0.30
   2  12  -5   -0.18    0.30
   2  12  -5    0.62    0.34
  -2 -12   5   -0.14    0.26
  -2 -12   5    0.21    0.38
  -2 -12   5    0.58    0.48
   1  12  -5    1.96    0.36
   1  12  -5    1.89    0.42
   1  12  -5    1.93    0.34
  -1 -12   5    1.75    0.32
  -1 -12   5    2.75    0.39
  -1 -12   5    2.19    0.39
  -1 -12   5    2.64    0.43
   0  12  -5    0.28    0.24
   0  12  -5   -0.06    0.28
   0  12  -5    0.14    0.37
   0 -12   5   -0.04    0.32
   0 -12   5   -0.05    0.23
   0 -12   5    0.01    0.25
   0 -12   5   -0.08    0.31
  -1  12  -5    2.59    0.35
  -1  12  -5    2.82    0.46
  -1  12  -5    3.37    0.47
   1 -12   5    3.29    0.38
   1 -12   5    2.96    0.41
   1 -12   5    4.71    0.49
   1 -12   5    3.64    0.44
   4  11  -5    1.28    0.44
   4  11  -5    1.54    0.35
   4  11  -5    1.69    0.38
  -4 -11   5    1.40    0.34
  -4 -11   5    1.73    0.33
  -4 -11   5    0.63    0.34
   3  11  -5   -0.27    0.30
   3  11  -5   -0.10    0.26
  -3 -11   5   -0.21    0.25
  -3 -11   5    0.88    0.27
  -3 -11   5   -0.74    0.29
   2  11  -5    3.40    0.46
   2  11  -5    3.45    0.44
   2  11  -5    4.15    0.47
  -2 -11   5    4.08    0.44
  -2 -11   5    3.48    0.46
  -2 -11   5    3.26    0.45
  -2 -11   5    2.77    0.38
   1  11  -5   -0.10    0.25
   1  11  -5    0.11    0.25
   1  11  -5   -0.40    0.30
  -1 -11   5   -0.15    0.31
  -1 -11   5    0.07    0.20
  -1 -11   5    0.22    0.23
  -1 -11   5    0.15    0.24
   0  11  -5    3.46    0.43
   0  11  -5    3.81    0.50
   0  11  -5    3.57    0.45
   0 -11   5    3.69    0.48
   0 -11   5    3.35    0.43
   0 -11   5    3.99    0.38
   0 -11   5    3.41    0.47
  -1  11  -5   -0.02    0.23
  -1  11  -5   -0.11    0.31
  -1  11  -5   -0.03    0.23
   1 -11   5    0.10    0.29
   1 -11   5    0.00    0.20
   1 -11   5    0.60    0.21
   1 -11   5    0.28    0.28
  -2  11  -5    6.01    0.56
  -2  11  -5    4.40    0.44
  -2  11  -5    4.44    0.42
   2 -11   5    5.38    0.53
   2 -11   5    4.95    0.49
   2 -11   5    4.64    0.47
   2 -11   5    5.01    0.41
  -3  11  -5    0.22    0.21
  -3  11  -5    0.12    0.31
  -3  11  -5    0.03    0.25
   3 -11   5    0.29    0.23
   3 -11   5   -0.03    0.31
   3 -11   5   -0.21    0.82
   3 -11   5   -0.20    0.26
   3 -11   5    0.80    0.35
   5  10  -5    2.99    0.47
   5  10  -5    3.08    0.41
   5  10  -5    3.69    0.51
  -5 -10   5    3.18    0.53
  -5 -10   5    4.17    0.52
  -5 -10   5    2.87    0.40
  -5 -10   5    2.92    0.44
   4  10  -5    0.29    0.31
   4  10  -5    0.04    0.25
   4  10  -5   -0.09    0.34
   4  10  -5    0.10    0.33
  -4 -10   5    0.02    0.25
  -4 -10   5    0.28    0.24
  -4 -10   5   -0.29    0.31
   3  10  -5    7.50    0.56
   3  10  -5    6.30    0.50
   3  10  -5    5.73    0.59
  -3 -10   5    7.77    0.67
  -3 -10   5    6.79    0.52
  -3 -10   5    6.14    0.53
  -3 -10   5    5.69    0.48
   2  10  -5    0.07    0.23
   2  10  -5    0.29    0.30
   2  10  -5   -0.02    0.28
  -2 -10   5   -0.30    0.18
  -2 -10   5    0.12    0.29
  -2 -10   5   -0.06    0.29
  -2 -10   5   -0.16    0.18
   1  10  -5    6.88    0.56
   1  10  -5    5.49    0.46
   1  10  -5    5.61    0.67
  -1 -10   5    6.27    0.62
  -1 -10   5    6.29    0.44
  -1 -10   5    6.11    0.54
  -1 -10   5    6.20    0.38
   0  10  -5    0.00    0.22
   0  10  -5    0.08    0.26
   0  10  -5   -0.29    0.21
   0 -10   5    0.02    0.20
   0 -10   5   -0.09    0.30
   0 -10   5    0.11    0.19
   0 -10   5    0.41    0.24
  -1  10  -5    5.64    0.53
  -1  10  -5    5.98    0.43
  -1  10  -5    6.63    0.50
   1 -10   5    6.28    0.51
   1 -10   5    5.83    0.48
   1 -10   5    6.43    0.41
   1 -10   5    6.52    0.51
   1 -10   5    6.94    0.45
  -2  10  -5   -0.02    0.26
  -2  10  -5    0.10    0.19
  -2  10  -5   -0.38    0.21
   2 -10   5   -0.20    0.22
   2 -10   5   -0.32    0.20
   2 -10   5    0.30    0.22
   2 -10   5   -0.36    0.29
   2 -10   5    0.34    0.25
  -3  10  -5    6.46    0.50
  -3  10  -5    5.51    0.40
  -3  10  -5    5.49    0.45
   3 -10   5    4.74    0.45
   3 -10   5    5.92    0.52
   3 -10   5    5.40    0.47
   3 -10   5    4.73    0.51
   3 -10   5    5.58    0.63
  -4  10  -5    0.48    0.25
  -4  10  -5    0.32    0.18
  -4  10  -5    0.64    0.30
  -4  10  -5    0.13    0.20
   4 -10   5    0.42    0.24
   4 -10   5    0.70    0.35
   4 -10   5    0.33    0.25
   4 -10   5   -0.11    0.41
   6   9  -5    3.74    0.52
   6   9  -5    2.70    0.45
   6   9  -5    2.67    0.43
  -6  -9   5    2.41    0.39
  -6  -9   5    2.61    0.43
  -6  -9   5    2.49    0.40
   5   9  -5   -0.28    0.24
   5   9  -5    1.37    0.48
   5   9  -5    0.18    0.31
  -5  -9   5    0.04    0.28
  -5  -9   5    0.22    0.25
  -5  -9   5   -0.14    0.27
   4   9  -5    4.88    0.53
   4   9  -5    5.64    0.55
   4   9  -5    6.25    0.61
   4   9  -5    5.32    0.47
  -4  -9   5    4.72    0.50
  -4  -9   5    5.03    0.57
  -4  -9   5    5.53    0.52
  -4  -9   5    4.01    0.43
   3   9  -5   -0.44    0.21
   3   9  -5   -0.02    0.24
   3   9  -5    0.16    0.29
   3   9  -5    0.04    0.20
  -3  -9   5    0.01    0.30
  -3  -9   5    0.12    0.25
  -3  -9   5    0.12    0.20
  -3  -9   5   -0.20    0.20
   2   9  -5   16.79    0.70
   2   9  -5   16.90    0.70
   2   9  -5   18.07    0.77
  -2  -9   5   17.52    0.75
  -2  -9   5   16.25    0.55
  -2  -9   5   16.59    0.69
  -2  -9   5   17.50    0.68
  -2  -9   5   16.93    0.66
   1   9  -5    0.14    0.27
   1   9  -5    0.30    0.24
  -1  -9   5   -0.17    0.15
  -1  -9   5    0.20    0.21
  -1  -9   5    0.00    0.17
  -1  -9   5    0.01    0.21
  -1  -9   5   -0.19    0.39
   0   9  -5   11.35    0.61
   0   9  -5   10.77    0.52
   0   9  -5   10.82    0.52
   0  -9   5   11.69    0.82
   0  -9   5   11.22    0.47
   0  -9   5   10.06    0.47
   0  -9   5   10.89    0.49
  -1   9  -5    0.82    0.21
  -1   9  -5    1.17    0.26
  -1   9  -5    1.14    0.30
   1  -9   5    1.22    0.21
   1  -9   5    1.03    0.20
   1  -9   5    1.17    0.26
  -2   9  -5    7.47    0.49
  -2   9  -5    6.74    0.43
  -2   9  -5    7.34    0.43
   2  -9   5    6.97    0.38
   2  -9   5    6.76    0.45
   2  -9   5    7.66    0.65
   2  -9   5    7.55    0.49
  -3   9  -5    0.02    0.16
  -3   9  -5   -0.01    0.19
  -3   9  -5    0.14    0.31
   3  -9   5   -0.25    0.23
   3  -9   5   -0.20    0.18
   3  -9   5   -0.18    0.27
   3  -9   5    0.25    0.23
   3  -9   5    0.12    0.17
  -4   9  -5    7.80    0.80
  -4   9  -5    5.62    0.42
  -4   9  -5    6.37    0.39
   4  -9   5    7.35    0.56
   4  -9   5    7.23    0.49
   4  -9   5    5.92    0.42
   4  -9   5    5.90    0.66
  -5   9  -5    0.44    0.26
  -5   9  -5   -0.11    0.27
  -5   9  -5   -0.04    0.22
  -5   9  -5    0.42    0.18
   5  -9   5    0.33    0.27
   5  -9   5    0.20    0.38
   5  -9   5    0.18    0.32
   7   8  -5    1.88    0.38
   7   8  -5    1.42    0.37
   7   8  -5    1.32    0.42
   7   8  -5    0.86    0.37
   7   8  -5    1.33    0.34
  -7  -8   5    1.31    0.37
  -7  -8   5    1.60    0.36
  -7  -8   5    1.61    0.39
   6   8  -5    0.30    0.33
   6   8  -5    0.36    0.33
   6   8  -5    0.17    0.27
   6   8  -5   -0.16    0.30
  -6  -8   5   -0.14    0.31
  -6  -8   5    0.45    0.26
  -6  -8   5   -0.10    0.27
   5   8  -5    5.85    0.49
   5   8  -5    5.48    0.53
   5   8  -5    5.98    0.73
  -5  -8   5    5.77    0.61
  -5  -8   5    5.30    0.48
  -5  -8   5    4.55    0.47
   4   8  -5   -0.02    0.24
   4   8  -5    0.19    0.23
   4   8  -5    0.07    0.20
   4   8  -5   -0.25    0.27
  -4  -8   5    0.01    0.23
  -4  -8   5    0.28    0.27
  -4  -8   5   -0.08    0.24
  -4  -8   5   -0.35    0.22
   3   8  -5   14.14    0.63
   3   8  -5   13.66    0.51
   3   8  -5   13.30    0.66
  -3  -8   5   14.61    0.65
  -3  -8   5   14.25    0.64
  -3  -8   5   13.76    0.60
   2   8  -5   -0.12    0.19
   2   8  -5    0.01    0.19
   2   8  -5    0.32    0.14
  -2  -8   5    0.42    0.18
  -2  -8   5    0.09    0.21
  -2  -8   5   -0.18    0.19
  -2  -8   5    0.01    0.14
  -2  -8   5   -0.01    0.17
   1   8  -5   14.86    0.68
   1   8  -5   15.50    0.60
   1   8  -5   14.97    0.58
  -1  -8   5   14.87    0.50
  -1  -8   5   13.76    0.63
  -1  -8   5   14.54    0.55
  -1  -8   5   15.88    0.58
  -1  -8   5   13.80    0.55
   0   8  -5   -0.09    0.17
   0   8  -5    0.25    0.24
   0   8  -5    0.16    0.23
   0  -8   5   -0.09    0.17
   0  -8   5   -0.16    0.13
   0  -8   5    0.13    0.13
   0  -8   5    0.13    0.14
   0  -8   5    0.01    0.18
  -1   8  -5   14.80    0.78
  -1   8  -5   14.50    0.62
  -1   8  -5   14.10    0.54
   1  -8   5   13.51    0.53
   1  -8   5   14.85    0.54
  -2   8  -5    1.30    0.22
  -2   8  -5    1.25    0.24
  -2   8  -5    1.47    0.22
   2  -8   5    1.60    0.25
   2  -8   5    1.63    0.22
   2  -8   5    1.59    0.26
   2  -8   5    1.10    0.24
   2  -8   5    1.38    0.26
  -3   8  -5   12.55    0.53
  -3   8  -5   12.21    0.53
  -3   8  -5   11.84    0.54
   3  -8   5   13.89    0.55
   3  -8   5   13.26    0.56
   3  -8   5   12.71    0.50
   3  -8   5   12.42    0.63
   3  -8   5   12.87    0.60
  -4   8  -5    0.69    0.17
  -4   8  -5    0.69    0.21
  -4   8  -5    0.86    0.20
   4  -8   5    1.24    0.28
   4  -8   5    0.93    0.17
   4  -8   5    1.16    0.32
   4  -8   5    0.70    0.24
  -5   8  -5    7.67    0.44
  -5   8  -5    6.59    0.41
  -5   8  -5    7.99    0.41
  -5   8  -5    6.62    0.44
   5  -8   5    6.83    0.38
   5  -8   5    7.07    0.65
   5  -8   5    7.87    0.53
   5  -8   5    7.88    0.55
  -6   8  -5    0.26    0.19
  -6   8  -5    0.57    0.28
  -6   8  -5    0.13    0.23
   6  -8   5    0.14    0.25
   6  -8   5    0.47    0.38
   7   7  -5    0.46    0.31
   7   7  -5   -0.41    0.28
   7   7  -5   -0.26    0.28
   7   7  -5   -0.26    0.30
   7   7  -5   -0.86    0.34
  -7  -7   5    0.57    0.29
  -7  -7   5   -0.02    0.29
  -7  -7   5    0.07    0.26
   6   7  -5    7.79    0.61
   6   7  -5    7.69    0.54
   6   7  -5    6.44    0.62
   6   7  -5    7.80    0.65
   6   7  -5    7.99    0.52
  -6  -7   5    6.89    0.53
  -6  -7   5    8.18    0.56
  -6  -7   5    8.42    0.61
   5   7  -5   -0.23    0.22
   5   7  -5   -0.08    0.28
   5   7  -5    0.39    0.33
   5   7  -5    0.17    0.22
  -5  -7   5    0.14    0.22
  -5  -7   5   -0.27    0.25
  -5  -7   5    0.49    0.26
   4   7  -5    4.44    0.34
   4   7  -5    3.65    0.47
   4   7  -5    3.74    0.51
   4   7  -5    4.23    0.45
  -4  -7   5    4.25    0.40
  -4  -7   5    4.41    0.43
  -4  -7   5    4.81    0.45
   3   7  -5    0.06    0.18
   3   7  -5    0.52    0.24
   3   7  -5    0.43    0.17
   3   7  -5    0.38    0.20
  -3  -7   5    0.21    0.18
  -3  -7   5    0.19    0.20
  -3  -7   5    0.33    0.19
  -3  -7   5    0.08    0.21
   2   7  -5   12.60    0.50
   2   7  -5   11.71    0.53
   2   7  -5   12.61    0.52
   2   7  -5   12.32    0.58
  -2  -7   5   13.21    0.50
  -2  -7   5   12.70    0.54
  -2  -7   5   12.16    0.52
  -2  -7   5   11.72    0.51
   1   7  -5    0.18    0.10
   1   7  -5    0.18    0.15
   1   7  -5    0.20    0.14
  -1  -7   5    0.06    0.16
  -1  -7   5    0.12    0.13
  -1  -7   5    0.52    0.13
  -1  -7   5    0.37    0.13
  -1  -7   5    0.05    0.15
   0   7  -5   29.24    0.88
   0   7  -5   29.63    0.94
   0   7  -5   29.71    0.89
   0  -7   5   29.95    0.90
   0  -7   5   31.01    0.86
   0  -7   5   30.24    0.83
   0  -7   5   30.08    0.86
   0  -7   5   29.47    0.91
  -1   7  -5    0.66    0.14
  -1   7  -5    0.76    0.21
  -1   7  -5    0.71    0.15
   1  -7   5    0.87    0.16
   1  -7   5    0.82    0.15
   1  -7   5    0.70    0.19
   1  -7   5    0.92    0.17
   1  -7   5    1.06    0.18
  -2   7  -5   18.21    0.60
  -2   7  -5   17.59    0.60
  -2   7  -5   17.93    0.69
   2  -7   5   17.66    0.57
   2  -7   5   18.40    0.60
   2  -7   5   16.69    0.61
   2  -7   5   17.48    0.60
  -3   7  -5    1.77    0.25
  -3   7  -5    1.78    0.24
  -3   7  -5    1.78    0.21
   3  -7   5    1.67    0.21
   3  -7   5    1.72    0.24
   3  -7   5    1.57    0.24
   3  -7   5    1.92    0.28
  -4   7  -5   12.20    0.47
  -4   7  -5   12.26    0.46
  -4   7  -5   11.32    0.51
   4  -7   5   11.22    0.51
   4  -7   5   12.68    0.45
   4  -7   5   11.51    0.80
   4  -7   5   12.27    0.60
  -5   7  -5    0.55    0.18
  -5   7  -5    0.73    0.22
  -5   7  -5    0.92    0.17
  -5   7  -5    0.53    0.19
   5  -7   5    0.91    0.27
   5  -7   5    0.62    0.31
   5  -7   5    0.78    0.20
   5  -7   5    0.53    0.23
  -6   7  -5    9.01    0.45
  -6   7  -5    8.62    0.51
  -6   7  -5    9.33    0.47
   6  -7   5    8.75    0.55
   6  -7   5    9.76    0.66
   6  -7   5    8.28    0.43
  -7   7  -5    0.05    0.17
  -7   7  -5    0.27    0.29
  -7   7  -5    0.13    0.24
   7  -7   5   -0.28    0.32
   7  -7   5   -0.02    0.26
   8   6  -5   -0.04    0.33
   8   6  -5   -0.02    0.31
   8   6  -5    0.12    0.31
   8   6  -5   -0.33    0.38
   8   6  -5    0.53    0.31
  -8  -6   5    0.06    0.28
  -8  -6   5    0.07    0.30
  -8  -6   5   -0.06    0.30
   7   6  -5    2.04    0.37
   7   6  -5    2.60    0.37
   7   6  -5    1.76    0.34
   7   6  -5    2.06    0.40
   7   6  -5    2.58    0.43
  -7  -6   5    1.79    0.34
  -7  -6   5    1.99    0.36
  -7  -6   5    1.94    0.33
   6   6  -5   -0.16    0.27
   6   6  -5    0.09    0.24
   6   6  -5   -0.14    0.26
   6   6  -5    0.29    0.27
  -6  -6   5    0.10    0.21
  -6  -6   5   -0.10    0.25
  -6  -6   5   -0.30    0.23
  -6  -6   5    0.09    0.25
   5   6  -5    6.27    0.40
   5   6  -5    7.23    0.53
   5   6  -5    7.40    0.59
   5   6  -5    6.34    0.47
   5   6  -5    7.64    0.52
  -5  -6   5    6.71    0.50
  -5  -6   5    5.83    0.47
  -5  -6   5    6.12    0.45
   4   6  -5    0.24    0.18
   4   6  -5    0.18    0.19
   4   6  -5    0.30    0.19
   4   6  -5    0.19    0.23
  -4  -6   5    0.04    0.22
  -4  -6   5    0.02    0.18
   3   6  -5   20.62    0.71
   3   6  -5   18.57    0.73
   3   6  -5   21.56    0.67
   3   6  -5   20.24    0.69
  -3  -6   5   21.35    0.73
  -3  -6   5   22.48    0.81
  -3  -6   5   20.02    0.73
   2   6  -5    0.78    0.18
   2   6  -5    1.27    0.23
   2   6  -5    1.09    0.15
   2   6  -5    0.97    0.20
  -2  -6   5    0.89    0.17
  -2  -6   5    0.87    0.21
  -2  -6   5    1.13    0.19
  -2  -6   5    0.92    0.18
  -2  -6   5    0.84    0.11
   1   6  -5   20.17    0.65
   1   6  -5   20.12    0.70
   1   6  -5   19.81    0.64
   1   6  -5   21.04    0.55
  -1  -6   5   19.62    0.65
  -1  -6   5   19.83    0.63
  -1  -6   5   20.48    0.62
  -1  -6   5   19.77    0.56
  -1  -6   5   20.78    0.64
   0   6  -5   -0.07    0.12
   0   6  -5    0.00    0.07
   0   6  -5    0.00    0.15
   0   6  -5   -0.06    0.11
   0  -6   5   -0.05    0.11
   0  -6   5    0.00    0.10
   0  -6   5    0.05    0.09
   0  -6   5    0.00    0.11
   0  -6   5    0.06    0.14
  -1   6  -5   31.10    0.93
  -1   6  -5   31.27    0.89
  -1   6  -5   32.83    0.90
   1  -6   5   32.17    0.91
   1  -6   5   31.13    0.87
   1  -6   5   32.58    0.88
   1  -6   5   31.42    0.87
   1  -6   5   32.11    0.87
  -2   6  -5    0.04    0.11
  -2   6  -5    0.24    0.15
  -2   6  -5    0.01    0.11
   2  -6   5    0.17    0.10
   2  -6   5    0.19    0.14
   2  -6   5   -0.01    0.11
   2  -6   5    0.29    0.15
   2  -6   5    0.31    0.14
  -3   6  -5   21.55    0.68
  -3   6  -5   22.82    0.69
  -3   6  -5   22.33    0.68
   3  -6   5   21.74    0.68
   3  -6   5   21.74    0.71
   3  -6   5   22.43    0.65
  -4   6  -5    1.29    0.21
  -4   6  -5    1.39    0.15
  -4   6  -5    1.21    0.18
  -4   6  -5    1.29    0.17
  -4   6  -5    1.14    0.18
   4  -6   5    1.30    0.17
   4  -6   5    0.75    0.20
   4  -6   5    1.24    0.28
   4  -6   5    1.10    0.23
  -5   6  -5    8.13    0.44
  -5   6  -5    8.77    0.39
  -5   6  -5    9.22    0.35
   5  -6   5    8.62    0.37
   5  -6   5    7.90    0.47
   5  -6   5    8.66    0.45
   5  -6   5    8.52    0.53
  -6   6  -5    0.20    0.15
  -6   6  -5    0.58    0.21
  -6   6  -5    0.56    0.18
   6  -6   5    0.48    0.16
   6  -6   5    0.39    0.24
   6  -6   5    0.40    0.21
   6  -6   5    0.49    0.41
  -7   6  -5    6.74    0.56
  -7   6  -5    5.58    0.37
  -7   6  -5    6.12    0.43
   7  -6   5    5.54    0.49
   7  -6   5    5.01    0.61
  -8   6  -5    0.40    0.25
  -8   6  -5    0.04    0.17
  -8   6  -5    0.37    0.27
   8  -6   5    0.43    0.36
   8  -6   5    0.47    0.28
   8   5  -5    1.39    0.31
   8   5  -5    0.93    0.32
   8   5  -5    0.80    0.37
   8   5  -5    0.41    0.32
  -8  -5   5    0.73    0.33
  -8  -5   5    1.61    0.34
  -8  -5   5    1.24    0.30
   7   5  -5    0.04    0.24
   7   5  -5    0.08    0.31
   7   5  -5    0.09    0.32
   7   5  -5   -0.01    0.27
   7   5  -5   -0.08    0.28
  -7  -5   5    0.54    0.25
  -7  -5   5    0.02    0.27
  -7  -5   5    0.31    0.27
   6   5  -5   11.10    0.57
   6   5  -5   11.01    0.56
   6   5  -5   10.36    0.62
   6   5  -5   10.19    0.66
   6   5  -5   10.61    0.57
  -6  -5   5   10.64    0.43
  -6  -5   5   11.65    0.60
  -6  -5   5    9.21    0.58
  -6  -5   5   11.04    0.55
   5   5  -5   -0.08    0.24
   5   5  -5   -0.14    0.21
   5   5  -5    0.07    0.18
   5   5  -5    0.02    0.18
  -5  -5   5   -0.06    0.16
  -5  -5   5    0.00    0.17
  -5  -5   5   -0.04    0.14
   4   5  -5   18.50    0.64
   4   5  -5   17.22    0.77
   4   5  -5   17.28    0.67
   4   5  -5   17.51    0.63
   4   5  -5   17.42    0.62
   4   5  -5   17.65    0.63
  -4  -5   5   17.68    0.65
  -4  -5   5   17.59    0.73
   3   5  -5    0.20    0.17
   3   5  -5    0.08    0.18
   3   5  -5   -0.01    0.13
   3   5  -5    0.08    0.14
  -3  -5   5   -0.08    0.17
  -3  -5   5   -0.14    0.15
  -3  -5   5   -0.01    0.13
   2   5  -5   33.52    0.99
   2   5  -5   33.23    0.94
   2   5  -5   35.03    0.90
   2   5  -5   33.63    0.94
  -2  -5   5   32.84    0.94
  -2  -5   5   34.19    0.95
  -2  -5   5   32.46    0.97
   1   5  -5    0.59    0.11
   1   5  -5    0.53    0.16
   1   5  -5    0.55    0.14
   1   5  -5    0.44    0.12
  -1  -5   5    0.56    0.16
  -1  -5   5    0.47    0.12
  -1  -5   5    0.50    0.13
  -1  -5   5    0.56    0.14
   0   5  -5   60.99    1.44
   0   5  -5   60.31    1.49
   0   5  -5   56.28    1.50
   0   5  -5   55.54    1.45
   0  -5   5   57.24    1.47
   0  -5   5   56.37    1.44
   0  -5   5   58.28    1.44
   0  -5   5   57.20    1.40
   0  -5   5   58.86    1.42
  -1   5  -5    0.04    0.09
  -1   5  -5    0.11    0.11
  -1   5  -5   -0.16    0.09
   1  -5   5    0.04    0.08
   1  -5   5    0.01    0.11
   1  -5   5   -0.11    0.09
  -2   5  -5   35.60    0.97
  -2   5  -5   35.21    0.96
  -2   5  -5   35.32    0.96
   2  -5   5   35.12    0.94
   2  -5   5   36.08    0.94
   2  -5   5   35.38    0.97
   2  -5   5   37.30    0.95
  -3   5  -5    0.54    0.14
  -3   5  -5    0.38    0.14
  -3   5  -5    0.49    0.12
  -3   5  -5    0.46    0.12
   3  -5   5    0.60    0.14
   3  -5   5    0.57    0.16
   3  -5   5    0.37    0.12
   3  -5   5    0.34    0.11
  -4   5  -5    9.17    0.42
  -4   5  -5    9.88    0.39
  -4   5  -5   10.32    0.37
  -4   5  -5    9.15    0.39
   4  -5   5   10.39    0.38
   4  -5   5    9.41    0.40
   4  -5   5    9.44    0.47
   4  -5   5    9.40    0.43
  -5   5  -5    0.65    0.16
  -5   5  -5    0.56    0.14
  -5   5  -5    0.68    0.14
  -5   5  -5    0.23    0.17
   5  -5   5    0.73    0.15
   5  -5   5    0.58    0.16
   5  -5   5    0.36    0.20
   5  -5   5    0.63    0.15
   5  -5   5    0.52    0.19
  -6   5  -5    9.37    0.33
  -6   5  -5    9.74    0.44
  -6   5  -5   10.12    0.42
  -6   5  -5    9.13    0.47
   6  -5   5    9.37    0.52
   6  -5   5   10.43    0.63
   6  -5   5    9.90    0.40
   6  -5   5   10.04    0.50
  -7   5  -5    0.11    0.19
  -7   5  -5    0.33    0.20
  -7   5  -5    0.21    0.15
   7  -5   5   -0.03    0.21
   7  -5   5    0.38    0.29
   7  -5   5    0.25    0.18
  -8   5  -5    3.20    0.32
  -8   5  -5    4.11    0.61
  -8   5  -5    2.52    0.36
   8  -5   5    4.22    0.51
   8  -5   5    2.73    0.42
   8   4  -5    0.56    0.33
   8   4  -5    0.00    0.27
   8   4  -5    0.18    0.33
   8   4  -5   -0.42    0.28
  -8  -4   5    0.05    0.34
  -8  -4   5    0.49    0.25
  -8  -4   5    0.17    0.30
   7   4  -5    4.61    0.46
   7   4  -5    4.76    0.47
   7   4  -5    4.59    0.53
   7   4  -5    4.83    0.44
   7   4  -5    4.32    0.50
  -7  -4   5    6.16    0.45
  -7  -4   5    5.03    0.46
  -7  -4   5    5.18    0.48
   6   4  -5   -0.15    0.20
   6   4  -5   -0.06    0.22
   6   4  -5   -0.29    0.48
   6   4  -5    0.10    0.23
   6   4  -5   -0.03    0.33
  -6  -4   5   -0.06    0.23
  -6  -4   5   -0.13    0.19
  -6  -4   5   -0.19    0.27
  -6  -4   5   -0.24    0.15
   5   4  -5    7.53    0.39
   5   4  -5    7.27    0.43
   5   4  -5    6.89    0.42
   5   4  -5    6.94    0.48
   5   4  -5    7.09    0.47
  -5  -4   5    7.61    0.41
  -5  -4   5    7.88    0.32
  -5  -4   5    6.73    0.41
  -5  -4   5    6.89    0.48
   4   4  -5    0.07    0.17
   4   4  -5    0.51    0.34
   4   4  -5    0.14    0.15
   4   4  -5    0.15    0.17
   4   4  -5   -0.02    0.16
   4   4  -5    0.00    0.16
  -4  -4   5    0.13    0.11
  -4  -4   5    0.35    0.16
  -4  -4   5   -0.16    0.19
  -4  -4   5    0.21    0.15
   3   4  -5   78.15    1.94
   3   4  -5   77.13    1.95
   3   4  -5   79.43    1.93
   3   4  -5   80.42    2.04
   3   4  -5   79.61    1.99
   3   4  -5   77.72    1.96
  -3  -4   5   76.77    2.00
  -3  -4   5   77.19    1.96
  -3  -4   5   80.24    1.96
   2   4  -5    0.04    0.11
   2   4  -5    0.22    0.11
   2   4  -5    0.02    0.13
   2   4  -5    0.04    0.10
   2   4  -5   -0.09    0.15
  -2  -4   5    0.03    0.13
  -2  -4   5    0.03    0.09
  -2  -4   5   -0.12    0.09
   1   4  -5   72.82    1.81
   1   4  -5   76.12    1.87
  -1  -4   5   74.04    1.85
  -1  -4   5   72.28    1.81
  -1  -4   5   74.13    1.82
  -1  -4   5   78.40    1.80
   0   4  -5    4.96    0.25
   0   4  -5    5.46    0.26
   0   4  -5    5.50    0.20
   0  -4   5    5.22    0.25
   0  -4   5    4.97    0.24
   0  -4   5    5.35    0.27
  -1   4  -5   38.96    1.07
  -1   4  -5   37.96    1.01
  -1   4  -5   37.87    0.99
   1  -4   5   36.25    0.97
   1  -4   5   39.10    0.95
   1  -4   5   38.15    0.98
   1  -4   5   37.12    1.00
  -2   4  -5    0.44    0.11
  -2   4  -5    0.25    0.09
  -2   4  -5    0.42    0.10
   2  -4   5    0.49    0.11
   2  -4   5    0.32    0.10
   2  -4   5    0.42    0.09
   2  -4   5    0.33    0.12
  -3   4  -5   67.65    1.68
  -3   4  -5   66.78    1.68
  -3   4  -5   68.38    1.68
  -3   4  -5   67.19    1.66
  -3   4  -5   71.31    1.60
   3  -4   5   65.72    1.66
   3  -4   5   69.68    1.65
   3  -4   5   68.38    1.66
   3  -4   5   67.70    1.70
  -4   4  -5   -0.14    0.10
  -4   4  -5    0.14    0.10
  -4   4  -5    0.14    0.10
   4  -4   5    0.37    0.16
   4  -4   5   -0.06    0.13
   4  -4   5    0.13    0.11
   4  -4   5   -0.09    0.10
   4  -4   5    0.30    0.12
   4  -4   5    0.17    0.14
  -5   4  -5   15.23    0.45
  -5   4  -5   15.22    0.62
  -5   4  -5   14.18    0.51
  -5   4  -5   14.78    0.50
   5  -4   5   14.70    0.53
   5  -4   5   15.11    0.49
   5  -4   5   14.61    0.60
  -6   4  -5    0.46    0.26
  -6   4  -5    0.80    0.16
  -6   4  -5    0.43    0.15
  -6   4  -5    0.68    0.11
   6  -4   5    0.57    0.19
   6  -4   5    0.65    0.15
   6  -4   5    0.43    0.24
  -7   4  -5    4.42    0.31
  -7   4  -5    4.30    0.31
  -7   4  -5    4.00    0.35
   7  -4   5    4.00    0.41
   7  -4   5    3.44    0.40
   7  -4   5    4.09    0.47
   7  -4   5    4.75    0.32
  -8   4  -5    0.12    0.22
  -8   4  -5   -0.11    0.15
  -8   4  -5    0.10    0.21
   8  -4   5    0.23    0.24
   8  -4   5   -0.15    0.27
   8  -4   5   -0.01    0.25
   8  -4   5   -0.38    0.33
  -9   4  -5    2.28    0.33
  -9   4  -5    2.61    0.35
   9  -4   5    4.07    0.58
   9  -4   5    3.12    0.43
   8   3  -5    1.60    0.34
   8   3  -5    1.72    0.38
   8   3  -5    1.68    0.35
  -8  -3   5    2.03    0.30
  -8  -3   5    1.96    0.37
  -8  -3   5    1.74    0.35
   7   3  -5    0.25    0.27
   7   3  -5    0.76    0.31
   7   3  -5    0.04    0.27
   7   3  -5    0.35    0.26
   7   3  -5    0.62    0.21
  -7  -3   5    0.32    0.23
  -7  -3   5    0.24    0.25
  -7  -3   5    0.20    0.19
   6   3  -5    9.38    0.53
   6   3  -5   10.43    0.44
   6   3  -5   10.43    0.60
   6   3  -5    9.25    0.49
  -6  -3   5    9.36    0.56
  -6  -3   5   10.03    0.51
  -6  -3   5    9.71    0.46
  -6  -3   5   10.88    0.49
   5   3  -5   -0.27    0.17
   5   3  -5   -0.02    0.17
   5   3  -5   -0.20    0.13
   5   3  -5    0.01    0.18
   5   3  -5   -0.15    0.16
  -5  -3   5    0.28    0.13
  -5  -3   5   -0.06    0.19
  -5  -3   5    0.08    0.14
   4   3  -5   30.89    0.85
   4   3  -5   30.39    0.92
   4   3  -5   30.69    0.90
   4   3  -5   30.70    0.92
   4   3  -5   31.12    0.97
   4   3  -5   31.03    0.88
  -4  -3   5   29.70    0.89
  -4  -3   5   29.93    0.96
  -4  -3   5   29.71    0.90
  -4  -3   5   30.81    0.91
   3   3  -5    1.50    0.17
   3   3  -5    1.24    0.18
   3   3  -5    1.16    0.16
   3   3  -5    1.32    0.18
   3   3  -5    1.31    0.19
   3   3  -5    1.16    0.20
  -3  -3   5    1.08    0.16
  -3  -3   5    0.84    0.20
  -3  -3   5    1.40    0.18
   2   3  -5   63.29    1.49
   2   3  -5   60.58    1.50
   2   3  -5   59.94    1.49
   2   3  -5   60.60    1.56
   2   3  -5   59.36    1.53
   2   3  -5   60.15    1.52
  -2  -3   5   59.94    1.55
  -2  -3   5   60.73    1.51
  -2  -3   5   60.10    1.50
   1   3  -5    0.49    0.10
   1   3  -5    0.48    0.13
   1   3  -5    0.57    0.14
   1   3  -5    0.72    0.12
   1   3  -5    0.72    0.11
  -1  -3   5    0.73    0.11
  -1  -3   5    0.63    0.12
  -1  -3   5    0.77    0.14
   0   3  -5  112.52    2.53
   0   3  -5  108.29    2.59
   0   3  -5  110.79    2.57
   0   3  -5  106.51    2.57
   0   3  -5  108.81    2.60
   0  -3   5  109.79    2.57
   0  -3   5  111.84    2.53
   0  -3   5  107.69    2.57
   0  -3   5  108.83    2.59
  -1   3  -5   15.57    0.40
  -1   3  -5   14.05    0.48
  -1   3  -5   15.68    0.46
  -1   3  -5   14.17    0.46
  -1   3  -5   15.09    0.45
   1  -3   5   13.96    0.46
   1  -3   5   14.96    0.47
   1  -3   5   15.90    0.45
   1  -3   5   14.60    0.45
  -2   3  -5  117.95    2.72
  -2   3  -5  112.63    2.72
  -2   3  -5  113.27    2.73
  -2   3  -5  117.25    2.73
  -2   3  -5  120.29    2.69
   2  -3   5  117.02    2.75
   2  -3   5  117.50    2.72
   2  -3   5  120.65    2.72
   2  -3   5  111.81    2.72
  -3   3  -5    1.02    0.14
  -3   3  -5    1.02    0.14
  -3   3  -5    1.10    0.14
  -3   3  -5    1.20    0.13
  -3   3  -5    1.17    0.10
   3  -3   5    1.14    0.14
   3  -3   5    1.30    0.17
   3  -3   5    1.53    0.15
   3  -3   5    0.95    0.13
  -4   3  -5   49.71    1.30
  -4   3  -5   51.44    1.24
  -4   3  -5   50.25    1.27
  -4   3  -5   48.78    1.27
   4  -3   5   49.29    1.31
   4  -3   5   53.42    1.27
   4  -3   5   50.15    1.28
   4  -3   5   50.83    1.27
  -5   3  -5   -0.03    0.10
  -5   3  -5   -0.17    0.09
  -5   3  -5   -0.01    0.08
  -5   3  -5    0.18    0.13
   5  -3   5    0.01    0.11
   5  -3   5    0.19    0.13
   5  -3   5    0.05    0.17
   5  -3   5   -0.39    0.17
   5  -3   5    0.08    0.14
   5  -3   5    0.06    0.14
  -6   3  -5   20.86    0.64
  -6   3  -5   19.96    0.81
   6  -3   5   19.61    0.62
   6  -3   5   19.37    0.69
   6  -3   5   19.26    0.70
   6  -3   5   20.60    0.70
  -7   3  -5    0.00    0.18
  -7   3  -5    0.34    0.17
  -7   3  -5    0.15    0.14
   7  -3   5    0.14    0.25
   7  -3   5   -0.05    0.24
   7  -3   5    0.44    0.16
   7  -3   5    0.48    0.21
  -8   3  -5    3.55    0.32
  -8   3  -5    3.56    0.35
  -8   3  -5    3.48    0.38
   8  -3   5    3.10    0.41
   8  -3   5    4.70    0.38
   8  -3   5    3.54    0.40
   8  -3   5    4.76    0.49
  -9   3  -5    0.11    0.22
  -9   3  -5   -0.15    0.26
   9  -3   5    0.29    0.30
   8   2  -5   -0.22    0.26
   8   2  -5    0.04    0.27
   8   2  -5    0.12    0.31
  -8  -2   5    0.24    0.28
  -8  -2   5    0.12    0.21
  -8  -2   5    0.05    0.30
   7   2  -5    6.64    0.52
   7   2  -5    7.45    0.58
   7   2  -5    7.17    0.47
   7   2  -5    7.64    0.55
  -7  -2   5    8.26    0.46
  -7  -2   5    6.98    0.43
  -7  -2   5    7.77    0.56
   6   2  -5    0.46    0.25
   6   2  -5    0.56    0.25
   6   2  -5    1.13    0.17
   6   2  -5    0.56    0.21
  -6  -2   5    1.06    0.20
  -6  -2   5    0.74    0.28
  -6  -2   5    0.70    0.17
   5   2  -5    5.74    0.34
   5   2  -5    6.36    0.40
   5   2  -5    6.44    0.40
   5   2  -5    6.46    0.30
   5   2  -5    6.44    0.41
  -5  -2   5    6.15    0.34
  -5  -2   5    6.12    0.43
  -5  -2   5    5.78    0.39
  -5  -2   5    6.91    0.28
   4   2  -5    0.12    0.15
   4   2  -5    0.26    0.15
   4   2  -5    0.18    0.11
   4   2  -5    0.30    0.15
   4   2  -5    0.25    0.17
  -4  -2   5    0.11    0.11
  -4  -2   5    0.07    0.12
  -4  -2   5    0.26    0.18
  -4  -2   5    0.22    0.13
   3   2  -5   54.22    1.45
   3   2  -5   55.84    1.37
   3   2  -5   56.35    1.42
   3   2  -5   56.67    1.44
   3   2  -5   55.11    1.46
  -3  -2   5   58.80    1.32
  -3  -2   5   55.41    1.41
  -3  -2   5   56.86    1.49
  -3  -2   5   54.14    1.41
   2   2  -5    5.50    0.26
   2   2  -5    5.62    0.28
   2   2  -5    5.55    0.28
   2   2  -5    5.21    0.23
   2   2  -5    5.75    0.27
   2   2  -5    5.69    0.24
  -2  -2   5    5.25    0.24
  -2  -2   5    5.47    0.25
  -2  -2   5    5.48    0.29
   1   2  -5  107.44    2.51
   1   2  -5  106.18    2.50
   1   2  -5  109.90    2.60
   1   2  -5  110.41    2.51
   1   2  -5  109.24    2.56
  -1  -2   5  103.21    2.51
  -1  -2   5  104.98    2.55
  -1  -2   5  107.79    2.52
   0   2  -5    0.84    0.12
   0   2  -5    1.04    0.15
   0   2  -5    1.00    0.13
   0   2  -5    1.09    0.15
   0   2  -5    1.03    0.12
   0  -2   5    1.00    0.09
   0  -2   5    1.31    0.16
   0  -2   5    1.10    0.12
   0  -2   5    1.00    0.14
  -1   2  -5   83.13    1.94
  -1   2  -5   85.14    1.92
  -1   2  -5   82.19    1.92
  -1   2  -5   80.94    1.96
  -1   2  -5   82.40    1.95
   1  -2   5   81.81    1.97
   1  -2   5   82.28    1.90
   1  -2   5   81.29    1.94
   1  -2   5   82.60    1.95
  -2   2  -5   11.08    0.36
  -2   2  -5   11.47    0.36
  -2   2  -5   11.21    0.35
  -2   2  -5   11.27    0.36
  -2   2  -5   11.45    0.33
   2  -2   5   11.02    0.36
   2  -2   5   11.22    0.32
   2  -2   5   11.20    0.38
   2  -2   5   10.86    0.35
  -3   2  -5  135.34    3.10
  -3   2  -5  133.34    3.12
  -3   2  -5  137.75    3.04
  -3   2  -5  135.77    3.13
  -3   2  -5  132.42    3.12
   3  -2   5  138.74    3.11
   3  -2   5  133.31    3.14
   3  -2   5  128.35    3.13
   3  -2   5  131.88    3.11
  -4   2  -5    0.41    0.12
  -4   2  -5    0.49    0.11
  -4   2  -5    0.43    0.10
  -4   2  -5    0.45    0.09
   4  -2   5    0.33    0.12
   4  -2   5    0.29    0.09
   4  -2   5    0.38    0.10
   4  -2   5    0.24    0.09
  -5   2  -5   51.95    1.41
  -5   2  -5   59.54    1.46
  -5   2  -5   57.05    1.49
  -5   2  -5   58.28    1.46
   5  -2   5   62.29    1.45
   5  -2   5   59.21    1.48
   5  -2   5   59.39    1.54
   5  -2   5   59.11    1.45
   5  -2   5   59.02    1.50
  -6   2  -5    0.48    0.13
  -6   2  -5    0.23    0.12
   6  -2   5   -0.08    0.17
   6  -2   5   -0.16    0.21
   6  -2   5    0.32    0.16
   6  -2   5    0.36    0.13
  -7   2  -5    8.43    0.40
  -7   2  -5    8.70    0.39
  -7   2  -5    7.32    0.46
   7  -2   5    8.20    0.52
   7  -2   5    8.87    0.39
   7  -2   5    9.22    0.46
   7  -2   5    7.84    0.48
  -8   2  -5    0.15    0.18
  -8   2  -5    0.50    0.17
  -8   2  -5    0.38    0.19
   8  -2   5   -0.05    0.24
   8  -2   5   -0.08    0.22
   8  -2   5    0.80    0.21
   8  -2   5    0.77    0.31
  -9   2  -5    4.13    0.40
  -9   2  -5    3.73    0.38
  -9   2  -5    4.26    0.46
   9  -2   5    4.66    0.49
   9  -2   5    4.65    0.64
   8   1  -5    1.92    0.36
   8   1  -5    0.95    0.34
   8   1  -5    0.59    0.33
  -8  -1   5    0.66    0.34
  -8  -1   5    1.41    0.26
   7   1  -5    0.65    0.40
   7   1  -5    0.04    0.24
   7   1  -5    0.32    0.27
  -7  -1   5    0.48    0.20
  -7  -1   5   -0.43    0.28
  -7  -1   5    0.15    0.18
   6   1  -5   13.62    0.51
   6   1  -5   14.03    0.66
   6   1  -5   13.34    0.61
  -6  -1   5   14.95    0.49
  -6  -1   5   14.04    0.54
  -6  -1   5   13.99    0.69
   5   1  -5   -0.08    0.18
   5   1  -5    0.20    0.10
   5   1  -5    0.14    0.16
   5   1  -5    0.25    0.14
   5   1  -5    0.16    0.17
  -5  -1   5    0.08    0.12
  -5  -1   5    0.20    0.23
  -5  -1   5    0.15    0.23
  -5  -1   5    0.46    0.16
   4   1  -5   55.17    1.31
   4   1  -5   54.90    1.37
   4   1  -5   53.90    1.45
   4   1  -5   53.64    1.46
   4   1  -5   54.44    1.44
  -4  -1   5   56.16    1.30
  -4  -1   5   53.50    1.48
  -4  -1   5   51.46    1.39
  -4  -1   5   55.05    1.39
   3   1  -5    0.43    0.14
   3   1  -5    0.58    0.14
   3   1  -5    0.45    0.12
   3   1  -5    0.61    0.15
   3   1  -5    0.58    0.09
  -3  -1   5    0.55    0.12
  -3  -1   5    0.62    0.07
  -3  -1   5    0.50    0.17
  -3  -1   5    0.62    0.12
   2   1  -5   11.32    0.40
   2   1  -5   11.17    0.38
   2   1  -5   11.24    0.39
   2   1  -5   11.27    0.44
   2   1  -5   11.22    0.34
  -2  -1   5   11.40    0.42
  -2  -1   5   10.33    0.38
  -2  -1   5   10.28    0.35
   1   1  -5    4.61    0.21
   1   1  -5    4.73    0.14
   1   1  -5    4.32    0.25
   1   1  -5    4.50    0.23
   1   1  -5    4.60    0.23
   1   1  -5    4.75    0.20
   1   1  -5    4.51    0.23
  -1  -1   5    4.13    0.19
  -1  -1   5    4.45    0.20
  -1  -1   5    4.59    0.24
   0   1  -5  125.52    2.91
   0   1  -5  132.18    2.89
   0   1  -5  128.68    2.90
   0   1  -5  128.30    2.84
   0   1  -5  120.41    2.88
   0   1  -5  122.10    2.91
   0  -1   5  124.73    2.92
   0  -1   5  129.40    2.83
   0  -1   5  123.90    2.89
   0  -1   5  118.33    2.90
  -1   1  -5    2.75    0.16
  -1   1  -5    2.94    0.16
  -1   1  -5    3.19    0.16
  -1   1  -5    3.02    0.14
  -1   1  -5    2.93    0.17
  -1   1  -5    2.82    0.15
   1  -1   5    2.99    0.16
   1  -1   5    3.03    0.16
   1  -1   5    3.02    0.18
   1  -1   5    3.12    0.10
  -2   1  -5  166.88    3.84
  -2   1  -5  169.65    3.83
  -2   1  -5  169.57    3.83
  -2   1  -5  170.06    3.80
  -2   1  -5  161.61    3.83
   2  -1   5  164.31    3.83
   2  -1   5  167.99    3.85
   2  -1   5  164.91    3.83
   2  -1   5  169.42    3.79
  -3   1  -5    0.82    0.10
  -3   1  -5    1.08    0.14
  -3   1  -5    0.81    0.12
  -3   1  -5    0.79    0.07
  -3   1  -5    0.88    0.12
   3  -1   5    1.09    0.12
   3  -1   5    0.77    0.12
   3  -1   5    0.83    0.11
   3  -1   5    0.88    0.12
  -4   1  -5   30.83    0.82
  -4   1  -5   30.86    0.84
  -4   1  -5   32.17    0.78
  -4   1  -5   30.26    0.86
   4  -1   5   31.39    0.82
   4  -1   5   30.16    0.84
   4  -1   5   32.10    0.82
   4  -1   5   29.57    0.81
  -5   1  -5    1.24    0.17
  -5   1  -5    1.25    0.17
  -5   1  -5    1.41    0.16
   5  -1   5    1.43    0.18
   5  -1   5    1.59    0.19
   5  -1   5    1.33    0.18
   5  -1   5    1.13    0.14
   5  -1   5    1.56    0.21
  -6   1  -5   43.24    1.13
  -6   1  -5   41.46    1.12
  -6   1  -5   42.53    1.17
   6  -1   5   41.65    1.20
   6  -1   5   42.37    1.12
   6  -1   5   41.98    1.16
   6  -1   5   44.27    1.12
  -7   1  -5    0.25    0.13
  -7   1  -5    0.11    0.12
  -7   1  -5    0.14    0.16
   7  -1   5   -0.32    0.15
   7  -1   5   -0.13    0.17
   7  -1   5    0.00    0.14
   7  -1   5    0.27    0.25
  -8   1  -5    8.52    0.47
   8  -1   5    8.01    0.55
   8  -1   5    9.22    0.90
  -9   1  -5    0.19    0.19
  -9   1  -5   -0.04    0.27
  -9   1  -5    0.17    0.23
   9  -1   5    0.14    0.40
   9  -1   5    0.11    0.24
   9  -1   5    0.18    0.27
 -10   1  -5    1.69    0.32
 -10   1  -5    0.75    0.30
 -10   1  -5    1.52    0.36
  10  -1   5    1.13    0.36
  10  -1   5    2.26    0.46
   8   0  -5   -0.22    0.29
   8   0  -5    0.12    0.28
   8   0  -5    0.46    0.32
  -8   0   5   -0.33    0.18
  -8   0   5    0.35    0.33
   7   0  -5    8.09    0.57
   7   0  -5    8.38    0.58
  -7   0   5    8.68    0.47
  -7   0   5    8.79    0.61
  -7   0   5    8.01    0.52
  -7   0   5    9.40    0.68
  -6   0   5    0.14    0.16
  -6   0   5    0.06    0.20
  -6   0   5    0.49    0.19
  -6   0   5    0.21    0.26
   5   0  -5   23.44    0.82
   5   0  -5   21.97    0.81
   5   0  -5   22.30    0.74
  -5   0   5   22.95    0.70
  -5   0   5   23.21    0.71
  -5   0   5   23.01    0.86
  -5   0   5   24.12    0.65
   4   0  -5    0.01    0.13
   4   0  -5    0.30    0.17
   4   0  -5    0.13    0.21
   4   0  -5   -0.04    0.14
  -4   0   5   -0.15    0.10
  -4   0   5    0.05    0.10
  -4   0   5    0.18    0.19
   3   0  -5   43.62    1.18
   3   0  -5   45.69    1.05
   3   0  -5   44.91    1.21
   3   0  -5   46.14    1.04
   3   0  -5   44.61    1.13
  -3   0   5   42.70    1.12
  -3   0   5   44.13    1.22
  -3   0   5   45.83    1.12
   2   0  -5    2.65    0.21
   2   0  -5    2.81    0.17
   2   0  -5    2.78    0.13
   2   0  -5    2.75    0.21
   2   0  -5    2.78    0.19
   2   0  -5    2.71    0.11
  -2   0   5    2.74    0.22
  -2   0   5    2.64    0.15
  -2   0   5    2.45    0.15
   1   0  -5   91.67    2.17
   1   0  -5   92.50    2.12
   1   0  -5   93.06    2.18
   1   0  -5   91.76    2.18
   1   0  -5   91.19    2.19
   1   0  -5   91.24    2.09
  -1   0   5   90.98    2.14
  -1   0   5   92.68    2.14
  -1   0   5   91.97    2.19
   0   0  -5    4.40    0.14
   0   0  -5    4.58    0.18
   0   0  -5    4.25    0.17
   0   0  -5    4.19    0.20
   0   0  -5    4.28    0.20
   0   0  -5    4.03    0.22
   0   0   5    4.32    0.18
   0   0   5    4.28    0.17
  -1   0  -5  105.69    2.37
  -1   0  -5  103.97    2.35
  -1   0  -5  101.48    2.37
  -1   0  -5  104.76    2.38
  -1   0  -5  102.70    2.38
   1   0   5  101.70    2.38
   1   0   5   99.04    2.36
   1   0   5   98.66    2.37
  -2   0  -5    4.72    0.20
  -2   0  -5    4.55    0.17
  -2   0  -5    4.78    0.20
  -2   0  -5    4.83    0.20
  -2   0  -5    4.58    0.20
   2   0   5    4.59    0.21
   2   0   5    4.36    0.16
   2   0   5    4.38    0.19
   2   0   5    4.47    0.20
  -3   0  -5   62.63    1.46
  -3   0  -5   64.18    1.50
  -3   0  -5   61.58    1.52
  -3   0  -5   63.30    1.52
  -3   0  -5   63.11    1.52
   3   0   5   61.78    1.51
   3   0   5   62.77    1.52
   3   0   5   62.20    1.49
   3   0   5   65.60    1.51
  -4   0  -5    2.49    0.17
  -4   0  -5    2.65    0.19
  -4   0  -5    2.53    0.17
   4   0   5    2.52    0.17
   4   0   5    2.44    0.17
   4   0   5    2.67    0.18
   4   0   5    2.49    0.18
  -5   0  -5   48.52    1.24
  -5   0  -5   48.04    1.27
  -5   0  -5   49.47    1.25
   5   0   5   48.12    1.26
   5   0   5   48.89    1.29
   5   0   5   48.23    1.24
   5   0   5   51.39    1.24
   5   0   5   50.08    1.31
  -6   0  -5    0.05    0.11
  -6   0  -5   -0.06    0.14
  -6   0  -5    0.13    0.11
   6   0   5    0.08    0.12
   6   0   5   -0.18    0.14
   6   0   5   -0.01    0.24
  -7   0  -5   16.35    0.55
  -7   0  -5   14.72    0.59
   7   0   5   14.67    0.73
   7   0   5   14.91    0.54
  -8   0  -5    0.14    0.28
  -8   0  -5    0.32    0.23
   8   0   5   -0.03    0.20
   8   0   5    0.01    0.35
   8   0   5    0.46    0.26
  -9   0  -5    4.74    0.42
  -9   0  -5    3.89    0.53
  -9   0  -5    3.91    0.40
   9   0   5    4.56    0.47
   9   0   5    3.86    0.53
   9   0   5    4.33    0.49
 -10   0  -5    0.45    0.29
 -10   0  -5    0.09    0.25
 -10   0  -5   -0.01    0.28
  10   0   5   -0.33    0.27
  10   0   5    0.63    0.32
  10   0   5    0.19    0.40
   8  -1  -5    2.40    0.38
   8  -1  -5    1.39    0.38
   8  -1  -5    1.28    0.33
  -8   1   5    2.37    0.33
  -8   1   5    2.16    0.44
   7  -1  -5   -0.01    0.22
   7  -1  -5    0.43    0.27
   7  -1  -5   -0.32    0.24
  -7   1   5   -0.04    0.22
  -7   1   5   -0.18    0.16
  -7   1   5   -0.49    0.28
   6  -1  -5    7.76    0.52
   6  -1  -5    7.20    0.52
   6  -1  -5    7.92    0.53
  -6   1   5    8.81    0.57
  -6   1   5    7.70    0.56
  -6   1   5    8.26    0.36
  -6   1   5    7.82    0.38
   5  -1  -5    0.05    0.14
  -5   1   5    0.08    0.15
  -5   1   5   -0.57    0.24
  -5   1   5    0.08    0.11
  -5   1   5    0.02    0.11
   4  -1  -5   75.90    2.00
   4  -1  -5   76.80    1.92
   4  -1  -5   76.37    1.96
   4  -1  -5   78.23    1.81
  -4   1   5   80.31    1.87
  -4   1   5   73.06    1.86
  -4   1   5   76.43    1.86
  -4   1   5   78.14    1.99
  -4   1   5   79.42    1.81
   3  -1  -5    0.11    0.10
   3  -1  -5    0.03    0.11
   3  -1  -5    0.21    0.14
   3  -1  -5    0.28    0.08
  -3   1   5    0.20    0.07
  -3   1   5    0.38    0.09
  -3   1   5    0.09    0.16
  -3   1   5    0.17    0.07
  -3   1   5    0.29    0.07
   2  -1  -5   40.45    1.07
   2  -1  -5   39.38    0.99
   2  -1  -5   39.63    1.04
   2  -1  -5   41.29    0.95
   2  -1  -5   39.64    1.00
   2  -1  -5   39.58    1.18
  -2   1   5   38.96    0.97
  -2   1   5   41.59    0.96
  -2   1   5   40.01    0.97
  -2   1   5   39.48    1.06
   1  -1  -5   13.80    0.43
   1  -1  -5   13.98    0.45
   1  -1  -5   14.29    0.44
   1  -1  -5   14.50    0.38
   1  -1  -5   13.99    0.42
   1  -1  -5   14.08    0.36
   1  -1  -5   14.23    0.38
  -1   1   5   13.82    0.38
  -1   1   5   14.37    0.38
  -1   1   5   14.35    0.44
  -1   1   5   13.86    0.38
   0  -1  -5  146.22    3.27
   0  -1  -5  147.31    3.36
   0  -1  -5  145.52    3.32
   0  -1  -5  147.53    3.30
   0  -1  -5  145.66    3.35
   0  -1  -5  146.36    3.34
   0  -1  -5  146.51    3.35
   0   1   5  137.69    3.30
   0   1   5  143.50    3.31
  -1  -1  -5    0.07    0.05
  -1  -1  -5    0.12    0.06
  -1  -1  -5    0.00    0.06
  -1  -1  -5    0.04    0.06
  -1  -1  -5    0.03    0.08
  -1  -1  -5    0.02    0.07
   1   1   5   -0.03    0.07
   1   1   5   -0.04    0.05
  -2  -1  -5  211.37    4.78
  -2  -1  -5  218.18    4.80
  -2  -1  -5  204.39    4.79
  -2  -1  -5  215.89    4.87
   2   1   5  215.34    4.80
   2   1   5  197.21    4.84
   2   1   5  212.94    4.80
  -3  -1  -5    2.21    0.12
  -3  -1  -5    2.03    0.18
  -3  -1  -5    2.25    0.16
  -3  -1  -5    2.33    0.15
   3   1   5    2.04    0.15
   3   1   5    2.06    0.15
   3   1   5    2.27    0.15
  -4  -1  -5   32.45    0.89
  -4  -1  -5   33.98    0.88
  -4  -1  -5   31.86    0.87
  -4  -1  -5   35.96    0.82
   4   1   5   33.76    0.87
   4   1   5   33.03    0.86
   4   1   5   33.07    0.87
  -5  -1  -5    4.19    0.23
  -5  -1  -5    4.51    0.27
  -5  -1  -5    4.69    0.24
   5   1   5    4.33    0.23
   5   1   5    4.30    0.24
   5   1   5    4.46    0.24
   5   1   5    4.47    0.26
  -6  -1  -5   26.72    0.81
  -6  -1  -5   26.67    0.77
  -6  -1  -5   27.09    0.78
   6   1   5   25.98    0.77
   6   1   5   26.24    0.77
   6   1   5   26.39    0.81
  -7  -1  -5    0.00    0.13
  -7  -1  -5   -0.15    0.12
  -7  -1  -5    0.20    0.18
   7   1   5    0.21    0.19
   7   1   5   -0.24    0.13
   7   1   5    0.07    0.15
   7   1   5    0.04    0.11
  -8  -1  -5   12.14    0.57
  -8  -1  -5   12.66    0.55
   8   1   5   12.27    0.61
   8   1   5   12.35    0.65
   8   1   5   11.98    0.52
  -9  -1  -5   -0.23    0.19
  -9  -1  -5   -0.24    0.27
  -9  -1  -5    0.05    0.25
   9   1   5   -0.08    0.22
   9   1   5    0.11    0.33
 -10  -1  -5    1.04    0.31
 -10  -1  -5    0.83    0.31
 -10  -1  -5    1.02    0.30
  10   1   5    1.23    0.41
  10   1   5    1.36    0.34
  10   1   5    1.24    0.32
   8  -2  -5   -0.14    0.32
   8  -2  -5   -0.11    0.28
   8  -2  -5    0.68    0.32
  -8   2   5    0.40    0.36
  -8   2   5    0.09    0.19
   7  -2  -5    6.55    0.53
   7  -2  -5    6.71    0.55
   7  -2  -5    6.24    0.52
  -7   2   5    7.02    0.40
  -7   2   5    6.71    0.38
   6  -2  -5    0.03    0.22
   6  -2  -5    0.18    0.21
   6  -2  -5   -0.08    0.23
  -6   2   5    0.30    0.14
   5  -2  -5    9.75    0.53
   5  -2  -5   10.59    0.38
   5  -2  -5   10.23    0.45
   5  -2  -5   10.80    0.57
  -5   2   5   10.59    0.39
  -5   2   5   10.93    0.36
  -5   2   5   11.56    0.40
   4  -2  -5    0.72    0.17
   4  -2  -5    1.11    0.17
   4  -2  -5    0.77    0.20
   4  -2  -5    0.87    0.18
   4  -2  -5    0.96    0.13
  -4   2   5    0.94    0.12
  -4   2   5    0.67    0.13
  -4   2   5    0.75    0.12
  -4   2   5    0.71    0.12
   3  -2  -5   52.29    1.35
   3  -2  -5   53.00    1.41
   3  -2  -5   51.70    1.32
   3  -2  -5   52.56    1.37
  -3   2   5   52.45    1.28
  -3   2   5   54.84    1.25
  -3   2   5   53.38    1.27
  -3   2   5   55.33    1.25
  -3   2   5   52.08    1.40
   2  -2  -5    1.04    0.16
   2  -2  -5    1.02    0.14
   2  -2  -5    0.96    0.11
   2  -2  -5    1.09    0.15
  -2   2   5    0.91    0.08
  -2   2   5    0.94    0.16
  -2   2   5    0.73    0.09
  -2   2   5    0.88    0.07
  -2   2   5    0.87    0.08
   1  -2  -5  224.96    5.04
   1  -2  -5  223.53    5.10
   1  -2  -5  222.66    5.04
   1  -2  -5  221.98    5.10
   1  -2  -5  216.83    5.11
  -1   2   5  228.36    5.02
  -1   2   5  222.48    5.02
  -1   2   5  222.26    5.09
  -1   2   5  219.48    5.05
   0  -2  -5    4.54    0.21
   0  -2  -5    4.83    0.22
   0  -2  -5    4.98    0.22
   0  -2  -5    4.91    0.15
   0  -2  -5    4.65    0.15
   0  -2  -5    4.77    0.20
   0  -2  -5    4.60    0.15
   0   2   5    4.83    0.16
   0   2   5    4.63    0.16
   0   2   5    4.50    0.19
   0   2   5    4.92    0.17
  -1  -2  -5  106.54    2.49
  -1  -2  -5  106.55    2.45
  -1  -2  -5   96.26    2.48
  -1  -2  -5  107.31    2.43
  -1  -2  -5  109.02    2.39
  -1  -2  -5  103.65    2.47
   1   2   5  108.24    2.43
   1   2   5  109.30    2.43
   1   2   5  104.15    2.43
  -2  -2  -5    0.70    0.10
  -2  -2  -5    0.74    0.10
  -2  -2  -5    0.69    0.14
   2   2   5    0.70    0.10
   2   2   5    0.63    0.09
   2   2   5    0.73    0.10
  -3  -2  -5  103.50    2.37
  -3  -2  -5  102.03    2.43
  -3  -2  -5  100.95    2.40
  -3  -2  -5  106.09    2.40
   3   2   5  102.25    2.39
   3   2   5  100.49    2.40
  -4  -2  -5    2.42    0.18
  -4  -2  -5    2.60    0.22
  -4  -2  -5    3.00    0.16
   4   2   5    2.08    0.20
   4   2   5    2.52    0.17
   4   2   5    2.63    0.16
  -5  -2  -5   93.07    2.15
  -5  -2  -5   87.12    2.14
  -5  -2  -5   90.03    2.18
   5   2   5   81.23    2.32
   5   2   5   90.92    2.16
   5   2   5   90.78    2.14
  -6  -2  -5    0.93    0.15
  -6  -2  -5    0.77    0.20
  -6  -2  -5    1.21    0.18
   6   2   5    0.65    0.15
   6   2   5    0.84    0.16
   6   2   5    0.45    0.15
  -7  -2  -5   12.28    0.50
  -7  -2  -5   13.51    0.73
  -7  -2  -5   12.67    0.50
   7   2   5   12.43    0.52
   7   2   5   12.92    0.50
   7   2   5   12.37    0.40
   7   2   5   12.91    0.52
  -8  -2  -5    0.06    0.22
  -8  -2  -5   -0.06    0.17
   8   2   5    0.28    0.20
   8   2   5    0.42    0.20
  -9  -2  -5    5.31    0.47
  -9  -2  -5    5.52    0.48
  -9  -2  -5    5.74    0.46
   9   2   5    5.25    0.59
   9   2   5    5.60    0.48
   9   2   5    4.92    0.49
 -10  -2  -5    0.33    0.29
 -10  -2  -5    0.27    0.27
 -10  -2  -5    0.27    0.27
  10   2   5    0.19    0.27
  10   2   5    0.06    0.28
  10   2   5   -0.33    0.34
   8  -3  -5    2.52    0.43
   8  -3  -5    2.51    0.43
  -8   3   5    3.00    0.36
   7  -3  -5    0.75    0.36
   7  -3  -5    1.27    0.32
   7  -3  -5    1.10    0.32
  -7   3   5    0.67    0.20
  -7   3   5    0.85    0.19
   6  -3  -5    4.52    0.49
   6  -3  -5    3.78    0.43
   6  -3  -5    4.33    0.43
  -6   3   5    4.28    0.25
  -6   3   5    4.01    0.39
   5  -3  -5    0.01    0.15
   5  -3  -5   -0.07    0.14
   5  -3  -5   -0.09    0.18
   5  -3  -5   -0.34    0.20
   5  -3  -5   -0.12    0.12
  -5   3   5    0.17    0.10
  -5   3   5   -0.01    0.10
  -5   3   5   -0.03    0.18
   4  -3  -5   38.02    1.15
   4  -3  -5   37.70    1.05
   4  -3  -5   38.17    1.09
   4  -3  -5   39.00    0.99
   4  -3  -5   38.53    1.05
  -4   3   5   39.73    0.94
  -4   3   5   38.26    0.96
  -4   3   5   38.87    0.96
  -4   3   5   38.59    0.96
   3  -3  -5    4.12    0.21
   3  -3  -5    4.10    0.29
   3  -3  -5    3.54    0.25
   3  -3  -5    3.71    0.23
   3  -3  -5    3.69    0.23
  -3   3   5    3.89    0.14
  -3   3   5    3.58    0.17
  -3   3   5    3.56    0.16
   2  -3  -5   85.99    2.07
   2  -3  -5   86.80    2.08
   2  -3  -5   82.85    2.10
   2  -3  -5   88.29    2.04
   2  -3  -5   85.10    2.02
  -2   3   5   83.35    1.96
  -2   3   5   87.10    1.97
  -2   3   5   89.58    1.96
  -2   3   5   85.41    2.09
   1  -3  -5    2.72    0.17
   1  -3  -5    2.78    0.18
   1  -3  -5    3.00    0.20
   1  -3  -5    2.82    0.19
   1  -3  -5    2.85    0.15
  -1   3   5    3.00    0.10
  -1   3   5    2.78    0.18
  -1   3   5    3.12    0.11
  -1   3   5    3.00    0.11
   0  -3  -5   97.49    2.22
   0  -3  -5   96.19    2.27
   0  -3  -5   93.39    2.27
   0  -3  -5   96.55    2.28
   0   3   5   96.42    2.23
   0   3   5   95.79    2.20
   0   3   5   96.79    2.20
   0   3   5   99.13    2.21
  -1  -3  -5    6.46    0.25
  -1  -3  -5    6.39    0.24
  -1  -3  -5    6.66    0.21
  -1  -3  -5    6.49    0.22
  -1  -3  -5    6.65    0.35
   1   3   5    6.42    0.21
   1   3   5    6.84    0.21
   1   3   5    6.70    0.21
  -2  -3  -5  118.66    2.70
  -2  -3  -5  116.05    2.76
  -2  -3  -5  108.25    2.74
   2   3   5  117.97    2.69
   2   3   5  121.97    2.66
   2   3   5  115.66    2.69
  -3  -3  -5    0.00    0.12
  -3  -3  -5    0.06    0.08
  -3  -3  -5    0.02    0.07
  -3  -3  -5    0.19    0.08
   3   3   5    0.07    0.07
   3   3   5   -0.01    0.07
   3   3   5    0.08    0.06
  -4  -3  -5  126.83    2.96
  -4  -3  -5  127.36    2.96
  -4  -3  -5  125.20    3.00
   4   3   5  125.75    2.94
   4   3   5  127.27    2.91
   4   3   5  123.76    2.95
  -5  -3  -5    0.51    0.13
  -5  -3  -5    0.46    0.12
  -5  -3  -5    0.35    0.16
   5   3   5    0.57    0.13
   5   3   5    0.47    0.12
   5   3   5    0.34    0.11
  -6  -3  -5   34.55    0.96
  -6  -3  -5   32.35    0.95
  -6  -3  -5   33.62    1.00
   6   3   5   34.96    0.95
   6   3   5   32.64    0.94
   6   3   5   34.97    0.95
  -7  -3  -5    2.53    0.28
  -7  -3  -5    2.03    0.25
  -7  -3  -5    2.53    0.42
   7   3   5    2.02    0.25
   7   3   5    2.39    0.27
   7   3   5    2.08    0.28
   7   3   5    2.07    0.21
  -8  -3  -5   15.04    0.62
  -8  -3  -5   15.39    0.71
  -8  -3  -5   19.03    0.95
   8   3   5   15.38    0.66
   8   3   5   16.42    0.64
   8   3   5   15.20    0.96
  -9  -3  -5   -0.13    0.22
  -9  -3  -5   -0.02    0.25
  -9  -3  -5    0.16    0.26
   9   3   5   -0.17    0.23
   9   3   5    0.36    0.26
   9   3   5   -0.29    0.28
 -10  -3  -5    2.63    0.37
 -10  -3  -5    2.78    0.41
 -10  -3  -5    3.12    0.41
  10   3   5    2.45    0.36
  10   3   5    2.85    0.46
  10   3   5    3.51    0.48
   7  -4  -5    7.65    0.58
   7  -4  -5    7.35    0.65
   7  -4  -5    7.99    0.54
  -7   4   5    6.77    0.38
  -7   4   5    7.20    0.40
   6  -4  -5    0.67    0.30
   6  -4  -5    0.50    0.20
   6  -4  -5    0.53    0.26
   6  -4  -5    0.56    0.24
   6  -4  -5    0.11    0.21
  -6   4   5    0.74    0.15
  -6   4   5    0.71    0.16
   5  -4  -5   14.32    0.59
   5  -4  -5   14.89    0.69
   5  -4  -5   14.27    0.54
   5  -4  -5   14.88    0.51
  -5   4   5   14.56    0.46
  -5   4   5   13.69    0.43
  -5   4   5   13.41    0.44
   4  -4  -5    0.74    0.19
   4  -4  -5    0.58    0.16
   4  -4  -5    0.61    0.16
   4  -4  -5    0.36    0.20
   4  -4  -5    0.62    0.15
  -4   4   5    0.83    0.11
  -4   4   5    0.82    0.12
  -4   4   5    0.77    0.10
   3  -4  -5   20.65    0.65
   3  -4  -5   21.16    0.60
   3  -4  -5   20.73    0.63
   3  -4  -5   20.63    0.70
   3  -4  -5   20.41    0.63
  -3   4   5   21.60    0.57
   2  -4  -5    1.54    0.19
   2  -4  -5    1.04    0.14
   2  -4  -5    1.29    0.16
   2  -4  -5    0.99    0.16
   2  -4  -5    1.15    0.13
   1  -4  -5  137.78    3.20
   1  -4  -5  135.42    3.22
   1  -4  -5  140.89    3.19
   1  -4  -5  138.21    3.22
   1  -4  -5  134.83    3.32
  -1   4   5  140.04    3.11
   0  -4  -5   13.47    0.42
   0  -4  -5   13.81    0.42
   0  -4  -5   13.81    0.39
   0   4   5   14.04    0.38
   0   4   5   13.41    0.36
   0   4   5   13.84    0.35
   0   4   5   14.19    0.36
  -1  -4  -5   78.29    1.84
  -1  -4  -5   78.87    1.88
  -1  -4  -5   78.18    1.89
  -1  -4  -5   78.24    1.90
  -1  -4  -5   77.15    1.83
   1   4   5   80.08    1.83
   1   4   5   82.37    1.81
   1   4   5   78.32    1.83
  -2  -4  -5    0.25    0.08
  -2  -4  -5    0.15    0.10
  -2  -4  -5    0.05    0.11
  -2  -4  -5    0.09    0.08
  -2  -4  -5    0.21    0.12
   2   4   5    0.21    0.05
   2   4   5    0.14    0.06
   2   4   5    0.15    0.07
  -3  -4  -5   60.40    1.45
  -3  -4  -5   59.50    1.52
  -3  -4  -5   58.93    1.46
  -3  -4  -5   60.47    1.52
  -3  -4  -5   56.86    1.45
   3   4   5   58.38    1.44
   3   4   5   60.26    1.44
   3   4   5   60.00    1.39
  -4  -4  -5   -0.24    0.14
  -4  -4  -5   -0.07    0.09
  -4  -4  -5    0.14    0.09
   4   4   5    0.02    0.09
   4   4   5   -0.02    0.08
  -5  -4  -5  108.10    2.66
  -5  -4  -5  104.83    2.60
  -5  -4  -5  109.49    2.60
   5   4   5  108.19    2.59
   5   4   5  110.02    2.56
   5   4   5  108.60    2.59
  -6  -4  -5    0.68    0.17
  -6  -4  -5    0.70    0.17
  -6  -4  -5    0.33    0.18
   6   4   5    0.34    0.15
   6   4   5    0.40    0.15
   6   4   5    0.60    0.16
   6   4   5    0.55    0.14
  -7  -4  -5   22.45    0.81
  -7  -4  -5   22.10    0.76
  -7  -4  -5   21.90    0.75
   7   4   5   22.23    0.66
   7   4   5   22.39    0.75
   7   4   5   22.98    0.72
   7   4   5   23.11    0.76
  -8  -4  -5    0.12    0.20
  -8  -4  -5    0.51    0.22
  -8  -4  -5    0.37    0.26
   8   4   5    0.30    0.17
   8   4   5    0.36    0.22
   8   4   5    0.42    0.27
   8   4   5    0.44    0.21
  -9  -4  -5    6.05    0.56
  -9  -4  -5    5.15    0.48
  -9  -4  -5    6.20    0.50
   9   4   5    5.10    0.47
   9   4   5    6.05    0.58
   9   4   5    4.51    0.54
 -10  -4  -5    0.01    0.27
 -10  -4  -5    0.15    0.31
 -10  -4  -5    0.09    0.28
  10   4   5    0.02    0.28
  10   4   5   -0.55    0.24
  10   4   5    0.48    0.35
   7  -5  -5    0.15    0.29
   7  -5  -5    0.45    0.31
   7  -5  -5    0.13    0.36
   7  -5  -5   -0.17    0.32
  -7   5   5    0.21    0.16
   6  -5  -5    6.75    0.60
   6  -5  -5    6.10    0.42
   6  -5  -5    7.04    0.47
   6  -5  -5    6.74    0.48
   6  -5  -5    5.78    0.48
  -6   5   5    5.68    0.32
  -6   5   5    5.74    0.36
   5  -5  -5   -0.08    0.18
   5  -5  -5    0.16    0.17
   5  -5  -5   -0.09    0.20
   5  -5  -5    0.09    0.16
  -5   5   5    0.11    0.09
  -5   5   5   -0.07    0.12
   4  -5  -5   31.50    0.92
   4  -5  -5   30.74    0.93
   4  -5  -5   31.99    0.97
   4  -5  -5   30.68    1.01
   4  -5  -5   32.13    0.89
  -4   5   5   32.54    0.85
   3  -5  -5    0.06    0.14
   3  -5  -5    0.14    0.12
   3  -5  -5    0.22    0.16
   3  -5  -5   -0.01    0.11
   3  -5  -5   -0.12    0.11
   2  -5  -5   41.86    1.13
   2  -5  -5   42.13    1.11
   2  -5  -5   42.38    1.09
   2  -5  -5   41.38    1.11
   2  -5  -5   42.85    1.10
   1  -5  -5    5.47    0.26
   1  -5  -5    5.21    0.25
   1  -5  -5    5.35    0.26
   1  -5  -5    5.28    0.23
   1  -5  -5    5.14    0.25
   0  -5  -5   94.26    2.19
   0  -5  -5   93.57    2.20
   0  -5  -5   93.37    2.22
   0  -5  -5   93.09    2.23
   0  -5  -5   91.32    2.22
   0   5   5   90.01    2.13
   0   5   5   95.56    2.13
   0   5   5   91.15    2.15
   0   5   5   96.00    2.14
  -1  -5  -5    2.05    0.16
  -1  -5  -5    1.92    0.10
  -1  -5  -5    2.07    0.16
  -1  -5  -5    1.88    0.17
  -1  -5  -5    1.85    0.14
  -1  -5  -5    1.99    0.19
   1   5   5    1.94    0.11
   1   5   5    1.85    0.11
   1   5   5    1.80    0.14
  -2  -5  -5  112.52    2.64
  -2  -5  -5  108.00    2.60
  -2  -5  -5  109.40    2.62
  -2  -5  -5  110.08    2.67
  -2  -5  -5  111.70    2.63
   2   5   5  113.20    2.57
   2   5   5  107.93    2.56
  -3  -5  -5    1.92    0.17
  -3  -5  -5    1.76    0.18
  -3  -5  -5    1.74    0.20
  -3  -5  -5    1.97    0.23
  -3  -5  -5    2.14    0.22
   3   5   5    1.94    0.15
   3   5   5    2.17    0.15
  -4  -5  -5   74.60    1.88
  -4  -5  -5   79.71    1.93
  -4  -5  -5   76.45    1.88
  -4  -5  -5   75.93    1.94
   4   5   5   74.72    1.85
   4   5   5   75.02    1.85
  -5  -5  -5    5.78    0.38
  -5  -5  -5    6.28    0.34
  -5  -5  -5    5.62    0.32
   5   5   5    6.80    0.28
   5   5   5    6.12    0.31
  -6  -5  -5   19.31    0.67
  -6  -5  -5   18.91    0.68
  -6  -5  -5   18.83    0.71
   6   5   5   19.65    0.61
   6   5   5   19.69    0.66
   6   5   5   19.74    0.61
   6   5   5   20.17    0.66
  -7  -5  -5   -0.18    0.21
  -7  -5  -5   -0.03    0.16
  -7  -5  -5   -0.14    0.17
   7   5   5    0.00    0.17
   7   5   5    0.06    0.14
   7   5   5   -0.27    0.19
  -8  -5  -5   15.20    0.69
  -8  -5  -5   15.43    0.68
  -8  -5  -5   14.18    0.66
   8   5   5   15.47    0.71
   8   5   5   15.79    0.92
   8   5   5   14.83    0.57
   8   5   5   15.45    0.60
  -9  -5  -5   -0.45    0.25
  -9  -5  -5    0.08    0.23
   9   5   5   -0.04    0.23
   9   5   5    0.00    0.24
 -10  -5  -5    3.99    0.52
 -10  -5  -5    2.73    0.41
 -10  -5  -5    2.80    0.46
  10   5   5    2.51    0.36
  10   5   5    2.19    0.44
  10   5   5    3.65    0.49
   6  -6  -5    0.18    0.27
   6  -6  -5   -0.10    0.30
   6  -6  -5    0.16    0.23
   6  -6  -5    0.02    0.31
   6  -6  -5    0.10    0.24
  -6   6   5    0.21    0.19
  -6   6   5   -0.09    0.12
   5  -6  -5   15.34    0.68
   5  -6  -5   14.99    0.59
   5  -6  -5   15.26    0.65
   5  -6  -5   16.21    0.77
  -5   6   5   16.01    0.54
  -5   6   5   15.82    0.64
   4  -6  -5    1.88    0.29
   4  -6  -5    1.91    0.30
   4  -6  -5    1.53    0.25
   4  -6  -5    1.81    0.24
   4  -6  -5    1.90    0.25
  -4   6   5    1.92    0.19
  -4   6   5    1.92    0.23
   3  -6  -5   18.34    0.67
   3  -6  -5   19.45    0.63
   3  -6  -5   19.17    0.61
   3  -6  -5   18.65    0.62
   3  -6  -5   18.60    0.63
   2  -6  -5    1.69    0.22
   2  -6  -5    2.11    0.23
   2  -6  -5    1.78    0.21
   2  -6  -5    2.00    0.22
   2  -6  -5    1.60    0.23
   1  -6  -5   82.30    1.98
   1  -6  -5   81.83    1.98
   1  -6  -5   80.78    2.00
   1  -6  -5   79.27    1.97
   1  -6  -5   81.45    1.97
  -1   6   5   80.52    1.85
  -1   6   5   83.46    1.86
   0  -6  -5    0.05    0.08
   0  -6  -5    0.01    0.10
   0  -6  -5    0.05    0.10
   0  -6  -5   -0.02    0.09
   0  -6  -5   -0.01    0.08
   0   6   5    0.07    0.06
   0   6   5    0.11    0.06
   0   6   5    0.07    0.05
   0   6   5    0.03    0.07
  -1  -6  -5  163.70    3.80
  -1  -6  -5  160.95    3.82
  -1  -6  -5  165.71    3.83
  -1  -6  -5  161.97    3.79
   1   6   5  160.26    3.74
   1   6   5  170.28    3.75
   1   6   5  162.80    3.78
  -2  -6  -5    5.56    0.28
  -2  -6  -5    5.57    0.27
  -2  -6  -5    5.36    0.23
  -2  -6  -5    5.09    0.25
  -2  -6  -5    5.32    0.29
   2   6   5    5.31    0.23
   2   6   5    5.40    0.22
  -3  -6  -5   49.16    1.24
  -3  -6  -5   48.29    1.24
  -3  -6  -5   48.89    1.25
  -3  -6  -5   45.56    1.27
  -3  -6  -5   46.92    1.28
   3   6   5   48.28    1.21
   3   6   5   49.11    1.22
  -4  -6  -5    0.09    0.12
  -4  -6  -5   -0.04    0.13
  -4  -6  -5    0.19    0.15
  -4  -6  -5    0.06    0.14
   4   6   5    0.28    0.11
   4   6   5   -0.03    0.09
  -5  -6  -5   28.90    0.88
  -5  -6  -5   30.92    0.90
   5   6   5   28.18    0.85
   5   6   5   28.80    0.77
   5   6   5   30.17    0.85
   5   6   5   28.30    0.85
  -6  -6  -5    1.60    0.25
  -6  -6  -5    1.45    0.22
  -6  -6  -5    1.27    0.22
  -6  -6  -5    1.70    0.28
   6   6   5    1.48    0.23
   6   6   5    1.34    0.21
   6   6   5    1.33    0.21
   6   6   5    1.47    0.17
  -7  -6  -5   20.38    0.75
  -7  -6  -5   19.34    0.73
   7   6   5   18.89    0.71
   7   6   5   18.78    0.65
   7   6   5   19.74    0.64
   7   6   5   19.51    0.74
  -8  -6  -5    0.69    0.26
  -8  -6  -5   -0.21    0.25
  -8  -6  -5    0.49    0.27
   8   6   5    0.94    0.28
   8   6   5    0.30    0.18
   8   6   5    0.21    0.23
   8   6   5    0.50    0.23
  -9  -6  -5    2.98    0.40
  -9  -6  -5    3.37    0.51
  -9  -6  -5    2.32    0.37
   9   6   5    2.36    0.40
   9   6   5    2.67    0.37
   9   6   5    3.80    0.42
 -10  -6  -5    0.31    0.35
 -10  -6  -5   -0.03    0.28
 -10  -6  -5    0.94    0.33
  10   6   5   -0.13    0.28
  10   6   5    0.35    0.35
  10   6   5    0.64    0.30
   6  -7  -5    3.09    0.39
   6  -7  -5    2.18    0.33
   6  -7  -5    2.50    0.48
   6  -7  -5    1.84    0.34
   6  -7  -5    2.36    0.35
  -6   7   5    2.32    0.28
   5  -7  -5    0.15    0.22
   5  -7  -5    0.17    0.28
   5  -7  -5    0.40    0.23
   5  -7  -5    0.45    0.33
   5  -7  -5    0.40    0.23
  -5   7   5    0.21    0.16
   4  -7  -5   17.58    0.76
   4  -7  -5   18.24    0.66
   4  -7  -5   19.05    0.78
   4  -7  -5   18.74    0.69
   4  -7  -5   19.13    0.75
  -4   7   5   19.68    0.60
  -4   7   5   17.51    0.63
   3  -7  -5    0.59    0.18
   3  -7  -5    0.33    0.16
   3  -7  -5    0.40    0.18
   3  -7  -5    0.42    0.16
   3  -7  -5    0.20    0.16
  -3   7   5    0.49    0.17
   2  -7  -5   38.73    1.05
   2  -7  -5   37.67    1.06
   2  -7  -5   38.59    1.05
   2  -7  -5   38.12    1.04
   2  -7  -5   37.98    1.06
   1  -7  -5    0.22    0.12
   1  -7  -5   -0.03    0.12
   1  -7  -5    0.14    0.12
   1  -7  -5    0.05    0.13
   1  -7  -5    0.13    0.11
  -1   7   5    0.09    0.11
  -1   7   5   -0.07    0.07
  -1   7   5    0.00    0.06
   0  -7  -5   62.43    1.58
   0  -7  -5   60.18    1.57
   0  -7  -5   63.12    1.51
   0  -7  -5   61.41    1.55
   0  -7  -5   62.91    1.55
   0   7   5   60.63    1.47
   0   7   5   63.79    1.51
   0   7   5   63.35    1.48
  -1  -7  -5    1.49    0.18
  -1  -7  -5    1.72    0.21
  -1  -7  -5    1.46    0.19
   1   7   5    1.45    0.17
   1   7   5    1.69    0.15
   1   7   5    1.55    0.13
  -2  -7  -5   81.11    2.01
  -2  -7  -5   81.56    1.92
  -2  -7  -5   80.42    1.98
  -2  -7  -5   81.45    2.02
   2   7   5   82.19    1.95
   2   7   5   80.51    1.95
  -3  -7  -5    0.38    0.15
  -3  -7  -5    0.42    0.16
  -3  -7  -5    0.55    0.15
  -3  -7  -5    0.02    0.16
  -3  -7  -5    0.46    0.13
   3   7   5    0.62    0.15
   3   7   5    0.44    0.11
   3   7   5    0.79    0.13
  -4  -7  -5   70.91    1.74
  -4  -7  -5   69.08    1.74
  -4  -7  -5   66.60    1.79
  -4  -7  -5   66.52    1.76
   4   7   5   68.83    1.74
   4   7   5   68.09    1.72
   4   7   5   67.57    1.72
   4   7   5   68.93    1.60
  -5  -7  -5   -0.01    0.13
  -5  -7  -5   -0.02    0.15
  -5  -7  -5    0.03    0.17
  -5  -7  -5    0.08    0.17
   5   7   5   -0.05    0.15
   5   7   5    0.12    0.14
   5   7   5    0.01    0.15
   5   7   5   -0.15    0.09
  -6  -7  -5   10.84    0.51
  -6  -7  -5   10.35    0.49
  -6  -7  -5   11.24    0.54
  -6  -7  -5   10.72    0.49
   6   7   5    9.95    0.49
   6   7   5   10.07    0.47
   6   7   5   11.17    0.51
   6   7   5   10.26    0.40
  -7  -7  -5    0.19    0.22
  -7  -7  -5   -0.29    0.18
  -7  -7  -5    0.29    0.20
   7   7   5   -0.02    0.19
   7   7   5    0.07    0.15
   7   7   5    0.08    0.22
   7   7   5   -0.08    0.20
  -8  -7  -5   10.85    0.61
  -8  -7  -5    9.59    0.57
  -8  -7  -5    8.94    0.57
  -8  -7  -5    8.69    0.54
   8   7   5   10.36    0.65
   8   7   5    9.58    0.56
   8   7   5   10.05    0.46
   8   7   5   10.87    0.71
  -9  -7  -5   -0.05    0.22
  -9  -7  -5   -0.17    0.33
  -9  -7  -5   -0.18    0.25
  -9  -7  -5    0.13    0.25
   9   7   5    0.01    0.24
   9   7   5   -0.15    0.35
   9   7   5   -0.28    0.39
   9   7   5    0.12    0.24
 -10  -7  -5    1.59    0.34
 -10  -7  -5    1.97    0.38
 -10  -7  -5    1.38    0.34
 -10  -7  -5    2.54    0.45
  10   7   5    2.50    0.45
  10   7   5    2.36    0.39
  10   7   5    1.22    0.33
   5  -8  -5    4.28    0.44
   5  -8  -5    5.51    0.76
   5  -8  -5    5.99    0.49
   5  -8  -5    5.11    0.59
   5  -8  -5    5.58    0.44
  -5   8   5    5.69    0.37
   4  -8  -5    1.09    0.26
   4  -8  -5    1.19    0.50
   4  -8  -5    1.08    0.26
   4  -8  -5    0.85    0.23
   4  -8  -5    1.21    0.26
  -4   8   5    1.76    0.27
  -4   8   5    0.84    0.19
   3  -8  -5   12.73    0.57
   3  -8  -5   13.14    0.57
   3  -8  -5   13.80    0.52
   3  -8  -5   13.60    0.56
  -3   8   5   13.23    0.54
   2  -8  -5    0.56    0.16
   2  -8  -5    0.25    0.16
   2  -8  -5    0.58    0.19
   2  -8  -5    0.89    0.19
   2  -8  -5    0.32    0.17
  -2   8   5    0.46    0.18
  -2   8   5    0.60    0.10
  -2   8   5    0.40    0.07
   1  -8  -5   27.39    0.78
   1  -8  -5   26.89    0.77
   1  -8  -5   26.64    0.81
   1  -8  -5   27.55    0.81
   1  -8  -5   27.07    0.83
  -1   8   5   26.93    0.70
  -1   8   5   26.95    0.71
  -1   8   5   27.16    0.84
   0  -8  -5    0.78    0.17
   0  -8  -5    0.86    0.13
   0  -8  -5    0.80    0.16
   0  -8  -5    0.59    0.14
   0  -8  -5    0.82    0.18
   0   8   5    0.80    0.12
   0   8   5    0.70    0.18
   0   8   5    0.66    0.14
   0   8   5    0.86    0.13
  -1  -8  -5   41.78    1.10
  -1  -8  -5   40.57    1.13
  -1  -8  -5   40.89    1.13
   1   8   5   40.68    1.05
   1   8   5   40.89    1.14
   1   8   5   41.42    1.06
   1   8   5   39.90    1.08
  -2  -8  -5    0.14    0.14
  -2  -8  -5    0.29    0.09
  -2  -8  -5   -0.01    0.11
  -2  -8  -5    0.11    0.14
  -2  -8  -5    0.28    0.15
   2   8   5    0.48    0.17
   2   8   5    0.07    0.11
   2   8   5    0.18    0.11
  -3  -8  -5   48.31    1.29
  -3  -8  -5   49.10    1.32
  -3  -8  -5   48.89    1.33
  -3  -8  -5   49.67    1.35
   3   8   5   49.72    1.29
   3   8   5   47.02    1.28
   3   8   5   49.86    1.33
  -4  -8  -5    1.82    0.23
  -4  -8  -5    1.84    0.27
  -4  -8  -5    2.09    0.26
  -4  -8  -5    1.83    0.27
  -4  -8  -5    1.89    0.40
   4   8   5    1.53    0.22
   4   8   5    1.91    0.23
   4   8   5    2.00    0.13
   4   8   5    1.77    0.25
  -5  -8  -5   33.28    0.86
  -5  -8  -5   33.12    1.00
  -5  -8  -5   34.02    1.01
  -5  -8  -5   33.35    0.99
   5   8   5   32.89    0.99
   5   8   5   32.68    0.83
   5   8   5   32.57    1.00
  -6  -8  -5    0.76    0.20
  -6  -8  -5    1.14    0.23
  -6  -8  -5    1.09    0.24
  -6  -8  -5    0.86    0.26
   6   8   5    0.72    0.23
   6   8   5    0.85    0.22
  -7  -8  -5   15.53    0.70
  -7  -8  -5   17.25    0.66
  -7  -8  -5   18.21    0.72
  -7  -8  -5   14.99    0.78
   7   8   5   17.10    0.59
   7   8   5   17.98    0.72
  -8  -8  -5    0.14    0.22
  -8  -8  -5   -0.36    0.35
  -8  -8  -5    0.84    0.30
  -8  -8  -5    0.19    0.23
   8   8   5    0.16    0.23
   8   8   5   -0.06    0.29
   8   8   5    0.29    0.19
   8   8   5   -0.19    0.28
  -9  -8  -5    3.51    0.44
  -9  -8  -5    2.88    0.39
  -9  -8  -5    3.19    0.42
  -9  -8  -5    2.97    0.47
   9   8   5    2.36    0.37
   9   8   5    3.80    0.42
   9   8   5    2.77    0.42
   9   8   5    2.61    0.46
 -10  -8  -5    0.36    0.29
 -10  -8  -5   -0.05    0.38
 -10  -8  -5    0.30    0.31
 -10  -8  -5    0.15    0.27
  10   8   5    0.04    0.33
  10   8   5   -0.09    0.25
  10   8   5    0.53    0.40
   5  -9  -5    0.43    0.31
   5  -9  -5    0.31    0.27
   5  -9  -5    0.16    0.34
   5  -9  -5   -0.08    0.28
   5  -9  -5   -0.05    0.25
  -5   9   5   -0.05    0.21
   4  -9  -5    5.76    0.57
   4  -9  -5    5.05    0.44
   4  -9  -5    6.08    0.48
   4  -9  -5    5.51    0.46
   4  -9  -5    5.56    0.56
  -4   9   5    5.04    0.57
   3  -9  -5    0.05    0.18
   3  -9  -5    0.28    0.20
   3  -9  -5    0.12    0.23
   3  -9  -5    0.02    0.19
   3  -9  -5    0.29    0.25
  -3   9   5    0.13    0.08
   2  -9  -5   17.71    0.65
   2  -9  -5   17.38    0.61
   2  -9  -5   17.44    0.60
   2  -9  -5   16.86    0.65
  -2   9   5   17.66    0.53
   1  -9  -5    3.50    0.27
   1  -9  -5    3.69    0.27
   1  -9  -5    3.20    0.30
  -1   9   5    3.32    0.23
   0  -9  -5   15.20    0.59
   0  -9  -5   15.24    0.58
   0  -9  -5   15.38    0.47
   0   9   5   14.94    0.50
   0   9   5   14.36    0.66
   0   9   5   15.42    0.73
  -1  -9  -5   -0.05    0.14
  -1  -9  -5   -0.06    0.15
  -1  -9  -5    0.05    0.13
   1   9   5    0.24    0.14
   1   9   5   -0.12    0.11
   1   9   5   -0.10    0.18
  -2  -9  -5   14.70    0.54
  -2  -9  -5   14.69    0.42
  -2  -9  -5   14.62    0.56
   2   9   5   14.01    0.51
   2   9   5   14.53    0.52
  -3  -9  -5    0.49    0.14
  -3  -9  -5    0.04    0.14
  -3  -9  -5    0.23    0.18
  -3  -9  -5    0.35    0.17
   3   9   5    0.55    0.33
   3   9   5    0.53    0.15
   3   9   5    0.56    0.16
  -4  -9  -5   56.13    1.57
  -4  -9  -5   56.80    1.55
  -4  -9  -5   57.19    1.50
  -4  -9  -5   57.82    1.60
   4   9   5   57.68    1.57
   4   9   5   59.49    1.55
   4   9   5   56.82    1.53
  -5  -9  -5    0.97    0.20
  -5  -9  -5    0.52    0.23
  -5  -9  -5    1.10    0.24
   5   9   5    0.75    0.21
   5   9   5    0.67    0.24
   5   9   5    0.72    0.21
  -6  -9  -5   13.11    0.59
  -6  -9  -5   12.81    0.47
  -6  -9  -5   12.10    0.62
  -6  -9  -5   12.15    0.55
  -6  -9  -5   12.84    0.62
   6   9   5   13.20    0.61
   6   9   5   12.50    0.60
   6   9   5   13.54    0.91
  -7  -9  -5    0.15    0.22
  -7  -9  -5    1.45    0.32
  -7  -9  -5    0.46    0.24
  -7  -9  -5    0.55    0.25
  -7  -9  -5    0.23    0.22
   7   9   5   -0.03    0.30
   7   9   5    0.49    0.25
   7   9   5    0.09    0.34
  -8  -9  -5    6.82    0.69
  -8  -9  -5    5.37    0.59
  -8  -9  -5    5.61    0.47
  -8  -9  -5    5.53    0.57
  -8  -9  -5    5.65    0.46
   8   9   5    4.96    0.59
   8   9   5    5.20    0.47
   8   9   5    6.02    0.60
  -9  -9  -5   -0.26    0.26
  -9  -9  -5   -0.16    0.25
  -9  -9  -5   -0.45    0.39
  -9  -9  -5    0.15    0.25
   9   9   5   -0.85    0.35
   9   9   5    0.24    0.27
   4 -10  -5   -0.46    0.30
   4 -10  -5    0.16    0.26
   4 -10  -5   -0.04    0.28
   4 -10  -5   -0.09    0.25
  -4  10   5    0.20    0.36
   3 -10  -5    7.93    0.51
   3 -10  -5    8.14    0.50
   3 -10  -5    7.65    0.51
   3 -10  -5    8.36    0.51
  -3  10   5    6.23    0.57
  -3  10   5    7.22    0.28
   2 -10  -5    0.22    0.19
   2 -10  -5    0.25    0.20
   2 -10  -5    0.68    0.21
   2 -10  -5    0.14    0.23
  -2  10   5    0.22    0.26
  -2  10   5    0.36    0.14
   1 -10  -5   15.76    0.65
   1 -10  -5   15.52    0.76
   1 -10  -5   15.86    0.63
   1 -10  -5   16.10    0.53
  -1  10   5   15.13    0.53
  -1  10   5   16.82    0.71
   0 -10  -5    0.55    0.19
   0 -10  -5    0.67    0.22
   0 -10  -5    0.29    0.15
   0 -10  -5    0.57    0.27
   0  10   5    0.39    0.24
   0  10   5    0.63    0.17
   0  10   5    0.54    0.22
  -1 -10  -5   20.91    0.76
  -1 -10  -5   20.07    0.73
   1  10   5   19.72    0.69
   1  10   5   21.36    0.77
   1  10   5   20.12    0.67
  -2 -10  -5    1.16    0.22
  -2 -10  -5    1.35    0.22
   2  10   5    1.49    0.32
   2  10   5    1.26    0.21
   2  10   5    1.11    0.21
  -3 -10  -5   22.06    0.80
  -3 -10  -5   21.83    0.65
  -3 -10  -5   21.30    0.76
   3  10   5   21.88    0.74
   3  10   5   20.21    0.83
   3  10   5   21.36    0.73
  -4 -10  -5    1.19    0.25
  -4 -10  -5    0.71    0.22
  -4 -10  -5    1.03    0.20
   4  10   5    1.06    0.26
   4  10   5    1.09    0.22
  -5 -10  -5   10.38    0.56
  -5 -10  -5   10.79    0.52
  -5 -10  -5   11.40    0.62
  -5 -10  -5   10.74    0.52
   5  10   5   10.68    0.54
   5  10   5   10.32    0.55
   5  10   5   11.21    0.59
  -6 -10  -5    0.07    0.23
  -6 -10  -5    0.20    0.23
  -6 -10  -5   -0.41    0.20
   6  10   5    0.05    0.24
   6  10   5   -0.45    0.25
   6  10   5   -0.12    0.30
  -7 -10  -5    9.35    0.75
  -7 -10  -5    8.25    0.51
  -7 -10  -5    8.11    0.52
   7  10   5    9.59    0.62
   7  10   5    8.35    0.55
   7  10   5    9.15    0.74
  -8 -10  -5   -0.02    0.23
  -8 -10  -5    0.27    0.24
  -8 -10  -5   -0.22    0.23
   8  10   5   -0.11    0.33
   8  10   5   -0.07    0.52
   8  10   5    0.14    0.26
  -9 -10  -5    1.47    0.33
  -9 -10  -5    2.06    0.35
  -9 -10  -5    2.13    0.33
  -9 -10  -5    2.87    0.88
   9  10   5    2.52    0.42
   9  10   5    2.73    0.51
   9  10   5    1.55    0.34
   3 -11  -5    0.25    0.28
   3 -11  -5    0.23    0.31
   3 -11  -5    0.46    0.25
   3 -11  -5   -0.35    0.27
   3 -11  -5    0.33    0.26
  -3  11   5    0.12    0.12
  -3  11   5    0.33    0.37
   2 -11  -5   11.62    0.54
   2 -11  -5   11.31    0.59
   2 -11  -5   11.43    0.58
  -2  11   5   10.88    0.42
  -2  11   5   11.34    0.67
   1 -11  -5    0.37    0.21
   1 -11  -5    0.26    0.21
  -1  11   5   -0.13    0.26
  -1  11   5    0.31    0.16
   0 -11  -5   23.09    0.81
   0 -11  -5   22.14    0.81
   0  11   5   21.72    0.74
   0  11   5   23.24    0.87
  -1 -11  -5    0.79    0.28
  -1 -11  -5    0.89    0.26
   1  11   5    0.49    0.21
   1  11   5    0.69    0.28
   1  11   5    0.78    0.21
  -2 -11  -5   12.44    0.59
  -2 -11  -5   10.80    0.66
   2  11   5   14.27    0.56
   2  11   5   12.62    0.63
   2  11   5   13.11    0.57
  -3 -11  -5   -0.16    0.23
  -3 -11  -5   -0.01    0.14
   3  11   5    0.48    0.19
   3  11   5   -0.15    0.22
   3  11   5    0.06    0.19
  -4 -11  -5   12.79    0.66
  -4 -11  -5   14.52    0.68
  -4 -11  -5   13.54    0.68
  -4 -11  -5   14.69    0.55
   4  11   5   13.59    0.67
   4  11   5   14.18    0.65
   4  11   5   13.44    0.70
  -5 -11  -5    1.40    0.33
  -5 -11  -5    1.28    0.28
  -5 -11  -5    0.87    0.26
  -5 -11  -5    1.49    0.28
   5  11   5    0.83    0.32
   5  11   5    1.40    0.29
   5  11   5    1.27    0.30
  -6 -11  -5    6.04    0.47
  -6 -11  -5    5.38    0.46
  -6 -11  -5    5.48    0.46
  -6 -11  -5    5.83    0.60
   6  11   5    5.63    0.49
   6  11   5    5.76    0.54
   6  11   5    6.24    0.53
  -7 -11  -5    0.15    0.24
  -7 -11  -5   -0.01    0.23
  -7 -11  -5    0.37    0.25
   7  11   5   -0.27    0.22
   7  11   5    0.33    0.32
   7  11   5    0.19    0.32
  -8 -11  -5    2.30    0.36
  -8 -11  -5    3.40    0.48
  -8 -11  -5    2.26    0.33
   8  11   5    2.05    0.35
   8  11   5    3.19    0.47
   8  11   5    3.40    0.47
   2 -12  -5    0.03    0.25
   2 -12  -5    0.11    0.24
  -2  12   5    0.47    0.35
  -2  12   5   -0.01    0.14
   1 -12  -5    8.44    0.55
   1 -12  -5    9.18    0.55
  -1  12   5    7.78    0.41
  -1  12   5    8.40    0.60
   0 -12  -5    0.22    0.22
   0 -12  -5    0.40    0.23
   0  12   5    0.11    0.16
   0  12   5    0.00    0.28
  -1 -12  -5   16.48    0.73
  -1 -12  -5   17.42    0.73
   1  12   5   16.83    0.78
   1  12   5   16.74    0.66
   1  12   5   17.75    0.68
  -2 -12  -5    0.16    0.19
  -2 -12  -5    0.11    0.22
   2  12   5    0.35    0.27
   2  12   5    0.46    0.22
   2  12   5    0.39    0.19
  -3 -12  -5   14.85    0.49
  -3 -12  -5   13.75    0.65
  -3 -12  -5   13.60    0.68
   3  12   5   14.30    0.71
   3  12   5   14.79    0.65
   3  12   5   13.89    0.62
  -4 -12  -5    0.09    0.22
  -4 -12  -5    0.00    0.21
  -4 -12  -5    0.29    0.23
   4  12   5    0.20    0.22
   4  12   5    0.42    0.25
   4  12   5    0.05    0.27
  -5 -12  -5    4.73    0.49
  -5 -12  -5    4.27    0.53
  -5 -12  -5    3.98    0.43
  -5 -12  -5    4.90    0.47
   5  12   5    3.92    0.51
   5  12   5    4.92    0.46
   5  12   5    4.98    0.51
  -6 -12  -5    0.10    0.24
  -6 -12  -5    0.48    0.32
  -6 -12  -5   -0.22    0.22
  -6 -12  -5   -0.07    0.26
   6  12   5   -0.50    0.31
   6  12   5   -0.02    0.24
   6  12   5    0.04    0.26
  -7 -12  -5    6.31    0.49
  -7 -12  -5    7.03    0.70
  -7 -12  -5    6.26    0.51
  -7 -12  -5    6.41    0.54
   7  12   5    6.20    0.53
   7  12   5    7.70    0.62
   7  12   5    6.25    0.60
  -8 -12  -5    0.35    0.27
   1 -13  -5    0.04    0.26
   1 -13  -5    0.07    0.27
  -1  13   5   -0.38    0.39
  -1  13   5   -0.15    0.18
   0 -13  -5    7.47    0.57
   0 -13  -5    7.62    0.55
   0  13   5    6.15    0.44
   0  13   5    5.43    0.55
  -1 -13  -5    0.09    0.24
  -1 -13  -5    0.82    0.27
   1  13   5    0.41    0.31
   1  13   5    0.19    0.20
  -2 -13  -5    8.24    0.58
  -2 -13  -5    8.99    0.57
   2  13   5    8.15    0.63
   2  13   5    8.31    0.66
   2  13   5    7.73    0.49
  -3 -13  -5    0.21    0.24
  -3 -13  -5   -0.16    0.23
   3  13   5    0.16    0.32
   3  13   5   -0.01    0.27
   3  13   5    0.27    0.22
  -4 -13  -5    9.49    0.54
  -4 -13  -5    8.56    0.56
  -4 -13  -5    9.65    0.68
   4  13   5    8.71    0.62
   4  13   5    9.24    0.66
   4  13   5    8.57    0.54
  -5 -13  -5   -0.42    0.23
  -5 -13  -5    0.25    0.29
  -5 -13  -5   -0.28    0.26
   5  13   5   -0.17    0.32
   5  13   5   -0.35    0.26
   5  13   5   -0.30    0.22
  -6 -13  -5    5.74    0.57
  -6 -13  -5    7.05    0.61
  -6 -13  -5    5.38    0.69
  -6 -13  -5    6.46    0.54
   6  13   5    4.95    0.56
   6  13   5    7.13    0.62
   6  13   5    6.52    0.61
  -2 -14  -5    0.80    0.29
  -2 -14  -5    0.58    0.30
   2  14   5    0.46    0.23
   2  14   5   -0.51    0.37
  -3 -14  -5    8.34    0.65
  -3 -14  -5    7.44    0.62
   3  14   5    7.09    0.64
   3  14   5    6.68    0.64
   3  14   5    6.28    0.49
  -4 -14  -5    0.29    0.34
  -4 -14  -5    0.40    0.28
   4  14   5    0.34    0.33
   4  14   5    0.39    0.24
   4  14   5   -0.32    0.35
   3  11  -6    2.20    0.40
   3  11  -6    2.54    0.44
   3  11  -6    1.76    0.37
  -3 -11   6    2.05    0.47
  -3 -11   6    2.29    0.44
  -3 -11   6    2.22    0.38
   2  11  -6   -0.20    0.30
   2  11  -6    0.20    0.32
   2  11  -6    0.41    0.27
  -2 -11   6   -0.70    0.32
  -2 -11   6    0.14    0.27
  -2 -11   6    0.11    0.25
   1  11  -6    2.47    0.43
   1  11  -6    2.38    0.37
   1  11  -6    2.35    0.39
  -1 -11   6    3.04    0.44
  -1 -11   6    3.18    0.42
  -1 -11   6    2.74    0.44
  -1 -11   6    2.30    0.32
   0  11  -6   -0.39    0.23
   0  11  -6   -0.25    0.29
   0  11  -6    0.28    0.27
   0 -11   6    0.45    0.23
   0 -11   6    0.14    0.29
   0 -11   6    0.13    0.31
   0 -11   6    0.34    0.23
  -1  11  -6    4.46    0.48
  -1  11  -6    4.58    0.57
  -1  11  -6    5.82    0.48
   1 -11   6    3.44    0.49
   1 -11   6    4.70    0.39
   1 -11   6    4.25    0.45
  -2  11  -6    0.11    0.31
  -2  11  -6   -0.09    0.22
  -2  11  -6    0.17    0.25
   2 -11   6    0.00    0.29
   2 -11   6    0.08    0.22
   2 -11   6    0.20    0.29
   5  10  -6   -0.24    0.28
   5  10  -6   -0.12    0.37
   5  10  -6    0.52    0.40
   5  10  -6   -0.19    0.42
  -5 -10   6    0.35    0.34
  -5 -10   6    0.39    0.43
  -5 -10   6    0.20    0.31
  -5 -10   6   -0.23    0.27
   4  10  -6    3.00    0.49
   4  10  -6    4.05    0.53
   4  10  -6    3.87    0.47
  -4 -10   6    3.49    0.74
  -4 -10   6    2.55    0.37
  -4 -10   6    2.83    0.43
  -4 -10   6    3.94    0.53
   3  10  -6    0.36    0.31
   3  10  -6   -0.37    0.35
   3  10  -6    0.07    0.24
  -3 -10   6    0.11    0.39
  -3 -10   6    0.10    0.25
  -3 -10   6    0.19    0.26
  -3 -10   6    0.06    0.28
   2  10  -6    6.08    0.50
   2  10  -6    4.96    0.52
  -2 -10   6    4.78    0.43
  -2 -10   6    5.29    0.52
  -2 -10   6    4.88    0.57
   1  10  -6    0.17    0.23
   1  10  -6   -0.04    0.27
   1  10  -6    0.21    0.28
  -1 -10   6   -0.23    0.19
  -1 -10   6    0.10    0.21
  -1 -10   6    0.25    0.25
  -1 -10   6    0.79    0.31
   0  10  -6    4.45    0.47
   0  10  -6    5.35    0.53
   0  10  -6    4.46    0.43
   0 -10   6    5.03    0.45
   0 -10   6    4.65    0.41
   0 -10   6    5.01    0.50
   0 -10   6    4.97    0.40
  -1  10  -6   -0.10    0.20
  -1  10  -6   -0.18    0.20
  -1  10  -6    1.10    0.30
   1 -10   6    0.03    0.25
   1 -10   6    0.25    0.43
   1 -10   6   -0.22    0.18
   1 -10   6    0.42    0.23
  -2  10  -6    5.09    0.42
  -2  10  -6    6.68    0.53
  -2  10  -6    4.50    0.43
   2 -10   6    5.16    0.56
   2 -10   6    5.39    0.40
   2 -10   6    5.20    0.47
   2 -10   6    4.54    0.46
  -3  10  -6    0.45    0.27
  -3  10  -6    0.16    0.20
  -3  10  -6   -0.02    0.23
   3 -10   6    0.09    0.27
   3 -10   6    0.48    0.25
   3 -10   6    0.13    0.21
   3 -10   6    0.37    0.42
  -4  10  -6    3.14    0.38
  -4  10  -6    3.55    0.50
  -4  10  -6    2.77    0.37
   4 -10   6    3.12    0.55
   4 -10   6    3.15    0.40
   4 -10   6    2.50    0.49
   4 -10   6    4.54    0.61
   5   9  -6    4.37    0.50
   5   9  -6    2.78    0.47
   5   9  -6    2.78    0.44
   5   9  -6    3.66    0.67
  -5  -9   6    2.52    0.45
  -5  -9   6    2.72    0.42
  -5  -9   6    2.81    0.40
  -5  -9   6    3.68    0.50
   4   9  -6   -0.02    0.21
   4   9  -6   -0.49    0.30
   4   9  -6    0.19    0.30
   4   9  -6    0.10    0.36
  -4  -9   6    0.08    0.28
  -4  -9   6    0.27    0.28
  -4  -9   6    0.16    0.36
  -4  -9   6    0.27    0.25
   3   9  -6    7.56    0.47
   3   9  -6    6.05    0.57
   3   9  -6    5.73    0.52
   3   9  -6    5.43    0.46
  -3  -9   6    5.99    0.47
  -3  -9   6    5.64    0.52
  -3  -9   6    6.37    0.59
  -3  -9   6    5.76    0.55
   2   9  -6   -0.13    0.25
   2   9  -6    0.04    0.22
   2   9  -6    0.28    0.28
  -2  -9   6   -0.08    0.27
  -2  -9   6   -0.44    0.24
  -2  -9   6   -0.07    0.19
  -2  -9   6    0.24    0.20
   1   9  -6    5.22    0.50
   1   9  -6    6.11    0.47
   1   9  -6    6.47    0.46
  -1  -9   6    6.65    0.41
  -1  -9   6    6.44    0.48
  -1  -9   6    5.21    0.34
  -1  -9   6    6.23    0.42
  -1  -9   6    6.18    0.50
   0   9  -6    0.31    0.21
   0   9  -6    0.26    0.26
   0   9  -6    0.24    0.22
   0  -9   6    0.09    0.19
   0  -9   6    0.63    0.26
   0  -9   6    0.47    0.20
   0  -9   6    0.21    0.26
  -1   9  -6    9.82    0.52
  -1   9  -6    9.70    0.53
  -1   9  -6    9.79    0.56
   1  -9   6    9.47    0.53
   1  -9   6   10.05    0.48
   1  -9   6    9.52    0.47
  -2   9  -6    0.58    0.24
  -2   9  -6    0.07    0.19
  -2   9  -6    0.84    0.28
   2  -9   6    0.48    0.25
   2  -9   6    0.94    0.30
   2  -9   6    0.73    0.21
  -3   9  -6    9.37    0.53
  -3   9  -6    7.97    0.47
  -3   9  -6    9.04    0.53
   3  -9   6    9.09    0.47
   3  -9   6    8.12    0.63
   3  -9   6    9.26    0.52
   3  -9   6    8.06    0.50
  -4   9  -6    0.45    0.28
  -4   9  -6    0.40    0.23
  -4   9  -6    0.16    0.21
  -4   9  -6    0.53    0.19
   4  -9   6    0.13    0.28
   4  -9   6    0.24    0.23
   4  -9   6    0.07    0.25
   4  -9   6    0.00    0.37
  -5   9  -6    2.77    0.37
  -5   9  -6    4.04    0.48
  -5   9  -6    2.98    0.34
  -5   9  -6    2.47    0.34
   5  -9   6    2.99    0.44
   5  -9   6    3.32    0.48
   5  -9   6    3.10    0.46
   6   8  -6    1.36    0.43
   6   8  -6    1.86    0.39
   6   8  -6    1.47    0.33
   6   8  -6    1.91    0.40
  -6  -8   6    1.27    0.35
  -6  -8   6    1.59    0.34
  -6  -8   6    1.91    0.41
   5   8  -6    0.23    0.31
   5   8  -6    0.43    0.32
   5   8  -6    0.03    0.25
  -5  -8   6    0.15    0.27
  -5  -8   6    0.28    0.25
  -5  -8   6   -0.27    0.30
   4   8  -6    2.73    0.38
   4   8  -6    2.68    0.41
   4   8  -6    3.04    0.42
   4   8  -6    2.87    0.36
  -4  -8   6    2.70    0.38
  -4  -8   6    2.66    0.35
  -4  -8   6    2.39    0.37
  -4  -8   6    2.26    0.34
   3   8  -6   -0.05    0.25
   3   8  -6    0.17    0.26
   3   8  -6    0.29    0.22
   3   8  -6   -0.05    0.19
  -3  -8   6    0.15    0.24
  -3  -8   6    0.29    0.28
  -3  -8   6    0.09    0.21
   2   8  -6   13.74    0.61
   2   8  -6   12.95    0.66
   2   8  -6   13.37    0.61
   2   8  -6   12.95    0.45
  -2  -8   6   14.11    0.62
  -2  -8   6   13.16    0.59
  -2  -8   6   13.11    0.54
   1   8  -6    0.07    0.24
   1   8  -6   -0.05    0.20
   1   8  -6   -0.01    0.18
  -1  -8   6    0.01    0.21
  -1  -8   6   -0.18    0.14
  -1  -8   6    0.20    0.24
   0   8  -6   12.32    0.60
   0   8  -6   11.70    0.52
   0   8  -6   11.90    0.52
   0  -8   6   11.21    0.50
   0  -8   6   11.70    0.52
   0  -8   6   11.22    0.47
   0  -8   6   11.60    0.55
  -1   8  -6    1.18    0.22
  -1   8  -6    1.02    0.22
   1  -8   6    1.09    0.21
   1  -8   6    1.26    0.19
   1  -8   6    1.62    0.28
  -2   8  -6    9.34    0.47
  -2   8  -6    9.85    0.48
  -2   8  -6    8.93    0.57
   2  -8   6    9.13    0.43
  -3   8  -6    0.46    0.20
  -3   8  -6    0.69    0.20
  -3   8  -6    0.80    0.24
   3  -8   6    0.35    0.23
   3  -8   6    0.46    0.18
   3  -8   6    0.83    0.29
   3  -8   6    0.54    0.19
  -4   8  -6   12.89    0.70
  -4   8  -6   12.35    0.54
  -4   8  -6   10.40    0.53
  -4   8  -6   11.00    0.52
   4  -8   6   11.48    0.59
   4  -8   6   12.14    0.62
   4  -8   6   11.45    0.49
   4  -8   6   12.00    0.70
  -5   8  -6    0.15    0.23
  -5   8  -6    0.68    0.22
  -5   8  -6   -0.07    0.20
  -5   8  -6    0.23    0.18
   5  -8   6   -0.16    0.24
   5  -8   6    0.35    0.28
   5  -8   6    0.51    0.23
   5  -8   6    0.06    0.33
  -6   8  -6    3.36    0.36
  -6   8  -6    1.93    0.33
  -6   8  -6    2.54    0.35
   6  -8   6    2.42    0.36
   6  -8   6    3.44    0.46
   6  -8   6    3.42    0.48
   7   7  -6    0.92    0.34
   7   7  -6    0.42    0.32
   7   7  -6    0.83    0.36
   7   7  -6    1.14    0.34
   7   7  -6    1.24    0.40
  -7  -7   6    0.67    0.35
  -7  -7   6    1.55    0.37
  -7  -7   6    1.40    0.35
   6   7  -6   -0.39    0.28
   6   7  -6    0.25    0.34
   6   7  -6    0.29    0.27
   6   7  -6    0.05    0.32
   6   7  -6    0.05    0.34
  -6  -7   6    0.11    0.28
  -6  -7   6    0.01    0.28
  -6  -7   6   -0.04    0.25
   5   7  -6    5.07    0.56
   5   7  -6    5.33    0.49
   5   7  -6    4.82    0.54
   5   7  -6    4.86    0.47
  -5  -7   6    4.66    0.49
  -5  -7   6    4.47    0.47
  -5  -7   6    4.61    0.55
   4   7  -6    0.37    0.22
   4   7  -6   -0.09    0.26
   4   7  -6   -0.27    0.28
   4   7  -6   -0.18    0.27
   4   7  -6    0.10    0.21
  -4  -7   6   -0.19    0.22
  -4  -7   6   -0.07    0.24
  -4  -7   6    0.20    0.25
   3   7  -6   10.18    0.60
   3   7  -6   11.45    0.46
   3   7  -6   11.25    0.57
  -3  -7   6   11.48    0.51
  -3  -7   6   12.36    0.58
  -3  -7   6   10.68    0.55
   2   7  -6   -0.25    0.17
   2   7  -6   -0.22    0.25
   2   7  -6    0.21    0.20
   2   7  -6    0.10    0.17
  -2  -7   6    0.16    0.17
  -2  -7   6   -0.02    0.15
  -2  -7   6    0.07    0.22
  -2  -7   6   -0.12    0.19
   1   7  -6   11.50    0.43
   1   7  -6   12.20    0.52
   1   7  -6   11.88    0.58
   1   7  -6   11.39    0.50
  -1  -7   6   12.06    0.49
  -1  -7   6   11.45    0.57
  -1  -7   6   12.83    0.51
  -1  -7   6   12.26    0.46
   0   7  -6    0.17    0.24
   0   7  -6   -0.04    0.15
   0  -7   6    0.01    0.12
   0  -7   6   -0.11    0.15
   0  -7   6   -0.01    0.15
  -1   7  -6   14.88    0.60
  -1   7  -6   14.11    0.55
  -1   7  -6   14.82    0.55
   1  -7   6   14.39    0.53
   1  -7   6   14.47    0.51
   1  -7   6   13.82    0.68
  -2   7  -6    0.44    0.15
  -2   7  -6    0.37    0.16
  -2   7  -6    0.66    0.27
   2  -7   6    0.53    0.20
   2  -7   6    0.51    0.15
   2  -7   6    1.04    0.23
  -3   7  -6   10.42    0.47
  -3   7  -6   11.24    0.64
   3  -7   6   10.12    0.44
   3  -7   6   11.43    0.46
   3  -7   6   10.67    0.51
  -4   7  -6    0.57    0.20
  -4   7  -6    0.82    0.19
  -4   7  -6    0.54    0.19
  -4   7  -6    0.35    0.18
   4  -7   6    0.44    0.23
   4  -7   6    0.56    0.25
   4  -7   6    0.50    0.18
   4  -7   6    0.70    0.19
  -5   7  -6    7.59    0.43
  -5   7  -6    8.02    0.47
  -5   7  -6    8.97    0.40
  -5   7  -6    8.13    0.44
   5  -7   6    7.76    0.40
   5  -7   6    7.47    0.52
   5  -7   6    8.23    0.63
   5  -7   6    8.08    0.55
  -6   7  -6    0.47    0.19
  -6   7  -6    0.65    0.25
  -6   7  -6    0.72    0.25
   6  -7   6    0.79    0.22
   6  -7   6    0.25    0.23
   6  -7   6    0.26    0.30
   6  -7   6    0.92    0.31
  -7   7  -6    2.10    0.28
  -7   7  -6    3.64    0.40
  -7   7  -6    2.41    0.35
   7  -7   6    2.88    0.47
   7  -7   6    2.78    0.39
   7   6  -6   -0.28    0.35
   7   6  -6   -0.18    0.27
   7   6  -6    0.17    0.31
   7   6  -6    0.31    0.30
   7   6  -6    0.03    0.30
  -7  -6   6    0.23    0.29
  -7  -6   6    0.31    0.28
  -7  -6   6   -0.35    0.26
   6   6  -6    4.97    0.50
   6   6  -6    4.27    0.54
   6   6  -6    6.40    0.57
   6   6  -6    6.19    0.51
   6   6  -6    5.32    0.55
  -6  -6   6    5.54    0.50
  -6  -6   6    5.94    0.53
  -6  -6   6    5.59    0.51
   5   6  -6    0.06    0.26
   5   6  -6   -0.17    0.22
   5   6  -6   -0.20    0.23
   5   6  -6    0.35    0.31
   5   6  -6    0.10    0.25
  -5  -6   6    0.06    0.25
  -5  -6   6    0.10    0.25
  -5  -6   6   -0.17    0.23
   4   6  -6    7.77    0.53
   4   6  -6    8.14    0.77
   4   6  -6    7.88    0.47
   4   6  -6    7.69    0.43
  -4  -6   6    6.96    0.51
  -4  -6   6    7.62    0.48
  -4  -6   6    7.16    0.49
   3   6  -6    0.01    0.25
   3   6  -6   -0.22    0.15
   3   6  -6   -0.06    0.19
   3   6  -6   -0.05    0.16
   3   6  -6   -0.09    0.22
  -3  -6   6    0.22    0.19
  -3  -6   6   -0.06    0.17
  -3  -6   6   -0.19    0.19
   2   6  -6   20.41    0.69
   2   6  -6   19.81    0.69
   2   6  -6   19.57    0.61
   2   6  -6   19.57    0.75
  -2  -6   6   19.51    0.69
  -2  -6   6   20.71    0.65
  -2  -6   6   20.70    0.68
   1   6  -6   -0.01    0.15
   1   6  -6    0.12    0.23
   1   6  -6   -0.12    0.12
   1   6  -6   -0.16    0.10
  -1  -6   6   -0.29    0.15
  -1  -6   6   -0.16    0.13
  -1  -6   6    0.01    0.10
  -1  -6   6    0.00    0.15
   0   6  -6   27.88    0.84
   0   6  -6   27.62    0.89
   0   6  -6   27.44    0.83
   0   6  -6   28.46    0.70
   0  -6   6   28.65    0.86
   0  -6   6   28.75    0.79
   0  -6   6   28.28    0.82
   0  -6   6   28.19    0.82
  -1   6  -6    0.02    0.13
  -1   6  -6   -0.03    0.15
  -1   6  -6   -0.09    0.12
   1  -6   6    0.06    0.14
   1  -6   6   -0.04    0.12
   1  -6   6    0.16    0.11
   1  -6   6    0.14    0.14
  -2   6  -6    9.15    0.42
  -2   6  -6    9.18    0.40
  -2   6  -6    8.76    0.40
   2  -6   6    9.27    0.38
   2  -6   6    9.10    0.37
   2  -6   6    8.94    0.42
   2  -6   6    8.81    0.40
  -3   6  -6    0.58    0.14
  -3   6  -6    0.65    0.15
  -3   6  -6    0.47    0.16
  -3   6  -6    0.69    0.16
   3  -6   6    0.55    0.18
   3  -6   6    0.81    0.24
   3  -6   6    0.62    0.15
   3  -6   6    0.72    0.16
  -4   6  -6   12.37    0.45
  -4   6  -6   12.08    0.48
  -4   6  -6   11.34    0.50
  -4   6  -6   11.78    0.48
   4  -6   6   11.16    0.52
   4  -6   6   11.01    0.44
   4  -6   6   11.53    0.56
   4  -6   6   11.21    0.52
  -5   6  -6    0.29    0.19
  -5   6  -6    0.17    0.17
  -5   6  -6    0.26    0.16
   5  -6   6    0.35    0.19
   5  -6   6    0.23    0.22
   5  -6   6    0.22    0.24
  -6   6  -6    7.67    0.43
  -6   6  -6    7.69    0.34
  -6   6  -6    7.30    0.46
  -6   6  -6    7.46    0.43
   6  -6   6    6.98    0.49
   6  -6   6    7.74    0.60
   6  -6   6    7.25    0.50
   6  -6   6    7.34    0.40
  -7   6  -6    1.08    0.28
  -7   6  -6    0.55    0.20
  -7   6  -6    0.51    0.23
   7  -6   6    0.43    0.24
   7  -6   6    0.80    0.23
   7  -6   6    0.35    0.29
   7   5  -6    1.02    0.35
   7   5  -6    1.05    0.31
   7   5  -6    0.99    0.32
   7   5  -6    1.24    0.34
   7   5  -6    0.89    0.39
  -7  -5   6    1.28    0.32
  -7  -5   6    1.07    0.32
  -7  -5   6    1.29    0.32
   6   5  -6    0.31    0.26
   6   5  -6    0.00    0.28
   6   5  -6   -0.40    0.25
   6   5  -6   -0.23    0.26
  -6  -5   6    0.56    0.28
  -6  -5   6   -0.17    0.26
  -6  -5   6    0.37    0.23
   5   5  -6   12.65    0.62
   5   5  -6   13.48    0.64
   5   5  -6   11.98    0.68
   5   5  -6   13.50    0.58
   5   5  -6   13.67    0.63
  -5  -5   6   12.62    0.64
  -5  -5   6   13.56    0.60
   4   5  -6   -0.26    0.20
   4   5  -6   -0.10    0.19
   4   5  -6    0.34    0.20
   4   5  -6    0.95    0.42
   4   5  -6   -0.04    0.17
  -4  -5   6    0.10    0.25
  -4  -5   6   -0.23    0.16
   3   5  -6   31.49    1.00
   3   5  -6   30.15    0.92
   3   5  -6   30.57    0.90
   3   5  -6   30.65    1.03
   3   5  -6   32.57    0.94
  -3  -5   6   31.14    0.95
  -3  -5   6   31.34    0.94
   2   5  -6    1.89    0.27
   2   5  -6    1.95    0.27
   2   5  -6    1.45    0.23
   2   5  -6    1.21    0.20
   2   5  -6    1.98    0.20
  -2  -5   6    1.68    0.22
  -2  -5   6    1.55    0.25
  -2  -5   6    1.60    0.23
  -2  -5   6    1.55    0.22
   1   5  -6   17.67    0.59
   1   5  -6   17.89    0.53
   1   5  -6   17.90    0.64
   1   5  -6   19.11    0.67
   1   5  -6   18.48    0.60
  -1  -5   6   18.58    0.58
  -1  -5   6   18.12    0.63
  -1  -5   6   17.64    0.59
  -1  -5   6   18.44    0.61
   0   5  -6    0.36    0.16
   0   5  -6    0.27    0.12
   0   5  -6    0.40    0.14
   0  -5   6    0.51    0.14
   0  -5   6    0.66    0.12
   0  -5   6    0.31    0.14
   0  -5   6    0.49    0.14
  -1   5  -6   49.57    1.28
  -1   5  -6   47.84    1.27
  -1   5  -6   49.13    1.31
   1  -5   6   50.08    1.23
   1  -5   6   49.60    1.26
   1  -5   6   48.39    1.26
   1  -5   6   47.85    1.29
  -2   5  -6    0.22    0.12
  -2   5  -6    0.01    0.11
  -2   5  -6    0.02    0.14
  -2   5  -6    0.13    0.14
   2  -5   6    0.10    0.14
   2  -5   6    0.06    0.09
   2  -5   6    0.05    0.11
   2  -5   6    0.10    0.12
  -3   5  -6   23.12    0.70
  -3   5  -6   22.92    0.69
  -3   5  -6   22.66    0.68
  -3   5  -6   21.62    0.68
  -3   5  -6   22.54    0.70
   3  -5   6   22.15    0.71
   3  -5   6   23.24    0.67
   3  -5   6   23.46    0.68
   3  -5   6   21.99    0.67
  -4   5  -6    0.68    0.15
  -4   5  -6    1.16    0.17
  -4   5  -6    0.91    0.20
  -4   5  -6    1.03    0.17
   4  -5   6    0.92    0.16
   4  -5   6    0.68    0.19
   4  -5   6    0.71    0.15
  -5   5  -6    6.53    0.36
  -5   5  -6    6.83    0.30
  -5   5  -6    6.66    0.35
   5  -5   6    6.50    0.33
   5  -5   6    6.35    0.36
   5  -5   6    5.88    0.45
  -6   5  -6    0.20    0.16
  -6   5  -6    0.17    0.28
  -6   5  -6    0.25    0.20
  -6   5  -6    0.34    0.13
   6  -5   6    0.46    0.26
   6  -5   6    0.43    0.20
   6  -5   6    0.14    0.22
  -7   5  -6    6.18    0.43
  -7   5  -6    6.94    0.45
  -7   5  -6    6.70    0.40
   7  -5   6    6.58    0.50
   7  -5   6    7.02    0.56
   7  -5   6    6.96    0.40
  -8   5  -6   -0.10    0.24
  -8   5  -6    0.11    0.24
  -8   5  -6   -0.07    0.15
   8  -5   6    0.45    0.33
   8  -5   6   -0.09    0.35
   8  -5   6    0.48    0.28
   7   4  -6   -0.14    0.29
   7   4  -6    0.19    0.24
   7   4  -6   -0.33    0.27
   7   4  -6    0.45    0.28
   7   4  -6    0.12    0.34
  -7  -4   6    0.02    0.26
  -7  -4   6    0.25    0.22
  -7  -4   6   -0.07    0.29
   6   4  -6    8.44    0.61
   6   4  -6    8.34    0.54
   6   4  -6    7.79    0.55
   6   4  -6    9.14    0.57
   6   4  -6    8.83    0.48
  -6  -4   6    8.80    0.53
  -6  -4   6    8.97    0.56
  -6  -4   6    9.59    0.53
   5   4  -6    0.45    0.19
   5   4  -6    0.41    0.34
   5   4  -6    0.50    0.22
   5   4  -6    0.23    0.23
  -5  -4   6    0.55    0.27
  -5  -4   6    0.37    0.19
  -5  -4   6    0.46    0.20
   4   4  -6   15.95    0.57
   4   4  -6   15.85    0.68
   4   4  -6   17.35    0.63
   4   4  -6   16.14    0.61
   4   4  -6   15.60    0.63
  -4  -4   6   15.08    0.60
  -4  -4   6   15.23    0.66
  -4  -4   6   15.81    0.60
   3   4  -6    0.41    0.16
   3   4  -6    0.05    0.15
   3   4  -6    0.28    0.14
   3   4  -6    0.48    0.17
   3   4  -6    0.31    0.19
   3   4  -6    0.54    0.20
  -3  -4   6    0.40    0.21
  -3  -4   6    0.39    0.16
  -3  -4   6    0.28    0.15
   2   4  -6   29.72    0.85
   2   4  -6   31.23    0.91
   2   4  -6   31.10    0.86
   2   4  -6   29.68    0.92
   2   4  -6   29.20    0.83
  -2  -4   6   30.38    0.87
  -2  -4   6   30.28    0.91
  -2  -4   6   30.19    0.87
   1   4  -6    4.29    0.25
   1   4  -6    4.23    0.28
   1   4  -6    4.42    0.30
   1   4  -6    4.04    0.21
  -1  -4   6    3.78    0.24
  -1  -4   6    4.18    0.22
  -1  -4   6    3.70    0.27
  -1  -4   6    4.30    0.26
   0   4  -6   90.47    2.17
   0   4  -6   83.93    2.09
   0   4  -6   85.14    2.14
   0   4  -6   89.00    2.10
   0   4  -6   88.59    2.03
   0  -4   6   86.51    2.05
   0  -4   6   86.63    2.09
   0  -4   6   86.32    2.09
   0  -4   6   84.25    2.12
  -1   4  -6    0.66    0.13
  -1   4  -6    0.73    0.14
  -1   4  -6    0.71    0.15
  -1   4  -6    0.72    0.14
  -1   4  -6    0.79    0.10
   1  -4   6    0.57    0.12
   1  -4   6    1.00    0.15
   1  -4   6    0.85    0.16
   1  -4   6    0.62    0.10
  -2   4  -6   54.66    1.36
  -2   4  -6   56.53    1.34
  -2   4  -6   54.20    1.38
  -2   4  -6   52.86    1.37
  -2   4  -6   53.81    1.38
   2  -4   6   54.61    1.40
   2  -4   6   52.83    1.37
   2  -4   6   54.74    1.33
  -3   4  -6    0.11    0.11
  -3   4  -6    0.25    0.13
  -3   4  -6    0.06    0.11
  -3   4  -6    0.35    0.09
  -3   4  -6    0.10    0.11
   3  -4   6    0.11    0.12
   3  -4   6    0.09    0.13
   3  -4   6    0.20    0.11
   3  -4   6    0.16    0.11
  -4   4  -6   24.24    0.72
  -4   4  -6   24.05    0.72
  -4   4  -6   24.96    0.69
  -4   4  -6   24.49    0.74
   4  -4   6   23.75    0.71
   4  -4   6   24.22    0.70
   4  -4   6   25.09    0.75
   4  -4   6   23.32    0.76
  -5   4  -6    0.92    0.19
  -5   4  -6    1.05    0.17
  -5   4  -6    0.83    0.16
  -5   4  -6    0.86    0.13
   5  -4   6    1.11    0.17
   5  -4   6    0.95    0.17
   5  -4   6    1.14    0.24
   5  -4   6    1.05    0.22
  -6   4  -6    9.76    0.45
  -6   4  -6    9.62    0.48
  -6   4  -6   10.40    0.36
  -6   4  -6   10.63    0.45
   6  -4   6   10.71    0.42
   6  -4   6   10.37    0.51
   6  -4   6   10.89    0.47
   6  -4   6   10.60    0.57
  -7   4  -6   -0.24    0.13
  -7   4  -6   -0.32    0.17
  -7   4  -6    0.03    0.16
   7  -4   6    0.10    0.18
   7  -4   6   -0.07    0.25
   7  -4   6    0.04    0.25
   7  -4   6   -0.04    0.20
  -8   4  -6    3.57    0.34
  -8   4  -6    3.47    0.44
  -8   4  -6    3.84    0.42
   8  -4   6    3.86    0.48
   8  -4   6    3.99    0.51
   8  -4   6    3.84    0.41
  -9   4  -6    0.14    0.26
  -9   4  -6   -0.29    0.27
  -9   4  -6    0.16    0.19
   9  -4   6    0.59    0.35
   9  -4   6    0.58    0.32
   8   3  -6   -0.61    0.33
   8   3  -6   -0.21    0.26
   8   3  -6    0.08    0.31
  -8  -3   6    0.08    0.25
  -8  -3   6    0.04    0.31
   7   3  -6    2.62    0.41
   7   3  -6    2.24    0.57
   7   3  -6    2.69    0.38
   7   3  -6    2.16    0.35
   7   3  -6    2.10    0.38
  -7  -3   6    1.92    0.28
  -7  -3   6    1.91    0.34
  -7  -3   6    2.43    0.34
   6   3  -6    0.20    0.19
   6   3  -6    0.50    0.25
   6   3  -6    0.42    0.28
   6   3  -6    0.42    0.27
   6   3  -6    0.45    0.26
  -6  -3   6    0.48    0.21
  -6  -3   6    0.13    0.19
  -6  -3   6    0.30    0.25
   5   3  -6    9.47    0.41
   5   3  -6    9.06    0.47
   5   3  -6    8.96    0.54
   5   3  -6    9.02    0.50
   5   3  -6    8.89    0.50
  -5  -3   6    9.80    0.48
  -5  -3   6    9.34    0.54
  -5  -3   6    9.25    0.44
   4   3  -6    1.48    0.23
   4   3  -6    1.39    0.19
   4   3  -6    0.93    0.21
   4   3  -6    1.14    0.20
   4   3  -6    1.16    0.23
  -4  -3   6    1.03    0.19
  -4  -3   6    1.28    0.19
  -4  -3   6    0.90    0.24
   3   3  -6   44.10    1.21
   3   3  -6   43.99    1.15
   3   3  -6   44.04    1.22
   3   3  -6   44.94    1.15
   3   3  -6   44.30    1.19
   3   3  -6   43.12    1.25
  -3  -3   6   43.85    1.25
  -3  -3   6   42.46    1.18
  -3  -3   6   44.23    1.18
   2   3  -6    0.69    0.13
   2   3  -6    0.70    0.13
   2   3  -6    0.73    0.14
   2   3  -6    0.86    0.18
   2   3  -6    1.01    0.17
  -2  -3   6    0.93    0.14
  -2  -3   6    0.78    0.14
  -2  -3   6    0.65    0.17
   1   3  -6   45.75    1.12
   1   3  -6   44.39    1.10
   1   3  -6   42.79    1.15
   1   3  -6   41.91    1.11
   1   3  -6   43.12    1.16
  -1  -3   6   44.95    1.08
  -1  -3   6   42.50    1.15
  -1  -3   6   42.40    1.12
  -1  -3   6   42.57    1.12
   0   3  -6    3.47    0.21
   0   3  -6    3.53    0.23
   0   3  -6    3.49    0.23
   0   3  -6    3.90    0.22
   0  -3   6    3.56    0.16
   0  -3   6    3.84    0.21
   0  -3   6    3.43    0.23
   0  -3   6    3.74    0.21
  -1   3  -6   75.45    1.87
  -1   3  -6   78.83    1.82
  -1   3  -6   75.33    1.88
  -1   3  -6   79.61    1.87
  -1   3  -6   79.37    1.87
   1  -3   6   77.87    1.81
   1  -3   6   76.67    1.89
   1  -3   6   76.85    1.87
   1  -3   6   76.60    1.86
  -2   3  -6    0.26    0.09
  -2   3  -6    0.35    0.10
  -2   3  -6    0.42    0.11
  -2   3  -6    0.27    0.10
   2  -3   6    0.35    0.10
   2  -3   6    0.33    0.13
   2  -3   6    0.28    0.11
   2  -3   6    0.45    0.09
  -3   3  -6   90.80    2.17
  -3   3  -6   93.63    2.08
  -3   3  -6   88.24    2.16
  -3   3  -6   88.96    2.14
  -3   3  -6   87.18    2.16
   3  -3   6   88.27    2.18
   3  -3   6   90.75    2.13
   3  -3   6   87.17    2.15
   3  -3   6   92.99    2.15
  -4   3  -6    0.15    0.11
  -4   3  -6    0.33    0.11
  -4   3  -6    0.25    0.13
  -4   3  -6    0.41    0.12
   4  -3   6    0.26    0.11
   4  -3   6    0.23    0.13
   4  -3   6    0.26    0.14
   4  -3   6    0.39    0.11
  -5   3  -6   19.83    0.63
  -5   3  -6   19.20    0.62
  -5   3  -6   19.34    0.65
  -5   3  -6   20.63    0.59
   5  -3   6   19.68    0.70
   5  -3   6   20.37    0.63
   5  -3   6   19.59    0.61
   5  -3   6   20.76    0.62
   5  -3   6   18.92    0.70
  -6   3  -6    1.45    0.19
  -6   3  -6    1.40    0.24
  -6   3  -6    1.18    0.18
  -6   3  -6    1.40    0.19
   6  -3   6    1.32    0.19
   6  -3   6    1.36    0.26
   6  -3   6    1.33    0.25
   6  -3   6    1.54    0.25
   6  -3   6    1.43    0.23
  -7   3  -6    9.03    0.44
  -7   3  -6    8.82    0.47
   7  -3   6    9.45    0.50
   7  -3   6    8.53    0.55
   7  -3   6   10.24    0.54
  -8   3  -6   -0.13    0.20
  -8   3  -6    0.04    0.16
   8  -3   6   -0.03    0.25
   8  -3   6    0.34    0.22
   8  -3   6    0.35    0.26
   8  -3   6    0.31    0.33
  -9   3  -6    3.18    0.35
  -9   3  -6    3.88    0.46
  -9   3  -6    3.13    0.41
   9  -3   6    3.43    0.55
   9  -3   6    3.66    0.75
   9  -3   6    3.00    0.44
   8   2  -6    2.14    0.41
   8   2  -6    1.14    0.35
   8   2  -6    1.47    0.34
  -8  -2   6    1.71    0.30
  -8  -2   6    1.35    0.35
  -8  -2   6    2.32    0.45
   7   2  -6    0.06    0.29
   7   2  -6   -0.07    0.27
   7   2  -6    0.10    0.32
   7   2  -6   -0.39    0.24
  -7  -2   6    0.20    0.19
  -7  -2   6   -0.08    0.25
   6   2  -6   13.65    0.69
   6   2  -6   13.59    0.46
   6   2  -6   14.02    0.68
   6   2  -6   13.45    0.57
   6   2  -6   12.99    0.67
  -6  -2   6   14.64    0.58
  -6  -2   6   13.39    0.67
  -6  -2   6   12.82    0.57
   5   2  -6    0.28    0.20
   5   2  -6    0.28    0.18
   5   2  -6   -0.03    0.20
   5   2  -6    0.14    0.13
   5   2  -6   -0.22    0.18
  -5  -2   6    0.10    0.14
  -5  -2   6    0.29    0.16
   4   2  -6    9.48    0.46
   4   2  -6    9.26    0.46
   4   2  -6    8.50    0.43
   4   2  -6    8.58    0.40
   4   2  -6    8.30    0.35
  -4  -2   6    8.86    0.39
  -4  -2   6    8.93    0.40
   3   2  -6    1.97    0.25
   3   2  -6    2.18    0.23
   3   2  -6    2.46    0.27
   3   2  -6    1.75    0.18
   3   2  -6    1.93    0.24
  -3  -2   6    2.02    0.27
  -3  -2   6    1.65    0.20
  -3  -2   6    1.93    0.20
   2   2  -6   35.69    0.96
   2   2  -6   36.48    0.92
   2   2  -6   35.17    0.92
   2   2  -6   35.88    1.00
   2   2  -6   35.91    1.00
   2   2  -6   34.37    0.96
  -2  -2   6   35.34    0.95
  -2  -2   6   34.64    0.94
  -2  -2   6   36.32    1.01
   1   2  -6    2.08    0.19
   1   2  -6    2.02    0.17
   1   2  -6    2.06    0.17
   1   2  -6    2.00    0.19
   1   2  -6    2.01    0.16
  -1  -2   6    1.86    0.16
  -1  -2   6    2.07    0.20
  -1  -2   6    1.74    0.15
   0   2  -6  116.82    2.63
   0   2  -6  116.75    2.64
   0   2  -6  112.17    2.67
   0   2  -6  109.16    2.65
   0   2  -6  111.02    2.67
   0   2  -6  115.73    2.59
   0  -2   6  109.93    2.64
   0  -2   6  111.66    2.67
   0  -2   6  115.02    2.58
   0  -2   6  110.44    2.64
  -1   2  -6    0.52    0.12
  -1   2  -6    0.37    0.08
  -1   2  -6    0.45    0.10
  -1   2  -6    0.42    0.09
  -1   2  -6    0.45    0.10
   1  -2   6    0.46    0.09
   1  -2   6    0.49    0.07
   1  -2   6    0.53    0.12
   1  -2   6    0.52    0.10
  -2   2  -6   46.74    1.12
  -2   2  -6   44.91    1.15
  -2   2  -6   44.19    1.15
  -2   2  -6   46.52    1.13
  -2   2  -6   47.43    1.16
   2  -2   6   44.30    1.16
   2  -2   6   45.62    1.09
   2  -2   6   46.19    1.15
   2  -2   6   46.09    1.15
  -3   2  -6    1.25    0.15
  -3   2  -6    0.96    0.15
  -3   2  -6    0.98    0.09
  -3   2  -6    0.85    0.12
  -3   2  -6    0.82    0.11
   3  -2   6    0.96    0.14
   3  -2   6    0.98    0.14
   3  -2   6    1.17    0.14
  -4   2  -6   57.89    1.44
  -4   2  -6   56.00    1.44
  -4   2  -6   55.23    1.44
  -4   2  -6   58.19    1.40
   4  -2   6   57.17    1.43
   4  -2   6   59.86    1.43
   4  -2   6   57.82    1.47
   4  -2   6   57.42    1.42
  -5   2  -6    0.14    0.13
  -5   2  -6    0.13    0.09
  -5   2  -6    0.12    0.11
  -5   2  -6    0.16    0.12
   5  -2   6   -0.01    0.11
   5  -2   6    0.19    0.13
   5  -2   6    0.28    0.18
   5  -2   6    0.11    0.12
   5  -2   6    0.05    0.14
  -6   2  -6   25.78    0.82
  -6   2  -6   25.57    0.77
  -6   2  -6   26.73    0.78
   6  -2   6   26.04    0.79
   6  -2   6   25.73    0.77
   6  -2   6   25.42    0.81
   6  -2   6   26.47    0.96
  -7   2  -6    0.78    0.17
  -7   2  -6    0.48    0.17
  -7   2  -6    0.39    0.21
   7  -2   6    0.52    0.28
   7  -2   6    0.80    0.23
   7  -2   6    0.69    0.20
  -8   2  -6    4.97    0.40
  -8   2  -6    6.10    0.39
  -8   2  -6    4.54    0.36
   8  -2   6    5.14    0.40
   8  -2   6    4.68    0.53
   8  -2   6    5.37    0.47
   8  -2   6    4.66    0.46
  -9   2  -6   -0.09    0.22
  -9   2  -6    0.55    0.27
   9  -2   6    0.53    0.33
   9  -2   6    0.21    0.30
   8   1  -6    0.24    0.29
   8   1  -6    0.38    0.35
   8   1  -6   -0.09    0.30
  -8  -1   6    0.00    0.19
  -8  -1   6    0.19    0.28
   7   1  -6    5.37    0.49
   7   1  -6    4.48    0.52
   7   1  -6    6.01    0.52
  -7  -1   6    5.52    0.50
  -7  -1   6    6.28    0.48
  -7  -1   6    5.45    0.40
   6   1  -6    0.61    0.22
   6   1  -6    0.40    0.26
   6   1  -6    0.68    0.27
  -6  -1   6    0.24    0.16
  -6  -1   6    0.46    0.19
  -6  -1   6    0.62    0.26
   5   1  -6    7.05    0.44
   5   1  -6    6.96    0.49
   5   1  -6    7.33    0.38
   5   1  -6    7.44    0.29
   5   1  -6    7.46    0.47
  -5  -1   6    7.75    0.49
  -5  -1   6    7.37    0.37
  -5  -1   6    6.56    0.38
   4   1  -6    0.44    0.16
   4   1  -6    0.46    0.17
   4   1  -6    0.40    0.11
   4   1  -6    0.31    0.17
   4   1  -6    0.18    0.14
  -4  -1   6    0.27    0.20
  -4  -1   6    0.46    0.13
  -4  -1   6    0.19    0.12
   3   1  -6   40.67    1.06
   3   1  -6   39.09    1.09
   3   1  -6   39.89    1.11
   3   1  -6   41.30    0.99
   3   1  -6   38.55    1.12
  -3  -1   6   38.40    1.05
  -3  -1   6   40.11    1.04
  -3  -1   6   40.26    1.14
   2   1  -6    1.46    0.18
   2   1  -6    1.46    0.13
   2   1  -6    1.43    0.20
   2   1  -6    1.18    0.17
   2   1  -6    1.16    0.16
  -2  -1   6    1.56    0.20
  -2  -1   6    1.28    0.14
  -2  -1   6    1.13    0.14
   1   1  -6   91.41    2.20
   1   1  -6   93.36    2.23
   1   1  -6   90.64    2.22
   1   1  -6   91.49    2.20
   1   1  -6   99.37    2.17
   1   1  -6   87.54    2.15
   1   1  -6   92.41    2.10
  -1  -1   6   90.53    2.18
  -1  -1   6   93.02    2.17
  -1  -1   6   92.01    2.22
   0   1  -6    4.36    0.21
   0   1  -6    4.51    0.16
   0   1  -6    4.33    0.22
   0   1  -6    4.33    0.23
   0   1  -6    4.42    0.20
   0   1  -6    4.49    0.20
   0  -1   6    4.68    0.13
   0  -1   6    4.47    0.20
   0  -1   6    4.50    0.20
   0  -1   6    4.12    0.23
  -1   1  -6   39.97    0.99
  -1   1  -6   39.25    0.95
  -1   1  -6   39.01    0.99
  -1   1  -6   39.39    0.99
  -1   1  -6   38.09    1.00
   1  -1   6   39.21    0.99
   1  -1   6   41.43    1.15
   1  -1   6   40.06    0.91
   1  -1   6   37.72    0.98
  -2   1  -6    3.06    0.18
  -2   1  -6    3.16    0.16
  -2   1  -6    2.79    0.17
  -2   1  -6    3.11    0.17
  -2   1  -6    3.23    0.18
   2  -1   6    3.08    0.13
   2  -1   6    3.23    0.18
   2  -1   6    3.00    0.17
   2  -1   6    2.91    0.19
  -3   1  -6   76.02    1.88
  -3   1  -6   80.12    1.82
  -3   1  -6   78.03    1.88
  -3   1  -6   78.10    1.89
  -3   1  -6   79.04    1.87
   3  -1   6   78.12    1.90
   3  -1   6   81.66    1.85
   3  -1   6   77.69    1.88
  -4   1  -6    0.13    0.10
  -4   1  -6    0.02    0.08
  -4   1  -6    0.06    0.07
  -4   1  -6    0.04    0.09
   4  -1   6    0.07    0.08
   4  -1   6    0.14    0.09
   4  -1   6    0.00    0.09
   4  -1   6   -0.18    0.09
  -5   1  -6   38.59    1.06
  -5   1  -6   39.06    1.04
  -5   1  -6   38.13    1.03
   5  -1   6   38.58    1.03
   5  -1   6   38.83    1.06
   5  -1   6   39.19    1.04
   5  -1   6   40.53    1.03
  -6   1  -6    0.01    0.11
  -6   1  -6    0.02    0.12
  -6   1  -6   -0.08    0.14
   6  -1   6    0.17    0.15
   6  -1   6   -0.10    0.14
   6  -1   6    0.04    0.17
   6  -1   6    0.03    0.12
   6  -1   6   -0.07    0.14
  -7   1  -6    9.19    0.42
  -7   1  -6    9.54    0.42
   7  -1   6    9.14    0.42
  -8   1  -6    0.75    0.21
  -8   1  -6    0.76    0.22
   8  -1   6    0.96    0.34
   8  -1   6    0.63    0.22
   8  -1   6    0.70    0.24
  -9   1  -6    4.09    0.43
  -9   1  -6    4.90    0.44
  -9   1  -6    4.05    0.41
   9  -1   6    4.46    0.52
   9  -1   6    4.26    0.64
   9  -1   6    4.61    0.48
 -10   1  -6    0.23    0.30
 -10   1  -6   -0.41    0.25
 -10   1  -6    0.26    0.28
  10  -1   6    0.23    0.32
  10  -1   6   -0.07    0.29
  10  -1   6    0.43    0.41
   8   0  -6    1.03    0.33
   8   0  -6    0.71    0.35
   8   0  -6    1.58    0.36
  -8   0   6    0.76    0.37
  -8   0   6    0.72    0.21
   7   0  -6    0.24    0.29
   7   0  -6    0.07    0.27
   7   0  -6    0.02    0.25
  -7   0   6   -0.05    0.17
  -7   0   6   -0.21    0.30
   6   0  -6   15.38    0.69
   6   0  -6   15.64    0.73
   6   0  -6   14.52    0.69
  -6   0   6   14.71    0.73
  -6   0   6   16.65    0.58
  -6   0   6   14.31    0.58
   5   0  -6    0.21    0.20
   5   0  -6    0.27    0.20
  -5   0   6    0.43    0.14
  -5   0   6    0.12    0.12
  -5   0   6    0.06    0.23
   4   0  -6   23.64    0.78
   4   0  -6   24.50    0.71
   4   0  -6   24.71    0.83
   4   0  -6   23.44    0.76
  -4   0   6   24.15    0.70
  -4   0   6   22.49    0.70
  -4   0   6   24.66    0.83
   3   0  -6    1.09    0.17
   3   0  -6    1.00    0.15
   3   0  -6    1.02    0.20
   3   0  -6    0.99    0.16
   3   0  -6    1.00    0.18
  -3   0   6    0.90    0.20
  -3   0   6    0.92    0.21
  -3   0   6    0.75    0.12
   2   0  -6   44.25    1.20
   2   0  -6   45.83    1.23
   2   0  -6   47.84    1.07
   2   0  -6   46.13    1.20
   2   0  -6   47.34    1.10
   2   0  -6   45.59    1.17
  -2   0   6   46.65    1.14
  -2   0   6   45.23    1.14
  -2   0   6   46.85    1.23
   1   0  -6    0.06    0.05
   1   0  -6   -0.15    0.08
   1   0  -6    0.06    0.08
   1   0  -6    0.03    0.09
   1   0  -6    0.05    0.07
   1   0  -6    0.05    0.09
  -1   0   6   -0.03    0.06
  -1   0   6    0.15    0.10
  -1   0   6   -0.07    0.06
   0   0  -6  150.53    3.51
   0   0  -6  150.69    3.51
   0   0  -6  156.78    3.47
   0   0  -6  153.89    3.50
   0   0  -6  154.01    3.47
   0   0   6  154.49    3.51
   0   0   6  146.59    3.48
   0   0   6  143.83    3.47
  -1   0  -6    0.22    0.09
  -1   0  -6    0.49    0.09
  -1   0  -6    0.47    0.09
  -1   0  -6    0.40    0.10
  -1   0  -6    0.48    0.08
  -1   0  -6    0.59    0.09
   1   0   6    0.41    0.08
   1   0   6    0.32    0.07
   1   0   6    0.45    0.10
  -2   0  -6   78.70    1.86
  -2   0  -6   78.91    1.88
  -2   0  -6   82.12    1.88
  -2   0  -6   78.77    1.88
   2   0   6   79.32    1.89
   2   0   6   77.84    1.88
   2   0   6   79.62    1.88
  -3   0  -6    4.51    0.17
  -3   0  -6    4.16    0.20
  -3   0  -6    4.02    0.19
  -3   0  -6    4.21    0.22
  -3   0  -6    4.06    0.32
   3   0   6    4.21    0.21
   3   0   6    4.44    0.25
   3   0   6    4.15    0.22
  -4   0  -6   31.16    0.72
  -4   0  -6   30.01    0.81
  -4   0  -6   28.76    0.80
  -4   0  -6   29.95    0.82
   4   0   6   29.60    0.81
   4   0   6   29.67    0.80
  -5   0  -6   -0.09    0.11
  -5   0  -6    0.10    0.10
  -5   0  -6    0.17    0.10
   5   0   6   -0.03    0.10
   5   0   6    0.06    0.10
   5   0   6    0.05    0.12
  -6   0  -6   32.17    0.92
  -6   0  -6   31.83    0.95
  -6   0  -6   32.84    0.91
   6   0   6   32.26    0.97
   6   0   6   31.71    0.91
   6   0   6   32.05    0.94
   6   0   6   33.68    0.91
  -7   0  -6    0.01    0.18
  -7   0  -6   -0.11    0.12
   7   0   6    0.01    0.31
   7   0   6   -0.12    0.17
   7   0   6   -0.15    0.13
  -8   0  -6    4.15    0.40
  -8   0  -6    5.14    0.37
   8   0   6    5.33    0.39
   8   0   6    5.26    0.43
   8   0   6    5.58    0.60
  -9   0  -6    0.26    0.22
  -9   0  -6    0.09    0.24
  -9   0  -6    0.48    0.28
   9   0   6    0.28    0.25
   9   0   6    0.39    0.38
   9   0   6   -0.03    0.25
 -10   0  -6    2.16    0.34
 -10   0  -6    1.01    0.32
 -10   0  -6    1.26    0.34
  10   0   6    1.82    0.45
  10   0   6    1.42    0.36
  10   0   6    1.95    0.37
   7  -1  -6    4.07    0.52
   7  -1  -6    3.63    0.48
   7  -1  -6    3.15    0.40
  -7   1   6    4.17    0.54
  -7   1   6    3.85    0.34
   6  -1  -6    0.68    0.30
   6  -1  -6    0.85    0.28
   6  -1  -6    0.52    0.25
  -6   1   6    0.72    0.32
  -6   1   6    0.91    0.18
   5  -1  -6   13.55    0.64
   5  -1  -6   12.90    0.60
   5  -1  -6   12.94    0.57
  -5   1   6   14.40    0.65
  -5   1   6   12.79    0.47
  -5   1   6   12.33    0.47
  -5   1   6   13.82    0.48
   4  -1  -6   -0.02    0.13
   4  -1  -6    0.13    0.15
   4  -1  -6   -0.02    0.17
   4  -1  -6   -0.08    0.10
  -4   1   6    0.13    0.10
  -4   1   6    0.05    0.11
  -4   1   6   -0.04    0.10
  -4   1   6   -0.10    0.20
   3  -1  -6   60.47    1.63
   3  -1  -6   62.08    1.59
   3  -1  -6   60.67    1.58
   3  -1  -6   64.12    1.45
  -3   1   6   59.94    1.50
  -3   1   6   61.85    1.50
  -3   1   6   61.54    1.62
  -3   1   6   64.78    1.53
   2  -1  -6    2.68    0.21
   2  -1  -6    2.75    0.22
   2  -1  -6    2.60    0.13
   2  -1  -6    2.45    0.18
   2  -1  -6    2.45    0.20
  -2   1   6    2.49    0.14
  -2   1   6    2.46    0.22
  -2   1   6    2.51    0.14
  -2   1   6    2.67    0.15
   1  -1  -6   94.47    2.25
   1  -1  -6   94.48    2.25
   1  -1  -6   93.11    2.23
   1  -1  -6   93.64    2.27
   1  -1  -6   95.79    2.17
   1  -1  -6   92.03    2.15
  -1   1   6   95.58    2.19
  -1   1   6   91.44    2.19
  -1   1   6   95.90    2.26
   0  -1  -6   -0.03    0.07
   0  -1  -6    0.13    0.08
   0  -1  -6   -0.04    0.06
   0  -1  -6   -0.04    0.08
   0  -1  -6   -0.04    0.08
   0   1   6    0.00    0.06
   0   1   6    0.03    0.06
   0   1   6    0.04    0.08
  -1  -1  -6   80.25    1.78
  -1  -1  -6   74.67    1.80
  -1  -1  -6   75.24    1.81
  -1  -1  -6   74.66    1.78
  -1  -1  -6   75.14    1.81
  -1  -1  -6   74.56    1.78
   1   1   6   75.39    1.79
   1   1   6   75.21    1.78
   1   1   6   75.45    1.78
  -2  -1  -6    4.66    0.19
  -2  -1  -6    4.89    0.21
  -2  -1  -6    4.69    0.22
  -2  -1  -6    4.63    0.21
   2   1   6    4.82    0.20
   2   1   6    4.59    0.21
   2   1   6    4.71    0.20
  -3  -1  -6  123.99    2.87
  -3  -1  -6  129.74    2.91
  -3  -1  -6  122.63    2.91
  -3  -1  -6  124.55    2.92
   3   1   6  125.20    2.90
   3   1   6  121.29    2.90
   3   1   6  126.62    2.90
  -4  -1  -6    6.36    0.21
  -4  -1  -6    5.82    0.28
  -4  -1  -6    5.63    0.26
  -4  -1  -6    6.17    0.27
   4   1   6    6.15    0.26
   4   1   6    6.12    0.26
   4   1   6    5.99    0.26
  -5  -1  -6   42.66    1.13
  -5  -1  -6   42.33    1.10
  -5  -1  -6   40.28    1.09
   5   1   6   42.99    1.09
   5   1   6   42.08    1.09
   5   1   6   40.84    1.09
  -6  -1  -6    0.05    0.12
  -6  -1  -6    0.15    0.22
   6   1   6   -0.01    0.14
   6   1   6    0.23    0.14
   6   1   6   -0.06    0.15
  -7  -1  -6   12.80    0.51
  -7  -1  -6   12.84    0.50
  -7  -1  -6   12.73    0.56
   7   1   6   12.16    0.54
   7   1   6   13.28    0.53
   7   1   6   12.98    0.50
  -8  -1  -6   -0.17    0.16
  -8  -1  -6   -0.18    0.16
  -8  -1  -6    0.21    0.22
   8   1   6    0.10    0.32
   8   1   6   -0.07    0.18
  -9  -1  -6    4.42    0.45
  -9  -1  -6    4.01    0.43
  -9  -1  -6    5.11    0.45
   9   1   6    4.05    0.60
   9   1   6    4.33    0.44
   9   1   6    4.19    0.48
 -10  -1  -6    0.12    0.29
 -10  -1  -6    0.27    0.27
 -10  -1  -6    0.10    0.28
  10   1   6   -0.56    0.35
  10   1   6   -0.26    0.27
  10   1   6   -0.10    0.28
   7  -2  -6   -0.06    0.28
   7  -2  -6    0.11    0.27
   7  -2  -6   -0.05    0.28
  -7   2   6   -0.31    0.16
  -7   2   6   -0.08    0.34
   6  -2  -6    8.21    0.50
   6  -2  -6    9.20    0.61
   6  -2  -6    8.54    0.53
  -6   2   6    8.23    0.41
  -6   2   6    9.62    0.62
   5  -2  -6    0.53    0.25
   5  -2  -6    0.77    0.24
   5  -2  -6    0.68    0.24
  -5   2   6    0.49    0.13
  -5   2   6    0.55    0.14
  -5   2   6    0.73    0.29
   4  -2  -6   36.41    1.08
   4  -2  -6   36.11    1.07
   4  -2  -6   37.84    1.13
   4  -2  -6   37.72    0.93
  -4   2   6   35.46    0.95
  -4   2   6   37.80    0.98
  -4   2   6   37.62    1.13
  -4   2   6   35.89    0.95
  -4   2   6   37.59    0.94
   3  -2  -6    2.61    0.24
   3  -2  -6    2.47    0.19
   3  -2  -6    3.07    0.29
   3  -2  -6    2.79    0.21
   3  -2  -6    2.66    0.23
  -3   2   6    3.18    0.29
  -3   2   6    2.85    0.16
  -3   2   6    2.96    0.15
  -3   2   6    3.11    0.17
   2  -2  -6   28.17    0.80
   2  -2  -6   29.55    0.85
   2  -2  -6   30.11    0.88
   2  -2  -6   30.25    0.85
   2  -2  -6   31.06    0.76
  -2   2   6   30.29    0.76
  -2   2   6   32.48    0.75
  -2   2   6   31.48    0.76
  -2   2   6   31.11    0.90
   1  -2  -6    1.65    0.13
   1  -2  -6    1.58    0.16
   1  -2  -6    1.70    0.12
   1  -2  -6    1.52    0.17
   1  -2  -6    1.49    0.18
  -1   2   6    1.62    0.16
  -1   2   6    1.55    0.10
  -1   2   6    1.66    0.11
  -1   2   6    1.42    0.10
   0  -2  -6   64.95    1.59
   0  -2  -6   65.57    1.51
   0  -2  -6   65.70    1.59
   0  -2  -6   64.13    1.58
   0  -2  -6   67.23    1.49
   0  -2  -6   61.33    1.65
   0  -2  -6   64.28    1.49
   0   2   6   65.45    1.56
   0   2   6   64.57    1.52
   0   2   6   66.01    1.52
  -1  -2  -6    0.88    0.12
  -1  -2  -6    0.69    0.10
  -1  -2  -6    0.91    0.12
   1   2   6    0.64    0.09
   1   2   6    0.73    0.09
  -2  -2  -6  221.53    4.89
  -2  -2  -6  217.00    4.89
  -2  -2  -6  223.05    4.94
   2   2   6  222.79    4.89
   2   2   6  187.92    4.92
  -3  -2  -6    0.03    0.07
  -3  -2  -6   -0.15    0.11
  -3  -2  -6    0.13    0.07
   3   2   6   -0.02    0.06
   3   2   6    0.04    0.07
   3   2   6   -0.10    0.07
  -4  -2  -6   56.48    1.49
  -4  -2  -6   62.19    1.42
  -4  -2  -6   59.02    1.47
   4   2   6   59.64    1.46
   4   2   6   59.14    1.44
   4   2   6   58.91    1.46
  -5  -2  -6   10.35    0.39
  -5  -2  -6   10.05    0.42
  -5  -2  -6   11.00    0.40
   5   2   6   10.57    0.39
   5   2   6   10.50    0.38
   5   2   6   10.68    0.39
  -6  -2  -6   43.70    1.24
  -6  -2  -6   43.16    1.18
  -6  -2  -6   43.81    1.19
   6   2   6   44.46    1.21
   6   2   6   47.31    1.19
   6   2   6   44.31    1.19
  -7  -2  -6   -0.16    0.13
  -7  -2  -6   -0.09    0.15
  -7  -2  -6   -0.08    0.18
   7   2   6    0.01    0.17
   7   2   6   -0.30    0.14
   7   2   6    0.07    0.14
  -8  -2  -6   13.23    0.62
  -8  -2  -6   13.86    0.58
  -8  -2  -6   13.37    0.58
   8   2   6   13.13    0.58
   8   2   6   13.27    0.60
  -9  -2  -6   -0.08    0.23
  -9  -2  -6    0.37    0.24
  -9  -2  -6   -0.27    0.22
   9   2   6    0.03    0.25
   9   2   6    0.11    0.32
   9   2   6    0.00    0.23
 -10  -2  -6    1.25    0.32
 -10  -2  -6    1.35    0.32
 -10  -2  -6    1.21    0.35
  10   2   6    1.36    0.33
  10   2   6    1.19    0.33
  10   2   6    1.48    0.40
   7  -3  -6    5.77    0.56
   7  -3  -6    4.26    0.50
   7  -3  -6    5.55    0.61
  -7   3   6    5.22    0.36
  -7   3   6    4.58    0.54
   6  -3  -6    0.47    0.28
   6  -3  -6    0.16    0.26
   6  -3  -6    0.30    0.25
  -6   3   6   -0.02    0.30
  -6   3   6    0.15    0.15
   5  -3  -6    6.14    0.40
   5  -3  -6    6.60    0.33
   5  -3  -6    7.49    0.84
   5  -3  -6    6.12    0.48
  -5   3   6    6.77    0.28
  -5   3   6    6.35    0.31
  -5   3   6    6.83    0.49
   4  -3  -6    1.00    0.19
   4  -3  -6    0.58    0.26
   4  -3  -6    1.04    0.18
   4  -3  -6    1.04    0.15
   4  -3  -6    1.30    0.22
  -4   3   6    0.99    0.12
  -4   3   6    1.00    0.13
  -4   3   6    1.06    0.15
  -4   3   6    1.34    0.30
   3  -3  -6   37.56    1.06
   3  -3  -6   36.47    1.09
   3  -3  -6   38.31    0.96
   3  -3  -6   36.67    1.00
   3  -3  -6   38.18    1.04
  -3   3   6   39.59    0.93
  -3   3   6   38.89    0.91
  -3   3   6   35.97    0.92
  -3   3   6   38.65    1.09
  -3   3   6   38.40    0.92
   2  -3  -6    2.53    0.22
   2  -3  -6    2.39    0.20
   2  -3  -6    2.68    0.18
   2  -3  -6    2.99    0.24
   2  -3  -6    3.11    0.18
  -2   3   6    2.91    0.12
  -2   3   6    2.81    0.22
  -2   3   6    2.98    0.12
  -2   3   6    2.80    0.13
  -2   3   6    2.91    0.14
   1  -3  -6   84.71    2.13
   1  -3  -6   87.32    2.06
   1  -3  -6   86.42    2.11
   1  -3  -6   88.55    2.13
   1  -3  -6   89.82    2.05
  -1   3   6   89.34    2.02
  -1   3   6   89.45    2.10
  -1   3   6   88.72    2.02
  -1   3   6   87.44    2.06
   0  -3  -6    2.66    0.19
   0  -3  -6    2.68    0.13
   0  -3  -6    2.45    0.17
   0  -3  -6    2.43    0.17
   0   3   6    2.92    0.12
   0   3   6    2.52    0.12
   0   3   6    2.78    0.12
  -1  -3  -6   53.33    1.26
  -1  -3  -6   51.54    1.31
  -1  -3  -6   52.03    1.30
  -1  -3  -6   50.47    1.24
  -1  -3  -6   52.75    1.29
  -1  -3  -6   52.67    1.22
   1   3   6   53.47    1.25
   1   3   6   52.40    1.25
   1   3   6   52.55    1.25
  -2  -3  -6    0.80    0.12
  -2  -3  -6    0.85    0.11
  -2  -3  -6    0.78    0.11
  -2  -3  -6    0.67    0.15
  -2  -3  -6    0.79    0.19
  -2  -3  -6    0.65    0.10
   2   3   6    0.71    0.09
   2   3   6    0.74    0.10
   2   3   6    0.76    0.10
  -3  -3  -6  140.68    3.34
  -3  -3  -6  141.53    3.32
  -3  -3  -6  142.66    3.40
  -3  -3  -6  149.52    3.34
   3   3   6  147.17    3.33
   3   3   6  142.01    3.33
  -4  -3  -6    0.13    0.09
  -4  -3  -6   -0.14    0.13
  -4  -3  -6    0.17    0.10
  -4  -3  -6    0.12    0.08
   4   3   6    0.09    0.08
   4   3   6    0.05    0.08
   4   3   6    0.06    0.08
  -5  -3  -6   83.38    2.02
  -5  -3  -6   83.15    2.02
  -5  -3  -6   82.36    2.07
   5   3   6   81.25    2.01
   5   3   6   82.43    2.00
  -6  -3  -6    0.70    0.17
  -6  -3  -6    0.57    0.21
  -6  -3  -6    0.80    0.18
   6   3   6    0.84    0.17
   6   3   6    0.85    0.17
   6   3   6    0.55    0.14
  -7  -3  -6   16.23    0.59
  -7  -3  -6   15.28    0.59
  -7  -3  -6   15.23    0.64
   7   3   6   15.46    0.57
   7   3   6   15.48    0.58
   7   3   6   15.57    0.58
  -8  -3  -6    0.78    0.23
  -8  -3  -6    0.60    0.27
  -8  -3  -6    0.59    0.39
   8   3   6    0.73    0.28
   8   3   6    0.57    0.18
   8   3   6    0.39    0.21
   8   3   6    0.60    0.22
  -9  -3  -6    8.99    0.55
  -9  -3  -6    8.58    0.57
  -9  -3  -6    9.07    0.59
   9   3   6    8.43    0.55
   9   3   6    7.35    0.52
 -10  -3  -6    0.39    0.31
 -10  -3  -6    0.03    0.26
 -10  -3  -6    0.09    0.27
  10   3   6    0.22    0.35
  10   3   6    0.32    0.28
  10   3   6    0.21    0.28
   7  -4  -6    0.50    0.30
   7  -4  -6    0.56    0.35
   7  -4  -6    0.59    0.34
  -7   4   6    0.11    0.33
  -7   4   6    0.35    0.17
   6  -4  -6    5.94    0.53
   6  -4  -6    6.21    0.46
   6  -4  -6    6.88    0.59
   6  -4  -6    6.05    0.40
  -6   4   6    6.44    0.33
  -6   4   6    7.40    0.57
   5  -4  -6    0.11    0.18
   5  -4  -6   -0.03    0.25
   5  -4  -6    0.14    0.17
   5  -4  -6   -0.01    0.17
   5  -4  -6    0.25    0.27
  -5   4   6    0.20    0.29
  -5   4   6   -0.03    0.10
  -5   4   6   -0.05    0.11
   4  -4  -6   19.91    0.65
   4  -4  -6   21.83    0.81
   4  -4  -6   19.68    0.77
   4  -4  -6   19.52    0.60
  -4   4   6   20.58    0.56
  -4   4   6   19.20    0.54
  -4   4   6   19.62    0.52
  -4   4   6   19.27    0.73
   3  -4  -6    2.93    0.23
   3  -4  -6    3.28    0.26
   3  -4  -6    2.31    0.23
   3  -4  -6    2.47    0.25
   3  -4  -6    3.02    0.31
  -3   4   6    2.79    0.13
  -3   4   6    2.76    0.28
  -3   4   6    2.73    0.20
   2  -4  -6   66.74    1.67
   2  -4  -6   65.89    1.70
   2  -4  -6   66.68    1.62
   2  -4  -6   66.46    1.68
   2  -4  -6   65.84    1.62
  -2   4   6   67.94    1.67
  -2   4   6   63.41    1.53
  -2   4   6   69.77    1.53
  -2   4   6   66.39    1.53
   1  -4  -6    4.33    0.21
   1  -4  -6    4.29    0.24
   1  -4  -6    4.54    0.25
   1  -4  -6    4.56    0.22
   1  -4  -6    4.81    0.25
  -1   4   6    4.64    0.15
  -1   4   6    4.73    0.16
  -1   4   6    4.28    0.15
  -1   4   6    4.68    0.22
   0  -4  -6   71.53    1.69
   0  -4  -6   72.23    1.76
   0  -4  -6   71.65    1.75
   0  -4  -6   72.34    1.74
   0  -4  -6   70.22    1.76
   0   4   6   70.34    1.67
   0   4   6   75.19    1.79
   0   4   6   73.93    1.67
   0   4   6   72.20    1.67
  -1  -4  -6    0.09    0.11
  -1  -4  -6   -0.04    0.08
  -1  -4  -6    0.06    0.07
  -1  -4  -6    0.12    0.10
  -1  -4  -6    0.07    0.08
  -1  -4  -6   -0.02    0.06
   1   4   6    0.08    0.06
   1   4   6    0.02    0.05
   1   4   6    0.06    0.05
  -2  -4  -6  118.73    2.89
  -2  -4  -6  123.54    2.87
  -2  -4  -6  119.44    2.82
  -2  -4  -6  123.31    2.80
  -2  -4  -6  119.37    2.84
   2   4   6  119.93    2.81
   2   4   6  120.56    2.81
   2   4   6  125.70    2.77
  -3  -4  -6   19.39    0.57
  -3  -4  -6   20.33    0.57
  -3  -4  -6   19.90    0.64
  -3  -4  -6   18.88    0.64
  -3  -4  -6   19.88    0.56
   3   4   6   20.10    0.51
   3   4   6   19.12    0.55
   3   4   6   19.06    0.58
  -4  -4  -6   43.51    1.07
  -4  -4  -6   41.92    1.15
  -4  -4  -6   40.58    1.08
  -4  -4  -6   40.55    1.08
   4   4   6   41.91    1.02
   4   4   6   41.36    1.07
   4   4   6   40.34    1.06
  -5  -4  -6   -0.07    0.17
  -5  -4  -6    0.33    0.13
  -5  -4  -6    0.17    0.13
   5   4   6    0.18    0.11
   5   4   6    0.00    0.10
  -6  -4  -6   32.61    0.96
  -6  -4  -6   33.96    0.97
  -6  -4  -6   32.81    1.08
   6   4   6   32.47    0.95
   6   4   6   33.64    0.95
   6   4   6   33.69    0.93
  -7  -4  -6    0.38    0.23
  -7  -4  -6    0.70    0.20
  -7  -4  -6    0.56    0.19
   7   4   6    0.64    0.17
   7   4   6    0.52    0.16
   7   4   6    0.69    0.20
  -8  -4  -6   13.70    0.62
  -8  -4  -6   13.31    0.66
  -8  -4  -6   13.46    0.61
   8   4   6   13.67    0.51
   8   4   6   12.93    0.69
   8   4   6   15.73    0.70
  -9  -4  -6   -0.39    0.25
  -9  -4  -6    0.23    0.24
  -9  -4  -6    0.42    0.40
   9   4   6   -0.23    0.23
   9   4   6   -0.22    0.22
 -10  -4  -6    3.32    0.48
 -10  -4  -6    4.35    0.59
 -10  -4  -6    2.85    0.43
  10   4   6    2.40    0.38
  10   4   6    2.78    0.38
  10   4   6    2.62    0.46
   6  -5  -6    1.18    0.32
   6  -5  -6    0.74    0.27
   6  -5  -6    0.28    0.25
   6  -5  -6    0.36    0.34
   6  -5  -6    1.37    0.30
  -6   5   6    1.06    0.17
  -6   5   6    0.73    0.30
   5  -5  -6    8.16    0.40
   5  -5  -6    8.36    0.47
   5  -5  -6    7.98    0.60
   5  -5  -6    7.78    0.47
   5  -5  -6    8.07    0.53
  -5   5   6    7.05    0.29
  -5   5   6    7.70    0.32
   4  -5  -6   -0.03    0.14
   4  -5  -6   -0.01    0.14
   4  -5  -6    0.09    0.23
   4  -5  -6    0.08    0.18
   4  -5  -6    0.05    0.16
  -4   5   6   -0.01    0.10
   3  -5  -6   30.47    0.85
   3  -5  -6   30.39    0.89
   3  -5  -6   30.72    0.87
   3  -5  -6   30.83    0.91
   3  -5  -6   29.57    0.99
  -3   5   6   29.61    0.90
  -3   5   6   31.32    0.79
   2  -5  -6    0.17    0.15
   2  -5  -6    0.04    0.13
   2  -5  -6    0.10    0.11
   2  -5  -6   -0.05    0.12
   2  -5  -6    0.14    0.11
  -2   5   6   -0.06    0.13
   1  -5  -6  147.00    3.45
   1  -5  -6  144.44    3.47
   1  -5  -6  144.66    3.48
   1  -5  -6  150.61    3.43
   1  -5  -6  149.00    3.48
  -1   5   6  151.52    3.35
  -1   5   6  150.51    3.42
  -1   5   6  144.64    3.34
   0  -5  -6    5.68    0.26
   0  -5  -6    5.70    0.27
   0  -5  -6    5.67    0.23
   0  -5  -6    5.53    0.27
   0   5   6    5.60    0.19
   0   5   6    5.47    0.19
   0   5   6    5.96    0.19
   0   5   6    5.83    0.21
  -1  -5  -6   61.56    1.52
  -1  -5  -6   59.71    1.53
  -1  -5  -6   62.33    1.52
  -1  -5  -6   58.05    1.50
  -1  -5  -6   61.24    1.49
   1   5   6   59.89    1.45
   1   5   6   64.72    1.41
   1   5   6   59.85    1.46
   1   5   6   63.51    1.45
  -2  -5  -6    0.07    0.08
  -2  -5  -6    0.01    0.10
  -2  -5  -6    0.15    0.12
  -2  -5  -6    0.15    0.09
  -2  -5  -6    0.08    0.09
   2   5   6    0.06    0.05
   2   5   6    0.09    0.05
   2   5   6    0.05    0.06
  -3  -5  -6   34.25    0.92
  -3  -5  -6   31.69    0.94
  -3  -5  -6   33.56    0.90
  -3  -5  -6   33.37    0.96
  -3  -5  -6   33.58    0.90
   3   5   6   33.46    0.87
   3   5   6   34.12    0.88
  -4  -5  -6    1.26    0.17
  -4  -5  -6    1.28    0.21
  -4  -5  -6    1.03    0.20
  -4  -5  -6    1.23    0.17
  -4  -5  -6    1.11    0.17
   4   5   6    1.22    0.16
   4   5   6    1.41    0.16
  -5  -5  -6   58.84    1.50
  -5  -5  -6   48.17    1.68
  -5  -5  -6   61.51    1.58
   5   5   6   60.52    1.49
   5   5   6   59.32    1.48
  -6  -5  -6    2.92    0.30
  -6  -5  -6    2.64    0.28
  -6  -5  -6    2.62    0.33
   6   5   6    2.96    0.26
   6   5   6    2.75    0.23
   6   5   6    2.79    0.28
  -7  -5  -6   10.49    0.53
  -7  -5  -6   10.69    0.56
  -7  -5  -6   11.43    0.81
   7   5   6   10.17    0.49
   7   5   6   11.44    0.46
   7   5   6   10.78    0.50
   7   5   6   10.04    0.43
  -8  -5  -6    0.47    0.28
  -8  -5  -6    0.43    0.24
  -8  -5  -6    0.37    0.40
   8   5   6    0.59    0.21
   8   5   6    0.58    0.24
   8   5   6    1.14    0.27
   8   5   6    0.83    0.22
  -9  -5  -6    5.26    0.51
  -9  -5  -6    6.45    0.64
  -9  -5  -6    5.57    0.50
   9   5   6    5.30    0.61
   9   5   6    6.02    0.49
 -10  -5  -6   -0.42    0.28
 -10  -5  -6    0.18    0.31
 -10  -5  -6   -0.12    0.34
  10   5   6    0.10    0.27
  10   5   6   -0.06    0.32
  10   5   6   -0.34    0.27
   6  -6  -6    5.94    0.48
   6  -6  -6    5.44    0.52
   6  -6  -6    4.86    0.62
   6  -6  -6    4.91    0.51
   6  -6  -6    4.79    0.47
  -6   6   6    5.03    0.34
  -6   6   6    4.69    0.28
   5  -6  -6    0.27    0.28
   5  -6  -6    0.06    0.23
   5  -6  -6    0.40    0.22
   5  -6  -6   -0.26    0.22
   5  -6  -6   -0.15    0.28
  -5   6   6   -0.30    0.27
  -5   6   6    0.18    0.32
   4  -6  -6   18.36    0.66
   4  -6  -6   17.05    0.66
   4  -6  -6   18.88    0.66
   4  -6  -6   18.16    0.69
   4  -6  -6   18.84    0.78
  -4   6   6   17.75    0.55
   3  -6  -6    0.10    0.15
   3  -6  -6   -0.10    0.17
   3  -6  -6    0.03    0.23
   3  -6  -6    0.10    0.22
   3  -6  -6   -0.30    0.14
   2  -6  -6   45.39    1.21
   2  -6  -6   44.56    1.23
   2  -6  -6   45.59    1.19
   2  -6  -6   44.64    1.18
   2  -6  -6   46.03    1.22
  -2   6   6   44.53    1.18
   1  -6  -6   -0.14    0.11
   1  -6  -6    0.21    0.11
   1  -6  -6    0.33    0.15
   1  -6  -6    0.18    0.14
   1  -6  -6    0.20    0.12
  -1   6   6    0.28    0.05
  -1   6   6    0.10    0.06
  -1   6   6    0.11    0.07
  -1   6   6    0.32    0.11
   0  -6  -6   54.48    1.41
   0  -6  -6   54.16    1.41
   0  -6  -6   54.07    1.42
   0  -6  -6   55.87    1.38
   0  -6  -6   55.14    1.39
   0   6   6   54.56    1.30
   0   6   6   57.28    1.31
   0   6   6   56.39    1.33
   0   6   6   57.21    1.31
  -1  -6  -6    2.63    0.21
  -1  -6  -6    2.53    0.18
  -1  -6  -6    2.50    0.20
  -1  -6  -6    3.33    0.23
  -1  -6  -6    2.76    0.19
   1   6   6    2.80    0.15
   1   6   6    2.60    0.14
   1   6   6    2.64    0.17
  -2  -6  -6  120.17    2.82
  -2  -6  -6  116.22    2.84
  -2  -6  -6  119.39    2.78
  -2  -6  -6  119.80    2.75
  -2  -6  -6  116.15    2.81
   2   6   6  116.86    2.75
  -3  -6  -6    0.01    0.15
  -3  -6  -6    0.18    0.11
  -3  -6  -6    0.09    0.11
  -3  -6  -6   -0.08    0.10
  -3  -6  -6    0.07    0.13
  -3  -6  -6   -0.21    0.13
   3   6   6    0.00    0.08
   3   6   6   -0.09    0.08
  -4  -6  -6   36.24    1.01
  -4  -6  -6   35.19    1.05
  -4  -6  -6   37.24    1.02
  -4  -6  -6   35.88    1.07
   4   6   6   36.38    0.98
   4   6   6   37.12    0.98
  -5  -6  -6    0.09    0.17
  -5  -6  -6    0.39    0.16
  -5  -6  -6    0.26    0.19
  -5  -6  -6    0.29    0.18
   5   6   6    0.02    0.10
   5   6   6    0.17    0.12
   5   6   6    0.16    0.13
  -6  -6  -6   25.48    0.83
  -6  -6  -6   21.33    0.95
  -6  -6  -6   25.42    0.82
  -6  -6  -6   25.47    0.84
   6   6   6   26.46    0.80
   6   6   6   25.14    0.72
   6   6   6   25.13    0.76
   6   6   6   25.76    0.80
  -7  -6  -6    0.09    0.20
  -7  -6  -6    0.00    0.19
  -7  -6  -6   -0.32    0.22
   7   6   6    0.16    0.14
   7   6   6    0.01    0.16
   7   6   6    0.24    0.19
   7   6   6   -0.04    0.19
  -8  -6  -6   10.02    0.60
  -8  -6  -6   11.24    0.60
  -8  -6  -6   11.03    0.61
   8   6   6   11.37    0.51
   8   6   6   10.69    0.58
   8   6   6   11.49    0.50
   8   6   6   11.25    0.63
  -9  -6  -6    0.32    0.27
  -9  -6  -6   -0.31    0.31
  -9  -6  -6    0.09    0.25
   9   6   6   -0.06    0.24
   9   6   6    0.18    0.37
   9   6   6    0.00    0.29
   9   6   6    0.10    0.23
 -10  -6  -6    1.84    0.39
 -10  -6  -6    1.93    0.39
 -10  -6  -6    2.40    0.46
  10   6   6    1.65    0.40
  10   6   6    1.63    0.35
  10   6   6    1.80    0.41
   6  -7  -6    0.02    0.29
   6  -7  -6   -0.22    0.27
   6  -7  -6    0.43    0.30
   6  -7  -6    0.28    0.26
   6  -7  -6    0.44    0.40
  -6   7   6    0.31    0.24
   5  -7  -6    7.00    0.50
   5  -7  -6    6.84    0.51
   5  -7  -6    6.40    0.48
   5  -7  -6    6.70    0.56
   5  -7  -6    7.51    0.61
  -5   7   6    6.68    0.35
   4  -7  -6    0.84    0.23
   4  -7  -6    1.13    0.26
   4  -7  -6    1.25    0.30
  -4   7   6    1.01    0.23
  -4   7   6    1.43    0.17
   3  -7  -6   10.68    0.61
   3  -7  -6   10.71    0.67
   3  -7  -6   13.38    0.72
   3  -7  -6   10.43    0.52
   2  -7  -6    0.57    0.17
   2  -7  -6    0.56    0.17
   2  -7  -6    0.40    0.14
   2  -7  -6    0.44    0.17
   2  -7  -6    0.56    0.15
  -2   7   6    0.67    0.15
   1  -7  -6   30.57    0.87
   1  -7  -6   29.62    0.84
   1  -7  -6   29.45    0.86
   1  -7  -6   29.55    0.84
   1  -7  -6   29.36    0.88
  -1   7   6   29.63    0.75
  -1   7   6   30.69    0.79
  -1   7   6   30.02    0.73
   0  -7  -6    0.32    0.14
   0  -7  -6    0.21    0.13
   0  -7  -6    0.32    0.14
   0  -7  -6    0.04    0.10
   0  -7  -6    0.27    0.12
   0   7   6    0.19    0.09
   0   7   6    0.23    0.08
   0   7   6    0.23    0.07
  -1  -7  -6   79.01    1.96
  -1  -7  -6   78.53    1.91
   1   7   6   76.86    1.85
   1   7   6   81.28    1.87
   1   7   6   75.53    1.91
  -2  -7  -6    0.03    0.12
  -2  -7  -6    0.06    0.08
  -2  -7  -6    0.06    0.09
  -2  -7  -6   -0.07    0.12
  -2  -7  -6    0.19    0.13
   2   7   6    0.15    0.10
   2   7   6    0.22    0.09
  -3  -7  -6   58.08    1.54
  -3  -7  -6   58.56    1.46
  -3  -7  -6   56.34    1.50
  -3  -7  -6   56.94    1.53
  -3  -7  -6   57.89    1.50
   3   7   6   57.78    1.45
   3   7   6   60.19    1.47
  -4  -7  -6    5.09    0.36
  -4  -7  -6    4.86    0.31
  -4  -7  -6    5.16    0.34
  -4  -7  -6    4.17    0.34
   4   7   6    4.86    0.28
   4   7   6    5.13    0.28
  -5  -7  -6   45.78    1.28
  -5  -7  -6   47.42    1.29
  -5  -7  -6   47.69    1.35
  -5  -7  -6   47.55    1.32
   5   7   6   45.03    1.26
   5   7   6   46.55    1.27
   5   7   6   47.39    1.16
   5   7   6   46.43    1.26
  -6  -7  -6    0.40    0.20
  -6  -7  -6    0.24    0.19
  -6  -7  -6    0.39    0.21
  -6  -7  -6    0.70    0.25
   6   7   6    0.49    0.17
   6   7   6    0.31    0.18
   6   7   6    0.41    0.13
   6   7   6    0.26    0.18
  -7  -7  -6   14.78    0.68
  -7  -7  -6   16.25    0.66
  -7  -7  -6   15.30    0.68
  -7  -7  -6   15.17    0.66
   7   7   6   15.85    0.54
   7   7   6   14.86    0.68
   7   7   6   16.08    0.67
   7   7   6   15.50    0.60
  -8  -7  -6    0.46    0.26
  -8  -7  -6   -0.07    0.24
  -8  -7  -6    0.38    0.24
   8   7   6    0.42    0.28
   8   7   6    0.04    0.21
   8   7   6   -0.29    0.18
   8   7   6   -0.12    0.24
  -9  -7  -6    3.69    0.46
  -9  -7  -6    2.52    0.39
  -9  -7  -6    5.24    0.65
  -9  -7  -6    4.14    0.47
   9   7   6    3.15    0.45
   9   7   6    3.62    0.50
   9   7   6    2.99    0.42
   9   7   6    3.36    0.40
 -10  -7  -6   -0.65    0.26
 -10  -7  -6   -0.21    0.29
 -10  -7  -6    0.19    0.30
 -10  -7  -6    0.33    0.40
  10   7   6   -0.35    0.30
  10   7   6   -0.53    0.25
   5  -8  -6   -0.03    0.24
   5  -8  -6    0.56    0.36
   5  -8  -6    0.18    0.26
   5  -8  -6    0.03    0.26
   5  -8  -6    0.25    0.26
  -5   8   6   -0.15    0.19
   4  -8  -6    8.23    0.51
   4  -8  -6    9.40    0.62
   4  -8  -6   10.14    0.52
   4  -8  -6    8.24    0.52
   4  -8  -6    8.86    0.54
  -4   8   6    8.40    0.41
  -4   8   6    9.05    0.54
   3  -8  -6    1.57    0.28
   3  -8  -6    1.84    0.27
   3  -8  -6    2.06    0.28
   3  -8  -6    1.73    0.27
  -3   8   6    1.47    0.29
   2  -8  -6   14.15    0.55
   2  -8  -6   14.37    0.56
   2  -8  -6   14.20    0.54
   2  -8  -6   14.16    0.55
   2  -8  -6   13.22    0.59
  -2   8   6   14.41    0.50
  -2   8   6   14.90    0.57
   1  -8  -6    1.12    0.17
   1  -8  -6    1.05    0.20
   1  -8  -6    1.39    0.19
   1  -8  -6    1.11    0.21
   1  -8  -6    1.13    0.21
  -1   8   6    1.06    0.12
  -1   8   6    1.26    0.15
   0  -8  -6   11.23    0.46
   0  -8  -6   10.97    0.46
   0  -8  -6   10.83    0.43
   0  -8  -6   11.31    0.45
   0  -8  -6   11.48    0.40
   0   8   6   11.71    0.40
   0   8   6   11.83    0.37
   0   8   6   11.31    0.36
  -1  -8  -6    0.21    0.12
  -1  -8  -6    0.35    0.15
  -1  -8  -6    0.42    0.16
   1   8   6    0.35    0.10
   1   8   6    0.36    0.11
  -2  -8  -6   88.12    2.20
  -2  -8  -6   88.12    2.16
  -2  -8  -6   88.43    2.22
  -2  -8  -6   87.72    2.04
  -2  -8  -6   87.46    2.19
   2   8   6   90.05    2.13
   2   8   6   88.17    2.13
  -3  -8  -6    1.19    0.19
  -3  -8  -6    1.12    0.21
  -3  -8  -6    1.20    0.21
  -3  -8  -6    1.11    0.16
  -3  -8  -6    1.02    0.20
   3   8   6    1.25    0.17
   3   8   6    1.20    0.17
   3   8   6    0.96    0.20
  -4  -8  -6   32.86    1.01
  -4  -8  -6   33.50    0.96
  -4  -8  -6   32.72    0.99
  -4  -8  -6   31.44    1.02
   4   8   6   33.85    0.99
   4   8   6   33.01    0.95
   4   8   6   33.83    0.95
  -5  -8  -6    0.37    0.24
  -5  -8  -6    0.28    0.22
  -5  -8  -6    0.23    0.16
  -5  -8  -6    0.57    0.20
   5   8   6    0.24    0.16
   5   8   6    0.32    0.10
   5   8   6    0.25    0.19
   5   8   6    0.40    0.16
  -6  -8  -6   14.95    0.62
  -6  -8  -6   14.14    0.67
  -6  -8  -6   13.21    0.59
  -6  -8  -6   13.70    0.67
   6   8   6   14.07    0.59
   6   8   6   14.33    0.63
   6   8   6   14.05    0.45
  -7  -8  -6    0.69    0.28
  -7  -8  -6    0.56    0.25
  -7  -8  -6    0.54    0.23
  -7  -8  -6    0.30    0.23
   7   8   6   -0.15    0.22
   7   8   6    0.67    0.16
   7   8   6    0.40    0.24
   7   8   6    0.30    0.31
  -8  -8  -6    9.29    0.57
  -8  -8  -6   10.64    0.56
  -8  -8  -6   11.17    0.68
  -8  -8  -6    9.29    0.57
   8   8   6   11.13    0.47
   8   8   6   11.01    0.64
   8   8   6    9.19    0.58
   8   8   6   10.41    0.58
  -9  -8  -6   -0.04    0.25
  -9  -8  -6   -0.36    0.35
  -9  -8  -6    0.13    0.25
  -9  -8  -6    0.13    0.25
   9   8   6    0.66    0.25
   9   8   6    0.27    0.40
   9   8   6    0.02    0.25
   9   8   6   -0.11    0.38
 -10  -8  -6    1.48    0.36
 -10  -8  -6    2.40    0.41
 -10  -8  -6    2.73    0.50
 -10  -8  -6    1.53    0.33
  10   8   6    1.91    0.36
  10   8   6    2.54    0.46
   4  -9  -6    0.55    0.28
   4  -9  -6    0.67    0.32
   4  -9  -6    0.60    0.28
   4  -9  -6    0.89    0.28
   4  -9  -6    0.89    0.26
  -4   9   6    0.50    0.30
  -4   9   6    0.53    0.21
   3  -9  -6    9.36    0.50
   3  -9  -6    9.07    0.49
   3  -9  -6    9.78    0.55
   3  -9  -6   10.34    0.55
   3  -9  -6    9.84    0.54
  -3   9   6   10.06    0.53
   2  -9  -6    0.36    0.20
   2  -9  -6    0.28    0.20
   2  -9  -6    0.44    0.19
   2  -9  -6    0.40    0.22
   2  -9  -6    0.16    0.20
  -2   9   6    0.37    0.21
  -2   9   6    0.45    0.11
  -2   9   6    0.58    0.13
   1  -9  -6   17.97    0.67
   1  -9  -6   17.99    0.59
   1  -9  -6   16.65    0.64
   1  -9  -6   17.70    0.61
   1  -9  -6   19.31    0.78
  -1   9   6   17.61    0.68
   0  -9  -6    0.22    0.15
   0  -9  -6    0.27    0.14
   0  -9  -6    0.32    0.16
   0  -9  -6    0.09    0.13
   0   9   6    0.12    0.13
   0   9   6    0.28    0.19
   0   9   6    0.47    0.16
  -1  -9  -6   30.58    0.89
   1   9   6   31.17    0.85
   1   9   6   30.79    0.96
   1   9   6   29.33    0.85
  -2  -9  -6    3.90    0.36
  -2  -9  -6    4.05    0.43
  -2  -9  -6    4.58    0.30
   2   9   6    4.64    0.28
   2   9   6    4.18    0.27
   2   9   6    4.38    0.35
  -3  -9  -6   17.59    0.53
  -3  -9  -6   15.86    0.69
  -3  -9  -6   16.23    0.59
   3   9   6   17.07    0.64
   3   9   6   16.07    0.63
   3   9   6   16.40    0.57
  -4  -9  -6    0.23    0.17
  -4  -9  -6   -0.22    0.14
  -4  -9  -6    0.00    0.19
   4   9   6   -0.18    0.18
   4   9   6   -0.07    0.15
  -5  -9  -6   16.78    0.63
  -5  -9  -6   16.98    0.72
  -5  -9  -6   16.00    0.71
  -5  -9  -6   17.61    0.67
   5   9   6   16.71    0.67
   5   9   6   17.33    0.66
   5   9   6   16.76    0.65
  -6  -9  -6   -0.19    0.20
  -6  -9  -6    0.17    0.23
  -6  -9  -6   -0.02    0.20
   6   9   6   -0.23    0.24
   6   9   6    0.30    0.21
   6   9   6    0.19    0.20
  -7  -9  -6   10.05    0.58
  -7  -9  -6   10.60    0.54
  -7  -9  -6   10.52    0.66
  -7  -9  -6   10.21    0.61
  -7  -9  -6    9.50    0.56
   7   9   6    9.47    0.58
   7   9   6    9.87    0.61
  -8  -9  -6    0.19    0.21
  -8  -9  -6   -0.31    0.22
  -8  -9  -6   -0.31    0.32
  -8  -9  -6   -0.16    0.21
   8   9   6   -0.06    0.23
   8   9   6   -0.48    0.31
   8   9   6    0.41    0.34
  -9  -9  -6    2.91    0.36
  -9  -9  -6    3.02    0.51
  -9  -9  -6    2.81    0.41
  -9  -9  -6    3.88    0.46
   9   9   6    4.00    0.60
   9   9   6    3.38    0.46
   9   9   6    3.12    0.45
   4 -10  -6    5.19    0.53
   4 -10  -6    4.36    0.47
   4 -10  -6    6.85    0.57
   4 -10  -6    5.12    0.58
   4 -10  -6    5.79    0.57
  -4  10   6    6.11    0.42
  -4  10   6    5.61    0.73
   3 -10  -6    0.68    0.35
   3 -10  -6   -0.11    0.26
   3 -10  -6   -0.21    0.21
   3 -10  -6   -0.07    0.21
  -3  10   6    0.31    0.34
   2 -10  -6   19.22    0.70
   2 -10  -6   19.01    0.74
   2 -10  -6   18.78    0.77
   2 -10  -6   18.73    0.74
   2 -10  -6   19.63    0.69
  -2  10   6   19.90    0.57
  -2  10   6   20.81    0.81
   1 -10  -6    1.68    0.22
   1 -10  -6    1.32    0.25
   1 -10  -6    1.05    0.27
   1 -10  -6    1.46    0.24
  -1  10   6    1.40    0.43
   0 -10  -6   14.03    0.57
   0 -10  -6   13.04    0.73
   0 -10  -6   14.60    0.48
   0 -10  -6   13.76    0.60
   0  10   6   14.00    0.51
  -1 -10  -6    0.02    0.15
  -1 -10  -6   -0.14    0.21
  -1 -10  -6    0.06    0.19
   1  10   6    0.25    0.17
   1  10   6    0.11    0.14
  -2 -10  -6   17.38    0.69
   2  10   6   17.80    0.62
   2  10   6   18.64    0.63
  -3 -10  -6    0.69    0.24
  -3 -10  -6    0.49    0.22
  -3 -10  -6    0.90    0.15
   3  10   6    0.74    0.19
   3  10   6    0.79    0.19
   3  10   6    0.90    0.31
  -4 -10  -6   16.11    0.57
  -4 -10  -6   14.89    0.64
  -4 -10  -6   14.48    0.63
   4  10   6   15.99    0.62
   4  10   6   15.35    0.66
   4  10   6   15.59    0.62
  -5 -10  -6    0.75    0.30
  -5 -10  -6    0.88    0.27
  -5 -10  -6    1.10    0.23
  -5 -10  -6    0.88    0.27
   5  10   6    1.16    0.29
   5  10   6    0.71    0.23
   5  10   6    0.87    0.24
  -6 -10  -6    9.74    0.52
  -6 -10  -6   10.09    0.55
  -6 -10  -6    8.40    0.53
   6  10   6    8.30    0.72
   6  10   6    9.18    0.56
  -7 -10  -6   -0.19    0.21
  -7 -10  -6   -0.07    0.23
  -7 -10  -6   -0.24    0.22
   7  10   6    0.08    0.31
   7  10   6    0.05    0.30
   7  10   6   -0.43    0.22
  -8 -10  -6    4.29    0.45
  -8 -10  -6    4.67    0.43
  -8 -10  -6    3.58    0.45
   8  10   6    3.68    0.45
   8  10   6    3.20    0.48
   8  10   6    3.64    0.46
  -9 -10  -6    0.08    0.25
  -9 -10  -6    0.29    0.30
  -9 -10  -6   -0.42    0.24
   9  10   6    0.79    0.45
   9  10   6   -0.04    0.29
   9  10   6    0.69    0.40
   3 -11  -6    5.83    0.55
   3 -11  -6    4.61    0.48
   3 -11  -6    4.59    0.56
   3 -11  -6    4.63    0.57
   3 -11  -6    4.09    0.47
  -3  11   6    4.52    0.60
  -3  11   6    4.52    0.24
   2 -11  -6    0.23    0.29
   2 -11  -6    0.14    0.24
   2 -11  -6    0.08    0.23
   2 -11  -6    0.17    0.23
   2 -11  -6   -0.16    0.26
  -2  11   6    0.25    0.30
  -2  11   6    0.03    0.14
   1 -11  -6   14.25    0.63
   1 -11  -6   14.60    0.67
   1 -11  -6   14.62    0.65
  -1  11   6   14.08    0.68
  -1  11   6   13.78    0.52
   0 -11  -6   -0.23    0.22
   0 -11  -6    0.09    0.21
   0 -11  -6    0.09    0.20
   0  11   6    0.18    0.18
   0  11   6   -0.42    0.24
  -1 -11  -6   19.45    0.84
  -1 -11  -6   20.14    0.78
   1  11   6   21.42    0.73
   1  11   6   20.53    0.81
   1  11   6   22.76    0.76
  -2 -11  -6    0.39    0.35
  -2 -11  -6    0.05    0.22
   2  11   6   -0.06    0.24
   2  11   6    0.48    0.20
   2  11   6    0.48    0.19
  -3 -11  -6   11.01    0.47
  -3 -11  -6   11.95    0.59
  -3 -11  -6   12.10    0.85
   3  11   6   11.27    0.60
   3  11   6   11.77    0.53
   3  11   6   10.98    0.53
  -4 -11  -6    0.30    0.24
  -4 -11  -6    0.07    0.24
  -4 -11  -6    0.04    0.17
  -4 -11  -6   -0.16    0.20
   4  11   6   -0.27    0.19
   4  11   6   -0.12    0.23
   4  11   6   -0.17    0.18
  -5 -11  -6   15.98    0.76
  -5 -11  -6   15.48    0.69
  -5 -11  -6   13.92    0.71
  -5 -11  -6   16.15    0.66
   5  11   6   16.35    0.71
   5  11   6   16.23    0.74
   5  11   6   15.19    0.68
  -6 -11  -6    0.71    0.27
  -6 -11  -6    0.57    0.24
  -6 -11  -6    0.47    0.30
  -6 -11  -6    0.78    0.26
   6  11   6    0.64    0.27
   6  11   6    0.29    0.25
   6  11   6    0.53    0.33
  -7 -11  -6    6.28    0.52
  -7 -11  -6    7.21    0.52
  -7 -11  -6    6.99    0.49
   7  11   6    7.08    0.54
   7  11   6    6.57    0.61
   7  11   6    7.24    0.58
  -8 -11  -6    0.76    0.29
  -8 -11  -6    0.62    0.28
  -8 -11  -6    0.44    0.24
   8  11   6    0.59    0.29
   8  11   6    0.34    0.34
   8  11   6    0.60    0.39
   2 -12  -6    6.35    0.54
   2 -12  -6    5.54    0.55
  -2  12   6    4.88    0.33
  -2  12   6    5.24    0.60
   1 -12  -6    0.45    0.23
   1 -12  -6    0.72    0.27
  -1  12   6    0.57    0.35
  -1  12   6    0.85    0.20
   0 -12  -6   11.45    0.59
   0 -12  -6   10.84    0.61
   0  12   6   10.17    0.50
   0  12   6   11.46    0.64
  -1 -12  -6    0.22    0.21
  -1 -12  -6    0.38    0.25
   1  12   6    0.30    0.20
   1  12   6   -0.12    0.25
  -2 -12  -6   14.31    0.65
  -2 -12  -6   13.97    0.67
   2  12   6   13.62    0.61
   2  12   6   14.54    0.70
   2  12   6   15.63    0.63
  -3 -12  -6   -0.03    0.22
  -3 -12  -6    0.27    0.24
   3  12   6    0.49    0.23
   3  12   6    0.19    0.27
   3  12   6    0.27    0.21
  -4 -12  -6   14.81    0.73
  -4 -12  -6   14.06    0.58
  -4 -12  -6   14.34    0.69
   4  12   6   15.26    0.75
   4  12   6   14.91    0.68
   4  12   6   14.82    0.68
  -5 -12  -6    0.38    0.25
  -5 -12  -6    0.29    0.27
  -5 -12  -6    0.41    0.28
  -5 -12  -6    0.55    0.28
   5  12   6    0.17    0.31
   5  12   6    0.61    0.26
   5  12   6    0.38    0.27
  -6 -12  -6   10.60    0.73
  -6 -12  -6    9.37    0.62
  -6 -12  -6    9.99    0.58
  -6 -12  -6    9.96    0.57
   6  12   6    9.12    0.61
   6  12   6    9.17    0.68
   6  12   6    8.71    0.60
  -7 -12  -6    0.38    0.30
  -7 -12  -6   -0.12    0.25
  -7 -12  -6    0.46    0.38
  -7 -12  -6    0.21    0.25
   7  12   6    0.44    0.29
   7  12   6   -0.22    0.35
   7  12   6   -0.11    0.29
   0 -13  -6    0.16    0.28
   0 -13  -6    0.07    0.27
   0  13   6   -0.14    0.19
   0  13   6   -0.24    0.31
  -1 -13  -6    8.80    0.57
  -1 -13  -6    9.94    0.60
   1  13   6    9.02    0.50
   1  13   6    8.60    0.65
  -2 -13  -6    0.83    0.27
  -2 -13  -6    0.46    0.28
   2  13   6   -0.08    0.28
   2  13   6    0.90    0.34
   2  13   6    0.16    0.23
  -3 -13  -6    7.96    0.59
  -3 -13  -6    7.94    0.54
   3  13   6    7.76    0.50
   3  13   6    8.04    0.61
   3  13   6    7.77    0.60
  -4 -13  -6    0.17    0.26
  -4 -13  -6    0.03    0.27
   4  13   6   -0.23    0.29
   4  13   6    0.40    0.31
   4  13   6    0.00    0.22
  -5 -13  -6    5.32    0.47
  -5 -13  -6    6.46    0.63
  -5 -13  -6    5.37    0.52
   5  13   6    5.26    0.51
   5  13   6    5.16    0.55
   5  13   6    5.90    0.60
  -6 -13  -6   -0.14    0.26
  -6 -13  -6    0.02    0.30
  -6 -13  -6    0.55    0.29
  -6 -13  -6    0.32    0.35
   6  13   6    0.00    0.28
   6  13   6    0.09    0.27
   6  13   6    0.14    0.35
  -2 -14  -6    4.93    0.57
  -2 -14  -6    4.81    0.59
   2  14   6    3.20    0.49
  -3 -14  -6    0.42    0.27
  -3 -14  -6    0.20    0.30
   3  14   6   -0.15    0.36
   3  14   6    0.01    0.34
   3  14   6   -0.21    0.22
  -4 -14  -6    2.80    0.39
  -4 -14  -6    3.68    0.50
   4  14   6    2.68    0.45
   4  14   6    3.83    0.45
   4  14   6    2.90    0.42
  -2 -11   7    1.96    0.43
   1  11  -7    0.18    0.33
   1  11  -7    0.02    0.26
   1  11  -7   -0.13    0.33
  -1 -11   7    0.15    0.24
  -1 -11   7    0.08    0.28
  -1 -11   7    0.00    0.35
   0  11  -7    2.56    0.44
   0  11  -7    2.22    0.37
   0  11  -7    3.42    0.45
   0 -11   7    3.25    0.42
   0 -11   7    2.35    0.35
   0 -11   7    2.09    0.41
  -1  11  -7    0.14    0.27
  -1  11  -7    0.52    0.30
  -1  11  -7    0.33    0.35
   1 -11   7    0.11    0.31
   1 -11   7    0.53    0.23
   1 -11   7    0.10    0.32
   4  10  -7    0.25    0.35
   4  10  -7    0.27    0.30
  -4 -10   7    0.47    0.36
  -4 -10   7    0.42    0.30
  -4 -10   7    0.34    0.33
   3  10  -7    1.68    0.39
   3  10  -7    1.63    0.34
   3  10  -7    2.29    0.46
   3  10  -7    1.40    0.54
  -3 -10   7    1.21    0.31
  -3 -10   7    1.85    0.54
  -3 -10   7    1.61    0.35
  -3 -10   7    1.63    0.40
   2  10  -7    0.57    0.38
   2  10  -7    0.12    0.25
   2  10  -7   -0.38    0.29
  -2 -10   7    0.14    0.24
  -2 -10   7   -0.30    0.27
  -2 -10   7   -0.08    0.30
   1  10  -7    3.83    0.48
   1  10  -7    3.01    0.44
   1  10  -7    3.78    0.44
  -1 -10   7    3.76    0.48
  -1 -10   7    4.46    0.41
  -1 -10   7    5.23    0.51
   0  10  -7    0.16    0.22
   0  10  -7   -0.18    0.26
   0  10  -7    0.15    0.31
   0 -10   7    0.35    0.29
   0 -10   7    0.27    0.22
   0 -10   7    0.24    0.24
  -1  10  -7    6.36    0.52
  -1  10  -7    6.12    0.49
  -1  10  -7    5.78    0.58
   1 -10   7    6.50    0.49
   1 -10   7    5.58    0.51
   1 -10   7    5.68    0.43
  -2  10  -7    1.15    0.32
  -2  10  -7   -0.18    0.22
  -2  10  -7    0.35    0.22
   2 -10   7    0.08    0.28
   2 -10   7    0.15    0.20
   2 -10   7    1.05    0.42
   2 -10   7   -0.03    0.28
  -3  10  -7    2.77    0.40
  -3  10  -7    3.15    0.39
  -3  10  -7    2.10    0.35
  -3  10  -7    3.18    0.41
   3 -10   7    2.45    0.36
   3 -10   7    2.35    0.38
   3 -10   7    2.81    0.37
   3 -10   7    2.66    0.49
   5   9  -7   -0.01    0.38
   5   9  -7   -0.06    0.31
   5   9  -7    0.01    0.30
   5   9  -7   -0.29    0.69
  -5  -9   7   -0.05    0.33
  -5  -9   7    0.45    0.41
  -5  -9   7    0.41    0.29
  -5  -9   7    0.13    0.31
   4   9  -7    3.87    0.50
   4   9  -7    2.71    0.47
   4   9  -7    3.50    0.48
   4   9  -7    3.32    0.38
  -4  -9   7    3.13    0.49
  -4  -9   7    1.90    0.37
  -4  -9   7    2.45    0.37
  -4  -9   7    3.64    0.52
   3   9  -7   -0.18    0.34
   3   9  -7    0.08    0.30
   3   9  -7    0.12    0.33
   3   9  -7    0.36    0.23
  -3  -9   7    0.04    0.27
  -3  -9   7   -0.47    0.27
  -3  -9   7    0.25    0.35
  -3  -9   7    0.17    0.23
   2   9  -7    4.91    0.45
   2   9  -7    5.72    0.64
   2   9  -7    4.77    0.51
  -2  -9   7    4.16    0.40
  -2  -9   7    5.82    0.57
  -2  -9   7    4.71    0.44
  -2  -9   7    4.50    0.49
   1   9  -7    0.81    0.31
   1   9  -7    0.22    0.20
   1   9  -7    0.36    0.27
  -1  -9   7    0.16    0.29
  -1  -9   7    0.12    0.21
  -1  -9   7    0.66    0.22
  -1  -9   7    0.51    0.28
   0   9  -7    4.79    0.42
   0   9  -7    4.25    0.62
   0   9  -7    4.70    0.48
   0  -9   7    5.24    0.45
   0  -9   7    5.90    0.41
   0  -9   7    4.95    0.40
  -1   9  -7    0.37    0.26
  -1   9  -7    0.63    0.23
  -1   9  -7    0.30    0.26
   1  -9   7    0.71    0.26
   1  -9   7    0.13    0.20
   1  -9   7    0.43    0.21
  -2   9  -7    9.10    0.55
  -2   9  -7    8.62    0.52
  -2   9  -7    8.50    0.52
   2  -9   7    9.26    0.67
   2  -9   7    7.65    0.44
   2  -9   7    8.26    0.52
  -3   9  -7    0.16    0.21
  -3   9  -7    0.16    0.19
  -3   9  -7    0.13    0.23
  -3   9  -7    0.69    0.29
   3  -9   7    0.53    0.25
   3  -9   7    0.38    0.25
   3  -9   7    0.36    0.20
  -4   9  -7    3.04    0.44
  -4   9  -7    3.79    0.45
  -4   9  -7    3.29    0.38
  -4   9  -7    3.45    0.39
   4  -9   7    3.70    0.50
   4  -9   7    3.21    0.47
   4  -9   7    2.77    0.37
   4  -9   7    4.27    0.46
  -5   9  -7    0.67    0.23
  -5   9  -7    0.45    0.26
  -5   9  -7    0.57    0.27
  -5   9  -7    0.26    0.30
   5  -9   7    0.63    0.24
   5  -9   7    0.26    0.38
   5  -9   7    0.42    0.40
   5  -9   7    1.13    0.39
   5   8  -7    2.31    0.41
   5   8  -7    3.76    0.53
   5   8  -7    2.74    0.46
   5   8  -7    2.05    0.36
  -5  -8   7    3.67    0.44
  -5  -8   7    3.46    0.46
  -5  -8   7    3.01    0.43
  -5  -8   7    2.56    0.39
   4   8  -7   -0.46    0.21
   4   8  -7    0.40    0.32
   4   8  -7    0.13    0.31
   4   8  -7    0.28    0.26
  -4  -8   7   -0.20    0.22
  -4  -8   7   -0.42    0.28
  -4  -8   7   -0.16    0.32
   3   8  -7    4.23    0.38
   3   8  -7    3.65    0.47
   3   8  -7    4.78    0.58
   3   8  -7    3.64    0.53
   3   8  -7    4.19    0.42
  -3  -8   7    3.71    0.46
  -3  -8   7    5.13    0.43
  -3  -8   7    3.72    0.43
  -3  -8   7    3.27    0.41
   2   8  -7   -0.06    0.19
   2   8  -7    0.20    0.22
   2   8  -7    0.31    0.28
   2   8  -7   -0.25    0.32
   2   8  -7   -0.06    0.25
  -2  -8   7    0.12    0.25
  -2  -8   7   -0.15    0.19
  -2  -8   7    0.27    0.18
  -2  -8   7    0.41    0.37
   1   8  -7    6.24    0.46
   1   8  -7    5.33    0.50
   1   8  -7    4.94    0.41
  -1  -8   7    5.89    0.37
  -1  -8   7    5.17    0.41
  -1  -8   7    5.53    0.46
  -1  -8   7    5.87    0.46
   0   8  -7    0.20    0.18
   0   8  -7   -0.12    0.24
   0   8  -7   -0.55    0.31
   0  -8   7    0.27    0.16
   0  -8   7    0.29    0.18
   0  -8   7    0.17    0.24
   0  -8   7    0.08    0.22
  -1   8  -7    9.17    0.55
  -1   8  -7    8.16    0.49
  -1   8  -7    9.75    0.49
   1  -8   7    8.61    0.51
   1  -8   7    9.22    0.42
   1  -8   7    8.74    0.46
  -2   8  -7    0.01    0.24
  -2   8  -7   -0.30    0.19
  -2   8  -7    0.05    0.21
   2  -8   7    0.10    0.18
   2  -8   7    0.31    0.24
  -3   8  -7    6.74    0.45
  -3   8  -7    6.42    0.42
  -3   8  -7    8.34    0.48
  -3   8  -7    8.97    0.68
  -3   8  -7    8.02    0.52
   3  -8   7    7.84    0.43
   3  -8   7    7.04    0.47
   3  -8   7    7.79    0.58
   3  -8   7    8.14    0.46
  -4   8  -7    0.34    0.23
  -4   8  -7    0.31    0.22
  -4   8  -7    0.64    0.22
   4  -8   7    1.20    0.41
   4  -8   7    0.48    0.21
   4  -8   7    0.16    0.32
   4  -8   7    0.76    0.26
  -5   8  -7    3.71    0.40
  -5   8  -7    4.20    0.47
  -5   8  -7    3.45    0.38
  -5   8  -7    3.72    0.42
   5  -8   7    3.92    0.49
   5  -8   7    3.93    0.39
   5  -8   7    4.29    0.55
   5  -8   7    4.94    0.48
  -6   8  -7    0.85    0.28
  -6   8  -7    0.63    0.23
  -6   8  -7    0.68    0.27
   6  -8   7    0.80    0.37
   6  -8   7    1.29    0.39
   6  -8   7    0.69    0.25
   6  -8   7    0.59    0.30
   6   7  -7    1.56    0.34
   6   7  -7    0.96    0.35
   6   7  -7    0.97    0.42
   6   7  -7    1.07    0.35
  -6  -7   7    1.93    0.40
  -6  -7   7    1.57    0.35
  -6  -7   7    2.09    0.39
   5   7  -7    0.06    0.28
   5   7  -7    0.42    0.33
   5   7  -7    0.02    0.31
   5   7  -7    0.15    0.26
  -5  -7   7   -0.03    0.28
  -5  -7   7    0.32    0.26
  -5  -7   7    0.15    0.30
   4   7  -7    4.31    0.43
   4   7  -7    3.19    0.42
   4   7  -7    4.47    0.40
   4   7  -7    4.05    0.50
  -4  -7   7    4.00    0.46
  -4  -7   7    4.44    0.56
  -4  -7   7    2.90    0.42
  -4  -7   7    2.71    0.41
   3   7  -7    0.00    0.21
   3   7  -7    0.15    0.28
   3   7  -7    0.15    0.27
   3   7  -7    0.01    0.30
   3   7  -7    0.33    0.20
  -3  -7   7    0.28    0.26
  -3  -7   7   -0.15    0.22
  -3  -7   7   -0.02    0.20
   2   7  -7   11.64    0.56
   2   7  -7   12.19    0.64
   2   7  -7   12.87    0.60
   2   7  -7   12.70    0.46
   2   7  -7   11.46    0.71
  -2  -7   7   12.87    0.50
  -2  -7   7   12.86    0.59
  -2  -7   7   12.11    0.62
  -2  -7   7   11.48    0.57
   1   7  -7   -0.10    0.19
   1   7  -7   -0.06    0.13
   1   7  -7   -0.09    0.24
   1   7  -7   -0.15    0.18
   1   7  -7   -0.16    0.22
  -1  -7   7   -0.01    0.19
  -1  -7   7   -0.06    0.18
  -1  -7   7    0.14    0.14
  -1  -7   7    0.13    0.38
   0   7  -7    6.66    0.40
   0   7  -7    6.31    0.47
   0   7  -7    6.89    0.54
   0   7  -7    7.26    0.43
   0  -7   7    6.94    0.34
   0  -7   7    7.27    0.44
   0  -7   7    7.14    0.40
   0  -7   7    7.08    0.41
  -1   7  -7    0.13    0.17
  -1   7  -7   -0.05    0.16
  -1   7  -7    0.16    0.24
  -1   7  -7    0.03    0.20
   1  -7   7    0.38    0.18
   1  -7   7    0.06    0.20
   1  -7   7    0.41    0.17
   1  -7   7    0.34    0.13
  -2   7  -7    7.35    0.40
  -2   7  -7    7.77    0.42
  -2   7  -7    8.06    0.44
  -2   7  -7    7.81    0.45
   2  -7   7    8.61    0.46
   2  -7   7    7.59    0.39
   2  -7   7    8.19    0.38
  -3   7  -7    0.39    0.19
  -3   7  -7    0.14    0.18
  -3   7  -7    0.00    0.16
  -3   7  -7   -0.04    0.19
  -3   7  -7   -0.02    0.18
   3  -7   7    0.24    0.15
   3  -7   7    0.11    0.21
   3  -7   7    0.20    0.18
  -4   7  -7   10.32    0.47
  -4   7  -7    8.68    0.49
  -4   7  -7    9.52    0.49
   4  -7   7   10.39    0.49
   4  -7   7    9.50    0.51
   4  -7   7    9.44    0.61
  -5   7  -7    1.09    0.21
  -5   7  -7    0.53    0.24
  -5   7  -7    0.32    0.22
  -5   7  -7    0.03    0.17
   5  -7   7    0.44    0.25
   5  -7   7    0.38    0.21
   5  -7   7    0.78    0.26
   5  -7   7    0.74    0.30
  -6   7  -7    3.30    0.40
  -6   7  -7    3.19    0.42
  -6   7  -7    3.00    0.38
   6  -7   7    4.39    0.56
   6  -7   7    4.33    0.49
   6  -7   7    3.15    0.39
   6  -7   7    3.38    0.38
  -7   7  -7    0.75    0.26
   6   6  -7    0.05    0.28
   6   6  -7    0.31    0.34
   6   6  -7    0.39    0.30
   6   6  -7    0.53    0.29
   6   6  -7   -0.28    0.27
  -6  -6   7    0.03    0.28
  -6  -6   7   -0.36    0.27
  -6  -6   7   -0.07    0.28
   5   6  -7    7.22    0.52
   5   6  -7    5.75    0.54
   5   6  -7    7.13    0.54
   5   6  -7    6.01    0.53
  -5  -6   7    6.33    0.53
  -5  -6   7    7.53    0.56
  -5  -6   7    7.39    0.53
   4   6  -7    0.33    0.26
   4   6  -7    0.10    0.22
   4   6  -7   -0.11    0.28
   4   6  -7    0.39    0.31
  -4  -6   7    0.14    0.26
  -4  -6   7    0.12    0.36
  -4  -6   7    0.46    0.24
   3   6  -7    8.54    0.55
   3   6  -7    8.01    0.40
   3   6  -7    8.68    0.52
   3   6  -7    8.76    0.57
  -3  -6   7    8.33    0.44
  -3  -6   7    8.01    0.52
  -3  -6   7    8.36    0.47
   2   6  -7   -0.03    0.24
   2   6  -7    0.24    0.29
   2   6  -7   -0.06    0.14
   2   6  -7    0.29    0.18
   2   6  -7    0.11    0.21
  -2  -6   7    0.40    0.15
  -2  -6   7   -0.21    0.16
  -2  -6   7    0.10    0.17
  -2  -6   7    0.09    0.22
   1   6  -7   17.84    0.54
   1   6  -7   18.70    0.65
   1   6  -7   18.17    0.71
   1   6  -7   17.17    0.62
   1   6  -7   18.14    0.72
  -1  -6   7   17.72    0.67
  -1  -6   7   17.68    0.63
  -1  -6   7   18.55    0.65
  -1  -6   7   17.85    0.57
   0   6  -7    0.20    0.18
   0   6  -7    0.11    0.20
   0   6  -7    0.01    0.16
   0   6  -7   -0.03    0.11
   0  -6   7   -0.02    0.11
   0  -6   7    0.03    0.15
   0  -6   7    0.02    0.17
  -1   6  -7   18.82    0.64
  -1   6  -7   15.95    0.68
  -1   6  -7   17.37    0.65
  -1   6  -7   19.10    0.64
   1  -6   7   18.75    0.56
   1  -6   7   18.53    0.62
   1  -6   7   17.90    0.65
  -2   6  -7    0.83    0.17
  -2   6  -7    0.63    0.17
  -2   6  -7    0.61    0.29
   2  -6   7    0.77    0.19
   2  -6   7    0.82    0.19
   2  -6   7    1.02    0.15
   2  -6   7    0.48    0.20
  -3   6  -7    7.65    0.50
  -3   6  -7    7.73    0.44
  -3   6  -7    8.70    0.34
  -3   6  -7    6.73    0.45
  -3   6  -7    7.57    0.39
   3  -6   7    8.27    0.43
   3  -6   7    8.29    0.36
   3  -6   7    7.77    0.38
   3  -6   7    7.60    0.44
  -4   6  -7    0.40    0.17
  -4   6  -7    0.52    0.17
  -4   6  -7    0.78    0.23
  -4   6  -7    0.54    0.20
   4  -6   7    0.61    0.17
   4  -6   7    0.83    0.23
   4  -6   7    0.51    0.18
  -5   6  -7    8.43    0.47
  -5   6  -7    8.55    0.48
  -5   6  -7    9.54    0.48
  -5   6  -7    9.99    0.42
   5  -6   7    9.48    0.52
   5  -6   7    9.79    0.64
   5  -6   7    8.99    0.52
   5  -6   7    8.60    0.45
  -6   6  -7   -0.01    0.21
  -6   6  -7   -0.08    0.17
  -6   6  -7    0.36    0.22
  -6   6  -7   -0.09    0.18
   6  -6   7    0.59    0.27
   6  -6   7    0.23    0.23
   6  -6   7   -0.02    0.28
   6  -6   7   -0.18    0.25
  -7   6  -7    3.39    0.42
  -7   6  -7    2.58    0.34
  -7   6  -7    2.01    0.43
   7  -6   7    2.04    0.37
   7  -6   7    2.58    0.32
   7  -6   7    3.17    0.43
   7  -6   7    3.05    0.45
   7   5  -7    0.14    0.40
   7   5  -7    0.50    0.37
   7   5  -7    0.01    0.30
   7   5  -7    0.26    0.32
   7   5  -7    0.00    0.30
  -7  -5   7    0.36    0.28
  -7  -5   7   -0.30    0.29
  -7  -5   7    0.19    0.31
   6   5  -7    4.09    0.47
   6   5  -7    5.36    0.50
   6   5  -7    4.42    0.56
   6   5  -7    4.40    0.50
   6   5  -7    3.74    0.52
  -6  -5   7    4.33    0.49
  -6  -5   7    4.74    0.51
  -6  -5   7    4.65    0.50
   5   5  -7   -0.34    0.26
   5   5  -7    0.49    0.27
   5   5  -7    0.37    0.27
   5   5  -7    0.43    0.32
  -5  -5   7    0.08    0.33
  -5  -5   7   -0.21    0.22
  -5  -5   7   -0.35    0.25
   4   5  -7    5.13    0.40
   4   5  -7    4.68    0.48
  -4  -5   7    4.68    0.46
  -4  -5   7    5.98    0.42
  -4  -5   7    5.75    0.48
   3   5  -7    0.75    0.18
   3   5  -7    0.41    0.24
   3   5  -7    0.64    0.24
   3   5  -7    0.09    0.16
   3   5  -7    0.67    0.23
  -3  -5   7    0.43    0.26
  -3  -5   7    0.22    0.18
   2   5  -7   29.32    0.83
   2   5  -7   29.75    0.95
   2   5  -7   28.98    0.96
   2   5  -7   28.57    0.88
   2   5  -7   29.31    0.88
  -2  -5   7   28.17    0.88
  -2  -5   7   30.26    0.84
  -2  -5   7   30.09    0.90
  -2  -5   7   28.26    0.93
   1   5  -7    0.31    0.12
   1   5  -7   -0.08    0.13
   1   5  -7    0.21    0.18
   1   5  -7    0.31    0.17
  -1  -5   7    0.15    0.20
  -1  -5   7    0.09    0.12
  -1  -5   7    0.16    0.15
  -1  -5   7    0.17    0.11
   0   5  -7   37.25    1.06
   0   5  -7   35.82    1.02
   0   5  -7   37.85    1.04
   0   5  -7   37.55    1.08
   0   5  -7   35.69    0.95
   0  -5   7   38.32    0.96
   0  -5   7   36.83    1.02
   0  -5   7   36.69    1.02
   0  -5   7   36.35    1.06
  -1   5  -7    0.13    0.13
  -1   5  -7   -0.01    0.14
  -1   5  -7    0.52    0.15
  -1   5  -7    0.28    0.15
   1  -5   7    0.17    0.16
   1  -5   7    0.23    0.13
   1  -5   7    0.28    0.10
   1  -5   7    0.18    0.16
  -2   5  -7   16.59    0.57
  -2   5  -7   17.95    0.55
  -2   5  -7   16.68    0.58
  -2   5  -7   16.34    0.55
  -2   5  -7   17.01    0.58
   2  -5   7   17.35    0.57
   2  -5   7   16.79    0.52
   2  -5   7   16.25    0.60
   2  -5   7   17.42    0.60
  -3   5  -7    1.82    0.24
  -3   5  -7    1.76    0.23
  -3   5  -7    2.17    0.25
  -3   5  -7    1.67    0.22
  -3   5  -7    1.79    0.18
   3  -5   7    1.78    0.22
   3  -5   7    2.04    0.20
   3  -5   7    1.78    0.25
  -4   5  -7   17.85    0.56
  -4   5  -7   14.77    0.59
  -4   5  -7   16.31    0.62
  -4   5  -7   16.56    0.59
  -4   5  -7   17.98    0.51
   4  -5   7   16.87    0.58
   4  -5   7   16.29    0.63
  -5   5  -7    0.21    0.16
  -5   5  -7    0.23    0.20
  -5   5  -7    0.06    0.14
  -5   5  -7    0.19    0.17
   5  -5   7    0.18    0.20
   5  -5   7    0.33    0.24
   5  -5   7    0.06    0.15
   5  -5   7    0.09    0.15
  -6   5  -7    7.17    0.43
  -6   5  -7    7.96    0.47
  -6   5  -7    8.54    0.46
  -6   5  -7    8.29    0.34
   6  -5   7    7.15    0.47
   6  -5   7    8.51    0.44
   6  -5   7    7.59    0.55
   6  -5   7    8.43    0.50
  -7   5  -7    0.15    0.22
  -7   5  -7   -0.11    0.21
  -7   5  -7    0.25    0.18
   7  -5   7    0.28    0.28
   7  -5   7   -0.02    0.27
   7  -5   7    0.19    0.25
   7  -5   7    0.09    0.23
  -8   5  -7    1.08    0.30
  -8   5  -7    2.09    0.33
  -8   5  -7    1.26    0.24
   8  -5   7    1.66    0.31
   8  -5   7    1.72    0.37
   8  -5   7    1.63    0.36
   7   4  -7    1.39    0.33
   7   4  -7    1.60    0.39
   7   4  -7    1.19    0.37
   7   4  -7    0.86    0.33
   7   4  -7    1.79    0.41
  -7  -4   7    1.43    0.28
  -7  -4   7    1.12    0.32
  -7  -4   7    1.20    0.33
   6   4  -7    0.15    0.25
   6   4  -7    0.05    0.27
   6   4  -7   -0.37    0.24
   6   4  -7    0.15    0.27
   6   4  -7    0.58    0.36
  -6  -4   7    0.22    0.21
  -6  -4   7    0.28    0.32
  -6  -4   7    0.40    0.29
   5   4  -7    8.87    0.59
   5   4  -7    9.30    0.47
   5   4  -7    9.37    0.60
   5   4  -7    9.42    0.58
  -5  -4   7    8.73    0.53
  -5  -4   7    9.53    0.57
  -5  -4   7    8.23    0.54
   4   4  -7    0.14    0.23
   4   4  -7    0.08    0.23
   4   4  -7    0.60    0.20
  -4  -4   7    0.22    0.19
  -4  -4   7    0.06    0.24
  -4  -4   7   -0.03    0.16
   3   4  -7   17.88    0.63
   3   4  -7   19.75    0.76
   3   4  -7   18.20    0.68
  -3  -4   7   18.52    0.66
  -3  -4   7   17.98    0.71
  -3  -4   7   18.17    0.64
   2   4  -7    0.22    0.14
   2   4  -7    0.47    0.19
   2   4  -7    0.57    0.16
   2   4  -7    0.33    0.18
   2   4  -7    0.25    0.17
  -2  -4   7    0.24    0.15
  -2  -4   7    0.37    0.14
  -2  -4   7    0.20    0.18
   1   4  -7   23.42    0.75
   1   4  -7   22.75    0.74
   1   4  -7   22.83    0.66
   1   4  -7   22.58    0.69
   1   4  -7   21.92    0.79
  -1  -4   7   23.52    0.74
  -1  -4   7   23.43    0.64
  -1  -4   7   23.09    0.70
  -1  -4   7   21.88    0.70
   0   4  -7    0.15    0.14
   0   4  -7    0.29    0.11
   0   4  -7    0.04    0.12
   0   4  -7    0.05    0.15
   0   4  -7    0.12    0.13
   0  -4   7    0.04    0.12
   0  -4   7   -0.05    0.11
   0  -4   7    0.23    0.15
   0  -4   7    0.18    0.09
  -1   4  -7   63.80    1.61
  -1   4  -7   62.66    1.61
  -1   4  -7   63.27    1.63
  -1   4  -7   65.99    1.53
  -1   4  -7   66.01    1.62
   1  -4   7   62.64    1.60
   1  -4   7   63.47    1.60
   1  -4   7   65.57    1.54
   1  -4   7   62.64    1.63
  -2   4  -7    0.30    0.13
  -2   4  -7   -0.01    0.10
  -2   4  -7    0.14    0.10
  -2   4  -7    0.34    0.13
  -2   4  -7    0.08    0.11
   2  -4   7    0.08    0.09
   2  -4   7   -0.03    0.14
   2  -4   7    0.35    0.14
   2  -4   7    0.36    0.13
  -3   4  -7   30.82    0.86
  -3   4  -7   30.25    0.87
  -3   4  -7   30.16    0.86
  -3   4  -7   31.10    0.79
   3  -4   7   30.27    0.85
   3  -4   7   31.06    0.86
   3  -4   7   28.65    0.91
   3  -4   7   29.42    0.89
  -4   4  -7    2.28    0.22
  -4   4  -7    2.02    0.24
  -4   4  -7    1.97    0.23
  -4   4  -7    2.00    0.25
  -4   4  -7    2.50    0.14
   4  -4   7    2.55    0.27
   4  -4   7    2.34    0.22
   4  -4   7    2.00    0.23
   4  -4   7    2.30    0.27
  -5   4  -7   14.34    0.73
  -5   4  -7   13.30    0.54
  -5   4  -7   13.82    0.51
  -5   4  -7   14.32    0.46
   5  -4   7   12.32    0.62
   5  -4   7   13.68    0.60
   5  -4   7   14.06    0.50
   5  -4   7   12.14    0.72
  -6   4  -7    0.34    0.12
  -6   4  -7    0.75    0.18
  -6   4  -7    0.33    0.18
   6  -4   7    0.29    0.25
   6  -4   7    0.54    0.18
   6  -4   7    0.29    0.21
   6  -4   7   -0.14    0.24
  -7   4  -7    7.98    0.48
  -7   4  -7    7.63    0.44
   7  -4   7    8.07    0.56
   7  -4   7    8.71    0.53
   7  -4   7    8.48    0.53
   7  -4   7    7.67    0.57
  -8   4  -7    0.34    0.18
  -8   4  -7   -0.24    0.22
  -8   4  -7    0.15    0.23
   8  -4   7    0.22    0.27
   8  -4   7    0.04    0.24
   8  -4   7    0.04    0.25
   7   3  -7   -0.15    0.28
   7   3  -7    0.43    0.49
   7   3  -7    0.17    0.28
   7   3  -7    0.31    0.31
  -7  -3   7    0.12    0.24
  -7  -3   7   -0.29    0.25
  -7  -3   7   -0.75    0.31
   6   3  -7    4.10    0.50
   6   3  -7    3.69    0.44
   6   3  -7    5.19    0.50
   6   3  -7    3.91    0.51
   6   3  -7    4.85    0.38
  -6  -3   7    4.28    0.46
  -6  -3   7    4.00    0.40
  -6  -3   7    5.71    0.46
   5   3  -7    0.61    0.26
   5   3  -7    0.59    0.22
   5   3  -7    0.32    0.27
   5   3  -7   -0.07    0.24
  -5  -3   7    0.36    0.19
  -5  -3   7    0.65    0.21
  -5  -3   7    0.34    0.27
   4   3  -7    7.87    0.55
   4   3  -7    7.91    0.46
   4   3  -7    8.72    0.38
  -4  -3   7    8.63    0.41
  -4  -3   7    7.75    0.42
   3   3  -7    1.48    0.24
   3   3  -7    1.14    0.18
   3   3  -7    0.98    0.22
   3   3  -7    1.35    0.24
   3   3  -7    1.33    0.22
  -3  -3   7    1.18    0.20
  -3  -3   7    1.48    0.26
  -3  -3   7    1.25    0.19
   2   3  -7   33.61    0.94
   2   3  -7   35.55    0.93
   2   3  -7   33.90    0.92
   2   3  -7   33.31    1.00
   2   3  -7   33.99    0.99
  -2  -3   7   33.05    0.94
  -2  -3   7   34.09    1.01
  -2  -3   7   33.29    0.94
   1   3  -7    0.16    0.13
   1   3  -7    0.04    0.11
   1   3  -7    0.25    0.13
   1   3  -7    0.17    0.11
   1   3  -7    0.04    0.13
  -1  -3   7    0.07    0.14
  -1  -3   7    0.13    0.11
  -1  -3   7    0.19    0.11
  -1  -3   7    0.12    0.09
   0   3  -7   46.31    1.14
   0   3  -7   48.45    1.18
   0   3  -7   44.26    1.17
   0   3  -7   44.03    1.21
   0   3  -7   45.35    1.20
   0  -3   7   45.17    1.17
   0  -3   7   44.19    1.21
   0  -3   7   44.67    1.17
   0  -3   7   47.27    1.10
  -1   3  -7    0.04    0.09
  -1   3  -7   -0.09    0.10
  -1   3  -7   -0.06    0.10
  -1   3  -7    0.03    0.12
  -1   3  -7   -0.11    0.09
  -1   3  -7    0.07    0.10
   1  -3   7   -0.04    0.09
   1  -3   7    0.02    0.09
   1  -3   7    0.06    0.13
   1  -3   7    0.00    0.06
  -2   3  -7   44.80    1.10
  -2   3  -7   43.68    1.11
  -2   3  -7   44.22    1.15
  -2   3  -7   43.23    1.14
  -2   3  -7   43.38    1.14
   2  -3   7   44.95    1.14
   2  -3   7   42.40    1.16
   2  -3   7   44.62    1.07
   2  -3   7   42.39    1.14
  -3   3  -7   -0.12    0.10
  -3   3  -7   -0.07    0.11
  -3   3  -7   -0.08    0.11
  -3   3  -7    0.24    0.12
  -3   3  -7   -0.13    0.09
   3  -3   7    0.16    0.13
   3  -3   7   -0.27    0.12
   3  -3   7    0.05    0.11
   3  -3   7   -0.09    0.08
  -4   3  -7   37.05    0.86
  -4   3  -7   36.15    0.99
  -4   3  -7   35.58    1.00
  -4   3  -7   36.60    1.00
  -4   3  -7   36.47    0.96
   4  -3   7   35.14    1.01
   4  -3   7   35.93    0.99
   4  -3   7   35.74    0.95
   4  -3   7   34.57    0.97
  -5   3  -7    0.90    0.18
  -5   3  -7    1.24    0.17
  -5   3  -7    1.24    0.17
   5  -3   7    1.48    0.21
   5  -3   7    1.06    0.17
   5  -3   7    0.99    0.20
   5  -3   7    1.07    0.17
  -6   3  -7   12.29    0.60
  -6   3  -7   11.09    0.49
  -6   3  -7   12.30    0.40
   6  -3   7   12.74    0.50
   6  -3   7   11.88    0.55
   6  -3   7   13.13    0.60
   6  -3   7   12.16    0.49
  -7   3  -7    1.26    0.23
  -7   3  -7    0.92    0.21
  -7   3  -7    0.79    0.23
   7  -3   7    0.97    0.28
   7  -3   7    0.86    0.23
   7  -3   7    0.62    0.25
   7  -3   7    1.01    0.22
   7  -3   7    0.77    0.31
  -8   3  -7    5.06    0.43
  -8   3  -7    6.22    0.44
  -8   3  -7    5.66    0.42
   8  -3   7    5.28    0.51
   8  -3   7    5.42    0.48
   8  -3   7    6.36    0.61
   8  -3   7    5.27    0.52
  -9   3  -7    0.83    0.28
  -9   3  -7    0.32    0.21
  -9   3  -7    0.24    0.25
   9  -3   7    0.13    0.32
   9  -3   7   -0.25    0.50
   9  -3   7   -0.07    0.27
   7   2  -7    0.98    0.34
   7   2  -7    1.93    0.36
   7   2  -7    1.30    0.35
  -7  -2   7    1.07    0.26
  -7  -2   7    1.72    0.37
  -7  -2   7    1.66    0.32
   6   2  -7   -0.03    0.24
   6   2  -7    0.02    0.25
   6   2  -7    0.37    0.27
  -6  -2   7    0.20    0.21
  -6  -2   7   -0.17    0.18
  -6  -2   7    0.34    0.28
   5   2  -7    7.37    0.52
   5   2  -7    7.85    0.34
   5   2  -7    7.96    0.61
   5   2  -7    7.22    0.45
  -5  -2   7    8.19    0.42
  -5  -2   7    7.50    0.51
  -5  -2   7    7.46    0.43
   4   2  -7    0.48    0.17
   4   2  -7    0.57    0.20
   4   2  -7   -0.01    0.13
  -4  -2   7    0.10    0.22
  -4  -2   7    0.22    0.15
  -4  -2   7    0.18    0.15
   3   2  -7   44.00    1.26
   3   2  -7   42.98    1.25
   3   2  -7   44.37    1.14
   3   2  -7   44.20    1.21
   3   2  -7   44.65    1.22
  -3  -2   7   42.84    1.27
  -3  -2   7   45.03    1.18
  -3  -2   7   45.39    1.30
   2   2  -7    2.03    0.24
   2   2  -7    1.89    0.24
   2   2  -7    1.86    0.21
   2   2  -7    2.64    0.38
   2   2  -7    1.98    0.19
   2   2  -7    2.32    0.27
  -2  -2   7    1.80    0.26
  -2  -2   7    1.96    0.19
  -2  -2   7    2.00    0.21
   1   2  -7   19.93    0.58
   1   2  -7   20.54    0.50
   1   2  -7   20.17    0.60
   1   2  -7   19.96    0.64
   1   2  -7   19.12    0.63
   1   2  -7   20.54    0.49
   1   2  -7   20.95    0.59
  -1  -2   7   19.91    0.59
  -1  -2   7   19.33    0.59
   0   2  -7    0.94    0.16
   0   2  -7    0.92    0.14
   0   2  -7    0.87    0.11
   0   2  -7    1.08    0.14
   0   2  -7    1.15    0.14
   0   2  -7    1.08    0.14
   0  -2   7    1.06    0.13
   0  -2   7    0.87    0.12
   0  -2   7    1.00    0.17
   0  -2   7    1.08    0.09
  -1   2  -7   52.51    1.28
  -1   2  -7   52.64    1.26
  -1   2  -7   50.70    1.23
  -1   2  -7   48.93    1.29
  -1   2  -7   51.83    1.28
  -1   2  -7   50.78    1.27
   1  -2   7   50.00    1.30
   1  -2   7   52.57    1.19
   1  -2   7   48.88    1.35
   1  -2   7   49.51    1.27
  -2   2  -7    0.21    0.08
  -2   2  -7    0.20    0.10
  -2   2  -7    0.05    0.09
  -2   2  -7    0.25    0.10
  -2   2  -7    0.17    0.10
   2  -2   7    0.20    0.06
   2  -2   7    0.31    0.10
   2  -2   7    0.20    0.12
   2  -2   7    0.09    0.09
  -3   2  -7   57.81    1.46
  -3   2  -7   58.15    1.45
  -3   2  -7   58.85    1.46
  -3   2  -7   60.09    1.40
  -3   2  -7   57.73    1.48
   3  -2   7   60.44    1.46
   3  -2   7   56.13    1.45
   3  -2   7   57.90    1.41
   3  -2   7   56.89    1.47
  -4   2  -7    0.12    0.11
  -4   2  -7    0.08    0.11
  -4   2  -7    0.13    0.10
  -4   2  -7    0.11    0.14
   4  -2   7    0.06    0.12
   4  -2   7    0.09    0.12
   4  -2   7    0.15    0.10
   4  -2   7    0.24    0.11
  -5   2  -7   13.37    0.43
  -5   2  -7   13.97    0.50
  -5   2  -7   13.38    0.49
  -5   2  -7   14.03    0.51
   5  -2   7   13.31    0.51
   5  -2   7   13.80    0.49
   5  -2   7   13.36    0.47
   5  -2   7   12.96    0.47
  -6   2  -7    2.06    0.27
  -6   2  -7    2.07    0.25
  -6   2  -7    2.22    0.24
   6  -2   7    2.04    0.23
   6  -2   7    2.36    0.30
   6  -2   7    2.44    0.27
   6  -2   7    2.03    0.24
   6  -2   7    1.65    0.25
  -7   2  -7    9.21    0.48
  -7   2  -7   10.57    0.46
  -7   2  -7    9.89    0.48
   7  -2   7    9.65    0.51
   7  -2   7   10.19    0.56
   7  -2   7    9.55    0.58
   7  -2   7   10.00    0.59
   7  -2   7    9.86    0.46
  -8   2  -7    0.10    0.18
  -8   2  -7    0.57    0.24
  -8   2  -7    0.17    0.20
   8  -2   7    0.37    0.22
   8  -2   7    0.63    0.36
   8  -2   7    0.03    0.23
  -9   2  -7    3.61    0.44
  -9   2  -7    4.03    0.42
   9  -2   7    4.21    0.51
   9  -2   7    4.28    0.45
   7   1  -7    0.03    0.29
   7   1  -7   -0.19    0.26
   7   1  -7    0.14    0.28
  -7  -1   7    0.02    0.19
  -7  -1   7    0.01    0.28
   6   1  -7    8.04    0.57
   6   1  -7    8.18    0.54
   6   1  -7    8.03    0.56
  -6  -1   7    8.65    0.47
  -6  -1   7    8.40    0.56
  -6  -1   7   10.04    0.48
   5   1  -7   -0.09    0.19
   5   1  -7    0.63    0.43
   5   1  -7    0.19    0.21
   5   1  -7    0.19    0.26
  -5  -1   7   -0.04    0.25
  -5  -1   7    0.14    0.17
  -5  -1   7   -0.19    0.15
   4   1  -7   13.43    0.51
   4   1  -7   12.52    0.72
   4   1  -7   13.20    0.78
   4   1  -7   12.51    0.39
  -4  -1   7   12.01    0.46
  -4  -1   7   12.28    0.60
  -4  -1   7   11.80    0.47
   3   1  -7    0.20    0.11
   3   1  -7    0.34    0.17
   3   1  -7    0.18    0.15
   3   1  -7    0.09    0.15
   3   1  -7    0.35    0.18
  -3  -1   7    0.27    0.18
  -3  -1   7    0.04    0.11
  -3  -1   7   -0.07    0.11
   2   1  -7   47.95    1.18
   2   1  -7   47.90    1.28
   2   1  -7   47.77    1.25
   2   1  -7   48.28    1.26
   2   1  -7   48.04    1.30
  -2  -1   7   48.41    1.22
  -2  -1   7   47.26    1.29
  -2  -1   7   46.38    1.22
   1   1  -7    0.04    0.06
   1   1  -7   -0.15    0.10
   1   1  -7   -0.04    0.08
   1   1  -7    0.00    0.10
   1   1  -7    0.03    0.10
   1   1  -7   -0.07    0.09
  -1  -1   7   -0.02    0.08
  -1  -1   7    0.07    0.08
  -1  -1   7    0.18    0.12
   0   1  -7   81.70    1.91
   0   1  -7   83.92    1.90
   0   1  -7   81.19    1.82
   0   1  -7   78.61    1.89
   0   1  -7   77.48    1.93
   0   1  -7   77.90    1.93
   0  -1   7   77.78    1.93
   0  -1   7   77.57    1.90
   0  -1   7   77.58    1.90
  -1   1  -7    1.07    0.14
  -1   1  -7    1.07    0.13
  -1   1  -7    1.23    0.15
  -1   1  -7    0.90    0.13
  -1   1  -7    1.32    0.14
  -1   1  -7    1.15    0.14
   1  -1   7    1.37    0.17
   1  -1   7    1.42    0.17
   1  -1   7    1.26    0.14
  -2   1  -7   23.43    0.67
  -2   1  -7   23.90    0.64
  -2   1  -7   23.59    0.66
  -2   1  -7   25.04    0.65
  -2   1  -7   23.79    0.67
   2  -1   7   23.48    0.66
   2  -1   7   22.82    0.69
   2  -1   7   24.19    0.68
   2  -1   7   24.59    0.59
  -3   1  -7    0.71    0.09
  -3   1  -7    0.58    0.13
  -3   1  -7    0.50    0.11
  -3   1  -7    0.42    0.11
  -3   1  -7    0.71    0.12
   3  -1   7    0.42    0.10
   3  -1   7    0.54    0.12
   3  -1   7    0.78    0.11
   3  -1   7    0.48    0.12
  -4   1  -7   44.90    1.15
  -4   1  -7   45.42    1.05
  -4   1  -7   43.46    1.11
  -4   1  -7   43.48    1.15
  -4   1  -7   44.19    1.16
   4  -1   7   45.06    1.15
   4  -1   7   45.02    1.11
   4  -1   7   42.89    1.14
   4  -1   7   43.09    1.16
  -5   1  -7   -0.05    0.13
  -5   1  -7    0.48    0.14
  -5   1  -7    0.38    0.13
   5  -1   7    0.27    0.14
   5  -1   7    0.42    0.13
   5  -1   7    0.12    0.12
   5  -1   7    0.37    0.15
  -6   1  -7   15.17    0.57
  -6   1  -7   14.80    0.54
  -6   1  -7   14.75    0.53
   6  -1   7   14.57    0.56
   6  -1   7   14.79    0.55
   6  -1   7   15.46    0.54
   6  -1   7   14.98    0.64
   6  -1   7   14.50    0.52
  -7   1  -7    0.46    0.20
  -7   1  -7    0.36    0.21
  -7   1  -7    0.51    0.17
   7  -1   7    0.72    0.23
   7  -1   7    0.71    0.19
  -8   1  -7    3.95    0.37
  -8   1  -7    4.03    0.37
   8  -1   7    4.99    0.46
   8  -1   7    4.19    0.43
  -9   1  -7   -0.19    0.25
  -9   1  -7   -0.14    0.21
  -9   1  -7    0.30    0.21
   9  -1   7   -0.06    0.25
   9  -1   7    0.29    0.44
   9  -1   7   -0.05    0.23
   7   0  -7    3.53    0.51
   7   0  -7    3.96    0.50
   7   0  -7    5.11    0.51
  -7   0   7    3.18    0.37
  -7   0   7    3.40    0.46
   6   0  -7    0.30    0.25
   6   0  -7    0.37    0.27
   6   0  -7   -0.01    0.27
  -6   0   7    0.28    0.27
  -6   0   7    0.28    0.17
  -6   0   7    0.52    0.23
   5   0  -7    8.93    0.55
   5   0  -7    7.67    0.49
   5   0  -7    8.68    0.51
  -5   0   7    8.31    0.43
  -5   0   7    8.47    0.52
  -5   0   7    8.92    0.40
   4   0  -7    0.92    0.19
   4   0  -7    0.58    0.26
   4   0  -7    0.36    0.19
   4   0  -7    0.83    0.22
  -4   0   7    0.67    0.15
  -4   0   7    0.92    0.24
  -4   0   7    0.59    0.14
   3   0  -7   41.76    1.11
   3   0  -7   40.51    1.14
   3   0  -7   41.01    1.14
   3   0  -7   40.97    1.19
   3   0  -7   40.85    0.98
  -3   0   7   40.50    1.07
  -3   0   7   41.13    1.18
  -3   0   7   41.65    1.07
   2   0  -7    0.25    0.14
   2   0  -7    0.21    0.08
   2   0  -7    0.29    0.12
   2   0  -7    0.36    0.16
   2   0  -7    0.22    0.06
   2   0  -7    0.18    0.12
  -2   0   7    0.39    0.10
  -2   0   7    0.18    0.09
  -2   0   7    0.11    0.15
   1   0  -7   46.50    1.14
   1   0  -7   46.85    1.24
   1   0  -7   47.07    1.21
   1   0  -7   45.04    1.14
   1   0  -7   46.80    1.22
   1   0  -7   45.69    1.20
  -1   0   7   46.34    1.17
  -1   0   7   48.18    1.17
  -1   0   7   48.95    1.23
   0   0  -7    1.02    0.15
   0   0  -7    1.14    0.15
   0   0  -7    0.86    0.12
   0   0  -7    0.94    0.11
   0   0  -7    0.75    0.12
   0   0  -7    0.85    0.20
   0   0   7    0.85    0.11
   0   0   7    0.80    0.12
   0   0   7    0.98    0.14
  -1   0  -7   72.83    1.77
  -1   0  -7   74.95    1.73
  -1   0  -7   75.23    1.78
  -1   0  -7   72.09    1.79
  -1   0  -7   78.46    1.77
  -1   0  -7   73.32    1.78
   1   0   7   72.41    1.77
   1   0   7   72.28    1.78
   1   0   7   73.22    1.77
  -2   0  -7   13.37    0.40
  -2   0  -7   12.67    0.42
  -2   0  -7   13.04    0.40
  -2   0  -7   13.59    0.42
  -2   0  -7   12.99    0.41
   2   0   7   12.78    0.41
   2   0   7   12.52    0.42
  -3   0  -7   80.29    1.93
  -3   0  -7   81.30    1.89
  -3   0  -7   80.37    1.94
  -3   0  -7   79.55    1.93
  -3   0  -7   79.81    2.04
   3   0   7   81.68    1.94
   3   0   7   79.47    1.94
   3   0   7   81.55    1.94
  -4   0  -7    0.07    0.10
  -4   0  -7    0.18    0.12
  -4   0  -7    0.04    0.07
  -4   0  -7    0.13    0.09
   4   0   7    0.22    0.10
   4   0   7    0.16    0.09
   4   0   7    0.01    0.10
  -5   0  -7   30.17    0.83
  -5   0  -7   28.29    0.85
  -5   0  -7   28.47    0.83
   5   0   7   30.34    0.83
   5   0   7   28.68    0.83
   5   0   7   29.48    0.83
  -6   0  -7   -0.13    0.12
  -6   0  -7    0.03    0.12
  -6   0  -7    0.23    0.16
   6   0   7    0.05    0.13
   6   0   7   -0.04    0.16
   6   0   7    0.07    0.12
   6   0   7    0.14    0.15
  -7   0  -7    9.32    0.44
  -7   0  -7    8.61    0.54
   7   0   7   10.20    0.52
   7   0   7    9.95    0.44
  -8   0  -7   -0.38    0.29
  -8   0  -7    0.16    0.21
   8   0   7   -0.20    0.20
  -9   0  -7    2.82    0.40
  -9   0  -7    3.01    0.41
  -9   0  -7    3.85    0.43
   9   0   7    3.81    0.45
   9   0   7    3.52    0.60
   9   0   7    2.79    0.40
 -10   0  -7   -0.12    0.28
 -10   0  -7    0.34    0.28
 -10   0  -7    0.39    0.31
  10   0   7   -0.56    0.40
  10   0   7   -0.12    0.27
  10   0   7    0.36    0.30
   7  -1  -7    0.30    0.29
   7  -1  -7    0.58    0.32
   7  -1  -7    0.03    0.30
  -7   1   7    0.15    0.28
  -7   1   7   -0.14    0.17
   6  -1  -7    9.20    0.58
   6  -1  -7    8.74    0.62
   6  -1  -7    9.68    0.55
  -6   1   7    9.55    0.59
  -6   1   7    9.05    0.45
   5  -1  -7    0.29    0.21
   5  -1  -7    0.59    0.25
   5  -1  -7    0.77    0.27
  -5   1   7    0.74    0.22
  -5   1   7    0.86    0.28
  -5   1   7    0.97    0.18
   4  -1  -7   10.94    0.54
   4  -1  -7   10.11    0.48
   4  -1  -7    9.59    0.51
  -4   1   7   10.50    0.39
  -4   1   7   11.12    0.53
   3  -1  -7    0.09    0.15
   3  -1  -7    0.00    0.08
   3  -1  -7   -0.10    0.13
   3  -1  -7    0.02    0.16
  -3   1   7    0.23    0.12
  -3   1   7   -0.29    0.15
  -3   1   7    0.05    0.08
   2  -1  -7   18.86    0.62
   2  -1  -7   19.18    0.62
   2  -1  -7   19.91    0.50
   2  -1  -7   20.03    0.66
   2  -1  -7   19.69    0.60
  -2   1   7   19.00    0.55
  -2   1   7   19.48    0.54
  -2   1   7   19.61    0.64
   1  -1  -7    0.44    0.13
   1  -1  -7    0.31    0.10
   1  -1  -7    0.63    0.15
   1  -1  -7    0.37    0.08
   1  -1  -7    0.42    0.11
  -1   1   7    0.41    0.08
  -1   1   7    0.30    0.08
  -1   1   7    0.68    0.13
   0  -1  -7  159.82    3.72
   0  -1  -7  164.04    3.74
   0  -1  -7  166.14    3.79
   0  -1  -7  162.94    3.79
   0  -1  -7  163.50    3.79
   0   1   7  158.32    3.74
   0   1   7  165.26    3.78
  -1  -1  -7    0.30    0.09
  -1  -1  -7    0.25    0.10
  -1  -1  -7    0.59    0.13
  -1  -1  -7    0.34    0.11
  -1  -1  -7    0.26    0.08
  -1  -1  -7    0.51    0.10
   1   1   7    0.27    0.10
   1   1   7    0.25    0.08
   1   1   7    0.27    0.07
  -2  -1  -7   78.78    1.89
  -2  -1  -7   78.43    1.86
  -2  -1  -7   80.72    1.87
  -2  -1  -7   78.06    1.87
   2   1   7   77.07    1.87
   2   1   7   79.01    1.87
   2   1   7   76.14    1.86
  -3  -1  -7   15.68    0.50
  -3  -1  -7   14.55    0.51
  -3  -1  -7   17.40    0.50
  -3  -1  -7   16.58    0.49
   3   1   7   16.56    0.49
   3   1   7   17.13    0.50
   3   1   7   16.42    0.49
  -4  -1  -7   65.44    1.66
  -4  -1  -7   66.08    1.68
  -4  -1  -7   68.93    1.60
  -4  -1  -7   70.87    1.67
   4   1   7   67.46    1.67
   4   1   7   69.61    1.67
   4   1   7   66.53    1.66
  -5  -1  -7    0.73    0.15
  -5  -1  -7    0.55    0.13
  -5  -1  -7    0.69    0.17
  -5  -1  -7    0.62    0.10
   5   1   7    0.45    0.13
   5   1   7    0.72    0.15
   5   1   7    0.39    0.13
  -6  -1  -7   37.80    1.05
  -6  -1  -7   37.47    1.08
   6   1   7   38.10    1.05
   6   1   7   37.38    1.08
   6   1   7   38.48    1.04
   6   1   7   37.30    1.07
  -7  -1  -7   -0.45    0.18
  -7  -1  -7    0.07    0.15
  -7  -1  -7    0.00    0.22
   7   1   7   -0.07    0.18
   7   1   7   -0.04    0.16
   7   1   7    0.19    0.15
  -8  -1  -7    5.27    0.43
  -8  -1  -7    5.28    0.40
  -8  -1  -7    5.69    0.44
   8   1   7    4.80    0.43
  -9  -1  -7    0.15    0.24
  -9  -1  -7    0.55    0.27
  -9  -1  -7    0.18    0.23
   9   1   7    0.42    0.36
   9   1   7    0.44    0.24
   9   1   7    0.34    0.24
 -10  -1  -7    1.84    0.45
 -10  -1  -7    1.28    0.34
 -10  -1  -7    1.06    0.32
  10   1   7    1.40    0.45
  10   1   7    1.74    0.33
  10   1   7    1.25    0.31
   7  -2  -7    2.58    0.43
   7  -2  -7    2.14    0.38
   7  -2  -7    2.17    0.37
  -7   2   7    1.73    0.25
  -7   2   7    2.17    0.40
   6  -2  -7    0.61    0.30
   6  -2  -7    0.23    0.25
   6  -2  -7    0.33    0.25
  -6   2   7    0.59    0.31
  -6   2   7    0.47    0.17
   5  -2  -7    6.11    0.43
   5  -2  -7    6.21    0.51
   5  -2  -7    6.16    0.45
  -5   2   7    6.21    0.50
   4  -2  -7    0.78    0.14
   4  -2  -7    0.67    0.23
   4  -2  -7    0.93    0.22
  -4   2   7    0.28    0.22
  -4   2   7    0.73    0.14
   3  -2  -7   41.35    1.18
   3  -2  -7   43.88    1.05
   3  -2  -7   43.26    1.18
   3  -2  -7   42.22    1.23
  -3   2   7   42.34    1.06
  -3   2   7   40.76    1.07
  -3   2   7   43.30    1.21
  -3   2   7   44.84    1.06
   2  -2  -7    1.19    0.20
   2  -2  -7    1.24    0.20
   2  -2  -7    1.35    0.19
  -2   2   7    1.14    0.13
  -2   2   7    0.84    0.12
  -2   2   7    1.36    0.19
  -2   2   7    0.99    0.11
   1  -2  -7   38.49    1.04
   1  -2  -7   39.06    0.94
   1  -2  -7   38.56    1.03
   1  -2  -7   37.35    0.98
   1  -2  -7   38.65    1.06
  -1   2   7   39.37    0.95
  -1   2   7   37.59    0.95
  -1   2   7   40.45    0.96
  -1   2   7   39.39    1.02
   0  -2  -7    3.54    0.21
   0  -2  -7    3.82    0.16
   0  -2  -7    3.37    0.21
   0  -2  -7    3.48    0.13
   0  -2  -7    3.36    0.22
   0   2   7    3.72    0.17
   0   2   7    3.88    0.20
   0   2   7    3.65    0.17
  -1  -2  -7   85.45    2.04
  -1  -2  -7   88.16    2.12
  -1  -2  -7   89.27    2.05
  -1  -2  -7   85.48    2.11
  -1  -2  -7   89.91    2.11
   1   2   7   85.23    2.05
   1   2   7   88.68    2.06
  -2  -2  -7    0.08    0.07
  -2  -2  -7    0.02    0.07
  -2  -2  -7    0.07    0.14
  -2  -2  -7   -0.10    0.10
   2   2   7   -0.14    0.07
   2   2   7   -0.02    0.06
   2   2   7   -0.01    0.06
  -3  -2  -7  129.04    3.01
  -3  -2  -7  123.71    3.03
  -3  -2  -7  131.35    3.07
   3   2   7  129.56    3.04
   3   2   7  131.94    3.02
   3   2   7  134.61    3.11
  -4  -2  -7    1.59    0.16
  -4  -2  -7    1.84    0.22
  -4  -2  -7    1.53    0.18
   4   2   7    1.67    0.17
   4   2   7    1.14    0.15
   4   2   7    1.77    0.16
  -5  -2  -7   38.25    1.03
  -5  -2  -7   39.05    1.04
  -5  -2  -7   38.01    1.07
  -5  -2  -7   40.46    0.96
   5   2   7   37.42    1.00
   5   2   7   37.55    1.01
   5   2   7   36.03    1.01
  -6  -2  -7    2.21    0.31
  -6  -2  -7    2.08    0.23
  -6  -2  -7    2.17    0.23
   6   2   7    1.58    0.22
   6   2   7    2.00    0.23
   6   2   7    1.79    0.26
  -7  -2  -7   20.28    0.69
  -7  -2  -7   19.94    0.75
   7   2   7   19.38    0.69
   7   2   7   19.45    0.71
   7   2   7   21.01    0.69
  -8  -2  -7    0.59    0.26
  -8  -2  -7    0.13    0.23
  -8  -2  -7    0.43    0.21
   8   2   7    0.36    0.25
   8   2   7   -0.08    0.29
  -9  -2  -7    6.07    0.47
  -9  -2  -7    5.19    0.49
  -9  -2  -7    6.49    0.52
   9   2   7    5.23    0.48
   9   2   7    5.92    0.46
 -10  -2  -7    0.16    0.29
 -10  -2  -7    0.27    0.25
 -10  -2  -7   -0.04    0.28
  10   2   7    0.55    0.28
  10   2   7    0.49    0.38
  10   2   7   -0.10    0.25
   7  -3  -7   -0.08    0.33
   7  -3  -7    0.68    0.34
   7  -3  -7    0.34    0.31
  -7   3   7    0.11    0.33
  -7   3   7    0.07    0.17
   6  -3  -7    5.16    0.48
   6  -3  -7    6.77    0.58
   6  -3  -7    5.13    0.47
  -6   3   7    4.76    0.32
  -6   3   7    5.62    0.54
   5  -3  -7    0.91    0.29
   5  -3  -7    0.83    0.24
   5  -3  -7    0.20    0.24
   5  -3  -7    0.39    0.16
  -5   3   7    0.87    0.30
  -5   3   7    0.42    0.20
   4  -3  -7   31.09    0.98
   4  -3  -7   30.66    0.91
   4  -3  -7   30.81    0.83
   4  -3  -7   30.97    1.04
   4  -3  -7   32.39    1.05
  -4   3   7   31.05    1.09
   3  -3  -7    4.53    0.36
   3  -3  -7    4.45    0.31
   3  -3  -7    5.01    0.24
   3  -3  -7    4.48    0.27
   3  -3  -7    4.13    0.32
  -3   3   7    4.66    0.33
  -3   3   7    4.41    0.20
  -3   3   7    4.23    0.20
  -3   3   7    4.70    0.20
   2  -3  -7   25.06    0.68
   2  -3  -7   25.59    0.69
   2  -3  -7   24.88    0.76
   2  -3  -7   24.88    0.77
   2  -3  -7   25.07    0.79
  -2   3   7   25.44    0.76
  -2   3   7   24.68    0.65
  -2   3   7   26.39    0.65
  -2   3   7   26.58    0.64
   1  -3  -7    0.11    0.12
   1  -3  -7    0.26    0.09
   1  -3  -7    0.25    0.09
   1  -3  -7    0.07    0.12
   1  -3  -7    0.30    0.11
  -1   3   7    0.18    0.06
  -1   3   7    0.33    0.12
  -1   3   7    0.17    0.06
  -1   3   7    0.19    0.06
   0  -3  -7   78.00    1.88
   0  -3  -7   78.24    1.91
   0  -3  -7   75.20    1.91
   0  -3  -7   79.17    1.81
   0  -3  -7   78.32    1.92
   0   3   7   78.59    1.84
   0   3   7   81.63    1.85
   0   3   7   78.75    1.83
   0   3   7   79.26    1.87
  -1  -3  -7   14.37    0.41
  -1  -3  -7   13.92    0.45
  -1  -3  -7   13.73    0.40
  -1  -3  -7   14.49    0.36
  -1  -3  -7   13.82    0.46
  -1  -3  -7   13.66    0.46
   1   3   7   14.03    0.40
   1   3   7   14.64    0.41
   1   3   7   15.13    0.42
  -2  -3  -7   69.83    1.73
  -2  -3  -7   71.75    1.62
  -2  -3  -7   70.67    1.77
  -2  -3  -7   68.32    1.69
  -2  -3  -7   71.31    1.68
  -2  -3  -7   66.74    1.67
   2   3   7   69.98    1.68
   2   3   7   71.74    1.68
   2   3   7   71.33    1.66
  -3  -3  -7    3.47    0.19
  -3  -3  -7    3.61    0.22
  -3  -3  -7    3.48    0.20
  -3  -3  -7    3.21    0.28
   3   3   7    3.36    0.19
   3   3   7    3.69    0.19
   3   3   7    3.65    0.18
  -4  -3  -7   43.34    1.07
  -4  -3  -7   41.76    1.16
  -4  -3  -7   43.61    1.11
  -4  -3  -7   41.18    1.10
   4   3   7   41.87    1.09
   4   3   7   43.58    1.07
   4   3   7   42.65    1.10
  -5  -3  -7    2.71    0.29
  -5  -3  -7    3.21    0.26
  -5  -3  -7    3.45    0.21
  -5  -3  -7    3.08    0.23
   5   3   7    3.15    0.21
   5   3   7    3.10    0.23
   5   3   7    3.07    0.22
  -6  -3  -7   33.92    1.02
  -6  -3  -7   33.60    0.97
  -6  -3  -7   33.61    0.97
   6   3   7   33.78    0.96
   6   3   7   33.29    0.96
  -7  -3  -7    0.40    0.19
  -7  -3  -7    0.43    0.24
   7   3   7    0.46    0.19
   7   3   7    0.58    0.18
   7   3   7    0.45    0.17
  -8  -3  -7   14.67    0.73
  -8  -3  -7   14.45    0.68
   8   3   7   12.11    0.71
   8   3   7   15.21    0.62
   8   3   7   14.36    0.50
   8   3   7   14.75    0.65
  -9  -3  -7   -0.13    0.26
  -9  -3  -7    0.27    0.24
  -9  -3  -7   -0.22    0.26
   9   3   7   -0.08    0.23
   9   3   7   -0.24    0.20
 -10  -3  -7    2.20    0.40
 -10  -3  -7    2.40    0.40
 -10  -3  -7    2.23    0.38
  10   3   7    1.58    0.32
  10   3   7    1.65    0.42
  10   3   7    1.96    0.34
   6  -4  -7    0.12    0.31
   6  -4  -7    0.22    0.28
   6  -4  -7    0.67    0.31
  -6   4   7    0.14    0.15
  -6   4   7    0.45    0.32
   5  -4  -7    7.40    0.56
   5  -4  -7    7.18    0.48
   5  -4  -7    8.16    0.47
   5  -4  -7    7.10    0.64
   5  -4  -7    7.27    0.38
  -5   4   7    6.68    0.34
  -5   4   7    5.97    0.54
   4  -4  -7    0.17    0.14
   4  -4  -7   -0.20    0.15
   4  -4  -7   -0.24    0.19
   4  -4  -7   -0.25    0.14
   4  -4  -7   -0.10    0.22
  -4   4   7   -0.25    0.10
  -4   4   7    0.17    0.09
  -4   4   7    0.00    0.23
   3  -4  -7   61.38    1.48
   3  -4  -7   59.82    1.56
   3  -4  -7   57.75    1.58
   3  -4  -7   58.97    1.51
   3  -4  -7   58.80    1.62
  -3   4   7   60.62    1.59
  -3   4   7   57.83    1.40
  -3   4   7   61.96    1.40
   2  -4  -7    1.50    0.22
   2  -4  -7    1.34    0.16
   2  -4  -7    1.11    0.17
   2  -4  -7    1.38    0.19
   2  -4  -7    1.80    0.25
  -2   4   7    1.30    0.10
  -2   4   7    1.26    0.10
  -2   4   7    1.47    0.20
  -2   4   7    1.06    0.12
   1  -4  -7   47.47    1.28
   1  -4  -7   48.06    1.27
   1  -4  -7   48.04    1.23
   1  -4  -7   49.11    1.19
   1  -4  -7   47.50    1.27
  -1   4   7   50.44    1.16
  -1   4   7   49.11    1.16
  -1   4   7   48.90    1.23
  -1   4   7   49.78    1.15
   0  -4  -7    1.12    0.16
   0  -4  -7    0.87    0.11
   0  -4  -7    0.71    0.12
   0  -4  -7    0.83    0.14
   0  -4  -7    0.84    0.14
   0   4   7    0.86    0.09
   0   4   7    0.67    0.09
   0   4   7    0.90    0.12
   0   4   7    0.81    0.10
  -1  -4  -7   29.65    0.83
  -1  -4  -7   30.01    0.76
  -1  -4  -7   30.52    0.84
  -1  -4  -7   31.38    0.79
  -1  -4  -7   30.74    0.75
  -1  -4  -7   29.29    0.84
   1   4   7   31.63    0.77
   1   4   7   29.59    0.77
   1   4   7   31.15    0.76
  -2  -4  -7    1.07    0.16
  -2  -4  -7    0.99    0.14
  -2  -4  -7    0.95    0.10
  -2  -4  -7    1.07    0.13
  -2  -4  -7    1.30    0.19
   2   4   7    1.09    0.10
   2   4   7    0.98    0.12
   2   4   7    0.93    0.12
  -3  -4  -7   92.71    2.20
  -3  -4  -7   91.22    2.31
  -3  -4  -7   89.00    2.19
  -3  -4  -7   90.65    2.29
  -3  -4  -7   94.25    2.20
   3   4   7   93.35    2.19
   3   4   7   93.79    2.19
  -4  -4  -7    5.93    0.36
  -4  -4  -7    5.76    0.28
  -4  -4  -7    6.24    0.30
  -4  -4  -7    5.42    0.36
   4   4   7    6.13    0.27
   4   4   7    6.18    0.24
   4   4   7    6.04    0.27
  -5  -4  -7   33.57    1.01
  -5  -4  -7   32.62    0.94
  -5  -4  -7   33.73    0.94
   5   4   7   33.55    0.93
   5   4   7   33.42    0.92
  -6  -4  -7    0.10    0.16
  -6  -4  -7    0.08    0.21
  -6  -4  -7    0.48    0.17
   6   4   7    0.48    0.15
   6   4   7    0.49    0.15
   6   4   7    0.55    0.17
  -7  -4  -7   14.47    0.60
  -7  -4  -7   13.87    0.64
  -7  -4  -7   14.81    0.58
   7   4   7   14.85    0.56
   7   4   7   14.96    0.58
   7   4   7   14.31    0.56
  -8  -4  -7   -0.33    0.25
  -8  -4  -7   -0.10    0.24
  -8  -4  -7    0.21    0.21
   8   4   7   -0.23    0.19
   8   4   7    0.21    0.23
   8   4   7   -0.09    0.18
   8   4   7    0.31    0.26
  -9  -4  -7    8.21    0.52
  -9  -4  -7    7.57    0.57
   9   4   7    7.55    0.56
   9   4   7    8.59    0.52
 -10  -4  -7    0.10    0.29
 -10  -4  -7   -0.61    0.31
 -10  -4  -7   -0.31    0.28
  10   4   7    0.27    0.28
  10   4   7   -0.02    0.25
   6  -5  -7    4.46    0.48
   6  -5  -7    4.74    0.53
   6  -5  -7    4.70    0.56
   6  -5  -7    5.58    0.53
   6  -5  -7    6.04    0.50
  -6   5   7    3.72    0.27
  -6   5   7    4.47    0.55
   5  -5  -7    0.13    0.26
   5  -5  -7    0.01    0.22
   5  -5  -7   -0.07    0.28
   5  -5  -7    0.07    0.18
  -5   5   7   -0.02    0.11
  -5   5   7    0.28    0.30
   4  -5  -7   20.56    0.69
   4  -5  -7   20.09    0.64
   4  -5  -7   21.81    0.74
  -4   5   7   19.82    0.57
  -4   5   7   19.63    0.52
  -4   5   7   18.31    0.74
   3  -5  -7    1.38    0.26
   3  -5  -7    1.59    0.27
   3  -5  -7    1.40    0.20
   3  -5  -7    1.58    0.20
  -3   5   7    1.85    0.25
  -3   5   7    1.49    0.10
  -3   5   7    1.27    0.15
   2  -5  -7   23.56    0.76
   2  -5  -7   22.96    0.73
   2  -5  -7   24.10    0.68
   2  -5  -7   23.21    0.68
   2  -5  -7   23.09    0.74
  -2   5   7   23.86    0.57
  -2   5   7   22.90    0.70
   1  -5  -7    0.86    0.17
   1  -5  -7    0.68    0.14
   1  -5  -7    0.91    0.18
   1  -5  -7    0.77    0.13
   1  -5  -7    0.68    0.16
  -1   5   7    0.61    0.07
  -1   5   7    0.65    0.08
  -1   5   7    0.72    0.10
  -1   5   7    0.66    0.12
   0  -5  -7   94.73    2.24
   0  -5  -7   92.91    2.26
   0  -5  -7   96.34    2.19
   0  -5  -7   95.20    2.27
   0  -5  -7   95.24    2.25
   0   5   7   99.98    2.16
   0   5   7   78.47    2.27
   0   5   7   92.89    2.15
   0   5   7   90.32    2.15
  -1  -5  -7    0.52    0.13
  -1  -5  -7    0.77    0.14
  -1  -5  -7    0.50    0.14
  -1  -5  -7    0.52    0.11
   1   5   7    0.56    0.09
   1   5   7    0.76    0.10
   1   5   7    0.50    0.09
   1   5   7    0.60    0.09
  -2  -5  -7   78.73    1.93
  -2  -5  -7   80.32    1.90
  -2  -5  -7   73.51    1.92
  -2  -5  -7   77.45    1.97
  -2  -5  -7   80.22    1.93
   2   5   7   77.50    1.87
   2   5   7   79.91    1.88
   2   5   7   83.45    1.82
  -3  -5  -7    2.87    0.27
  -3  -5  -7    2.74    0.20
  -3  -5  -7    2.75    0.19
  -3  -5  -7    2.63    0.20
  -3  -5  -7    2.40    0.26
  -3  -5  -7    2.20    0.27
   3   5   7    2.97    0.14
   3   5   7    2.56    0.17
   3   5   7    2.73    0.18
  -4  -5  -7   48.10    1.32
  -4  -5  -7   48.83    1.25
  -4  -5  -7   45.90    1.24
  -4  -5  -7   47.35    1.22
   4   5   7   48.45    1.23
   4   5   7   46.46    1.22
  -5  -5  -7    0.07    0.14
  -5  -5  -7   -0.18    0.17
  -5  -5  -7    0.10    0.15
   5   5   7    0.02    0.12
   5   5   7    0.21    0.12
  -6  -5  -7   27.92    0.86
  -6  -5  -7   26.03    0.91
  -6  -5  -7   27.79    0.85
   6   5   7   28.05    0.80
   6   5   7   28.07    0.84
   6   5   7   26.98    0.83
  -7  -5  -7    0.04    0.23
  -7  -5  -7    0.33    0.20
  -7  -5  -7   -0.07    0.17
   7   5   7    0.04    0.18
   7   5   7   -0.08    0.13
   7   5   7    0.02    0.14
  -8  -5  -7    9.74    0.57
  -8  -5  -7    9.34    0.54
  -8  -5  -7    9.12    0.59
   8   5   7   10.19    0.54
   8   5   7   10.05    0.45
   8   5   7    9.86    0.67
   8   5   7    9.76    0.57
  -9  -5  -7    0.41    0.32
  -9  -5  -7   -0.29    0.26
  -9  -5  -7   -0.35    0.21
   9   5   7    0.25    0.28
   9   5   7    0.38    0.23
   9   5   7   -0.36    0.47
 -10  -5  -7    1.33    0.38
 -10  -5  -7    2.13    0.39
 -10  -5  -7    2.02    0.44
  10   5   7    2.20    0.37
  10   5   7    2.06    0.35
   6  -6  -7    0.60    0.40
   6  -6  -7    0.74    0.29
   6  -6  -7    0.94    0.31
   6  -6  -7   -0.12    0.28
   6  -6  -7    0.28    0.32
  -6   6   7    0.19    0.36
   5  -6  -7    3.34    0.43
   5  -6  -7    3.31    0.43
   5  -6  -7    2.85    0.41
   5  -6  -7    3.19    0.45
   5  -6  -7    3.79    0.52
  -5   6   7    3.32    0.43
   4  -6  -7    0.21    0.19
   4  -6  -7   -0.18    0.29
   4  -6  -7   -0.57    0.40
  -4   6   7   -0.08    0.12
  -4   6   7    0.01    0.24
   3  -6  -7   12.45    0.54
   3  -6  -7   12.57    0.49
   3  -6  -7   12.58    0.58
   3  -6  -7   13.59    0.55
   3  -6  -7   12.34    0.48
  -3   6   7   14.08    0.42
  -3   6   7   12.15    0.51
   2  -6  -7    0.14    0.13
   2  -6  -7   -0.04    0.15
   2  -6  -7    0.41    0.17
   2  -6  -7    0.07    0.15
   2  -6  -7   -0.19    0.11
  -2   6   7    0.05    0.13
   1  -6  -7   67.03    1.74
   1  -6  -7   67.59    1.74
   1  -6  -7   67.45    1.70
   1  -6  -7   66.72    1.68
   1  -6  -7   67.64    1.73
  -1   6   7   68.30    1.59
  -1   6   7   74.49    1.61
  -1   6   7   68.07    1.65
   0  -6  -7    1.45    0.18
   0  -6  -7    1.49    0.23
   0  -6  -7    1.80    0.22
   0  -6  -7    1.68    0.17
   0  -6  -7    1.42    0.19
   0   6   7    1.57    0.13
   0   6   7    1.70    0.13
   0   6   7    1.59    0.12
  -1  -6  -7   69.01    1.75
  -1  -6  -7   69.17    1.75
  -1  -6  -7   69.82    1.69
  -1  -6  -7   69.32    1.75
   1   6   7   67.93    1.66
   1   6   7   68.30    1.70
   1   6   7   73.25    1.62
   1   6   7   72.06    1.71
  -2  -6  -7    4.86    0.23
  -2  -6  -7    4.66    0.27
  -2  -6  -7    4.75    0.31
  -2  -6  -7    5.11    0.24
  -2  -6  -7    4.99    0.27
   2   6   7    4.99    0.22
   2   6   7    5.31    0.23
  -3  -6  -7   60.50    1.51
  -3  -6  -7   60.99    1.56
  -3  -6  -7   58.60    1.51
  -3  -6  -7   59.85    1.58
  -3  -6  -7   58.82    1.48
   3   6   7   59.84    1.48
   3   6   7   58.20    1.47
  -4  -6  -7   -0.17    0.12
  -4  -6  -7   -0.10    0.13
  -4  -6  -7    0.11    0.18
  -4  -6  -7    0.09    0.16
  -4  -6  -7   -0.23    0.14
   4   6   7   -0.02    0.10
   4   6   7    0.04    0.10
  -5  -6  -7   53.85    1.48
  -5  -6  -7   55.62    1.48
  -5  -6  -7   50.70    1.41
  -5  -6  -7   53.30    1.42
   5   6   7   51.95    1.38
   5   6   7   51.56    1.38
  -6  -6  -7    0.23    0.18
  -6  -6  -7    0.73    0.21
  -6  -6  -7    0.72    0.21
  -6  -6  -7    0.50    0.27
   6   6   7    0.65    0.18
   6   6   7    0.57    0.15
   6   6   7    0.62    0.17
  -7  -6  -7   12.23    0.59
  -7  -6  -7   11.72    0.59
   7   6   7   11.00    0.48
   7   6   7   11.81    0.55
   7   6   7   11.81    0.54
   7   6   7   11.59    0.46
  -8  -6  -7    0.09    0.24
  -8  -6  -7   -0.15    0.23
  -8  -6  -7    0.54    0.27
   8   6   7    0.52    0.26
   8   6   7    0.10    0.17
   8   6   7    0.58    0.22
   8   6   7    0.13    0.23
  -9  -6  -7    3.98    0.48
  -9  -6  -7    3.75    0.47
  -9  -6  -7    4.23    0.47
   9   6   7    3.55    0.45
   9   6   7    5.17    0.70
   9   6   7    4.63    0.66
   9   6   7    3.94    0.45
 -10  -6  -7   -0.58    0.37
 -10  -6  -7   -0.09    0.29
 -10  -6  -7    0.17    0.30
  10   6   7   -0.03    0.30
  10   6   7   -0.13    0.27
   5  -7  -7    0.20    0.32
   5  -7  -7   -0.05    0.27
   5  -7  -7   -0.16    0.23
   5  -7  -7    0.18    0.25
   5  -7  -7    0.38    0.26
  -5   7   7    0.91    0.34
   4  -7  -7    8.19    0.60
   4  -7  -7    9.09    0.54
   4  -7  -7    8.29    0.52
   4  -7  -7    8.15    0.50
  -4   7   7    8.56    0.35
  -4   7   7    8.63    0.49
   3  -7  -7    1.45    0.27
   3  -7  -7    1.41    0.25
   3  -7  -7    1.12    0.25
   3  -7  -7    1.21    0.37
   3  -7  -7    1.09    0.21
  -3   7   7    1.35    0.23
   2  -7  -7    8.56    0.40
   2  -7  -7    9.08    0.41
   2  -7  -7    8.53    0.44
   2  -7  -7    8.17    0.42
  -2   7   7    8.55    0.36
   1  -7  -7    0.26    0.14
   1  -7  -7    0.31    0.15
   1  -7  -7    0.20    0.15
   1  -7  -7    0.07    0.15
   1  -7  -7    0.16    0.12
  -1   7   7    0.21    0.06
  -1   7   7    0.10    0.07
  -1   7   7    0.29    0.11
   0  -7  -7   66.10    1.77
   0  -7  -7   67.25    1.70
   0  -7  -7   65.50    1.64
   0  -7  -7   66.46    1.69
   0  -7  -7   67.71    1.66
   0   7   7   68.29    1.58
   0   7   7   65.12    1.58
   0   7   7   68.32    1.55
   0   7   7   64.69    1.57
  -1  -7  -7    0.45    0.15
  -1  -7  -7    0.33    0.11
  -1  -7  -7    0.36    0.15
  -1  -7  -7    0.05    0.15
   1   7   7    0.41    0.11
   1   7   7    0.67    0.11
   1   7   7    0.46    0.09
  -2  -7  -7   44.93    1.15
  -2  -7  -7   47.87    1.25
  -2  -7  -7   48.35    1.30
  -2  -7  -7   47.06    1.26
  -2  -7  -7   47.31    1.21
   2   7   7   48.59    1.19
   2   7   7   46.63    1.19
  -3  -7  -7    0.30    0.12
  -3  -7  -7   -0.23    0.12
  -3  -7  -7   -0.06    0.15
  -3  -7  -7   -0.22    0.16
  -3  -7  -7    0.30    0.13
   3   7   7    0.23    0.11
   3   7   7    0.04    0.10
  -4  -7  -7   25.27    0.88
  -4  -7  -7   27.88    0.83
  -4  -7  -7   28.07    0.83
  -4  -7  -7   28.72    0.85
  -4  -7  -7   26.17    0.88
  -4  -7  -7   26.66    0.82
   4   7   7   27.59    0.80
   4   7   7   27.71    0.80
  -5  -7  -7    1.25    0.21
  -5  -7  -7    1.28    0.25
  -5  -7  -7    1.60    0.26
  -5  -7  -7    1.26    0.26
   5   7   7    1.40    0.19
   5   7   7    1.23    0.19
  -6  -7  -7   26.03    0.86
  -6  -7  -7   24.62    0.94
  -6  -7  -7   24.93    0.95
  -6  -7  -7   26.29    0.91
   6   7   7   24.97    0.81
   6   7   7   22.97    0.83
   6   7   7   26.32    0.73
   6   7   7   25.17    0.80
  -7  -7  -7   -0.16    0.21
  -7  -7  -7    0.09    0.21
  -7  -7  -7    0.21    0.24
   7   7   7    0.01    0.14
   7   7   7    0.48    0.22
   7   7   7    0.22    0.19
   7   7   7    0.08    0.20
  -8  -7  -7   10.48    0.59
  -8  -7  -7    9.87    0.60
  -8  -7  -7   11.30    0.67
  -8  -7  -7   10.19    0.60
   8   7   7   12.02    0.65
   8   7   7   10.98    0.49
   8   7   7   11.20    0.59
  -9  -7  -7    0.21    0.26
  -9  -7  -7    0.21    0.34
  -9  -7  -7   -0.21    0.26
  -9  -7  -7    0.35    0.26
   9   7   7    0.19    0.24
   9   7   7   -0.10    0.24
   9   7   7    0.77    0.37
   9   7   7   -0.10    0.34
 -10  -7  -7    1.48    0.38
 -10  -7  -7    1.74    0.37
 -10  -7  -7    1.20    0.47
 -10  -7  -7    1.30    0.34
  10   7   7    1.87    0.37
  10   7   7    1.03    0.33
   5  -8  -7    4.42    0.53
   5  -8  -7    4.34    0.54
   5  -8  -7    3.85    0.47
   5  -8  -7    5.10    0.54
   5  -8  -7    4.13    0.47
  -5   8   7    3.67    0.47
   4  -8  -7    0.47    0.25
   4  -8  -7    0.29    0.26
   4  -8  -7    0.57    0.25
   4  -8  -7    0.50    0.30
   4  -8  -7    0.49    0.25
  -4   8   7    0.61    0.25
  -4   8   7    0.53    0.17
  -4   8   7    0.51    0.28
   3  -8  -7    8.69    0.56
   3  -8  -7    8.76    0.65
   3  -8  -7    8.96    0.51
   3  -8  -7    8.55    0.49
  -3   8   7    9.64    0.48
  -3   8   7    8.70    0.43
   2  -8  -7   -0.26    0.17
   2  -8  -7    0.18    0.17
   2  -8  -7   -0.04    0.18
   2  -8  -7    0.12    0.18
  -2   8   7    0.06    0.14
   1  -8  -7   23.68    0.73
   1  -8  -7   23.58    0.76
   1  -8  -7   22.94    0.77
   1  -8  -7   23.84    0.73
   1  -8  -7   23.38    0.75
  -1   8   7   23.21    0.63
  -1   8   7   23.41    0.60
  -1   8   7   23.12    0.62
   0  -8  -7    4.91    0.32
   0  -8  -7    4.65    0.32
   0  -8  -7    4.68    0.29
   0  -8  -7    4.90    0.28
   0   8   7    4.95    0.24
   0   8   7    4.38    0.23
   0   8   7    4.68    0.24
  -1  -8  -7   22.62    0.74
  -1  -8  -7   21.48    0.72
  -1  -8  -7   22.03    0.68
   1   8   7   23.47    0.64
   1   8   7   22.10    0.62
  -2  -8  -7    0.61    0.15
  -2  -8  -7    0.50    0.18
  -2  -8  -7    0.63    0.17
  -2  -8  -7    0.57    0.17
   2   8   7    0.41    0.12
   2   8   7    0.42    0.12
  -3  -8  -7   17.20    0.65
  -3  -8  -7   17.36    0.62
  -3  -8  -7   17.51    0.55
  -3  -8  -7   16.97    0.58
  -3  -8  -7   18.13    0.64
   3   8   7   17.55    0.57
   3   8   7   18.01    0.57
  -4  -8  -7    0.38    0.20
  -4  -8  -7    0.97    0.24
  -4  -8  -7    0.91    0.20
  -4  -8  -7    1.19    0.21
   4   8   7    0.75    0.16
   4   8   7    0.74    0.15
  -5  -8  -7   29.24    0.96
  -5  -8  -7   26.45    1.08
  -5  -8  -7   28.17    0.88
   5   8   7   27.05    0.87
   5   8   7   27.33    0.86
   5   8   7   27.57    0.74
   5   8   7   27.80    0.86
  -6  -8  -7    0.14    0.18
  -6  -8  -7    0.23    0.19
  -6  -8  -7    0.71    0.45
   6   8   7    0.19    0.12
   6   8   7    0.39    0.21
   6   8   7    0.32    0.18
   6   8   7   -0.09    0.19
  -7  -8  -7   11.97    0.90
  -7  -8  -7   12.53    0.63
  -7  -8  -7   13.49    0.68
  -7  -8  -7   11.76    0.60
   7   8   7   12.31    0.60
   7   8   7   12.96    0.59
   7   8   7   12.20    0.46
   7   8   7   11.07    0.72
  -8  -8  -7    0.08    0.24
  -8  -8  -7    0.73    0.34
  -8  -8  -7    0.09    0.25
  -8  -8  -7    0.15    0.25
   8   8   7    0.22    0.18
   8   8   7    0.25    0.31
   8   8   7    0.20    0.29
   8   8   7    0.03    0.24
  -9  -8  -7    4.28    0.49
  -9  -8  -7    3.28    0.44
  -9  -8  -7    3.73    0.48
  -9  -8  -7    4.41    0.55
   9   8   7    5.44    0.69
   9   8   7    2.48    0.38
 -10  -8  -7    0.29    0.28
 -10  -8  -7    0.39    0.31
 -10  -8  -7   -1.09    0.44
 -10  -8  -7   -0.41    0.29
  10   8   7    0.56    0.31
  10   8   7    0.17    0.36
   4  -9  -7    8.70    0.55
   4  -9  -7    9.37    0.65
   4  -9  -7    9.91    0.60
   4  -9  -7    9.48    0.63
   4  -9  -7    8.81    0.58
  -4   9   7    9.56    0.47
   3  -9  -7    0.84    0.35
   3  -9  -7    0.83    0.26
   3  -9  -7    1.16    0.29
   3  -9  -7    0.77    0.26
   2  -9  -7    9.85    0.50
   2  -9  -7   10.60    0.56
   2  -9  -7    8.98    0.62
   2  -9  -7   10.27    0.50
   2  -9  -7   10.07    0.50
  -2   9   7   10.20    0.61
   1  -9  -7   -0.05    0.20
   1  -9  -7   -0.12    0.16
   1  -9  -7    0.16    0.16
  -1   9   7    0.59    0.26
  -1   9   7    0.11    0.10
   0  -9  -7   14.61    0.58
   0  -9  -7   14.26    0.53
   0  -9  -7   14.64    0.50
   0  -9  -7   13.61    0.58
   0  -9  -7   14.89    0.55
   0   9   7   14.21    0.45
  -1  -9  -7   -0.01    0.16
  -1  -9  -7    0.18    0.17
  -1  -9  -7    0.16    0.14
   1   9   7    0.08    0.10
   1   9   7    0.12    0.13
  -2  -9  -7   25.06    0.78
  -2  -9  -7   24.16    0.83
  -2  -9  -7   24.93    0.82
   2   9   7   25.64    0.74
   2   9   7   26.41    0.75
  -3  -9  -7    2.67    0.27
  -3  -9  -7    2.81    0.33
  -3  -9  -7    2.53    0.30
  -3  -9  -7    2.61    0.22
   3   9   7    2.15    0.24
   3   9   7    1.92    0.28
   3   9   7    2.25    0.24
  -4  -9  -7   22.98    0.77
  -4  -9  -7   21.82    0.81
  -4  -9  -7   23.11    0.83
  -4  -9  -7   23.10    0.73
   4   9   7   22.41    0.74
   4   9   7   23.85    0.82
   4   9   7   23.99    0.75
  -5  -9  -7    0.26    0.21
  -5  -9  -7    0.09    0.18
  -5  -9  -7    0.12    0.21
   5   9   7    0.15    0.17
   5   9   7    0.05    0.15
   5   9   7    0.30    0.24
   5   9   7    0.29    0.17
  -6  -9  -7    6.65    0.49
  -6  -9  -7    7.41    0.49
   6   9   7    8.27    0.48
   6   9   7    8.09    0.80
   6   9   7    7.30    0.48
  -7  -9  -7   -0.06    0.23
  -7  -9  -7   -0.17    0.22
  -7  -9  -7    0.29    0.22
   7   9   7    0.57    0.30
   7   9   7   -0.35    0.21
   7   9   7   -0.24    0.26
  -8  -9  -7    6.98    0.52
  -8  -9  -7    6.47    0.53
  -8  -9  -7    7.54    0.50
   8   9   7    7.24    0.71
   8   9   7    7.16    0.53
  -9  -9  -7    0.32    0.25
  -9  -9  -7   -0.10    0.24
  -9  -9  -7    0.37    0.28
   9   9   7    0.18    0.25
   9   9   7    0.31    0.36
   9   9   7    0.58    0.47
   3 -10  -7    8.55    0.56
   3 -10  -7    8.77    0.56
   3 -10  -7    8.98    0.61
   3 -10  -7    8.77    0.59
   3 -10  -7    7.32    0.52
  -3  10   7    7.53    0.59
   2 -10  -7    0.51    0.23
   2 -10  -7    0.33    0.25
   2 -10  -7    0.06    0.23
   2 -10  -7    0.20    0.21
   2 -10  -7   -0.39    0.28
  -2  10   7   -0.04    0.13
  -2  10   7    0.22    0.26
   1 -10  -7   16.77    0.70
   1 -10  -7   16.18    0.66
   1 -10  -7   16.58    0.60
   1 -10  -7   16.87    0.75
   1 -10  -7   16.07    0.63
  -1  10   7   16.66    0.59
  -1  10   7   17.02    0.72
   0 -10  -7    0.03    0.19
   0 -10  -7    0.12    0.22
   0 -10  -7    0.02    0.20
   0  10   7    0.11    0.16
   0  10   7    0.06    0.23
  -1 -10  -7   21.12    0.77
  -1 -10  -7   21.00    0.71
  -1 -10  -7   20.05    0.77
   1  10   7   20.36    0.67
   1  10   7   20.75    0.78
   2  10   7    0.31    0.23
   2  10   7    0.38    0.17
  -3 -10  -7   25.40    0.70
  -3 -10  -7   25.71    0.91
   3  10   7   27.36    0.83
   3  10   7   26.25    0.91
  -4 -10  -7    0.43    0.42
  -4 -10  -7    0.28    0.20
  -4 -10  -7   -0.11    0.16
  -4 -10  -7    0.01    0.23
   4  10   7    0.07    0.17
   4  10   7    0.13    0.23
   4  10   7    0.13    0.24
  -5 -10  -7   16.95    0.64
  -5 -10  -7   14.37    0.70
  -5 -10  -7   15.73    0.69
  -5 -10  -7   15.41    0.71
   5  10   7   17.53    0.69
   5  10   7   16.75    0.72
   5  10   7   16.42    0.67
  -6 -10  -7    0.88    0.26
  -6 -10  -7    1.25    0.27
  -6 -10  -7    0.53    0.35
  -6 -10  -7    0.61    0.26
   6  10   7    1.21    0.29
   6  10   7    1.14    0.30
   6  10   7    0.87    0.30
  -7 -10  -7    5.03    0.44
  -7 -10  -7    5.52    0.48
  -7 -10  -7    5.31    0.49
   7  10   7    4.99    0.50
   7  10   7    4.95    0.53
   7  10   7    5.54    0.49
  -8 -10  -7    0.03    0.25
  -8 -10  -7    0.37    0.25
  -8 -10  -7   -0.04    0.25
   8  10   7    0.50    0.26
   8  10   7    0.69    0.36
   8  10   7   -0.25    0.32
  -9 -10  -7    1.37    0.33
  -9 -10  -7    1.46    0.33
  -9 -10  -7    1.31    0.32
   9  10   7    2.45    0.45
   9  10   7    1.56    0.46
   9  10   7    1.57    0.36
   2 -11  -7    7.92    0.50
   2 -11  -7    8.57    0.57
   2 -11  -7    9.05    0.54
   2 -11  -7    8.25    0.53
   2 -11  -7    8.70    0.62
  -2  11   7    7.70    0.61
  -2  11   7    7.71    0.34
   1 -11  -7    0.81    0.25
   1 -11  -7    0.90    0.27
   1 -11  -7    1.35    0.31
  -1  11   7    0.84    0.19
  -1  11   7    1.21    0.32
   0 -11  -7   15.11    0.66
   0 -11  -7   15.09    0.69
   0 -11  -7   15.26    0.68
   0  11   7   14.39    0.56
   0  11   7   14.66    0.70
  -1 -11  -7    0.17    0.23
  -1 -11  -7    0.39    0.22
  -1 -11  -7   -0.04    0.20
   1  11   7    0.07    0.25
   1  11   7    0.24    0.17
  -2 -11  -7   19.96    0.80
   2  11   7   19.90    0.71
   2  11   7   20.81    0.83
   2  11   7   21.61    0.73
  -3 -11  -7    0.31    0.27
  -3 -11  -7    0.55    0.25
   3  11   7    0.84    0.22
   3  11   7    0.21    0.26
   3  11   7    0.30    0.18
  -4 -11  -7   22.67    0.72
  -4 -11  -7   24.03    1.26
  -4 -11  -7   23.32    0.90
  -4 -11  -7   22.90    0.88
   4  11   7   22.64    0.81
   4  11   7   24.03    0.89
   4  11   7   23.81    0.85
  -5 -11  -7    0.75    0.30
  -5 -11  -7    0.33    0.23
  -5 -11  -7   -0.28    0.23
  -5 -11  -7    0.55    0.23
   5  11   7    0.38    0.26
   5  11   7    0.29    0.26
   5  11   7    0.15    0.20
  -6 -11  -7    5.39    0.45
  -6 -11  -7    5.84    0.48
  -6 -11  -7    4.93    0.57
  -6 -11  -7    5.53    0.49
   6  11   7    5.61    0.51
   6  11   7    5.37    0.48
   6  11   7    6.47    0.52
  -7 -11  -7    0.16    0.36
  -7 -11  -7   -0.35    0.22
  -7 -11  -7    0.15    0.24
  -7 -11  -7   -0.27    0.22
   7  11   7   -0.14    0.26
   7  11   7    0.02    0.27
   7  11   7    0.66    0.34
  -8 -11  -7    3.00    0.42
  -8 -11  -7    4.04    0.46
  -8 -11  -7    4.21    0.50
   8  11   7    3.66    0.49
   8  11   7    3.80    0.51
   8  11   7    3.95    0.49
   1 -12  -7    6.95    0.54
   1 -12  -7    7.10    0.55
   1 -12  -7    7.29    0.61
  -1  12   7    7.51    0.66
  -1  12   7    7.96    0.42
   0 -12  -7    0.92    0.29
   0 -12  -7    1.23    0.29
   0  12   7    1.17    0.22
   0  12   7    0.86    0.31
  -1 -12  -7   11.05    0.59
  -1 -12  -7   10.13    0.59
   1  12   7   10.86    0.63
   1  12   7   10.52    0.52
  -2 -12  -7    0.06    0.24
  -2 -12  -7    0.00    0.21
   2  12   7    0.63    0.28
   2  12   7    0.30    0.24
   2  12   7    0.07    0.19
  -3 -12  -7    8.91    0.55
  -3 -12  -7    9.68    0.57
   3  12   7    9.63    0.51
   3  12   7    9.04    0.52
   3  12   7    9.55    0.61
  -4 -12  -7   -0.36    0.22
  -4 -12  -7    0.25    0.22
  -4 -12  -7    0.22    0.26
   4  12   7    0.09    0.27
   4  12   7    0.17    0.21
   4  12   7   -0.22    0.24
  -5 -12  -7   10.53    0.66
  -5 -12  -7   10.62    0.61
  -5 -12  -7   10.90    0.76
  -5 -12  -7    9.75    0.64
   5  12   7   10.61    0.60
   5  12   7   11.58    0.64
   5  12   7   10.90    0.66
  -6 -12  -7    0.04    0.24
  -6 -12  -7   -0.06    0.27
  -6 -12  -7    0.50    0.27
  -6 -12  -7   -0.16    0.30
   6  12   7    0.07    0.26
   6  12   7    0.16    0.25
   6  12   7    0.46    0.33
  -7 -12  -7    6.19    0.58
  -7 -12  -7    6.47    0.55
  -7 -12  -7    6.57    0.52
  -7 -12  -7    6.56    0.72
   7  12   7    6.32    0.65
   7  12   7    6.96    0.57
   7  12   7    6.55    0.65
   0 -13  -7    5.90    0.56
   0 -13  -7    5.13    0.55
   0  13   7    4.17    0.54
   0  13   7    5.01    0.40
  -1 -13  -7    0.63    0.28
  -1 -13  -7    0.36    0.27
   1  13   7    0.32    0.22
   1  13   7    0.10    0.28
  -2 -13  -7    4.87    0.52
  -2 -13  -7    4.69    0.51
   2  13   7    4.04    0.50
   2  13   7    5.01    0.43
  -3 -13  -7    0.48    0.25
  -3 -13  -7    0.16    0.26
   3  13   7    0.11    0.29
   3  13   7    0.24    0.29
   3  13   7   -0.12    0.22
  -4 -13  -7    6.89    0.55
  -4 -13  -7    7.56    0.61
   4  13   7    6.63    0.61
   4  13   7    7.16    0.53
   4  13   7    7.12    0.71
  -5 -13  -7    0.37    0.33
  -5 -13  -7    0.45    0.31
  -5 -13  -7    0.20    0.26
   5  13   7    0.04    0.30
   5  13   7    0.32    0.45
   5  13   7    0.21    0.26
  -6 -13  -7    4.81    0.53
  -6 -13  -7    7.31    0.71
  -6 -13  -7    4.10    0.46
  -6 -13  -7    4.74    0.57
   6  13   7    5.45    0.56
   6  13   7    5.62    0.64
   6  13   7    5.73    0.65
   2  10  -8    1.98    0.47
   2  10  -8    1.39    0.32
   2  10  -8    1.87    0.43
   2  10  -8    1.68    0.43
  -2 -10   8    1.83    0.40
  -2 -10   8    2.51    0.37
   1  10  -8    0.45    0.26
   1  10  -8   -0.12    0.35
   1  10  -8   -0.84    0.32
   1  10  -8   -0.02    0.35
  -1 -10   8    0.20    0.33
  -1 -10   8    0.36    0.29
  -1 -10   8    0.36    0.23
   0  10  -8    4.31    0.50
   0  10  -8    4.43    0.46
   0  10  -8    3.11    0.44
   0  10  -8    3.36    0.48
   0 -10   8    3.70    0.47
   0 -10   8    2.85    0.41
   0 -10   8    4.20    0.49
  -1  10  -8    0.04    0.31
  -1  10  -8    0.20    0.27
  -1  10  -8    0.47    0.37
  -1  10  -8    0.14    0.28
   1 -10   8   -0.36    0.29
   1 -10   8   -0.02    0.22
   1 -10   8    0.29    0.29
  -2  10  -8    2.00    0.44
  -2  10  -8    2.17    0.36
  -2  10  -8    2.23    0.40
  -2  10  -8    3.07    0.43
   2 -10   8    3.58    0.51
   2 -10   8    3.23    0.38
   2 -10   8    2.08    0.37
   2 -10   8    2.72    0.51
   4   9  -8   -0.18    0.30
   4   9  -8    0.40    0.38
   4   9  -8    0.36    0.30
  -4  -9   8   -0.44    0.33
  -4  -9   8    0.58    0.41
  -4  -9   8    0.29    0.36
  -4  -9   8   -0.20    0.29
   3   9  -8    1.57    0.39
   3   9  -8    1.22    0.37
   3   9  -8    0.79    0.28
  -3  -9   8    1.77    0.45
  -3  -9   8    1.08    0.32
  -3  -9   8    1.20    0.34
  -3  -9   8    1.30    0.36
   2   9  -8   -0.04    0.23
   2   9  -8    0.07    0.31
   2   9  -8    0.13    0.32
   2   9  -8   -0.33    0.36
  -2  -9   8   -0.28    0.28
  -2  -9   8    0.51    0.37
  -2  -9   8   -0.12    0.22
   1   9  -8    3.67    0.48
   1   9  -8    4.39    0.43
   1   9  -8    3.61    0.50
   1   9  -8    4.58    0.57
  -1  -9   8    3.90    0.47
  -1  -9   8    5.08    0.45
  -1  -9   8    3.50    0.41
  -1  -9   8    4.28    0.59
   0   9  -8   -0.01    0.20
   0   9  -8   -0.23    0.30
   0   9  -8   -0.10    0.27
   0   9  -8   -0.15    0.32
   0  -9   8    0.21    0.21
   0  -9   8    0.33    0.26
  -1   9  -8    4.70    0.50
  -1   9  -8    5.02    0.44
  -1   9  -8    4.37    0.49
   1  -9   8    3.59    0.39
   1  -9   8    5.14    0.52
   1  -9   8    5.08    0.47
  -2   9  -8   -0.09    0.28
  -2   9  -8    0.27    0.28
  -2   9  -8    0.41    0.23
  -2   9  -8    0.51    0.25
   2  -9   8    0.48    0.21
   2  -9   8    0.71    0.27
   2  -9   8    0.43    0.28
  -3   9  -8    3.27    0.39
  -3   9  -8    4.13    0.44
  -3   9  -8    4.33    0.43
  -3   9  -8    2.90    0.36
   3  -9   8    3.22    0.50
   3  -9   8    4.13    0.38
   3  -9   8    2.46    0.36
   3  -9   8    2.76    0.36
  -4   9  -8    0.48    0.21
  -4   9  -8    0.05    0.29
  -4   9  -8    1.10    0.28
  -4   9  -8    0.34    0.26
   4  -9   8    0.73    0.41
   4  -9   8    0.21    0.29
   4  -9   8    0.39    0.28
   4  -9   8    0.60    0.23
   4   8  -8    2.55    0.43
   4   8  -8    3.39    0.47
   4   8  -8    4.27    0.53
   4   8  -8    2.63    0.38
  -4  -8   8    3.64    0.50
  -4  -8   8    3.03    0.42
  -4  -8   8    2.26    0.37
  -4  -8   8    2.71    0.45
   3   8  -8   -0.18    0.21
   3   8  -8    0.23    0.32
   3   8  -8   -0.24    0.26
  -3  -8   8   -0.19    0.35
  -3  -8   8   -0.10    0.22
  -3  -8   8    0.09    0.30
  -3  -8   8    0.13    0.23
   2   8  -8    3.60    0.39
   2   8  -8    4.15    0.45
   2   8  -8    3.39    0.44
   2   8  -8    2.64    0.40
  -2  -8   8    3.64    0.41
  -2  -8   8    3.70    0.53
  -2  -8   8    3.72    0.40
   1   8  -8    0.28    0.30
   1   8  -8    0.07    0.25
   1   8  -8   -0.04    0.20
   1   8  -8    0.28    0.28
  -1  -8   8   -0.12    0.25
  -1  -8   8   -0.13    0.24
  -1  -8   8    0.12    0.26
  -1  -8   8   -0.15    0.19
   0   8  -8    3.55    0.45
   0   8  -8    3.88    0.39
   0   8  -8    2.92    0.42
   0   8  -8    3.23    0.53
   0  -8   8    2.58    0.33
   0  -8   8    3.04    0.41
   0  -8   8    3.15    0.36
   0  -8   8    3.31    0.34
  -1   8  -8    0.12    0.24
  -1   8  -8    0.18    0.26
  -1   8  -8    0.02    0.26
  -1   8  -8   -0.19    0.20
   1  -8   8    0.25    0.17
   1  -8   8    0.11    0.19
   1  -8   8   -0.19    0.23
  -2   8  -8    8.50    0.46
  -2   8  -8    7.33    0.51
  -2   8  -8    7.27    0.47
  -2   8  -8    7.46    0.52
   2  -8   8    6.42    0.47
   2  -8   8    7.79    0.44
   2  -8   8    7.20    0.43
  -3   8  -8    0.30    0.21
  -3   8  -8    0.59    0.23
  -3   8  -8    0.33    0.27
  -3   8  -8    0.43    0.22
  -3   8  -8    0.36    0.21
   3  -8   8   -0.11    0.21
   3  -8   8    0.10    0.24
   3  -8   8    0.30    0.20
  -4   8  -8    3.96    0.39
  -4   8  -8    3.46    0.41
  -4   8  -8    3.55    0.43
  -4   8  -8    3.89    0.40
   4  -8   8    3.03    0.46
   4  -8   8    4.45    0.43
   4  -8   8    3.91    0.36
   4  -8   8    3.32    0.47
  -5   8  -8    0.80    0.30
  -5   8  -8    0.81    0.27
  -5   8  -8    0.21    0.22
  -5   8  -8    0.92    0.27
   5  -8   8    0.77    0.33
   5  -8   8    0.25    0.22
   5  -8   8    0.89    0.30
   5  -8   8    0.02    0.33
   5   7  -8    2.67    0.45
   5   7  -8    2.61    0.43
   5   7  -8    2.81    0.43
   5   7  -8    3.69    0.50
  -5  -7   8    3.46    0.49
  -5  -7   8    2.97    0.44
  -5  -7   8    2.11    0.36
   4   7  -8    0.00    0.29
   4   7  -8   -0.32    0.28
   4   7  -8   -0.28    0.31
   4   7  -8   -0.14    0.22
  -4  -7   8    0.15    0.24
  -4  -7   8   -0.24    0.29
  -4  -7   8    0.65    0.25
  -4  -7   8    0.04    0.29
   3   7  -8    5.27    0.39
   3   7  -8    4.13    0.50
   3   7  -8    4.30    0.48
   3   7  -8    3.79    0.40
  -3  -7   8    4.85    0.39
  -3  -7   8    4.30    0.48
  -3  -7   8    4.24    0.43
   2   7  -8    0.18    0.18
   2   7  -8    0.06    0.19
   2   7  -8    0.00    0.24
   2   7  -8    0.08    0.27
   2   7  -8   -0.59    0.26
  -2  -7   8    0.26    0.16
  -2  -7   8    0.01    0.24
  -2  -7   8    0.61    0.27
  -2  -7   8   -0.12    0.18
   1   7  -8    7.83    0.36
   1   7  -8    6.92    0.53
   1   7  -8    7.17    0.45
   1   7  -8    6.11    0.66
   1   7  -8    7.22    0.51
  -1  -7   8    7.71    0.46
  -1  -7   8    6.76    0.48
  -1  -7   8    8.06    0.38
  -1  -7   8    8.34    0.48
   0   7  -8    0.20    0.22
   0   7  -8   -0.05    0.19
   0   7  -8    0.21    0.23
   0   7  -8    0.13    0.22
   0  -7   8    0.22    0.18
   0  -7   8    0.10    0.20
   0  -7   8    0.23    0.23
   0  -7   8    0.11    0.15
  -1   7  -8    6.87    0.42
  -1   7  -8    6.39    0.42
  -1   7  -8    7.22    0.46
  -1   7  -8    6.89    0.47
   1  -7   8    7.23    0.34
   1  -7   8    6.67    0.45
   1  -7   8    6.83    0.47
   1  -7   8    5.96    0.40
  -2   7  -8    0.33    0.19
  -2   7  -8    0.52    0.24
  -2   7  -8    0.50    0.19
  -2   7  -8    0.35    0.21
  -2   7  -8    0.50    0.22
   2  -7   8    0.38    0.17
   2  -7   8    0.21    0.19
   2  -7   8    0.61    0.24
   2  -7   8    0.41    0.24
  -3   7  -8    8.42    0.56
  -3   7  -8    7.64    0.46
  -3   7  -8    8.55    0.38
  -3   7  -8    7.07    0.46
  -3   7  -8    6.84    0.60
   3  -7   8    7.39    0.47
   3  -7   8    8.18    0.44
   3  -7   8    8.71    0.56
  -4   7  -8    0.21    0.21
  -4   7  -8    0.02    0.20
  -4   7  -8   -0.12    0.23
  -4   7  -8    0.26    0.18
   4  -7   8    0.16    0.19
   4  -7   8    0.45    0.24
   4  -7   8    0.10    0.18
  -5   7  -8    4.57    0.42
  -5   7  -8    3.04    0.38
  -5   7  -8    3.33    0.41
  -5   7  -8    3.54    0.40
   5  -7   8    3.23    0.35
   5  -7   8    3.64    0.39
   5  -7   8    4.59    0.49
   5  -7   8    2.96    0.44
  -6   7  -8    0.43    0.24
  -6   7  -8    0.19    0.28
  -6   7  -8    0.36    0.26
  -6   7  -8    0.55    0.23
   6  -7   8    0.40    0.31
   6  -7   8    0.25    0.33
   6  -7   8    0.31    0.23
   6  -7   8   -0.13    0.25
   6   6  -8    1.20    0.33
   6   6  -8    1.16    0.37
   6   6  -8    1.03    0.38
   6   6  -8    0.90    0.41
  -6  -6   8    1.15    0.36
  -6  -6   8    0.99    0.35
  -6  -6   8    1.13    0.36
   5   6  -8    0.28    0.26
   5   6  -8   -0.06    0.32
   5   6  -8    0.11    0.28
   5   6  -8   -0.10    0.29
  -5  -6   8    0.37    0.30
  -5  -6   8   -0.13    0.26
  -5  -6   8    0.12    0.28
   4   6  -8    5.27    0.49
   4   6  -8    5.28    0.45
   4   6  -8    5.04    0.53
   4   6  -8    3.78    0.49
  -4  -6   8    4.88    0.48
  -4  -6   8    4.13    0.51
  -4  -6   8    5.37    0.46
   3   6  -8    0.08    0.24
   3   6  -8    0.07    0.26
   3   6  -8   -0.09    0.20
   3   6  -8    0.06    0.21
  -3  -6   8   -0.06    0.26
  -3  -6   8    0.05    0.21
  -3  -6   8    0.00    0.25
  -3  -6   8   -0.08    0.24
   2   6  -8   15.34    0.63
   2   6  -8   15.36    0.70
   2   6  -8   15.49    0.54
   2   6  -8   15.38    0.69
  -2  -6   8   14.19    0.75
  -2  -6   8   15.05    0.69
  -2  -6   8   14.97    0.54
   1   6  -8    0.02    0.23
   1   6  -8   -0.15    0.14
   1   6  -8    0.12    0.20
   1   6  -8   -0.15    0.29
   1   6  -8    0.18    0.21
  -1  -6   8    0.25    0.18
  -1  -6   8    0.23    0.13
  -1  -6   8    0.04    0.16
  -1  -6   8   -0.09    0.22
   0   6  -8    8.25    0.32
   0   6  -8    8.01    0.51
   0   6  -8    8.57    0.46
   0   6  -8    9.25    0.46
   0   6  -8    8.10    0.44
   0  -6   8    8.99    0.35
   0  -6   8    7.70    0.43
   0  -6   8    8.45    0.43
  -1   6  -8    1.67    0.43
  -1   6  -8    1.02    0.20
  -1   6  -8    1.39    0.25
  -1   6  -8    1.62    0.23
   1  -6   8    1.40    0.17
   1  -6   8    1.37    0.22
   1  -6   8    1.44    0.22
  -2   6  -8   13.11    0.52
  -2   6  -8   14.26    0.57
  -2   6  -8   14.38    0.51
  -2   6  -8   14.36    0.59
  -2   6  -8   13.33    0.55
   2  -6   8   14.05    0.57
   2  -6   8   13.04    0.54
   2  -6   8   14.11    0.48
   2  -6   8   13.07    0.60
  -3   6  -8    0.43    0.19
  -3   6  -8    0.02    0.18
  -3   6  -8    0.22    0.18
  -3   6  -8    0.50    0.20
  -3   6  -8    0.38    0.15
   3  -6   8   -0.15    0.20
   3  -6   8    0.29    0.22
  -4   6  -8    9.94    0.79
  -4   6  -8   11.52    0.49
  -4   6  -8   10.45    0.54
  -4   6  -8    9.94    0.56
   4  -6   8   10.96    0.50
   4  -6   8   10.64    0.52
   4  -6   8   10.04    0.52
  -5   6  -8    0.58    0.23
  -5   6  -8    0.06    0.19
  -5   6  -8    0.40    0.20
  -5   6  -8   -0.04    0.19
   5  -6   8   -0.29    0.26
   5  -6   8    0.07    0.19
   5  -6   8    0.31    0.20
   5  -6   8    0.27    0.22
  -6   6  -8    2.89    0.40
  -6   6  -8    2.49    0.35
  -6   6  -8    2.87    0.37
  -6   6  -8    2.67    0.36
   6  -6   8    2.63    0.39
   6  -6   8    3.03    0.36
   6  -6   8    2.61    0.36
   6  -6   8    3.54    0.45
  -7   6  -8    0.25    0.25
  -7   6  -8    0.04    0.20
  -7   6  -8   -0.01    0.24
   7  -6   8    0.15    0.30
   7  -6   8   -0.30    0.26
   7  -6   8   -0.12    0.22
   7  -6   8    0.11    0.30
   6   5  -8   -0.36    0.27
   6   5  -8   -0.04    0.28
   6   5  -8   -0.23    0.34
   6   5  -8   -0.19    0.28
   6   5  -8   -0.18    0.30
  -6  -5   8    0.26    0.28
  -6  -5   8    0.51    0.31
  -6  -5   8   -0.13    0.31
   5   5  -8    5.70    0.58
   5   5  -8    5.96    0.50
   5   5  -8    5.10    0.55
   5   5  -8    5.71    0.51
  -5  -5   8    5.36    0.51
  -5  -5   8    4.88    0.51
  -5  -5   8    5.39    0.53
   4   5  -8   -0.45    0.27
   4   5  -8   -0.19    0.22
   4   5  -8    0.15    0.26
   4   5  -8    0.22    0.24
  -4  -5   8    0.22    0.24
  -4  -5   8   -0.17    0.23
  -4  -5   8   -0.13    0.24
   3   5  -8    6.50    0.49
   3   5  -8    6.35    0.38
   3   5  -8    6.79    0.52
   3   5  -8    6.38    0.46
  -3  -5   8    5.95    0.38
  -3  -5   8    5.86    0.46
  -3  -5   8    6.13    0.42
  -3  -5   8    5.67    0.47
   2   5  -8    0.07    0.17
   2   5  -8   -0.20    0.19
   2   5  -8   -0.12    0.22
  -2  -5   8    0.13    0.17
  -2  -5   8   -0.20    0.13
  -2  -5   8    0.56    0.33
  -2  -5   8   -0.21    0.16
   1   5  -8   23.65    0.68
   1   5  -8   22.99    0.76
   1   5  -8   22.40    0.81
   1   5  -8   22.51    0.75
   1   5  -8   22.88    0.81
  -1  -5   8   23.17    0.81
  -1  -5   8   21.95    0.77
  -1  -5   8   24.88    0.87
  -1  -5   8   22.73    0.66
   0   5  -8    0.21    0.16
   0   5  -8   -0.07    0.12
   0   5  -8   -0.05    0.14
   0   5  -8    0.04    0.17
   0   5  -8    0.32    0.20
   0  -5   8   -0.03    0.14
   0  -5   8    0.02    0.10
   0  -5   8    0.00    0.17
  -1   5  -8   24.83    0.78
  -1   5  -8   24.99    0.82
  -1   5  -8   24.79    0.73
  -1   5  -8   26.28    0.78
   1  -5   8   24.44    0.77
   1  -5   8   25.66    0.99
   1  -5   8   24.76    0.81
   1  -5   8   23.77    0.68
  -2   5  -8    2.25    0.29
  -2   5  -8    1.58    0.22
  -2   5  -8    1.33    0.22
  -2   5  -8    1.93    0.24
  -2   5  -8    1.45    0.23
   2  -5   8    1.62    0.22
   2  -5   8    1.99    0.19
   2  -5   8    1.72    0.26
   2  -5   8    2.03    0.28
  -3   5  -8   13.28    0.48
  -3   5  -8   12.94    0.52
  -3   5  -8   12.30    0.50
  -3   5  -8   12.47    0.52
   3  -5   8   13.68    0.45
   3  -5   8   13.14    0.52
   3  -5   8   13.04    0.51
   3  -5   8   12.39    0.55
  -4   5  -8    0.71    0.22
  -4   5  -8    0.38    0.18
  -4   5  -8    0.69    0.18
  -4   5  -8    0.88    0.20
   4  -5   8    0.89    0.16
   4  -5   8    1.31    0.34
   4  -5   8    0.63    0.23
   4  -5   8    0.86    0.20
  -5   5  -8   10.71    0.52
  -5   5  -8   12.46    0.62
   5  -5   8   11.23    0.48
   5  -5   8   11.40    0.55
   5  -5   8   12.41    0.64
   5  -5   8   10.74    0.60
  -6   5  -8    0.24    0.22
  -6   5  -8    0.26    0.20
  -6   5  -8    0.94    0.24
  -6   5  -8    0.32    0.22
   6  -5   8    0.20    0.21
   6  -5   8    0.39    0.25
   6  -5   8    0.33    0.20
   6  -5   8    0.63    0.28
  -7   5  -8    3.41    0.41
  -7   5  -8    3.60    0.37
  -7   5  -8    3.65    0.40
   7  -5   8    3.72    0.39
   7  -5   8    3.69    0.47
   7  -5   8    4.38    0.47
  -8   5  -8    0.63    0.23
  -8   5  -8    0.04    0.27
  -8   5  -8    0.30    0.28
   8  -5   8    0.46    0.31
   8  -5   8    0.83    0.33
   6   4  -8    2.68    0.42
   6   4  -8    1.38    0.34
   6   4  -8    1.88    0.35
   6   4  -8    2.15    0.40
  -6  -4   8    1.52    0.37
  -6  -4   8    2.05    0.34
  -6  -4   8    2.41    0.39
   5   4  -8    0.33    0.28
   5   4  -8    0.07    0.26
   5   4  -8    0.93    0.29
   5   4  -8    0.58    0.32
   5   4  -8    0.78    0.31
  -5  -4   8    0.78    0.25
  -5  -4   8    0.09    0.38
  -5  -4   8    0.68    0.30
   4   4  -8    4.93    0.51
   4   4  -8    5.79    0.58
   4   4  -8    6.23    0.49
   4   4  -8    4.91    0.49
   4   4  -8    5.22    0.40
  -4  -4   8    5.84    0.41
  -4  -4   8    5.42    0.48
  -4  -4   8    5.75    0.47
   3   4  -8   -0.09    0.16
   3   4  -8   -0.14    0.22
   3   4  -8    0.14    0.25
   3   4  -8    0.34    0.18
  -3  -4   8    0.16    0.20
  -3  -4   8   -0.08    0.16
  -3  -4   8    0.25    0.24
   2   4  -8   21.52    0.82
   2   4  -8   22.03    0.81
   2   4  -8   24.93    0.77
   2   4  -8   23.53    0.76
   2   4  -8   23.46    0.72
  -2  -4   8   22.94    0.82
  -2  -4   8   23.96    0.68
  -2  -4   8   23.09    0.76
  -2  -4   8   23.13    0.75
   1   4  -8    0.37    0.18
   1   4  -8    0.11    0.14
   1   4  -8    0.46    0.34
   1   4  -8    0.26    0.16
   1   4  -8    0.22    0.14
  -1  -4   8    0.28    0.13
  -1  -4   8    0.42    0.11
  -1  -4   8    0.67    0.18
  -1  -4   8    0.03    0.19
   0   4  -8   24.27    0.66
   0   4  -8   24.98    0.74
   0   4  -8   23.35    0.75
   0   4  -8   24.34    0.67
   0   4  -8   23.65    0.73
   0   4  -8   22.82    0.99
   0  -4   8   22.73    0.73
   0  -4   8   22.59    0.69
   0  -4   8   23.00    0.73
   0  -4   8   24.59    1.01
  -1   4  -8   -0.02    0.12
  -1   4  -8    0.21    0.13
  -1   4  -8    0.01    0.12
  -1   4  -8    0.19    0.16
  -1   4  -8   -0.06    0.14
  -1   4  -8   -0.10    0.12
   1  -4   8    0.02    0.12
   1  -4   8    0.12    0.09
   1  -4   8    0.03    0.15
   1  -4   8    0.00    0.12
  -2   4  -8   22.59    0.68
  -2   4  -8   23.69    0.68
  -2   4  -8   22.65    0.72
  -2   4  -8   22.82    0.72
  -2   4  -8   23.01    0.72
   2  -4   8   23.41    0.72
   2  -4   8   23.04    0.63
   2  -4   8   22.84    0.71
  -3   4  -8    1.11    0.18
  -3   4  -8    1.48    0.20
  -3   4  -8    1.29    0.20
  -3   4  -8    0.97    0.18
  -3   4  -8    1.45    0.23
   3  -4   8    1.04    0.15
   3  -4   8    1.03    0.19
   3  -4   8    1.37    0.23
   3  -4   8    1.22    0.18
  -4   4  -8   18.43    0.50
  -4   4  -8   18.74    0.60
  -4   4  -8   18.26    0.63
   4  -4   8   17.61    0.62
   4  -4   8   17.62    0.66
   4  -4   8   17.70    0.57
   4  -4   8   17.09    0.60
  -5   4  -8    1.46    0.22
  -5   4  -8    1.62    0.22
  -5   4  -8    1.37    0.22
   5  -4   8    1.62    0.27
   5  -4   8    1.69    0.24
   5  -4   8    1.30    0.21
  -6   4  -8   11.42    0.41
  -6   4  -8   11.07    0.53
  -6   4  -8   10.66    0.53
   6  -4   8   10.48    0.60
   6  -4   8   10.44    0.51
   6  -4   8   10.78    0.56
  -7   4  -8   -0.06    0.21
  -7   4  -8    0.46    0.22
  -7   4  -8    0.76    0.21
   7  -4   8    0.26    0.20
   7  -4   8    0.59    0.27
   7  -4   8    0.61    0.26
   7  -4   8    0.35    0.24
  -8   4  -8    2.61    0.33
  -8   4  -8    2.39    0.36
  -8   4  -8    1.77    0.26
   8  -4   8    2.93    0.40
   8  -4   8    2.85    0.38
   8  -4   8    2.09    0.39
   6   3  -8    0.58    0.28
   6   3  -8   -0.05    0.28
   6   3  -8    0.05    0.26
   6   3  -8   -0.09    0.31
   6   3  -8   -0.03    0.33
  -6  -3   8    0.42    0.34
  -6  -3   8    0.42    0.30
  -6  -3   8    0.06    0.23
   5   3  -8   10.34    0.82
   5   3  -8   10.64    0.62
   5   3  -8   11.10    0.66
   5   3  -8   11.05    0.62
   5   3  -8   12.03    0.49
  -5  -3   8   11.43    0.65
  -5  -3   8   11.44    0.58
  -5  -3   8   13.42    0.73
   4   3  -8    0.33    0.24
   4   3  -8    0.35    0.24
   4   3  -8    0.55    0.25
   4   3  -8    0.68    0.26
   4   3  -8   -0.01    0.16
  -4  -3   8    0.59    0.19
  -4  -3   8    0.28    0.22
  -4  -3   8    0.14    0.25
   3   3  -8    9.90    0.53
   3   3  -8    9.95    0.46
   3   3  -8    9.75    0.42
   3   3  -8    9.81    0.50
  -3  -3   8    9.40    0.46
  -3  -3   8   10.65    0.81
  -3  -3   8   10.35    0.45
   2   3  -8   -0.09    0.16
   2   3  -8   -0.17    0.12
   2   3  -8   -0.19    0.14
  -2  -3   8   -0.04    0.16
  -2  -3   8   -0.09    0.12
  -2  -3   8    0.05    0.13
   1   3  -8   15.96    0.59
   1   3  -8   16.44    0.45
   1   3  -8   17.15    0.56
   1   3  -8   15.99    0.60
   1   3  -8   16.04    0.54
   1   3  -8   16.13    0.53
  -1  -3   8   16.10    0.55
  -1  -3   8   15.72    0.60
  -1  -3   8   16.28    0.56
  -1  -3   8   16.46    0.46
   0   3  -8    0.15    0.15
   0   3  -8    0.33    0.13
   0   3  -8    0.14    0.11
   0   3  -8    0.19    0.15
   0   3  -8    0.39    0.14
   0   3  -8    0.23    0.13
   0  -3   8    0.18    0.13
   0  -3   8    0.20    0.15
   0  -3   8    0.04    0.11
   0  -3   8    0.29    0.08
  -1   3  -8   43.33    1.10
  -1   3  -8   43.75    1.13
  -1   3  -8   41.42    1.12
  -1   3  -8   42.32    1.15
  -1   3  -8   41.76    1.11
  -1   3  -8   41.39    1.06
   1  -3   8   41.78    1.15
   1  -3   8   42.59    1.01
   1  -3   8   40.66    1.11
   1  -3   8   41.32    1.12
  -2   3  -8    0.12    0.12
  -2   3  -8    0.33    0.14
  -2   3  -8    0.29    0.12
  -2   3  -8    0.00    0.13
  -2   3  -8    0.33    0.11
   2  -3   8    0.24    0.13
   2  -3   8    0.42    0.09
   2  -3   8    0.08    0.14
   2  -3   8    0.19    0.12
  -3   3  -8   16.26    0.55
  -3   3  -8   16.61    0.55
  -3   3  -8   16.09    0.54
  -3   3  -8   16.85    0.49
  -3   3  -8   16.11    0.56
   3  -3   8   15.97    0.55
   3  -3   8   16.74    0.49
   3  -3   8   15.49    0.57
   3  -3   8   16.44    0.55
  -4   3  -8    1.92    0.24
  -4   3  -8    1.74    0.21
  -4   3  -8    1.81    0.24
  -4   3  -8    2.34    0.26
  -4   3  -8    1.76    0.23
   4  -3   8    2.11    0.26
   4  -3   8    1.68    0.19
   4  -3   8    1.89    0.22
   4  -3   8    2.09    0.23
  -5   3  -8   13.37    0.54
  -5   3  -8   14.22    0.47
  -5   3  -8   13.72    0.53
   5  -3   8   13.29    0.56
   5  -3   8   13.81    0.54
   5  -3   8   13.37    0.51
   5  -3   8   13.37    0.49
  -6   3  -8    0.85    0.14
  -6   3  -8    0.77    0.20
  -6   3  -8    0.62    0.23
  -6   3  -8    1.06    0.21
   6  -3   8    0.90    0.25
   6  -3   8    0.87    0.19
   6  -3   8    0.90    0.28
   6  -3   8    0.76    0.21
  -7   3  -8    9.93    0.54
  -7   3  -8   10.52    0.52
  -7   3  -8   10.58    0.53
   7  -3   8   10.63    0.61
   7  -3   8   10.29    0.63
   7  -3   8   11.24    0.57
   7  -3   8   11.01    0.51
   7  -3   8   10.78    0.54
  -8   3  -8    0.32    0.24
  -8   3  -8   -0.13    0.23
  -8   3  -8   -0.07    0.20
   8  -3   8    0.44    0.23
   8  -3   8    0.05    0.41
   8  -3   8    0.17    0.28
   8  -3   8   -0.07    0.26
  -9   3  -8    1.35    0.27
  -9   3  -8    0.86    0.27
  -9   3  -8    1.75    0.32
   9  -3   8    1.69    0.31
   9  -3   8    1.36    0.37
   7   2  -8    0.06    0.32
   7   2  -8    0.27    0.30
   7   2  -8   -0.08    0.31
  -7  -2   8    0.42    0.57
  -7  -2   8    0.08    0.23
  -7  -2   8   -0.36    0.27
   6   2  -8    2.94    0.42
   6   2  -8    4.25    0.49
   6   2  -8    3.99    0.49
  -6  -2   8    4.20    0.48
  -6  -2   8    3.51    0.39
  -6  -2   8    3.16    0.38
   5   2  -8    0.53    0.18
   5   2  -8    0.37    0.26
   5   2  -8    0.04    0.24
   5   2  -8   -0.02    0.28
   5   2  -8    0.10    0.24
  -5  -2   8    0.18    0.26
  -5  -2   8    0.45    0.21
  -5  -2   8    0.46    0.20
   4   2  -8    8.87    0.70
   4   2  -8    8.93    0.49
   4   2  -8    8.80    0.38
   4   2  -8    7.97    0.52
   4   2  -8    9.57    0.51
  -4  -2   8    8.96    0.54
  -4  -2   8    8.50    0.53
  -4  -2   8    9.26    0.43
   3   2  -8    0.10    0.16
   3   2  -8    0.11    0.19
   3   2  -8   -0.04    0.16
   3   2  -8   -0.05    0.13
  -3  -2   8   -0.12    0.12
  -3  -2   8    0.41    0.22
  -3  -2   8    0.24    0.14
   2   2  -8   32.93    0.99
   2   2  -8   32.35    0.97
   2   2  -8   33.59    0.90
   2   2  -8   33.65    0.95
  -2  -2   8   32.73    0.93
  -2  -2   8   33.45    0.93
   1   2  -8   -0.08    0.13
   1   2  -8    0.01    0.11
   1   2  -8   -0.11    0.12
   1   2  -8    0.33    0.15
   1   2  -8    0.05    0.14
  -1  -2   8    0.04    0.15
  -1  -2   8    0.05    0.10
  -1  -2   8    0.06    0.11
  -1  -2   8    0.24    0.08
   0   2  -8   19.78    0.59
   0   2  -8   19.95    0.59
   0   2  -8   18.90    0.58
   0   2  -8   19.21    0.61
   0   2  -8   18.88    0.51
   0  -2   8   19.93    0.48
   0  -2   8   18.41    0.63
   0  -2   8   18.98    0.59
   0  -2   8   18.30    0.58
  -1   2  -8    0.24    0.13
  -1   2  -8    0.32    0.11
  -1   2  -8    0.16    0.12
  -1   2  -8    0.39    0.11
  -1   2  -8    0.25    0.11
  -1   2  -8    0.42    0.12
   1  -2   8    0.44    0.14
   1  -2   8    0.40    0.11
   1  -2   8    0.12    0.10
   1  -2   8    0.26    0.06
  -2   2  -8   35.77    0.95
  -2   2  -8   34.50    0.96
  -2   2  -8   34.38    0.95
  -2   2  -8   35.42    0.92
  -2   2  -8   34.64    0.91
   2  -2   8   33.84    0.95
   2  -2   8   35.36    0.98
   2  -2   8   34.93    0.95
   2  -2   8   36.06    0.85
  -3   2  -8    0.50    0.10
  -3   2  -8    0.28    0.12
  -3   2  -8    0.59    0.14
  -3   2  -8    0.39    0.13
  -3   2  -8    0.28    0.13
   3  -2   8    0.40    0.14
   3  -2   8    0.41    0.13
   3  -2   8    0.44    0.10
   3  -2   8    0.55    0.16
  -4   2  -8   24.44    0.73
  -4   2  -8   24.18    0.61
  -4   2  -8   23.19    0.72
  -4   2  -8   23.61    0.69
  -4   2  -8   23.63    0.72
   4  -2   8   23.09    0.74
   4  -2   8   24.20    0.72
   4  -2   8   23.68    0.72
   4  -2   8   24.03    0.67
  -5   2  -8    0.45    0.15
  -5   2  -8    0.55    0.12
  -5   2  -8    0.71    0.19
  -5   2  -8    0.41    0.14
   5  -2   8    0.61    0.14
   5  -2   8    0.72    0.17
   5  -2   8    0.62    0.15
   5  -2   8    0.65    0.18
  -6   2  -8    9.17    0.51
  -6   2  -8    8.78    0.47
  -6   2  -8    9.06    0.42
   6  -2   8    9.51    0.43
   6  -2   8    9.21    0.52
   6  -2   8    9.41    0.53
   6  -2   8   10.02    0.43
   6  -2   8    8.77    0.52
  -7   2  -8    0.09    0.18
   7  -2   8    0.29    0.21
   7  -2   8    0.18    0.19
   7  -2   8    0.02    0.20
  -8   2  -8    5.35    0.41
  -8   2  -8    4.67    0.43
  -8   2  -8    5.71    0.42
   8  -2   8    5.74    0.60
   8  -2   8    5.12    0.48
   8  -2   8    5.09    0.42
  -9   2  -8    0.70    0.28
  -9   2  -8    0.41    0.24
   9  -2   8    0.16    0.25
   9  -2   8    0.78    0.94
   9  -2   8    0.18    0.24
   7   1  -8    1.11    0.37
   7   1  -8    0.86    0.35
   7   1  -8    0.97    0.33
  -7  -1   8    0.60    0.23
  -7  -1   8    1.78    0.38
   6   1  -8   -0.02    0.26
   6   1  -8   -0.06    0.27
   6   1  -8   -0.09    0.26
  -6  -1   8    0.02    0.18
  -6  -1   8   -0.17    0.23
  -6  -1   8   -0.23    0.24
   5   1  -8    9.47    0.56
   5   1  -8    9.07    0.57
   5   1  -8   10.07    0.54
   5   1  -8    8.98    0.59
  -5  -1   8    9.27    0.58
  -5  -1   8    9.24    0.46
  -5  -1   8    9.87    0.46
   4   1  -8   -0.05    0.12
   4   1  -8    0.38    0.21
   4   1  -8    0.16    0.22
   4   1  -8    0.11    0.20
   4   1  -8    0.30    0.23
  -4  -1   8   -0.07    0.23
  -4  -1   8   -0.05    0.15
   3   1  -8   23.60    0.64
   3   1  -8   23.19    0.76
   3   1  -8   23.37    0.85
   3   1  -8   22.18    0.76
  -3  -1   8   23.81    0.70
  -3  -1   8   22.21    0.80
  -3  -1   8   23.04    0.76
   2   1  -8    0.17    0.16
   2   1  -8    0.15    0.15
   2   1  -8    0.12    0.15
   2   1  -8    0.24    0.15
   2   1  -8    0.15    0.11
  -2  -1   8    0.19    0.19
  -2  -1   8   -0.03    0.10
  -2  -1   8    0.18    0.11
   1   1  -8   23.86    0.71
   1   1  -8   23.19    0.72
   1   1  -8   22.50    0.72
   1   1  -8   24.60    0.58
   1   1  -8   23.74    0.66
   1   1  -8   23.77    0.66
  -1  -1   8   23.09    0.78
  -1  -1   8   23.13    0.68
  -1  -1   8   23.06    0.68
   0   1  -8    7.18    0.33
   0   1  -8    7.01    0.29
   0   1  -8    7.19    0.30
   0   1  -8    7.11    0.24
   0   1  -8    6.91    0.32
   0   1  -8    7.60    0.32
   0  -1   8    7.15    0.30
   0  -1   8    7.08    0.30
   0  -1   8    7.04    0.34
  -1   1  -8   67.50    1.63
  -1   1  -8   65.98    1.66
  -1   1  -8   67.56    1.58
  -1   1  -8   67.95    1.64
  -1   1  -8   67.43    1.63
  -1   1  -8   66.18    1.63
   1  -1   8   65.80    1.64
   1  -1   8   65.45    1.63
   1  -1   8   64.29    1.66
  -2   1  -8    0.17    0.08
  -2   1  -8    0.15    0.10
  -2   1  -8    0.25    0.12
  -2   1  -8    0.26    0.11
  -2   1  -8    0.36    0.11
   2  -1   8    0.29    0.13
   2  -1   8    0.29    0.11
   2  -1   8    0.35    0.11
  -3   1  -8   50.74    1.28
  -3   1  -8   51.99    1.24
  -3   1  -8   52.54    1.30
  -3   1  -8   49.48    1.30
  -3   1  -8   50.77    1.29
   3  -1   8   49.62    1.21
   3  -1   8   49.95    1.29
   3  -1   8   49.85    1.31
   3  -1   8   51.13    1.29
  -4   1  -8    0.22    0.12
  -4   1  -8    0.31    0.14
  -4   1  -8    0.15    0.12
  -4   1  -8    0.36    0.09
  -4   1  -8    0.22    0.11
   4  -1   8    0.38    0.11
   4  -1   8    0.16    0.14
   4  -1   8    0.40    0.13
   4  -1   8    0.24    0.12
  -5   1  -8   11.44    0.45
  -5   1  -8   11.88    0.47
  -5   1  -8   11.62    0.48
   5  -1   8   11.62    0.47
   5  -1   8   12.57    0.44
   5  -1   8   12.24    0.46
   5  -1   8   11.84    0.46
  -6   1  -8    0.44    0.15
  -6   1  -8    0.44    0.17
   6  -1   8    0.71    0.19
   6  -1   8    0.68    0.17
   6  -1   8    0.49    0.18
  -7   1  -8    7.39    0.42
  -7   1  -8    7.58    0.42
  -7   1  -8    7.35    0.45
   7  -1   8    7.21    0.49
   7  -1   8    6.93    0.45
   7  -1   8    6.98    0.45
  -8   1  -8   -0.01    0.18
  -8   1  -8   -0.21    0.19
  -8   1  -8    0.05    0.21
   8  -1   8   -0.31    0.18
   8  -1   8    0.00    0.21
  -9   1  -8    2.29    0.36
  -9   1  -8    3.23    0.38
  -9   1  -8    3.56    0.45
   9  -1   8    3.52    0.45
   9  -1   8    2.92    0.40
   9  -1   8    3.35    0.56
   7   0  -8    0.56    0.31
   7   0  -8   -0.07    0.30
   7   0  -8   -0.34    0.28
  -7   0   8    0.50    0.32
  -7   0   8    0.02    0.19
   6   0  -8    4.78    0.46
   6   0  -8    3.59    0.50
   6   0  -8    4.06    0.44
  -6   0   8    3.33    0.34
  -6   0   8    3.81    0.49
   5   0  -8    0.21    0.25
   5   0  -8    0.35    0.25
   5   0  -8    0.44    0.24
  -5   0   8    0.17    0.15
  -5   0   8    0.27    0.27
  -5   0   8    0.09    0.18
   4   0  -8    4.43    0.36
   4   0  -8    5.22    0.39
   4   0  -8    5.13    0.52
   4   0  -8    4.27    0.40
  -4   0   8    5.58    0.31
  -4   0   8    4.49    0.32
   3   0  -8   -0.24    0.15
   3   0  -8    0.11    0.15
  -3   0   8    0.23    0.22
  -3   0   8   -0.18    0.11
   2   0  -8   54.01    1.43
   2   0  -8   54.23    1.48
   2   0  -8   53.53    1.30
   2   0  -8   55.01    1.45
   2   0  -8   52.12    1.40
  -2   0   8   54.06    1.37
  -2   0   8   54.46    1.36
  -2   0   8   55.72    1.46
   1   0  -8    0.09    0.09
   1   0  -8    0.04    0.12
   1   0  -8    0.19    0.13
   1   0  -8    0.18    0.12
  -1   0   8    0.25    0.14
  -1   0   8    0.08    0.09
  -1   0   8    0.07    0.09
   0   0  -8   62.80    1.52
   0   0  -8   61.82    1.57
   0   0  -8   63.23    1.50
   0   0  -8   62.74    1.51
   0   0  -8   61.48    1.57
   0   0  -8   65.39    1.58
   0   0   8   62.33    1.53
   0   0   8   62.20    1.57
   0   0   8   60.71    1.53
  -1   0  -8    8.47    0.30
  -1   0  -8    8.51    0.31
  -1   0  -8    8.41    0.33
  -1   0  -8    7.93    0.34
  -1   0  -8    8.51    0.33
  -1   0  -8    8.65    0.32
   1   0   8    7.99    0.32
   1   0   8    8.19    0.34
   1   0   8    8.15    0.31
  -2   0  -8   54.40    1.46
  -2   0  -8   55.88    1.42
  -2   0  -8   57.75    1.40
  -2   0  -8   56.59    1.38
  -2   0  -8   59.67    1.49
  -2   0  -8   56.31    1.40
   2   0   8   54.32    1.39
   2   0   8   55.48    1.41
   2   0   8   55.54    1.40
  -3   0  -8    1.18    0.13
  -3   0  -8    1.19    0.16
  -3   0  -8    1.20    0.15
  -3   0  -8    1.18    0.17
  -3   0  -8    0.92    0.14
   3   0   8    1.00    0.15
   3   0   8    1.09    0.15
   3   0   8    0.76    0.15
  -4   0  -8   49.97    1.33
  -4   0  -8   54.22    1.34
  -4   0  -8   51.77    1.33
  -4   0  -8   52.14    1.27
   4   0   8   52.32    1.33
   4   0   8   51.26    1.33
   4   0   8   50.77    1.33
  -5   0  -8    0.04    0.12
  -5   0  -8    0.23    0.15
  -5   0  -8    0.50    0.09
  -5   0  -8    0.17    0.13
   5   0   8    0.03    0.12
   5   0   8    0.28    0.15
   5   0   8    0.37    0.14
  -6   0  -8   14.22    0.54
  -6   0  -8   15.58    0.64
  -6   0  -8   14.66    0.55
   6   0   8   14.13    0.59
   6   0   8   14.64    0.54
  -7   0  -8    0.76    0.25
  -7   0  -8    0.81    0.19
  -7   0  -8    0.66    0.24
   7   0   8    0.87    0.23
   7   0   8    0.75    0.26
   7   0   8    0.44    0.18
  -8   0  -8    2.81    0.37
  -8   0  -8    3.47    0.39
   8   0   8    2.70    0.39
   8   0   8    3.67    0.36
  -9   0  -8    0.10    0.26
  -9   0  -8    0.52    0.24
  -9   0  -8    0.39    0.25
   9   0   8    0.25    0.26
   9   0   8    0.54    0.23
   9   0   8    0.34    0.42
 -10   0  -8    2.55    0.39
 -10   0  -8    1.96    0.40
 -10   0  -8    1.88    0.37
  10   0   8    1.77    0.39
  10   0   8    2.13    0.50
  10   0   8    2.59    0.37
   6  -1  -8    0.25    0.26
   6  -1  -8    0.28    0.25
   6  -1  -8    0.56    0.29
  -6   1   8    0.31    0.17
  -6   1   8    0.70    0.32
   5  -1  -8   10.49    0.55
   5  -1  -8   10.02    0.55
   5  -1  -8    9.61    0.61
  -5   1   8   10.27    0.59
  -5   1   8    9.36    0.43
   4  -1  -8   -0.06    0.17
  -4   1   8    0.43    0.41
  -4   1   8   -0.05    0.12
  -4   1   8    0.15    0.13
   3  -1  -8   20.66    0.90
   3  -1  -8   21.34    0.59
  -3   1   8   18.92    0.78
  -3   1   8   17.85    0.66
  -3   1   8   20.01    0.59
   2  -1  -8    3.02    0.26
   2  -1  -8    2.82    0.27
   2  -1  -8    3.15    0.17
   2  -1  -8    3.61    0.31
  -2   1   8    2.99    0.20
  -2   1   8    2.59    0.19
  -2   1   8    3.22    0.28
   1  -1  -8   33.33    0.95
   1  -1  -8   33.69    0.95
   1  -1  -8   33.71    0.98
   1  -1  -8   33.79    0.83
   1  -1  -8   33.74    0.94
   1  -1  -8   33.39    0.83
  -1   1   8   34.70    0.88
  -1   1   8   33.82    0.94
  -1   1   8   33.45    0.88
   0  -1  -8   -0.11    0.11
   0  -1  -8   -0.12    0.09
   0  -1  -8   -0.06    0.11
   0  -1  -8    0.04    0.07
   0   1   8    0.08    0.11
   0   1   8   -0.05    0.07
   0   1   8   -0.02    0.07
  -1  -1  -8   82.92    1.92
  -1  -1  -8   82.25    1.92
  -1  -1  -8   81.81    1.97
  -1  -1  -8   80.65    1.96
  -1  -1  -8   80.10    1.97
  -1  -1  -8   81.23    1.91
  -1  -1  -8   82.10    1.97
   1   1   8   78.50    1.98
   1   1   8   79.44    1.93
   1   1   8   78.87    1.93
  -2  -1  -8    2.38    0.19
  -2  -1  -8    2.52    0.18
  -2  -1  -8    2.44    0.18
  -2  -1  -8    1.98    0.21
  -2  -1  -8    2.18    0.20
   2   1   8    2.54    0.17
   2   1   8    2.03    0.28
   2   1   8    2.44    0.17
  -3  -1  -8   57.95    1.41
  -3  -1  -8   56.23    1.37
  -3  -1  -8   55.85    1.41
  -3  -1  -8   56.41    1.42
   3   1   8   56.31    1.40
   3   1   8   55.47    1.40
   3   1   8   55.44    1.41
  -4  -1  -8    2.19    0.16
  -4  -1  -8    2.31    0.22
  -4  -1  -8    2.22    0.24
  -4  -1  -8    2.52    0.21
   4   1   8    2.20    0.20
   4   1   8    2.07    0.20
   4   1   8    2.43    0.21
  -5  -1  -8   34.80    0.85
  -5  -1  -8   32.24    0.93
  -5  -1  -8   34.34    0.94
  -5  -1  -8   32.19    0.95
   5   1   8   33.37    0.93
   5   1   8   32.35    0.92
   5   1   8   32.44    0.92
  -6  -1  -8    1.83    0.24
  -6  -1  -8    2.19    0.26
  -6  -1  -8    2.14    0.29
   6   1   8    2.03    0.23
   6   1   8    1.82    0.25
   6   1   8    1.88    0.24
  -7  -1  -8   15.32    0.59
  -7  -1  -8   14.64    0.59
   7   1   8   16.14    0.60
   7   1   8   15.00    0.63
   7   1   8   14.44    0.57
  -8  -1  -8    0.79    0.26
  -8  -1  -8    0.52    0.23
  -8  -1  -8    0.51    0.22
   8   1   8    0.41    0.20
   8   1   8    0.46    0.26
  -9  -1  -8    4.37    0.49
  -9  -1  -8    3.76    0.47
  -9  -1  -8    4.41    0.42
   9   1   8    4.79    0.43
   9   1   8    3.51    0.43
 -10  -1  -8    0.07    0.30
 -10  -1  -8   -0.06    0.27
 -10  -1  -8   -0.02    0.30
  10   1   8    0.20    0.28
  10   1   8   -0.26    0.27
  10   1   8    0.30    0.40
   6  -2  -8    9.30    0.59
   6  -2  -8    9.79    0.58
   6  -2  -8    9.31    0.66
  -6   2   8    8.93    0.44
  -6   2   8    9.16    0.61
   5  -2  -8    1.61    0.36
   5  -2  -8    1.59    0.29
   5  -2  -8    1.60    0.30
  -5   2   8    1.48    0.33
  -5   2   8    1.32    0.20
   4  -2  -8    7.24    0.44
   4  -2  -8    7.00    0.46
   4  -2  -8    6.96    0.52
  -4   2   8    6.68    0.48
  -4   2   8    6.98    0.46
  -4   2   8    7.32    0.33
   3  -2  -8    0.04    0.16
   3  -2  -8   -0.05    0.18
   3  -2  -8    0.09    0.11
  -3   2   8    0.23    0.18
  -3   2   8    0.10    0.11
  -3   2   8    0.00    0.09
   2  -2  -8   22.15    0.72
   2  -2  -8   22.32    0.72
   2  -2  -8   21.79    0.79
   2  -2  -8   23.08    0.61
  -2   2   8   23.67    0.62
  -2   2   8   21.94    0.62
  -2   2   8   22.72    0.72
   1  -2  -8    2.90    0.23
   1  -2  -8    2.70    0.25
   1  -2  -8    2.85    0.18
   1  -2  -8    2.86    0.26
  -1   2   8    2.75    0.17
  -1   2   8    3.26    0.23
  -1   2   8    2.64    0.17
   0  -2  -8   68.45    1.71
   0  -2  -8   67.99    1.70
   0  -2  -8   68.57    1.61
   0  -2  -8   67.82    1.65
   0   2   8   69.08    1.64
   0   2   8   67.65    1.64
   0   2   8   69.56    1.68
  -1  -2  -8    6.35    0.29
  -1  -2  -8    6.15    0.24
  -1  -2  -8    6.33    0.30
  -1  -2  -8    6.69    0.31
  -1  -2  -8    6.71    0.25
   1   2   8    6.33    0.25
   1   2   8    7.00    0.26
   1   2   8    6.29    0.27
  -2  -2  -8   35.49    0.93
  -2  -2  -8   36.37    0.97
  -2  -2  -8   35.64    0.97
  -2  -2  -8   36.24    0.92
   2   2   8   36.39    1.05
   2   2   8   34.18    0.92
   2   2   8   36.33    0.93
  -3  -2  -8    2.61    0.25
  -3  -2  -8    2.93    0.18
  -3  -2  -8    2.84    0.19
   3   2   8    3.06    0.19
   3   2   8    2.91    0.19
   3   2   8    2.66    0.19
  -4  -2  -8   41.32    1.10
  -4  -2  -8   43.55    1.05
  -4  -2  -8   41.19    1.13
   4   2   8   41.27    1.09
   4   2   8   41.36    1.07
   4   2   8   40.60    1.09
  -5  -2  -8    2.07    0.25
  -5  -2  -8    2.08    0.28
  -5  -2  -8    2.20    0.18
  -5  -2  -8    2.30    0.23
   5   2   8    2.39    0.23
   5   2   8    2.22    0.21
   5   2   8    1.99    0.22
  -6  -2  -8   44.54    1.25
  -6  -2  -8   48.10    1.26
  -6  -2  -8   47.17    1.31
   6   2   8   43.99    1.24
   6   2   8   47.02    1.23
   6   2   8   46.45    1.24
  -7  -2  -8   -0.17    0.16
  -7  -2  -8   -0.18    0.21
  -7  -2  -8    0.23    0.16
   7   2   8    0.06    0.18
   7   2   8    0.35    0.19
   7   2   8    0.34    0.26
  -8  -2  -8    6.20    0.44
  -8  -2  -8    5.64    0.45
  -8  -2  -8    6.16    0.47
   8   2   8    6.51    0.43
   8   2   8    6.20    0.46
   8   2   8    6.61    0.50
  -9  -2  -8    0.66    0.26
  -9  -2  -8    0.77    0.30
  -9  -2  -8    0.55    0.28
   9   2   8    0.55    0.25
   9   2   8    0.27    0.24
 -10  -2  -8    1.94    0.39
 -10  -2  -8    2.36    0.40
 -10  -2  -8    2.35    0.37
  10   2   8    2.18    0.36
  10   2   8    3.27    0.50
  10   2   8    2.18    0.39
   6  -3  -8    0.20    0.26
   6  -3  -8    0.81    0.30
   6  -3  -8    1.31    0.38
  -6   3   8    0.04    0.28
  -6   3   8    0.27    0.16
   5  -3  -8   11.47    0.67
   5  -3  -8   11.34    0.59
   5  -3  -8   11.98    0.61
  -5   3   8   12.01    0.44
  -5   3   8   12.50    0.63
   4  -3  -8    0.18    0.35
   4  -3  -8    0.36    0.22
   4  -3  -8    0.37    0.25
   4  -3  -8   -0.01    0.14
  -4   3   8    0.01    0.11
  -4   3   8    0.14    0.37
   3  -3  -8   21.88    0.61
   3  -3  -8   21.45    0.73
   3  -3  -8   21.86    0.79
   3  -3  -8   21.28    0.74
  -3   3   8   21.69    0.74
  -3   3   8   21.17    0.60
  -3   3   8   22.59    0.62
   2  -3  -8    0.65    0.19
   2  -3  -8    0.70    0.14
   2  -3  -8    0.64    0.12
   2  -3  -8    0.71    0.18
   2  -3  -8    0.65    0.19
  -2   3   8    0.65    0.10
  -2   3   8    0.67    0.10
  -2   3   8    0.72    0.10
  -2   3   8    1.03    0.18
   1  -3  -8   23.39    0.63
   1  -3  -8   23.51    0.73
   1  -3  -8   24.64    0.66
   1  -3  -8   23.41    0.73
   1  -3  -8   24.74    0.76
  -1   3   8   23.31    0.63
  -1   3   8   24.23    0.63
  -1   3   8   24.59    0.66
  -1   3   8   24.00    0.70
   0  -3  -8    2.30    0.22
   0  -3  -8    2.21    0.19
   0  -3  -8    2.11    0.13
   0  -3  -8    1.87    0.20
   0   3   8    2.12    0.14
   0   3   8    2.14    0.14
   0   3   8    2.02    0.17
  -1  -3  -8   65.69    1.65
  -1  -3  -8   68.18    1.68
  -1  -3  -8   64.54    1.67
  -1  -3  -8   67.02    1.59
  -1  -3  -8   69.62    1.59
   1   3   8   67.78    1.61
   1   3   8   67.43    1.60
   1   3   8   64.57    1.60
  -2  -3  -8    3.70    0.23
  -2  -3  -8    3.76    0.25
  -2  -3  -8    3.95    0.22
  -2  -3  -8    4.06    0.26
  -2  -3  -8    3.76    0.30
   2   3   8    4.11    0.20
   2   3   8    3.69    0.20
   2   3   8    4.04    0.20
  -3  -3  -8   62.61    1.65
  -3  -3  -8   63.96    1.53
  -3  -3  -8   60.65    1.53
  -3  -3  -8   61.50    1.53
   3   3   8   62.18    1.53
   3   3   8   63.31    1.50
   3   3   8   60.64    1.53
  -4  -3  -8   -0.08    0.11
  -4  -3  -8   -0.08    0.16
  -4  -3  -8    0.07    0.10
  -4  -3  -8   -0.03    0.09
   4   3   8    0.05    0.10
   4   3   8    0.06    0.10
   4   3   8    0.04    0.10
  -5  -3  -8   31.00    0.85
  -5  -3  -8   31.51    0.89
  -5  -3  -8   30.52    0.93
  -5  -3  -8   29.82    0.87
   5   3   8   30.74    0.84
   5   3   8   30.52    0.87
   5   3   8   30.34    0.86
  -6  -3  -8    0.24    0.16
  -6  -3  -8   -0.04    0.21
  -6  -3  -8   -0.11    0.13
   6   3   8    0.29    0.15
   6   3   8    0.04    0.14
   6   3   8    0.14    0.13
  -7  -3  -8   18.68    0.68
  -7  -3  -8   19.02    0.76
  -7  -3  -8   19.97    0.70
   7   3   8   18.63    0.70
   7   3   8   17.25    0.75
   7   3   8   18.33    0.67
  -8  -3  -8   -0.09    0.24
  -8  -3  -8   -0.22    0.20
  -8  -3  -8   -0.04    0.22
   8   3   8   -0.07    0.22
   8   3   8    0.17    0.24
  -9  -3  -8    5.29    0.59
  -9  -3  -8    4.87    0.49
  -9  -3  -8    5.87    0.47
   9   3   8    5.08    0.45
   9   3   8    5.73    0.47
 -10  -3  -8   -0.17    0.30
 -10  -3  -8   -0.21    0.26
 -10  -3  -8   -0.34    0.28
  10   3   8   -0.01    0.25
  10   3   8   -0.15    0.27
   6  -4  -8    5.55    0.60
   6  -4  -8    5.06    0.51
   6  -4  -8    5.45    0.63
  -6   4   8    5.08    0.53
  -6   4   8    4.84    0.33
   5  -4  -8    0.50    0.26
   5  -4  -8    0.41    0.26
   5  -4  -8    0.55    0.29
   5  -4  -8    0.38    0.21
  -5   4   8    1.23    0.31
  -5   4   8    0.85    0.14
   4  -4  -8    9.30    0.60
   4  -4  -8    9.64    0.46
   4  -4  -8    8.62    0.39
   4  -4  -8    9.34    0.54
   4  -4  -8    9.19    0.52
  -4   4   8   10.21    0.53
  -4   4   8    9.16    0.33
   3  -4  -8    0.45    0.14
   3  -4  -8    0.11    0.19
   3  -4  -8    0.28    0.18
   3  -4  -8    0.15    0.14
   3  -4  -8    0.70    0.22
  -3   4   8    0.24    0.08
  -3   4   8    0.34    0.18
   2  -4  -8   35.61    1.05
   2  -4  -8   35.65    1.07
   2  -4  -8   36.01    0.95
   2  -4  -8   36.05    1.04
   2  -4  -8   35.56    0.95
  -2   4   8   37.23    0.86
  -2   4   8   36.98    0.89
  -2   4   8   35.82    0.90
  -2   4   8   36.24    1.01
  -2   4   8   36.94    0.90
   1  -4  -8    0.91    0.17
   1  -4  -8    0.95    0.12
   1  -4  -8    0.80    0.18
   1  -4  -8    1.03    0.19
   1  -4  -8    0.98    0.15
  -1   4   8    0.82    0.11
  -1   4   8    0.87    0.15
  -1   4   8    0.88    0.11
  -1   4   8    0.91    0.10
   0  -4  -8   75.06    1.91
   0  -4  -8   74.74    1.86
   0  -4  -8   75.27    1.79
   0   4   8   75.28    1.81
   0   4   8   78.09    1.81
   0   4   8   82.13    1.99
   0   4   8   76.39    1.81
  -1  -4  -8    3.89    0.25
  -1  -4  -8    3.47    0.23
  -1  -4  -8    3.60    0.25
  -1  -4  -8    3.56    0.16
  -1  -4  -8    3.74    0.19
   1   4   8    4.08    0.20
   1   4   8    3.39    0.18
  -2  -4  -8   64.05    1.60
  -2  -4  -8   67.06    1.70
  -2  -4  -8   65.34    1.65
  -2  -4  -8   67.04    1.55
  -2  -4  -8   65.00    1.67
  -2  -4  -8   67.42    1.64
   2   4   8   66.47    1.60
   2   4   8   67.24    1.61
   2   4   8   67.39    1.58
  -3  -4  -8    1.19    0.13
  -3  -4  -8    1.16    0.16
  -3  -4  -8    1.23    0.18
  -3  -4  -8    1.49    0.23
  -3  -4  -8    1.09    0.16
  -3  -4  -8    1.15    0.21
   3   4   8    1.07    0.14
   3   4   8    0.93    0.13
   3   4   8    1.10    0.13
  -4  -4  -8   38.89    1.05
  -4  -4  -8   39.46    1.06
  -4  -4  -8   39.89    1.04
  -4  -4  -8   39.44    1.14
   4   4   8   40.42    1.00
   4   4   8   39.20    1.04
   4   4   8   39.31    1.05
  -5  -4  -8    0.07    0.13
  -5  -4  -8   -0.03    0.20
  -5  -4  -8    0.26    0.13
  -5  -4  -8   -0.08    0.14
   5   4   8    0.17    0.12
   5   4   8    0.30    0.13
   5   4   8    0.27    0.12
  -6  -4  -8   28.23    0.85
  -6  -4  -8   27.29    0.85
  -6  -4  -8   27.24    0.92
   6   4   8   26.71    0.83
   6   4   8   27.57    0.83
  -7  -4  -8    0.92    0.22
  -7  -4  -8    1.32    0.25
  -7  -4  -8    0.63    0.27
   7   4   8    0.90    0.21
   7   4   8    0.85    0.20
   7   4   8    1.42    0.23
  -8  -4  -8    5.80    0.48
  -8  -4  -8    5.18    0.48
  -8  -4  -8    5.79    0.44
   8   4   8    5.76    0.42
   8   4   8    6.17    0.47
   8   4   8    5.09    0.39
  -9  -4  -8   -0.03    0.26
  -9  -4  -8   -0.02    0.23
  -9  -4  -8    0.52    0.40
   9   4   8    0.18    0.23
   9   4   8    0.45    0.25
 -10  -4  -8    1.78    0.39
 -10  -4  -8    2.41    0.36
 -10  -4  -8    1.40    0.40
  10   4   8    2.29    0.38
  10   4   8    2.05    0.35
   6  -5  -8    0.66    0.34
   6  -5  -8    0.68    0.38
   6  -5  -8    0.27    0.30
  -6   5   8    0.38    0.15
  -6   5   8    0.37    0.32
   5  -5  -8    3.46    0.48
   5  -5  -8    3.77    0.53
   5  -5  -8    4.55    0.44
   5  -5  -8    3.66    0.49
  -5   5   8    3.34    0.45
  -5   5   8    3.08    0.21
   4  -5  -8   -0.25    0.21
   4  -5  -8   -0.17    0.18
   4  -5  -8   -0.07    0.25
   4  -5  -8   -0.23    0.20
  -4   5   8    0.05    0.09
  -4   5   8   -0.03    0.22
   3  -5  -8   30.71    0.89
   3  -5  -8   31.99    0.97
   3  -5  -8   28.89    1.02
   3  -5  -8   31.52    1.02
   3  -5  -8   31.20    0.87
  -3   5   8   28.59    0.78
  -3   5   8   31.46    0.93
  -3   5   8   30.65    0.76
   2  -5  -8    1.90    0.33
   2  -5  -8    2.33    0.28
   2  -5  -8    1.68    0.30
   2  -5  -8    1.74    0.22
   2  -5  -8    1.67    0.20
  -2   5   8    1.79    0.12
  -2   5   8    1.79    0.22
  -2   5   8    2.02    0.12
   1  -5  -8   49.65    1.24
   1  -5  -8   48.98    1.34
   1  -5  -8   48.38    1.34
   1  -5  -8   50.78    1.29
   1  -5  -8   48.14    1.34
  -1   5   8   49.83    1.26
  -1   5   8   52.71    1.20
  -1   5   8   51.81    1.20
  -1   5   8   49.63    1.21
   0  -5  -8    0.79    0.11
   0  -5  -8    0.75    0.16
   0  -5  -8    0.43    0.15
   0  -5  -8    0.48    0.16
   0  -5  -8    0.66    0.15
   0   5   8    0.64    0.09
   0   5   8    0.74    0.12
   0   5   8    0.49    0.09
   0   5   8    0.55    0.09
  -1  -5  -8   37.21    1.05
  -1  -5  -8   38.99    0.98
  -1  -5  -8   38.37    1.05
  -1  -5  -8   39.11    0.96
  -1  -5  -8   38.48    1.05
   1   5   8   38.07    0.97
   1   5   8   38.65    0.99
   1   5   8   40.39    0.97
  -2  -5  -8    1.05    0.19
  -2  -5  -8    0.85    0.13
  -2  -5  -8    1.17    0.17
  -2  -5  -8    0.93    0.15
  -2  -5  -8    1.25    0.15
   2   5   8    1.07    0.14
   2   5   8    0.96    0.13
   2   5   8    0.86    0.12
  -3  -5  -8   87.57    2.13
  -3  -5  -8   87.40    2.23
  -3  -5  -8   88.85    2.15
  -3  -5  -8   88.75    2.22
  -3  -5  -8   82.75    2.11
   3   5   8   93.26    2.08
   3   5   8   87.98    2.12
   3   5   8   89.48    2.12
  -4  -5  -8    0.69    0.23
  -4  -5  -8    1.19    0.24
  -4  -5  -8    1.07    0.19
  -4  -5  -8    1.15    0.17
  -4  -5  -8    1.19    0.17
   4   5   8    1.04    0.15
   4   5   8    0.84    0.14
   4   5   8    1.11    0.13
  -5  -5  -8   31.47    0.89
  -5  -5  -8   31.30    0.93
  -5  -5  -8   32.37    1.01
  -5  -5  -8   30.77    0.92
   5   5   8   31.78    0.91
   5   5   8   31.68    0.90
  -6  -5  -8    0.32    0.18
  -6  -5  -8    0.42    0.17
   6   5   8    0.64    0.17
   6   5   8    0.36    0.17
  -7  -5  -8    8.04    0.48
  -7  -5  -8    7.78    0.46
   7   5   8    8.09    0.43
   7   5   8    7.30    0.40
   7   5   8    7.76    0.46
  -8  -5  -8    0.59    0.26
  -8  -5  -8    0.62    0.29
  -8  -5  -8    0.32    0.22
   8   5   8    0.45    0.20
   8   5   8    0.42    0.20
   8   5   8    0.55    0.24
   8   5   8   -0.08    0.20
  -9  -5  -8    6.91    0.52
  -9  -5  -8    7.90    0.67
  -9  -5  -8    6.15    0.56
   9   5   8    6.80    0.50
   9   5   8    6.68    0.49
   9   5   8    5.99    0.68
   9   5   8    6.24    0.47
 -10  -5  -8    0.10    0.29
 -10  -5  -8   -0.60    0.28
 -10  -5  -8    0.29    0.38
  10   5   8   -0.18    0.26
  10   5   8    0.15    0.26
   5  -6  -8    0.95    0.36
   5  -6  -8    0.02    0.26
   5  -6  -8    0.23    0.28
   5  -6  -8    0.12    0.26
  -5   6   8    0.46    0.31
   4  -6  -8    5.58    0.47
   4  -6  -8    5.01    0.51
   4  -6  -8    5.02    0.43
   4  -6  -8    5.01    0.38
   4  -6  -8    5.68    0.43
  -4   6   8    4.72    0.43
   3  -6  -8    0.74    0.19
   3  -6  -8    1.69    0.47
   3  -6  -8    1.03    0.26
   3  -6  -8    1.05    0.20
   3  -6  -8    1.38    0.33
  -3   6   8    1.43    0.17
  -3   6   8    1.07    0.35
   2  -6  -8   26.46    0.85
   2  -6  -8   25.26    0.76
   2  -6  -8   25.39    0.86
   2  -6  -8   25.81    0.84
   2  -6  -8   26.75    0.78
  -2   6   8   26.86    0.65
  -2   6   8   26.64    0.65
  -2   6   8   27.55    0.78
   1  -6  -8    0.44    0.27
   1  -6  -8   -0.07    0.11
   1  -6  -8    0.47    0.15
   1  -6  -8    0.37    0.16
   1  -6  -8    0.16    0.16
  -1   6   8    0.25    0.06
  -1   6   8    0.35    0.12
  -1   6   8    0.17    0.11
   0  -6  -8   35.71    1.02
   0  -6  -8   34.75    1.01
   0  -6  -8   35.73    0.99
   0  -6  -8   35.62    0.93
   0  -6  -8   34.76    0.98
   0   6   8   36.55    0.91
   0   6   8   35.31    0.89
   0   6   8   36.77    0.89
   0   6   8   35.11    0.89
  -1  -6  -8    0.10    0.14
  -1  -6  -8    0.11    0.13
  -1  -6  -8    0.12    0.09
  -1  -6  -8    0.15    0.15
   1   6   8    0.14    0.08
   1   6   8    0.14    0.07
   1   6   8    0.19    0.09
   1   6   8    0.30    0.10
  -2  -6  -8   39.08    1.09
  -2  -6  -8   38.02    1.11
  -2  -6  -8   39.87    1.01
  -2  -6  -8   39.83    1.01
  -2  -6  -8   39.87    1.07
   2   6   8   43.28    0.95
   2   6   8   40.81    1.02
   2   6   8   38.23    1.01
  -3  -6  -8    0.10    0.17
  -3  -6  -8    0.04    0.16
  -3  -6  -8   -0.07    0.13
  -3  -6  -8   -0.03    0.10
  -3  -6  -8    0.24    0.13
   3   6   8    0.27    0.10
   3   6   8    0.11    0.09
   3   6   8    0.08    0.08
  -4  -6  -8   40.24    1.19
  -4  -6  -8   40.18    1.10
  -4  -6  -8   40.83    1.12
  -4  -6  -8   39.62    1.19
  -4  -6  -8   42.31    1.14
   4   6   8   39.39    1.08
   4   6   8   41.88    1.09
  -5  -6  -8    1.42    0.21
  -5  -6  -8    1.34    0.21
  -5  -6  -8    1.18    0.25
  -5  -6  -8    1.04    0.23
  -5  -6  -8    1.33    0.25
   5   6   8    1.57    0.22
   5   6   8    1.11    0.18
  -6  -6  -8   30.79    1.01
  -6  -6  -8   30.52    1.08
  -6  -6  -8   30.34    0.96
   6   6   8   30.03    0.91
   6   6   8   28.48    0.93
  -7  -6  -8    0.45    0.30
  -7  -6  -8    0.46    0.25
  -7  -6  -8   -0.07    0.26
   7   6   8    0.25    0.19
   7   6   8    0.48    0.16
   7   6   8   -0.03    0.16
  -8  -6  -8    7.56    0.52
  -8  -6  -8    6.90    0.56
  -8  -6  -8    6.98    0.54
   8   6   8    8.19    0.45
   8   6   8    7.98    0.50
   8   6   8    8.57    0.57
  -9  -6  -8   -0.23    0.24
  -9  -6  -8    0.07    0.28
  -9  -6  -8    0.15    0.34
   9   6   8    0.23    0.24
   9   6   8    0.24    0.31
   9   6   8    0.30    0.35
   9   6   8    0.27    0.29
 -10  -6  -8    2.59    0.42
 -10  -6  -8    3.07    0.45
 -10  -6  -8    3.09    0.53
  10   6   8    3.93    0.54
  10   6   8    1.65    0.36
   5  -7  -8    4.45    0.50
   5  -7  -8    2.82    0.46
   5  -7  -8    3.65    0.45
   5  -7  -8    2.75    0.39
   5  -7  -8    3.69    0.45
  -5   7   8    2.95    0.43
   4  -7  -8    0.10    0.25
   4  -7  -8   -0.01    0.23
   4  -7  -8   -0.05    0.27
   4  -7  -8    0.16    0.23
   4  -7  -8    0.11    0.23
  -4   7   8   -0.11    0.26
   3  -7  -8    9.64    0.53
   3  -7  -8    9.76    0.59
   3  -7  -8    9.51    0.47
   3  -7  -8    9.70    0.48
   3  -7  -8    9.63    0.53
  -3   7   8    9.70    0.45
  -3   7   8    9.62    0.36
   2  -7  -8    1.51    0.35
   2  -7  -8    1.48    0.20
   2  -7  -8    1.66    0.27
   2  -7  -8    1.87    0.31
  -2   7   8    1.58    0.23
  -2   7   8    1.57    0.11
   1  -7  -8   21.82    0.74
   1  -7  -8   21.95    0.79
   1  -7  -8   21.51    0.70
   1  -7  -8   21.54    0.66
   1  -7  -8   22.62    0.72
  -1   7   8   20.36    0.58
  -1   7   8   21.59    0.56
  -1   7   8   21.78    0.61
   0  -7  -8    2.66    0.22
   0  -7  -8    3.01    0.28
   0  -7  -8    2.96    0.26
   0  -7  -8    2.86    0.26
   0   7   8    2.93    0.17
   0   7   8    2.96    0.18
   0   7   8    2.89    0.17
   0   7   8    2.78    0.19
  -1  -7  -8   14.10    0.46
  -1  -7  -8   14.27    0.53
  -1  -7  -8   14.13    0.54
  -1  -7  -8   14.64    0.54
   1   7   8   14.04    0.43
   1   7   8   14.67    0.44
  -2  -7  -8    1.24    0.14
  -2  -7  -8    1.52    0.20
  -2  -7  -8    1.57    0.21
  -2  -7  -8    1.64    0.24
  -2  -7  -8    1.27    0.16
   2   7   8    1.17    0.16
   2   7   8    1.27    0.16
  -3  -7  -8   37.09    1.05
  -3  -7  -8   37.88    1.08
  -3  -7  -8   37.22    1.00
  -3  -7  -8   35.63    1.15
  -3  -7  -8   36.29    0.99
   3   7   8   36.64    0.99
   3   7   8   38.20    1.00
  -4  -7  -8    0.35    0.16
  -4  -7  -8    0.53    0.22
  -4  -7  -8    0.64    0.18
  -4  -7  -8    0.30    0.15
  -4  -7  -8    0.51    0.20
   4   7   8    0.28    0.13
   4   7   8    0.53    0.14
  -5  -7  -8   33.11    1.06
   5   7   8   34.17    0.97
   5   7   8   33.51    0.97
  -6  -7  -8    0.00    0.23
  -6  -7  -8   -0.08    0.18
  -6  -7  -8    0.03    0.21
   6   7   8    0.01    0.15
   6   7   8   -0.14    0.13
   6   7   8   -0.20    0.14
  -7  -7  -8    9.19    0.56
  -7  -7  -8   10.57    0.58
  -7  -7  -8   10.09    0.61
  -7  -7  -8    9.97    0.63
   7   7   8   10.57    0.50
   7   7   8   10.46    0.47
   7   7   8   10.36    0.56
   7   7   8   11.24    0.84
  -8  -7  -8    1.03    0.28
  -8  -7  -8    0.47    0.26
  -8  -7  -8    1.15    0.30
  -8  -7  -8    1.15    0.35
   8   7   8    1.10    0.22
   8   7   8    0.90    0.27
   8   7   8    0.94    0.27
  -9  -7  -8    6.23    0.55
  -9  -7  -8    6.34    0.53
  -9  -7  -8    5.63    0.56
  -9  -7  -8    6.16    0.73
   9   7   8    6.90    0.52
   9   7   8    6.35    0.68
   9   7   8    6.49    0.56
   9   7   8    6.98    0.50
 -10  -7  -8    0.07    0.30
 -10  -7  -8    0.12    0.29
 -10  -7  -8    0.08    0.46
 -10  -7  -8    0.31    0.31
  10   7   8   -0.01    0.32
  10   7   8    0.58    0.31
   4  -8  -8    5.72    0.47
   4  -8  -8    5.68    0.52
   4  -8  -8    6.04    0.50
   4  -8  -8    5.17    0.57
   4  -8  -8    4.67    0.49
  -4   8   8    4.92    0.70
   3  -8  -8    0.52    0.25
   3  -8  -8    0.21    0.27
   3  -8  -8    0.02    0.26
   3  -8  -8    0.36    0.23
   3  -8  -8    0.14    0.23
  -3   8   8    0.15    0.30
   2  -8  -8    7.95    0.48
   2  -8  -8    6.72    0.53
   2  -8  -8    8.37    0.49
   2  -8  -8    7.86    0.47
  -2   8   8    8.40    0.36
   1  -8  -8   -0.09    0.17
   1  -8  -8    0.07    0.14
   1  -8  -8    0.01    0.18
   1  -8  -8    0.28    0.17
  -1   8   8   -0.01    0.07
   0  -8  -8   25.56    0.83
   0  -8  -8   24.82    0.81
   0  -8  -8   26.73    0.78
   0  -8  -8   25.09    0.76
  -1  -8  -8    1.95    0.25
  -1  -8  -8    1.58    0.21
  -2  -8  -8   35.83    1.00
  -2  -8  -8   32.34    1.17
  -2  -8  -8   34.31    0.95
   2   8   8   35.89    0.94
  -3  -8  -8    2.03    0.23
  -3  -8  -8    2.10    0.23
  -3  -8  -8    1.35    0.26
  -3  -8  -8    1.97    0.28
   3   8   8    2.41    0.34
   3   8   8    2.05    0.21
  -4  -8  -8   10.01    0.53
  -4  -8  -8   10.54    0.59
  -4  -8  -8   10.45    0.46
  -4  -8  -8    9.97    0.50
  -4  -8  -8    9.89    0.44
   4   8   8   10.27    0.43
   4   8   8   10.20    0.44
  -5  -8  -8   -0.06    0.21
  -5  -8  -8    0.01    0.20
  -5  -8  -8    0.08    0.23
  -5  -8  -8   -0.02    0.16
   5   8   8    0.16    0.14
   5   8   8   -0.04    0.13
  -6  -8  -8   18.19    0.70
  -6  -8  -8   16.96    0.77
   6   8   8   17.28    0.68
   6   8   8   17.23    0.66
   6   8   8   17.28    0.55
   6   8   8   17.14    0.66
  -7  -8  -8   -0.18    0.23
  -7  -8  -8    0.45    0.25
  -7  -8  -8    0.04    0.23
   7   8   8    0.03    0.16
   7   8   8    0.08    0.20
   7   8   8    0.11    0.41
   7   8   8    0.38    0.23
  -8  -8  -8    6.79    0.52
  -8  -8  -8    5.82    0.51
  -8  -8  -8    7.71    0.51
  -8  -8  -8    7.31    0.70
   8   8   8    6.85    0.40
   8   8   8    6.77    0.63
   8   8   8    6.53    0.56
   8   8   8    7.42    0.52
  -9  -8  -8   -0.11    0.44
  -9  -8  -8    0.01    0.27
  -9  -8  -8    0.06    0.30
  -9  -8  -8   -0.06    0.24
   9   8   8    0.18    0.27
   9   8   8   -0.27    0.24
   9   8   8    0.42    0.59
   9   8   8   -0.39    0.34
   3  -9  -8    8.47    0.58
   3  -9  -8    7.41    0.51
   3  -9  -8    8.22    0.50
   3  -9  -8    8.48    0.53
   3  -9  -8    8.54    0.57
  -3   9   8    6.14    0.53
   2  -9  -8   -0.26    0.22
   2  -9  -8    0.05    0.22
   2  -9  -8   -0.19    0.21
   2  -9  -8   -0.43    0.23
   1  -9  -8   19.98    0.74
   1  -9  -8   20.43    0.73
   1  -9  -8   20.53    0.70
   1  -9  -8   19.08    0.78
   1  -9  -8   19.93    0.76
  -1   9   8   19.59    0.57
   0  -9  -8    1.13    0.25
   0  -9  -8    1.09    0.19
   0  -9  -8    1.02    0.25
   0   9   8    1.33    0.16
  -1  -9  -8   24.35    0.99
  -1  -9  -8   27.18    0.81
  -1  -9  -8   27.44    0.88
   1   9   8   27.31    0.76
   1   9   8   26.62    0.75
  -2  -9  -8    0.30    0.21
  -2  -9  -8    0.16    0.14
  -2  -9  -8    0.31    0.18
   2   9   8    0.12    0.12
   2   9   8    0.19    0.21
  -3  -9  -8   21.29    0.79
  -3  -9  -8   21.11    0.64
  -3  -9  -8   21.73    0.77
  -3  -9  -8   21.89    0.70
  -3  -9  -8   22.19    0.76
   3   9   8   21.34    0.69
   3   9   8   22.29    0.68
  -4  -9  -8   -0.14    0.20
  -4  -9  -8    0.38    0.21
  -4  -9  -8    0.18    0.20
  -4  -9  -8    0.22    0.17
   4   9   8    0.28    0.15
   4   9   8    0.37    0.16
  -5  -9  -8   11.98    0.74
  -5  -9  -8   12.35    0.58
  -5  -9  -8   13.59    0.64
   5   9   8   13.41    0.56
   5   9   8   12.45    0.57
   5   9   8   13.41    0.59
  -6  -9  -8    1.24    0.31
  -6  -9  -8    1.62    0.30
  -6  -9  -8    1.41    0.34
   6   9   8    1.38    0.17
   6   9   8    1.01    0.25
   6   9   8    1.59    0.31
  -7  -9  -8    4.98    0.46
  -7  -9  -8    5.60    0.48
   7   9   8    5.97    0.50
   7   9   8    5.51    0.52
   7   9   8    6.02    0.48
   7   9   8    6.82    0.40
  -8  -9  -8    0.08    0.23
  -8  -9  -8    0.16    0.28
  -8  -9  -8    0.01    0.23
   8   9   8   -0.21    0.30
   8   9   8    0.22    0.24
   8   9   8   -0.33    0.35
  -9  -9  -8    1.80    0.32
  -9  -9  -8    2.59    0.40
  -9  -9  -8    3.42    0.48
   9   9   8    3.85    0.49
   9   9   8    2.21    0.46
   9   9   8    3.00    0.46
   3 -10  -8    0.64    0.30
   3 -10  -8    1.11    0.35
   3 -10  -8    0.99    0.31
   3 -10  -8    0.76    0.33
   3 -10  -8    0.80    0.28
  -3  10   8    0.69    0.35
   2 -10  -8   10.09    0.56
   2 -10  -8    9.37    0.54
   2 -10  -8    9.46    0.75
   2 -10  -8    8.62    0.52
   2 -10  -8    9.96    0.59
  -2  10   8    9.19    0.58
   1 -10  -8    0.10    0.22
   1 -10  -8    0.22    0.21
   1 -10  -8   -0.04    0.21
   1 -10  -8    0.14    0.24
   1 -10  -8   -0.12    0.20
  -1  10   8   -0.04    0.25
  -1  10   8   -0.10    0.13
   0 -10  -8   15.10    0.66
   0 -10  -8   15.78    0.62
   0 -10  -8   15.70    0.66
   0  10   8   15.45    0.53
   0  10   8   15.28    0.68
  -1 -10  -8    0.07    0.20
  -1 -10  -8    0.06    0.16
  -1 -10  -8    0.07    0.22
   1  10   8    0.18    0.21
   1  10   8   -0.18    0.13
  -2 -10  -8   32.83    1.08
  -2 -10  -8   33.08    1.06
   2  10   8   33.32    0.96
   2  10   8   33.19    1.06
   2  10   8   33.84    0.96
  -3 -10  -8    1.15    0.27
  -3 -10  -8    0.72    0.26
   3  10   8    1.24    0.22
   3  10   8    1.21    0.20
   3  10   8    1.07    0.26
  -4 -10  -8   14.59    0.68
  -4 -10  -8   14.47    0.66
  -4 -10  -8   13.03    0.59
  -4 -10  -8   13.48    0.52
   4  10   8   13.47    0.57
   4  10   8   14.62    0.64
   4  10   8   15.04    0.57
  -5 -10  -8    0.04    0.24
  -5 -10  -8   -0.10    0.23
  -5 -10  -8    0.16    0.23
  -5 -10  -8    0.10    0.21
   5  10   8    0.46    0.25
   5  10   8    0.35    0.21
   5  10   8    0.10    0.19
  -6 -10  -8    8.49    0.57
  -6 -10  -8    8.32    0.54
  -6 -10  -8    8.90    0.55
  -6 -10  -8    6.46    0.82
   6  10   8    9.07    0.54
   6  10   8    9.44    0.56
   6  10   8    8.35    0.51
  -7 -10  -8    0.26    0.27
  -7 -10  -8    0.00    0.23
  -7 -10  -8    0.29    0.26
   7  10   8    0.00    0.29
   7  10   8   -0.04    0.26
   7  10   8    0.10    0.24
  -8 -10  -8    4.68    0.53
  -8 -10  -8    4.42    0.52
  -8 -10  -8    4.64    0.49
   8  10   8    4.63    0.50
   8  10   8    4.44    0.59
   8  10   8    5.61    0.56
  -9 -10  -8    0.90    0.29
  -9 -10  -8   -0.02    0.26
  -9 -10  -8    0.32    0.29
   9  10   8    0.46    0.42
   9  10   8    0.08    0.28
   9  10   8    0.12    0.39
   2 -11  -8    0.30    0.33
   2 -11  -8    0.58    0.27
   2 -11  -8    0.65    0.28
   2 -11  -8    0.38    0.28
   2 -11  -8    0.24    0.31
  -2  11   8    0.72    0.15
  -2  11   8    0.71    0.32
   1 -11  -8    8.63    0.55
   1 -11  -8    9.15    0.55
   1 -11  -8    9.26    0.62
   1 -11  -8    9.21    0.61
  -1  11   8    8.29    0.41
  -1  11   8    9.68    0.60
   0 -11  -8    0.92    0.28
   0 -11  -8    1.09    0.29
   0 -11  -8    0.24    0.22
   0  11   8    0.59    0.18
   0  11   8    0.92    0.29
  -1 -11  -8   10.65    0.58
  -1 -11  -8    9.35    0.56
  -1 -11  -8   10.21    0.55
   1  11   8   10.34    0.58
   1  11   8   10.44    0.46
  -2 -11  -8    0.14    0.22
  -2 -11  -8    0.36    0.23
   2  11   8    0.01    0.16
   2  11   8    0.19    0.22
   2  11   8    0.27    0.24
  -3 -11  -8   18.63    0.78
  -3 -11  -8   18.58    0.88
   3  11   8   17.87    0.68
   3  11   8   19.64    0.79
   3  11   8   19.00    0.70
  -4 -11  -8    0.15    0.25
  -4 -11  -8    0.35    0.17
  -4 -11  -8   -0.16    0.23
   4  11   8    0.18    0.24
   4  11   8    0.45    0.27
   4  11   8    0.28    0.18
  -5 -11  -8   14.94    0.69
  -5 -11  -8   16.19    0.77
  -5 -11  -8   15.47    0.64
  -5 -11  -8   16.09    0.77
   5  11   8   17.29    0.74
   5  11   8   15.20    0.71
   5  11   8   14.60    0.67
  -6 -11  -8    0.08    0.26
  -6 -11  -8   -0.01    0.29
  -6 -11  -8    0.18    0.23
  -6 -11  -8    0.36    0.26
   6  11   8   -0.27    0.27
   6  11   8    0.16    0.23
   6  11   8    0.14    0.25
  -7 -11  -8    6.50    0.56
  -7 -11  -8    5.56    0.48
  -7 -11  -8    6.02    0.67
  -7 -11  -8    6.11    0.50
   7  11   8    5.46    0.53
   7  11   8    6.37    0.58
   7  11   8    6.34    0.54
  -8 -11  -8    0.42    0.30
  -8 -11  -8    0.28    0.29
  -8 -11  -8    0.05    0.26
   8  11   8    0.07    0.35
   8  11   8    0.07    0.28
   8  11   8    0.13    0.39
   1 -12  -8    1.06    0.34
   1 -12  -8    1.10    0.39
   1 -12  -8    1.28    0.32
  -1  12   8    0.48    0.34
   0 -12  -8    4.67    0.49
   0 -12  -8    4.50    0.56
   0 -12  -8    3.65    0.48
   0  12   8    4.81    0.39
   0  12   8    4.22    0.50
  -1 -12  -8    0.33    0.27
  -1 -12  -8    0.16    0.24
   1  12   8    0.13    0.19
   1  12   8    0.46    0.28
  -2 -12  -8    9.99    0.61
  -2 -12  -8    9.66    0.58
   2  12   8    9.70    0.60
   2  12   8    9.66    0.50
  -3 -12  -8    1.04    0.29
  -3 -12  -8    0.59    0.26
   3  12   8    0.73    0.31
   3  12   8    1.43    0.29
   3  12   8    0.66    0.22
  -4 -12  -8   11.21    0.65
  -4 -12  -8   10.98    0.62
   4  12   8   11.47    0.65
   4  12   8    9.77    0.54
   4  12   8   11.93    0.86
  -5 -12  -8    0.11    0.35
  -5 -12  -8    0.00    0.25
  -5 -12  -8    0.44    0.30
  -5 -12  -8    0.14    0.27
   5  12   8    0.20    0.30
   5  12   8    0.30    0.31
   5  12   8    0.26    0.23
  -6 -12  -8    6.32    0.62
  -6 -12  -8    6.20    0.57
  -6 -12  -8    6.23    0.50
  -6 -12  -8    6.32    0.52
   6  12   8    6.39    0.61
   6  12   8    6.56    0.54
   6  12   8    6.31    0.54
  -7 -12  -8    0.27    0.30
  -7 -12  -8    0.12    0.40
  -7 -12  -8    0.30    0.30
  -7 -12  -8   -0.27    0.25
   7  12   8    0.65    0.38
   7  12   8   -0.02    0.30
   7  12   8   -0.21    0.28
  -1 -13  -8    5.05    0.55
  -1 -13  -8    5.39    0.55
   1  13   8    5.37    0.44
   1  13   8    4.17    0.56
  -2 -13  -8    0.20    0.26
  -2 -13  -8    0.31    0.28
   2  13   8    0.34    0.25
   2  13   8    0.56    0.33
  -3 -13  -8    4.47    0.52
  -3 -13  -8    3.70    0.45
   3  13   8    4.50    0.54
   3  13   8    4.03    0.54
   3  13   8    4.33    0.42
  -4 -13  -8   -0.06    0.27
  -4 -13  -8    0.68    0.29
   4  13   8    0.50    0.35
   4  13   8    0.40    0.23
   4  13   8    0.42    0.32
  -5 -13  -8    5.31    0.52
  -5 -13  -8    4.46    0.54
  -5 -13  -8    5.15    0.64
   5  13   8    4.66    0.56
   5  13   8    3.78    0.46
   5  13   8    5.98    0.57
  -6 -13  -8    0.07    0.29
  -6 -13  -8   -0.11    0.32
  -6 -13  -8    0.20    0.28
  -6 -13  -8    0.53    0.36
   6  13   8    0.27    0.30
   6  13   8    0.39    0.31
   6  13   8    0.16    0.38
   2   9  -9    1.23    0.36
   2   9  -9    1.30    0.32
   2   9  -9    1.16    0.38
  -2  -9   9    0.92    0.31
  -2  -9   9    1.31    0.36
  -2  -9   9    1.21    0.43
  -2  -9   9    1.10    0.36
   1   9  -9    0.27    0.31
   1   9  -9   -0.17    0.30
   1   9  -9   -0.12    0.84
  -1  -9   9    0.13    0.23
  -1  -9   9    0.10    0.31
  -1  -9   9    0.09    0.30
  -1  -9   9   -0.19    0.40
   0   9  -9    2.70    0.42
   0   9  -9    3.11    0.44
   0   9  -9    2.75    0.43
   0   9  -9    2.66    0.43
   0  -9   9    3.90    0.50
   0  -9   9    3.74    0.42
  -1   9  -9    0.00    0.33
  -1   9  -9    0.36    0.30
  -1   9  -9    0.16    0.30
  -1   9  -9   -0.16    0.21
   1  -9   9    0.22    0.22
   1  -9   9    0.27    0.30
  -2   9  -9    3.17    0.42
  -2   9  -9    2.54    0.40
  -2   9  -9    2.37    0.34
  -2   9  -9    2.96    0.41
   2  -9   9    2.42    0.37
   2  -9   9    2.52    0.37
   2  -9   9    3.35    0.38
  -3   9  -9    0.12    0.27
  -3   9  -9   -0.26    0.26
  -3   9  -9    0.39    0.32
  -3   9  -9    0.49    0.27
   3  -9   9    0.36    0.24
   3  -9   9    0.23    0.27
   3  -9   9    0.50    0.29
   3   8  -9    1.56    0.40
   3   8  -9    1.42    0.35
   3   8  -9    1.33    0.33
  -3  -8   9    0.79    0.36
  -3  -8   9    1.52    0.31
  -3  -8   9    1.60    0.40
  -3  -8   9    1.36    0.31
   2   8  -9    0.03    0.28
   2   8  -9    0.15    0.25
   2   8  -9    0.39    0.33
  -2  -8   9   -0.09    0.23
  -2  -8   9   -0.27    0.36
  -2  -8   9    0.57    0.29
  -2  -8   9   -0.31    0.26
   1   8  -9    3.35    0.49
   1   8  -9    3.27    0.47
   1   8  -9    2.92    0.40
   1   8  -9    3.96    0.51
  -1  -8   9    3.16    0.39
  -1  -8   9    3.30    0.42
  -1  -8   9    3.28    0.37
  -1  -8   9    3.63    0.45
   0   8  -9   -0.08    0.20
   0   8  -9    0.16    0.29
   0   8  -9    0.09    0.28
   0   8  -9   -0.50    0.28
   0  -8   9   -0.11    0.20
   0  -8   9    0.10    0.25
   0  -8   9   -0.04    0.21
   0  -8   9   -0.58    0.28
  -1   8  -9    4.03    0.41
   1  -8   9    4.83    0.46
   1  -8   9    3.87    0.39
  -2   8  -9    0.14    0.20
  -2   8  -9    0.37    0.24
  -2   8  -9   -0.28    0.23
  -2   8  -9   -0.18    0.25
  -2   8  -9    0.24    0.27
   2  -8   9    0.06    0.21
   2  -8   9    0.11    0.26
   2  -8   9    0.32    0.21
  -3   8  -9    3.06    0.41
  -3   8  -9    3.65    0.45
  -3   8  -9    3.43    0.42
  -3   8  -9    2.42    0.35
   3  -8   9    3.73    0.42
   3  -8   9    3.19    0.35
   3  -8   9    3.10    0.43
  -4   8  -9    0.42    0.25
  -4   8  -9    1.06    0.27
  -4   8  -9    0.57    0.29
  -4   8  -9   -0.25    0.21
   4  -8   9    0.21    0.26
   4  -8   9   -0.28    0.34
   4  -8   9    0.55    0.29
   4  -8   9    0.25    0.22
   4   7  -9    3.13    0.45
   4   7  -9    2.65    0.47
   4   7  -9    2.07    0.39
   4   7  -9    4.32    0.50
  -4  -7   9    4.36    0.60
  -4  -7   9    4.51    0.52
  -4  -7   9    3.39    0.47
  -4  -7   9    3.35    0.39
   3   7  -9    0.12    0.25
   3   7  -9    0.05    0.31
   3   7  -9   -0.14    0.25
   3   7  -9   -0.12    0.24
  -3  -7   9   -0.08    0.30
  -3  -7   9    0.09    0.23
  -3  -7   9   -0.07    0.23
  -3  -7   9    0.09    0.31
   2   7  -9    2.88    0.41
   2   7  -9    3.37    0.46
   2   7  -9    3.27    0.47
   2   7  -9    4.09    0.35
  -2  -7   9    4.59    0.68
  -2  -7   9    3.59    0.34
  -2  -7   9    3.89    0.47
  -2  -7   9    4.02    0.41
   1   7  -9    0.35    0.23
   1   7  -9    0.73    0.30
   1   7  -9    0.40    0.29
   1   7  -9    0.24    0.26
  -1  -7   9    0.52    0.26
  -1  -7   9    0.72    0.23
  -1  -7   9    0.63    0.27
  -1  -7   9    0.46    0.21
   0   7  -9    6.52    0.64
   0   7  -9    5.85    0.47
   0   7  -9    5.27    0.42
   0  -7   9    6.10    0.38
   0  -7   9    5.56    0.45
   0  -7   9    5.27    0.41
   0  -7   9    5.77    0.50
  -1   7  -9    0.12    0.22
  -1   7  -9    0.02    0.20
  -1   7  -9   -0.09    0.19
  -1   7  -9   -0.47    0.20
   1  -7   9    0.26    0.20
   1  -7   9    0.12    0.26
   1  -7   9   -0.07    0.18
   1  -7   9    0.07    0.22
  -2   7  -9    8.92    0.50
  -2   7  -9    8.83    0.56
  -2   7  -9    9.29    0.45
  -2   7  -9    8.77    0.51
   2  -7   9    8.05    0.45
   2  -7   9    8.52    0.43
   2  -7   9    9.35    0.67
   2  -7   9    8.19    0.51
  -3   7  -9    0.56    0.25
  -3   7  -9    0.55    0.19
  -3   7  -9    0.40    0.24
  -3   7  -9    0.04    0.18
  -3   7  -9   -0.12    0.22
   3  -7   9    0.43    0.19
   3  -7   9    0.07    0.18
   3  -7   9    0.04    0.22
  -4   7  -9    3.43    0.41
  -4   7  -9    2.87    0.38
  -4   7  -9    3.82    0.41
  -4   7  -9    2.99    0.40
   4  -7   9    3.09    0.40
   4  -7   9    3.17    0.43
   4  -7   9    3.15    0.35
  -5   7  -9    0.50    0.27
  -5   7  -9    0.50    0.25
  -5   7  -9    0.62    0.24
  -5   7  -9    0.54    0.26
   5  -7   9    0.14    0.27
   5  -7   9    0.25    0.21
   5  -7   9    0.31    0.33
   5  -7   9    0.29    0.27
  -6   7  -9    1.55    0.31
   6  -7   9    1.21    0.38
   5   6  -9    2.09    0.43
   5   6  -9    1.91    0.37
   5   6  -9    1.69    0.38
   5   6  -9    1.16    0.39
  -5  -6   9    1.52    0.36
  -5  -6   9    1.21    0.33
  -5  -6   9    1.00    0.33
   4   6  -9    0.32    0.29
   4   6  -9   -0.03    0.30
   4   6  -9    0.09    0.32
   4   6  -9   -0.10    0.24
  -4  -6   9   -0.17    0.24
  -4  -6   9   -0.09    0.27
  -4  -6   9   -0.36    0.26
  -4  -6   9    0.28    0.27
   3   6  -9    5.16    0.51
   3   6  -9    4.77    0.41
   3   6  -9    5.35    0.45
   3   6  -9    4.53    0.49
  -3  -6   9    5.22    0.46
  -3  -6   9    5.91    0.52
  -3  -6   9    5.77    0.39
  -3  -6   9    5.40    0.54
   2   6  -9    0.00    0.23
   2   6  -9    0.04    0.18
   2   6  -9   -0.01    0.25
   2   6  -9    0.13    0.22
  -2  -6   9   -0.13    0.15
  -2  -6   9   -0.04    0.19
  -2  -6   9   -0.01    0.27
  -2  -6   9   -0.34    0.26
   1   6  -9    9.00    0.55
   1   6  -9   10.96    0.59
   1   6  -9    9.93    0.51
   1   6  -9    9.94    0.41
   1   6  -9    9.12    0.66
  -1  -6   9   10.44    0.40
  -1  -6   9   10.20    0.58
  -1  -6   9   10.40    0.52
  -1  -6   9    9.32    0.53
   0   6  -9    0.38    0.20
   0   6  -9    0.82    0.17
   0   6  -9    1.05    0.24
   0   6  -9    0.84    0.22
   0   6  -9    1.26    0.26
   0  -6   9    0.38    0.14
   0  -6   9    0.77    0.23
   0  -6   9    0.42    0.25
   0  -6   9    0.43    0.19
  -1   6  -9    9.41    0.43
  -1   6  -9    8.06    0.50
  -1   6  -9    8.81    0.45
  -1   6  -9    8.20    0.48
  -1   6  -9    9.25    0.47
   1  -6   9    8.87    0.47
   1  -6   9    9.25    0.37
   1  -6   9    7.85    0.49
   1  -6   9    9.75    0.50
  -2   6  -9    0.43    0.20
  -2   6  -9    0.67    0.21
  -2   6  -9    0.55    0.24
  -2   6  -9    1.02    0.19
  -2   6  -9    0.85    0.23
   2  -6   9    0.46    0.24
   2  -6   9    0.59    0.15
   2  -6   9    0.56    0.20
   2  -6   9    0.55    0.23
  -3   6  -9   10.07    0.52
  -3   6  -9   10.46    0.53
  -3   6  -9    9.37    0.49
  -3   6  -9    9.23    0.39
   3  -6   9    9.43    0.47
   3  -6   9    9.23    0.41
   3  -6   9    9.28    0.51
   3  -6   9    9.64    0.55
  -4   6  -9    0.35    0.24
  -4   6  -9    0.51    0.21
  -4   6  -9    0.39    0.24
  -4   6  -9    0.56    0.23
   4  -6   9    0.78    0.19
   4  -6   9    0.80    0.24
   4  -6   9    0.58    0.20
  -5   6  -9    5.51    0.43
  -5   6  -9    5.55    0.43
  -5   6  -9    4.79    0.44
  -5   6  -9    5.05    0.43
   5  -6   9    4.38    0.54
   5  -6   9    5.15    0.41
   5  -6   9    5.24    0.44
   5  -6   9    4.79    0.39
  -6   6  -9    0.69    0.24
  -6   6  -9    0.67    0.25
  -6   6  -9    0.35    0.24
   6  -6   9    0.37    0.29
   6  -6   9    0.57    0.22
   6  -6   9    0.34    0.27
   6  -6   9    0.25    0.30
   5   5  -9   -0.41    0.27
   5   5  -9    0.73    0.37
   5   5  -9   -0.27    0.28
   5   5  -9   -0.30    0.28
  -5  -5   9   -0.19    0.28
  -5  -5   9    0.32    0.30
  -5  -5   9    0.00    0.27
   4   5  -9    5.32    0.55
   4   5  -9    5.73    0.49
   4   5  -9    4.77    0.52
   4   5  -9    7.29    0.58
  -4  -5   9    5.34    0.50
  -4  -5   9    6.84    0.53
  -4  -5   9    6.36    0.49
   3   5  -9    0.00    0.21
   3   5  -9    0.29    0.24
   3   5  -9    0.04    0.23
   3   5  -9    0.25    0.27
  -3  -5   9    0.17    0.26
  -3  -5   9    0.01    0.22
  -3  -5   9    0.20    0.19
  -3  -5   9    0.08    0.22
   2   5  -9    9.24    0.55
   2   5  -9    9.70    0.57
   2   5  -9    9.78    0.45
   2   5  -9   10.55    0.53
  -2  -5   9   10.26    0.57
  -2  -5   9    9.61    0.56
  -2  -5   9   10.34    0.40
  -2  -5   9   10.23    0.79
   1   5  -9   -0.11    0.16
   1   5  -9   -0.07    0.21
   1   5  -9   -0.25    0.21
   1   5  -9    0.12    0.19
  -1  -5   9   -0.31    0.26
  -1  -5   9   -0.05    0.12
  -1  -5   9    0.08    0.23
  -1  -5   9    0.31    0.19
   0   5  -9    7.21    0.43
   0   5  -9    8.15    0.50
   0   5  -9    7.82    0.35
   0   5  -9    7.72    0.45
   0   5  -9    8.45    0.37
   0  -5   9    8.09    0.31
   0  -5   9    7.95    0.47
   0  -5   9    7.75    0.42
   0  -5   9    8.12    0.43
  -1   5  -9    0.51    0.20
  -1   5  -9    0.39    0.18
  -1   5  -9    0.49    0.18
  -1   5  -9    0.20    0.26
   1  -5   9    0.75    0.12
   1  -5   9    0.36    0.17
   1  -5   9    0.27    0.21
   1  -5   9    1.00    0.21
  -2   5  -9   13.21    0.51
  -2   5  -9   12.06    0.57
  -2   5  -9   13.76    0.49
  -2   5  -9   13.74    0.56
  -2   5  -9   12.46    0.78
   2  -5   9   13.31    0.58
   2  -5   9   12.92    0.47
   2  -5   9   14.16    0.56
   2  -5   9   11.86    0.66
  -3   5  -9    0.91    0.23
  -3   5  -9    1.06    0.20
  -3   5  -9    1.11    0.24
   3  -5   9    1.23    0.17
   3  -5   9    1.32    0.24
   3  -5   9    0.79    0.24
   3  -5   9    0.87    0.22
  -4   5  -9   14.21    0.57
  -4   5  -9   14.39    0.60
  -4   5  -9   13.85    0.58
   4  -5   9   14.60    0.72
   4  -5   9   12.89    0.60
   4  -5   9   14.88    0.51
   4  -5   9   12.57    0.56
  -5   5  -9    0.88    0.23
  -5   5  -9    0.61    0.21
  -5   5  -9    0.96    0.25
  -5   5  -9    0.83    0.24
   5  -5   9    0.59    0.23
   5  -5   9    0.85    0.20
   5  -5   9    0.60    0.21
  -6   5  -9    4.17    0.40
  -6   5  -9    4.59    0.42
  -6   5  -9    4.57    0.34
  -6   5  -9    4.53    0.41
   6  -5   9    4.12    0.38
   6  -5   9    4.34    0.42
   6  -5   9    4.63    0.50
   6  -5   9    4.85    0.43
  -7   5  -9    0.68    0.28
  -7   5  -9    0.75    0.23
  -7   5  -9    0.68    0.30
   7  -5   9    0.39    0.23
   7  -5   9    0.85    0.29
   7  -5   9    0.75    0.32
   7  -5   9    0.46    0.28
   6   4  -9    0.38    0.33
   6   4  -9   -0.31    0.36
   6   4  -9    0.38    0.34
   6   4  -9    0.45    0.39
  -6  -4   9    0.04    0.33
  -6  -4   9   -0.58    0.32
  -6  -4   9   -0.20    0.28
   5   4  -9    4.09    0.50
   5   4  -9    4.01    0.48
   5   4  -9    3.60    0.51
   5   4  -9    3.80    0.53
   5   4  -9    2.83    0.43
  -5  -4   9    3.99    0.48
  -5  -4   9    3.91    0.50
  -5  -4   9    4.03    0.49
   4   4  -9    0.28    0.28
   4   4  -9    0.27    0.27
   4   4  -9   -0.08    0.25
  -4  -4   9    0.16    0.21
  -4  -4   9    0.01    0.24
  -4  -4   9   -0.10    0.24
   3   4  -9    3.96    0.44
   3   4  -9    4.56    0.39
   3   4  -9    3.66    0.45
   3   4  -9    4.07    0.39
  -3  -4   9    3.75    0.44
  -3  -4   9    3.47    0.40
  -3  -4   9    3.38    0.39
   2   4  -9    0.35    0.28
   2   4  -9    0.63    0.18
   2   4  -9   -0.13    0.17
   2   4  -9    0.21    0.25
  -2  -4   9    0.34    0.25
  -2  -4   9    0.07    0.13
  -2  -4   9    0.45    0.20
  -2  -4   9    0.44    0.19
   1   4  -9   14.48    0.55
   1   4  -9   14.73    0.47
   1   4  -9   13.95    0.60
   1   4  -9   15.26    0.52
  -1  -4   9   14.69    0.44
  -1  -4   9   15.35    0.58
  -1  -4   9   14.41    0.57
   0   4  -9   -0.02    0.14
   0   4  -9    0.19    0.16
   0   4  -9    0.06    0.19
   0   4  -9    0.13    0.14
   0   4  -9    0.20    0.18
   0   4  -9    0.14    0.14
   0  -4   9   -0.06    0.18
   0  -4   9   -0.27    0.16
   0  -4   9    0.29    0.12
   0  -4   9    0.00    0.14
  -1   4  -9   15.04    0.54
  -1   4  -9   14.33    0.56
  -1   4  -9   14.92    0.49
  -1   4  -9   14.78    0.55
  -1   4  -9   14.53    0.48
  -1   4  -9   14.32    0.57
   1  -4   9   14.53    0.55
   1  -4   9   14.42    0.58
   1  -4   9   14.43    0.56
  -2   4  -9    0.60    0.17
  -2   4  -9    0.42    0.16
  -2   4  -9    0.75    0.18
  -2   4  -9    0.71    0.16
  -2   4  -9    0.31    0.19
   2  -4   9    0.72    0.20
   2  -4   9    0.73    0.12
   2  -4   9    0.92    0.18
   2  -4   9    0.40    0.16
  -3   4  -9   11.34    0.48
  -3   4  -9   10.90    0.47
  -3   4  -9   11.53    0.40
  -3   4  -9   11.19    0.49
  -3   4  -9   10.92    0.46
   3  -4   9   10.58    0.38
   3  -4   9   10.20    0.46
   3  -4   9   10.94    0.49
  -4   4  -9    0.84    0.19
  -4   4  -9    0.79    0.21
  -4   4  -9    0.96    0.14
  -4   4  -9    1.03    0.20
  -4   4  -9    0.76    0.21
   4  -4   9    0.75    0.22
   4  -4   9    0.97    0.16
   4  -4   9    0.94    0.23
   4  -4   9    0.79    0.26
  -5   4  -9   15.73    0.63
  -5   4  -9   15.26    0.63
  -5   4  -9   15.80    0.67
   5  -4   9   15.87    0.56
   5  -4   9   15.37    0.60
   5  -4   9   15.26    0.65
  -6   4  -9    0.14    0.21
  -6   4  -9    0.15    0.20
  -6   4  -9    0.02    0.20
   6  -4   9    0.18    0.22
   6  -4   9    0.13    0.20
   6  -4   9    0.55    0.28
  -7   4  -9    4.09    0.41
  -7   4  -9    4.75    0.41
  -7   4  -9    3.41    0.40
   7  -4   9    4.28    0.49
   7  -4   9    4.54    0.38
   7  -4   9    3.62    0.42
   7  -4   9    3.82    0.49
  -8   4  -9    0.28    0.27
  -8   4  -9    0.12    0.23
  -8   4  -9    0.38    0.21
   8  -4   9    0.75    0.33
   8  -4   9    0.42    0.29
   8  -4   9    0.53    0.31
   8  -4   9    0.17    0.23
   6   3  -9    1.75    0.38
   6   3  -9    1.68    0.38
   6   3  -9    1.78    0.36
   6   3  -9    2.31    0.41
  -6  -3   9    1.29    0.33
  -6  -3   9    1.46    0.37
  -6  -3   9    1.44    0.39
   5   3  -9    0.25    0.27
   5   3  -9   -0.05    0.25
   5   3  -9   -0.24    0.31
   5   3  -9    0.65    0.28
  -5  -3   9   -0.32    0.34
  -5  -3   9   -0.06    0.30
  -5  -3   9    0.28    0.22
   4   3  -9    6.96    0.54
   4   3  -9    6.83    0.48
   4   3  -9    6.53    0.54
   4   3  -9    6.86    0.54
   4   3  -9    7.28    0.45
  -4  -3   9    7.32    0.45
  -4  -3   9    6.96    0.46
  -4  -3   9    6.24    0.51
   3   3  -9   -0.05    0.25
   3   3  -9   -0.33    0.19
   3   3  -9    0.15    0.22
  -3  -3   9    0.02    0.18
  -3  -3   9    0.06    0.23
   2   3  -9   11.13    0.53
   2   3  -9   10.72    0.56
   2   3  -9   10.90    0.46
   2   3  -9   10.49    0.49
  -2  -3   9   11.28    0.47
  -2  -3   9    9.67    0.67
  -2  -3   9   10.71    0.47
  -2  -3   9   10.58    0.38
   1   3  -9   -0.21    0.20
   1   3  -9    0.07    0.19
   1   3  -9   -0.17    0.15
   1   3  -9    0.03    0.18
   1   3  -9    0.20    0.14
  -1  -3   9   -0.17    0.19
  -1  -3   9   -0.08    0.12
  -1  -3   9    0.02    0.09
  -1  -3   9   -0.15    0.12
   0   3  -9   19.03    0.65
   0   3  -9   19.51    0.60
   0   3  -9   18.90    0.67
   0   3  -9   18.52    0.63
   0   3  -9   19.57    0.66
   0   3  -9   19.05    0.55
   0  -3   9   19.11    0.67
   0  -3   9   19.48    0.64
   0  -3   9   19.98    0.55
   0  -3   9   18.87    0.63
  -1   3  -9    0.46    0.16
  -1   3  -9    0.41    0.15
  -1   3  -9    0.56    0.22
  -1   3  -9    0.79    0.15
  -1   3  -9    0.68    0.17
  -1   3  -9    0.23    0.14
   1  -3   9    0.57    0.22
   1  -3   9    0.44    0.15
   1  -3   9    0.74    0.16
   1  -3   9    0.85    0.17
  -2   3  -9   19.00    0.58
  -2   3  -9   17.86    0.58
  -2   3  -9   18.25    0.62
  -2   3  -9   17.71    0.69
  -2   3  -9   18.35    0.62
   2  -3   9   18.25    0.62
   2  -3   9   19.35    0.50
   2  -3   9   18.90    0.62
   2  -3   9   18.35    0.65
  -3   3  -9    0.69    0.17
  -3   3  -9    0.48    0.12
  -3   3  -9    0.29    0.15
  -3   3  -9    0.42    0.16
   3  -3   9    0.39    0.19
   3  -3   9    0.45    0.11
   3  -3   9    0.21    0.15
  -4   3  -9   13.22    0.51
  -4   3  -9   12.86    0.49
  -4   3  -9   13.08    0.40
  -4   3  -9   12.81    0.52
  -4   3  -9   12.89    0.52
   4  -3   9   14.15    0.56
   4  -3   9   12.67    0.51
   4  -3   9   13.11    0.52
   4  -3   9   12.89    0.54
  -5   3  -9   -0.05    0.18
  -5   3  -9    0.11    0.17
  -5   3  -9    0.11    0.13
  -5   3  -9    0.20    0.16
   5  -3   9    0.26    0.20
   5  -3   9    0.23    0.19
   5  -3   9    0.03    0.13
   5  -3   9    0.05    0.18
  -6   3  -9    9.27    0.48
  -6   3  -9    8.81    0.49
  -6   3  -9    8.88    0.37
  -6   3  -9    8.22    0.49
   6  -3   9    8.72    0.44
   6  -3   9    7.55    0.47
   6  -3   9    7.87    0.45
  -7   3  -9    0.81    0.25
  -7   3  -9    0.75    0.23
  -7   3  -9    0.33    0.21
   7  -3   9    0.74    0.27
   7  -3   9    0.75    0.21
   7  -3   9    0.60    0.24
   7  -3   9    0.47    0.24
  -8   3  -9    3.75    0.42
  -8   3  -9    3.16    0.41
  -8   3  -9    3.29    0.41
   8  -3   9    3.69    0.50
   8  -3   9    3.96    0.47
   8  -3   9    3.38    0.39
   6   2  -9    0.49    0.31
   6   2  -9    1.31    0.36
   6   2  -9    0.13    0.29
   6   2  -9    0.15    0.28
  -6  -2   9   -0.30    0.34
  -6  -2   9    0.11    0.23
  -6  -2   9   -0.33    0.30
   5   2  -9    7.36    0.54
   5   2  -9    8.87    0.61
   5   2  -9    6.77    0.55
   5   2  -9    6.99    0.56
  -5  -2   9    6.63    0.48
  -5  -2   9    8.07    0.59
  -5  -2   9    8.07    0.49
   4   2  -9    0.46    0.27
   4   2  -9    0.11    0.23
   4   2  -9   -0.26    0.22
   4   2  -9    0.54    0.17
   4   2  -9    0.38    0.24
  -4  -2   9    0.35    0.19
  -4  -2   9    0.12    0.26
  -4  -2   9    0.68    0.28
   3   2  -9    6.76    0.41
   3   2  -9    6.87    0.51
   3   2  -9    6.77    0.35
   3   2  -9    7.25    0.53
   3   2  -9    6.26    0.45
  -3  -2   9    7.57    0.49
  -3  -2   9    7.32    0.38
   2   2  -9    1.01    0.22
   2   2  -9    1.07    0.21
   2   2  -9    1.45    0.25
   2   2  -9    0.88    0.22
  -2  -2   9    1.01    0.18
  -2  -2   9    1.14    0.24
  -2  -2   9    1.13    0.19
   1   2  -9   24.36    0.79
   1   2  -9   24.01    0.74
   1   2  -9   25.52    0.73
   1   2  -9   24.13    0.79
  -1  -2   9   25.11    0.74
  -1  -2   9   23.85    0.81
  -1  -2   9   24.93    0.61
  -1  -2   9   22.99    0.73
   0   2  -9    0.40    0.15
   0   2  -9    0.08    0.14
   0   2  -9   -0.06    0.12
   0   2  -9    0.09    0.13
   0   2  -9    0.23    0.12
   0   2  -9    0.37    0.18
   0  -2   9    0.19    0.17
   0  -2   9    0.17    0.12
   0  -2   9   -0.14    0.11
  -1   2  -9   48.24    1.19
  -1   2  -9   48.82    1.24
  -1   2  -9   49.14    1.26
  -1   2  -9   47.28    1.29
  -1   2  -9   47.34    1.25
  -1   2  -9   47.90    1.26
   1  -2   9   49.23    1.26
   1  -2   9   46.75    1.29
   1  -2   9   46.52    1.27
  -2   2  -9    0.71    0.14
  -2   2  -9    0.82    0.19
  -2   2  -9    0.85    0.16
  -2   2  -9    0.76    0.16
  -2   2  -9    0.72    0.16
   2  -2   9    0.39    0.14
   2  -2   9    0.61    0.08
   2  -2   9    0.46    0.18
   2  -2   9    0.73    0.16
  -3   2  -9   10.20    0.41
  -3   2  -9   10.70    0.42
  -3   2  -9   10.08    0.42
  -3   2  -9   10.82    0.44
  -3   2  -9   10.78    0.39
   3  -2   9   10.33    0.42
   3  -2   9   10.34    0.33
   3  -2   9    9.66    0.45
   3  -2   9   10.37    0.43
  -4   2  -9    1.02    0.17
  -4   2  -9    1.18    0.13
  -4   2  -9    1.10    0.25
  -4   2  -9    1.34    0.21
  -4   2  -9    1.06    0.19
   4  -2   9    1.25    0.18
   4  -2   9    1.04    0.19
   4  -2   9    1.20    0.21
  -5   2  -9    8.99    0.38
  -5   2  -9   10.37    0.45
  -5   2  -9    9.16    0.47
  -5   2  -9    9.34    0.43
   5  -2   9    9.60    0.45
   5  -2   9    8.76    0.48
   5  -2   9    8.77    0.42
   5  -2   9    9.23    0.37
  -6   2  -9   -0.08    0.16
  -6   2  -9    0.10    0.19
   6  -2   9    0.05    0.19
   6  -2   9    0.32    0.21
   6  -2   9    0.21    0.21
   6  -2   9   -0.22    0.30
  -7   2  -9    7.73    0.48
  -7   2  -9    8.00    0.45
  -7   2  -9    6.49    0.45
   7  -2   9    7.13    0.43
   7  -2   9    6.56    0.50
   7  -2   9    6.43    0.44
  -8   2  -9    0.25    0.24
  -8   2  -9    0.44    0.24
  -8   2  -9    0.02    0.21
   8  -2   9    0.01    0.24
   8  -2   9    0.48    0.23
  -9   2  -9    1.17    0.27
  -9   2  -9    0.73    0.30
  -9   2  -9    1.17    0.32
   9  -2   9    1.54    0.30
   9  -2   9    1.72    0.58
   9  -2   9    0.97    0.34
   6   1  -9    1.61    0.35
   6   1  -9    1.44    0.35
   6   1  -9    2.13    0.38
  -6  -1   9    1.02    0.37
  -6  -1   9    1.28    0.26
  -6  -1   9    1.71    0.33
   5   1  -9    0.09    0.33
   5   1  -9    0.23    0.26
   5   1  -9    0.13    0.27
   5   1  -9   -0.08    0.25
  -5  -1   9    0.13    0.24
  -5  -1   9    0.12    0.28
  -5  -1   9    0.08    0.19
   4   1  -9    9.25    0.39
   4   1  -9    9.48    0.55
   4   1  -9    9.67    0.58
   4   1  -9   10.53    0.64
   4   1  -9    9.02    0.52
  -4  -1   9    8.98    0.57
  -4  -1   9    8.63    0.45
  -4  -1   9    9.44    0.44
   3   1  -9    0.18    0.13
   3   1  -9    0.02    0.23
   3   1  -9    0.09    0.20
   3   1  -9    0.12    0.20
   3   1  -9   -0.10    0.19
  -3  -1   9    0.26    0.18
  -3  -1   9    0.01    0.14
  -3  -1   9    0.30    0.26
   2   1  -9   27.21    0.89
   2   1  -9   27.73    0.85
   2   1  -9   27.55    0.88
   2   1  -9   27.96    0.75
  -2  -1   9   27.40    0.89
  -2  -1   9   27.66    0.79
  -2  -1   9   25.43    0.79
   1   1  -9    1.56    0.22
   1   1  -9    1.91    0.24
   1   1  -9    2.15    0.14
   1   1  -9    1.97    0.20
   1   1  -9    1.99    0.25
  -1  -1   9    1.97    0.26
  -1  -1   9    1.48    0.20
  -1  -1   9    1.69    0.22
   0   1  -9   31.33    0.80
   0   1  -9   29.82    0.88
   0   1  -9   31.07    0.84
   0   1  -9   30.42    0.89
   0   1  -9   29.81    0.83
   0   1  -9   31.25    0.87
   0  -1   9   29.99    0.89
   0  -1   9   29.51    0.84
   0  -1   9   29.30    0.85
  -1   1  -9    0.14    0.13
  -1   1  -9    0.03    0.12
  -1   1  -9    0.20    0.11
  -1   1  -9    0.09    0.12
  -1   1  -9    0.41    0.13
  -1   1  -9    0.09    0.12
   1  -1   9    0.29    0.11
   1  -1   9    0.29    0.11
   1  -1   9    0.29    0.15
  -2   1  -9   34.66    0.91
  -2   1  -9   33.53    0.93
  -2   1  -9   32.59    0.94
  -2   1  -9   35.31    1.04
  -2   1  -9   34.01    0.89
  -2   1  -9   34.71    0.92
   2  -1   9   32.97    0.95
   2  -1   9   33.34    0.93
   2  -1   9   32.14    0.92
  -3   1  -9    1.27    0.18
  -3   1  -9    1.03    0.17
  -3   1  -9    1.38    0.18
  -3   1  -9    1.42    0.19
  -3   1  -9    1.17    0.16
   3  -1   9    0.97    0.18
   3  -1   9    1.09    0.17
   3  -1   9    1.27    0.17
  -4   1  -9   23.78    0.74
  -4   1  -9   22.14    0.74
  -4   1  -9   24.10    0.74
  -4   1  -9   24.39    0.75
  -4   1  -9   24.24    0.71
   4  -1   9   24.75    0.75
   4  -1   9   24.43    0.74
   4  -1   9   24.11    0.73
  -5   1  -9    0.92    0.20
  -5   1  -9    1.13    0.20
  -5   1  -9    1.17    0.15
  -5   1  -9    0.83    0.19
   5  -1   9    1.06    0.19
   5  -1   9    0.84    0.17
   5  -1   9    1.11    0.21
  -6   1  -9    7.35    0.40
  -6   1  -9    6.46    0.39
  -6   1  -9    6.93    0.43
   6  -1   9    6.72    0.39
   6  -1   9    7.32    0.47
   6  -1   9    5.83    0.61
  -7   1  -9    0.52    0.20
  -7   1  -9    0.37    0.22
  -7   1  -9    0.92    0.22
   7  -1   9    0.57    0.22
   7  -1   9    0.52    0.24
   7  -1   9    0.62    0.20
  -8   1  -9    5.31    0.45
  -8   1  -9    5.74    0.43
  -8   1  -9    5.65    0.45
   8  -1   9    4.91    0.41
   8  -1   9    5.39    0.48
  -9   1  -9   -0.03    0.24
  -9   1  -9   -0.33    0.26
   9  -1   9   -0.12    0.27
   9  -1   9   -0.04    0.24
   9  -1   9    0.11    0.46
   6   0  -9   -0.47    0.27
   6   0  -9    0.02    0.28
   6   0  -9    0.41    0.29
  -6   0   9   -0.13    0.19
  -6   0   9    0.31    0.32
   5   0  -9    5.44    0.48
   5   0  -9    6.05    0.54
   5   0  -9    6.06    0.47
  -5   0   9    6.47    0.42
  -5   0   9    5.84    0.54
  -5   0   9    5.52    0.39
   4   0  -9    0.41    0.24
   4   0  -9    0.43    0.26
   4   0  -9    0.72    0.25
  -4   0   9    0.62    0.17
  -4   0   9    0.70    0.28
  -4   0   9    0.51    0.18
   3   0  -9   11.53    0.56
   3   0  -9   11.45    0.50
   3   0  -9   11.86    0.53
   3   0  -9   12.24    0.60
  -3   0   9   11.11    0.45
  -3   0   9   11.69    0.64
  -3   0   9   12.08    0.45
   2   0  -9    0.30    0.19
   2   0  -9    0.42    0.11
   2   0  -9    0.37    0.19
   2   0  -9    0.45    0.18
   2   0  -9    0.85    0.26
  -2   0   9    0.41    0.14
  -2   0   9    0.42    0.25
  -2   0   9    0.49    0.13
   1   0  -9   23.96    0.66
   1   0  -9   24.50    0.75
   1   0  -9   24.57    0.75
   1   0  -9   23.89    0.76
   1   0  -9   25.16    0.61
  -1   0   9   23.90    0.69
  -1   0   9   23.23    0.69
  -1   0   9   23.08    0.76
   0   0  -9    1.50    0.21
   0   0  -9    1.78    0.24
   0   0  -9    1.50    0.17
   0   0  -9    1.49    0.20
   0   0   9    1.21    0.15
   0   0   9    1.71    0.17
   0   0   9    1.33    0.20
  -1   0  -9   41.73    1.13
  -1   0  -9   42.39    1.06
  -1   0  -9   42.62    1.12
  -1   0  -9   41.62    1.09
  -1   0  -9   42.93    1.12
  -1   0  -9   43.97    1.09
   1   0   9   40.90    1.09
   1   0   9   40.98    1.12
   1   0   9   41.04    1.09
  -2   0  -9    1.24    0.18
  -2   0  -9    1.45    0.18
  -2   0  -9    1.09    0.15
  -2   0  -9    0.88    0.14
  -2   0  -9    1.26    0.17
  -2   0  -9    1.02    0.17
   2   0   9    0.92    0.14
   2   0   9    0.89    0.14
   2   0   9    0.85    0.16
  -3   0  -9   41.27    1.06
  -3   0  -9   39.55    1.02
  -3   0  -9   38.37    1.05
  -3   0  -9   39.93    1.05
  -3   0  -9   40.14    1.06
   3   0   9   39.36    1.07
   3   0   9   37.41    1.05
   3   0   9   39.08    1.06
  -4   0  -9    1.98    0.24
  -4   0  -9    2.04    0.17
  -4   0  -9    1.83    0.22
  -4   0  -9    2.17    0.26
   4   0   9    1.51    0.21
   4   0   9    2.34    0.24
   4   0   9    1.91    0.24
  -5   0  -9   23.52    0.74
  -5   0  -9   24.67    0.63
  -5   0  -9   22.52    0.75
  -5   0  -9   23.16    0.73
   5   0   9   23.49    0.73
   5   0   9   22.98    0.73
   5   0   9   23.50    0.75
  -6   0  -9    1.30    0.22
  -6   0  -9    1.40    0.26
   6   0   9    1.46    0.21
   6   0   9    1.23    0.21
   6   0   9    1.46    0.22
  -7   0  -9   10.92    0.60
  -7   0  -9   10.08    0.50
  -7   0  -9    9.89    0.53
   7   0   9    9.94    0.53
   7   0   9   10.56    0.49
   7   0   9    9.47    0.49
   7   0   9   10.04    0.56
  -8   0  -9   -0.07    0.20
  -8   0  -9    0.26    0.23
   8   0   9    0.02    0.22
   8   0   9    0.16    0.19
  -9   0  -9    3.40    0.41
  -9   0  -9    3.64    0.46
  -9   0  -9    3.27    0.40
   9   0   9    2.87    0.39
   9   0   9    2.14    0.35
   6  -1  -9    2.12    0.39
   6  -1  -9    1.86    0.37
   6  -1  -9    2.17    0.37
  -6   1   9    1.94    0.38
  -6   1   9    2.00    0.28
   5  -1  -9    0.07    0.26
   5  -1  -9   -0.05    0.23
   5  -1  -9   -0.38    0.23
  -5   1   9    0.22    0.17
  -5   1   9   -0.04    0.25
   4  -1  -9    3.66    0.46
   4  -1  -9    4.02    0.39
   4  -1  -9    4.09    0.41
  -4   1   9    4.29    0.30
  -4   1   9    3.79    0.30
  -4   1   9    4.09    0.45
   3  -1  -9    0.92    0.42
   3  -1  -9    0.54    0.24
   3  -1  -9    0.36    0.20
  -3   1   9    0.81    0.25
  -3   1   9    0.32    0.13
   2  -1  -9   33.58    0.79
   2  -1  -9   31.29    1.05
   2  -1  -9   31.41    1.17
   2  -1  -9   31.30    1.11
  -2   1   9   33.21    0.87
  -2   1   9   31.26    0.97
   1  -1  -9    2.72    0.26
   1  -1  -9    2.79    0.26
   1  -1  -9    2.93    0.26
   1  -1  -9    2.91    0.17
   1  -1  -9    3.31    0.19
  -1   1   9    2.97    0.27
  -1   1   9    3.04    0.21
  -1   1   9    3.32    0.20
   0  -1  -9   25.42    0.76
   0  -1  -9   25.77    0.76
   0  -1  -9   24.58    0.76
   0  -1  -9   24.98    0.68
   0  -1  -9   24.67    0.68
   0   1   9   25.75    0.71
   0   1   9   25.63    0.75
   0   1   9   24.57    0.71
  -1  -1  -9    0.33    0.15
  -1  -1  -9    0.30    0.14
  -1  -1  -9    0.13    0.12
  -1  -1  -9    0.17    0.12
  -1  -1  -9    0.40    0.11
  -1  -1  -9    0.24    0.14
  -1  -1  -9    0.40    0.13
   1   1   9    0.31    0.10
   1   1   9    0.38    0.10
   1   1   9    0.24    0.12
  -2  -1  -9   25.35    0.72
  -2  -1  -9   25.72    0.73
  -2  -1  -9   25.90    0.72
  -2  -1  -9   25.72    0.72
  -2  -1  -9   25.35    0.75
   2   1   9   25.47    0.73
   2   1   9   24.85    0.71
   2   1   9   24.82    0.71
  -3  -1  -9    3.58    0.24
  -3  -1  -9    2.79    0.27
  -3  -1  -9    3.54    0.26
  -3  -1  -9    3.37    0.21
   3   1   9    3.06    0.23
   3   1   9    3.43    0.24
   3   1   9    3.22    0.23
  -4  -1  -9   68.82    1.76
  -4  -1  -9   71.39    1.81
  -4  -1  -9   70.53    1.79
  -4  -1  -9   75.24    1.80
   4   1   9   74.25    1.81
   4   1   9   71.92    1.82
   4   1   9   72.19    1.79
  -5  -1  -9    0.56    0.16
  -5  -1  -9    0.79    0.20
  -5  -1  -9    0.63    0.17
  -5  -1  -9    0.60    0.12
   5   1   9    0.56    0.15
   5   1   9    0.66    0.17
   5   1   9    0.95    0.18
  -6  -1  -9   14.02    0.59
  -6  -1  -9   15.04    0.56
  -6  -1  -9   14.48    0.56
   6   1   9   13.50    0.60
   6   1   9   14.74    0.55
   6   1   9   13.66    0.54
  -7  -1  -9    1.28    0.29
   7   1   9    1.40    0.24
   7   1   9    1.18    0.22
  -8  -1  -9    6.11    0.42
  -8  -1  -9    5.39    0.48
  -8  -1  -9    6.01    0.55
   8   1   9    6.34    0.43
   8   1   9    6.04    0.48
  -9  -1  -9    0.45    0.29
  -9  -1  -9    0.27    0.29
  -9  -1  -9    0.42    0.24
   9   1   9    0.11    0.23
   9   1   9   -0.06    0.21
 -10  -1  -9    2.06    0.38
 -10  -1  -9    3.02    0.44
 -10  -1  -9    2.66    0.42
  10   1   9    2.01    0.36
  10   1   9    2.45    0.51
  10   1   9    2.66    0.38
   6  -2  -9   -0.03    0.26
   6  -2  -9    0.57    0.33
   6  -2  -9   -0.24    0.27
  -6   2   9   -0.11    0.30
  -6   2   9    0.04    0.17
   5  -2  -9    5.68    0.47
   5  -2  -9    5.85    0.55
   5  -2  -9    6.12    0.47
  -5   2   9    5.44    0.50
  -5   2   9    5.65    0.34
   4  -2  -9    0.10    0.22
   4  -2  -9    0.31    0.24
   4  -2  -9   -0.17    0.24
  -4   2   9    0.00    0.13
  -4   2   9    0.44    0.26
   3  -2  -9   14.10    0.56
   3  -2  -9   12.92    0.61
   3  -2  -9   14.87    0.96
  -3   2   9   13.49    0.46
  -3   2   9   13.86    0.46
  -3   2   9   13.28    0.59
   2  -2  -9    2.14    0.20
   2  -2  -9    2.59    0.29
   2  -2  -9    1.97    0.26
   2  -2  -9    2.56    0.31
  -2   2   9    2.43    0.19
  -2   2   9    2.18    0.27
   1  -2  -9   26.61    0.82
   1  -2  -9   26.65    0.71
   1  -2  -9   26.44    0.82
   1  -2  -9   26.59    0.85
  -1   2   9   27.24    0.80
  -1   2   9   26.06    0.73
  -1   2   9   27.46    0.73
   0  -2  -9    1.55    0.22
   0  -2  -9    1.36    0.14
   0  -2  -9    1.38    0.16
   0  -2  -9    1.33    0.19
   0   2   9    1.44    0.19
   0   2   9    1.08    0.15
   0   2   9    1.34    0.20
  -1  -2  -9   50.93    1.29
  -1  -2  -9   48.76    1.24
  -1  -2  -9   51.30    1.20
  -1  -2  -9   50.57    1.31
  -1  -2  -9   50.28    1.32
   1   2   9   50.36    1.26
   1   2   9   51.08    1.28
   1   2   9   48.80    1.26
  -2  -2  -9    0.07    0.10
  -2  -2  -9   -0.27    0.12
  -2  -2  -9    0.04    0.16
  -2  -2  -9    0.02    0.09
   2   2   9   -0.06    0.09
   2   2   9   -0.08    0.10
   2   2   9   -0.09    0.08
  -3  -2  -9   40.86    1.08
  -3  -2  -9   41.71    1.14
  -3  -2  -9   41.80    1.07
   3   2   9   41.29    1.09
   3   2   9   41.78    1.08
   3   2   9   40.95    1.08
  -4  -2  -9    1.22    0.17
  -4  -2  -9    0.85    0.22
  -4  -2  -9    0.92    0.14
   4   2   9    1.11    0.17
   4   2   9    0.98    0.16
   4   2   9    0.95    0.16
  -5  -2  -9   23.68    0.75
  -5  -2  -9   24.27    0.67
  -5  -2  -9   24.34    0.79
   5   2   9   24.25    0.74
   5   2   9   25.38    0.75
   5   2   9   24.24    0.73
  -6  -2  -9   -0.22    0.16
  -6  -2  -9    0.13    0.15
   6   2   9    0.16    0.14
   6   2   9    0.04    0.15
   6   2   9    0.00    0.14
  -7  -2  -9   11.52    0.67
  -7  -2  -9   13.07    0.58
   7   2   9   12.86    0.53
   7   2   9   12.22    0.57
   7   2   9   12.14    0.55
  -8  -2  -9    0.29    0.25
  -8  -2  -9    0.25    0.21
  -8  -2  -9    0.19    0.26
   8   2   9    0.25    0.19
   8   2   9    0.10    0.25
   8   2   9   -0.01    0.21
  -9  -2  -9    2.97    0.42
  -9  -2  -9    3.50    0.42
  -9  -2  -9    3.24    0.43
   9   2   9    4.11    0.45
   9   2   9    3.28    0.38
 -10  -2  -9    0.72    0.34
 -10  -2  -9    0.50    0.30
 -10  -2  -9    0.58    0.33
  10   2   9    0.56    0.28
  10   2   9    0.55    0.27
   6  -3  -9    3.64    0.51
   6  -3  -9    4.17    0.50
   6  -3  -9    4.45    0.51
  -6   3   9    3.20    0.45
  -6   3   9    3.05    0.32
   5  -3  -9    1.14    0.33
   5  -3  -9    0.46    0.25
   5  -3  -9    0.58    0.27
  -5   3   9    0.57    0.31
  -5   3   9    0.90    0.17
   4  -3  -9    8.29    0.49
   4  -3  -9    7.87    0.49
   4  -3  -9    7.64    0.56
  -4   3   9    7.83    0.34
  -4   3   9    7.78    0.51
   3  -3  -9   -0.09    0.21
   3  -3  -9    0.02    0.26
  -3   3   9    0.04    0.11
  -3   3   9    0.20    0.20
   2  -3  -9   30.69    0.99
   2  -3  -9   32.48    0.83
   2  -3  -9   30.90    0.95
   2  -3  -9   30.35    0.95
  -2   3   9   31.26    0.82
  -2   3   9   31.91    0.94
   1  -3  -9    0.94    0.20
   1  -3  -9    0.81    0.17
   1  -3  -9    1.01    0.14
   1  -3  -9    0.76    0.18
  -1   3   9    1.08    0.18
  -1   3   9    1.09    0.18
   0  -3  -9   55.95    1.32
   0  -3  -9   55.62    1.41
   0  -3  -9   56.49    1.47
   0  -3  -9   57.55    1.49
   0   3   9   55.60    1.38
   0   3   9   58.44    1.43
   0   3   9   55.66    1.39
  -1  -3  -9    3.04    0.23
  -1  -3  -9    3.19    0.26
  -1  -3  -9    3.04    0.18
  -1  -3  -9    2.87    0.23
  -1  -3  -9    2.89    0.25
   1   3   9    3.14    0.19
   1   3   9    2.99    0.19
   1   3   9    2.90    0.21
  -2  -3  -9   31.30    0.93
  -2  -3  -9   34.00    0.97
  -2  -3  -9   33.17    0.90
  -2  -3  -9   33.40    0.90
  -2  -3  -9   32.72    0.87
   2   3   9   32.88    0.88
   2   3   9   32.99    0.87
   2   3   9   32.06    0.87
  -3  -3  -9    1.14    0.17
  -3  -3  -9    1.32    0.17
  -3  -3  -9    1.08    0.24
  -3  -3  -9    1.40    0.18
  -3  -3  -9    1.14    0.10
   3   3   9    1.12    0.15
   3   3   9    1.16    0.15
   3   3   9    1.28    0.16
  -4  -3  -9   39.98    1.03
  -4  -3  -9   38.00    1.13
  -4  -3  -9   39.02    1.06
  -4  -3  -9   39.02    1.06
   4   3   9   39.18    1.02
   4   3   9   39.55    1.06
   4   3   9   39.05    1.09
  -5  -3  -9    2.01    0.20
  -5  -3  -9    2.14    0.25
  -5  -3  -9    1.92    0.23
  -5  -3  -9    2.12    0.30
   5   3   9    2.08    0.21
   5   3   9    1.69    0.24
   5   3   9    1.70    0.22
  -6  -3  -9   14.72    0.58
  -6  -3  -9   14.34    0.56
   6   3   9   15.08    0.64
   6   3   9   14.46    0.51
   6   3   9   14.69    0.56
  -7  -3  -9    0.11    0.21
  -7  -3  -9    0.37    0.31
   7   3   9    0.09    0.29
   7   3   9   -0.09    0.19
   7   3   9    0.02    0.19
  -8  -3  -9    6.70    0.59
  -8  -3  -9    5.21    0.50
  -8  -3  -9    5.63    0.45
   8   3   9    5.62    0.41
   8   3   9    6.48    0.49
   8   3   9    6.17    0.46
  -9  -3  -9    0.01    0.24
  -9  -3  -9    0.32    0.30
  -9  -3  -9    0.06    0.32
   9   3   9   -0.17    0.22
   9   3   9    0.17    0.19
 -10  -3  -9    1.49    0.39
 -10  -3  -9    2.30    0.39
 -10  -3  -9    2.35    0.44
  10   3   9    1.88    0.35
  10   3   9    2.08    0.36
   5  -4  -9    6.52    0.51
   5  -4  -9    9.48    0.63
   5  -4  -9   10.14    0.70
  -5   4   9    7.80    0.55
  -5   4   9    7.92    0.35
   4  -4  -9    0.32    0.23
   4  -4  -9    0.29    0.26
   4  -4  -9    0.04    0.22
   4  -4  -9    0.75    0.19
  -4   4   9    0.62    0.13
  -4   4   9    0.47    0.27
   3  -4  -9   21.05    0.67
   3  -4  -9   21.08    0.63
   3  -4  -9   20.57    0.83
   3  -4  -9   20.88    0.77
   3  -4  -9   21.85    0.77
  -3   4   9   20.61    0.59
  -3   4   9   21.33    0.74
   2  -4  -9   -0.12    0.29
   2  -4  -9    0.38    0.18
   2  -4  -9    0.31    0.13
   2  -4  -9    0.06    0.14
   2  -4  -9    0.25    0.21
  -2   4   9    0.15    0.15
  -2   4   9    0.26    0.14
   1  -4  -9   16.78    0.52
   1  -4  -9   16.55    0.62
   1  -4  -9   16.34    0.49
   1  -4  -9   15.76    0.71
   1  -4  -9   16.63    0.71
  -1   4   9   17.43    0.48
  -1   4   9   17.25    0.55
  -1   4   9   16.20    0.48
   0  -4  -9    0.47    0.10
   0  -4  -9    0.25    0.15
   0  -4  -9    0.48    0.14
   0  -4  -9    0.38    0.15
   0   4   9    0.77    0.14
   0   4   9    0.26    0.09
  -1  -4  -9   62.70    1.78
  -1  -4  -9   72.72    1.64
  -1  -4  -9   71.33    1.79
  -1  -4  -9   70.49    1.68
  -1  -4  -9   72.04    1.77
  -1  -4  -9   70.44    1.80
   1   4   9   74.29    1.76
   1   4   9   70.81    1.71
   1   4   9   73.65    1.71
  -2  -4  -9    0.35    0.07
  -2  -4  -9    0.50    0.14
  -2  -4  -9    0.31    0.11
  -2  -4  -9    0.27    0.17
  -2  -4  -9    0.40    0.13
  -2  -4  -9    0.22    0.17
   2   4   9    0.33    0.11
   2   4   9    0.19    0.09
   2   4   9    0.21    0.10
  -3  -4  -9   54.74    1.40
  -3  -4  -9   54.89    1.51
  -3  -4  -9   54.04    1.39
  -3  -4  -9   55.29    1.40
  -3  -4  -9   55.22    1.30
  -3  -4  -9   54.59    1.46
   3   4   9   56.38    1.39
   3   4   9   55.64    1.35
   3   4   9   54.63    1.39
  -4  -4  -9    0.08    0.22
  -4  -4  -9    0.21    0.12
  -4  -4  -9    0.19    0.16
  -4  -4  -9    0.01    0.12
   4   4   9    0.17    0.11
   4   4   9    0.36    0.12
   4   4   9    0.14    0.12
  -5  -4  -9   14.49    0.63
  -5  -4  -9   15.48    0.56
  -5  -4  -9   15.67    0.77
  -5  -4  -9   15.27    0.50
   5   4   9   15.05    0.49
   5   4   9   14.31    0.53
   5   4   9   15.04    0.53
  -6  -4  -9    0.87    0.32
  -6  -4  -9    1.07    0.21
  -6  -4  -9    1.70    0.25
   6   4   9    1.06    0.19
   6   4   9    1.68    0.31
   6   4   9    1.87    0.24
  -7  -4  -9   16.12    0.88
  -7  -4  -9   18.16    0.71
   7   4   9   19.34    0.69
   7   4   9   18.66    0.71
   7   4   9   16.51    0.86
  -8  -4  -9    0.21    0.22
  -8  -4  -9   -0.01    0.25
  -8  -4  -9    0.13    0.24
   8   4   9    0.01    0.19
   8   4   9   -0.33    0.22
  -9  -4  -9    3.73    0.56
  -9  -4  -9    2.66    0.43
  -9  -4  -9    3.68    0.44
   9   4   9    3.95    0.43
   9   4   9    3.24    0.41
   9   4   9    3.93    0.70
 -10  -4  -9   -0.32    0.31
 -10  -4  -9    0.07    0.26
 -10  -4  -9    0.19    0.37
  10   4   9    0.12    0.27
  10   4   9    0.39    0.28
   5  -5  -9    0.71    0.31
   5  -5  -9    1.23    0.36
   5  -5  -9    0.63    0.38
  -5   5   9    0.74    0.30
  -5   5   9    0.70    0.14
   4  -5  -9    7.67    0.58
   4  -5  -9    7.27    0.51
   4  -5  -9    6.56    0.48
   4  -5  -9    6.95    0.51
   4  -5  -9    6.79    0.41
  -4   5   9    6.97    0.27
  -4   5   9    6.99    0.51
   3  -5  -9    0.29    0.26
   3  -5  -9    0.27    0.23
   3  -5  -9    0.48    0.18
   3  -5  -9    0.26    0.23
   3  -5  -9    0.71    0.18
  -3   5   9    0.53    0.11
  -3   5   9    0.59    0.21
   2  -5  -9   14.33    0.50
   2  -5  -9   14.31    0.60
   2  -5  -9   15.13    0.64
   2  -5  -9   14.54    0.50
   2  -5  -9   13.35    0.62
  -2   5   9   14.52    0.42
  -2   5   9   14.74    0.52
   1  -5  -9    0.26    0.19
   1  -5  -9    0.32    0.18
   1  -5  -9    0.16    0.11
   1  -5  -9    0.37    0.16
   1  -5  -9    0.20    0.14
  -1   5   9    0.43    0.13
  -1   5   9    0.18    0.08
  -1   5   9    0.44    0.10
   0  -5  -9   34.81    0.88
   0  -5  -9   33.13    0.99
   0  -5  -9   34.37    0.96
   0  -5  -9   34.36    1.01
   0   5   9   34.32    0.88
   0   5   9   35.42    0.88
   0   5   9   36.30    0.92
  -1  -5  -9    1.23    0.14
  -1  -5  -9    1.19    0.19
  -1  -5  -9    1.36    0.21
  -1  -5  -9    1.15    0.19
   1   5   9    1.23    0.14
   1   5   9    1.15    0.15
   1   5   9    1.09    0.15
  -2  -5  -9   44.36    1.18
  -2  -5  -9   43.40    1.13
  -2  -5  -9   43.97    1.07
  -2  -5  -9   44.36    1.22
  -2  -5  -9   43.47    1.19
   2   5   9   45.51    1.13
   2   5   9   43.09    1.13
   2   5   9   47.18    1.10
  -3  -5  -9    1.28    0.18
  -3  -5  -9    1.02    0.23
  -3  -5  -9    1.33    0.18
  -3  -5  -9    1.06    0.14
  -3  -5  -9    1.31    0.23
   3   5   9    1.34    0.16
   3   5   9    1.29    0.14
   3   5   9    1.38    0.17
  -4  -5  -9   47.00    1.36
  -4  -5  -9   44.79    1.32
  -4  -5  -9   46.55    1.23
  -4  -5  -9   46.58    1.24
  -4  -5  -9   48.01    1.25
  -4  -5  -9   47.34    1.19
   4   5   9   47.11    1.16
   4   5   9   46.26    1.22
   4   5   9   46.64    1.23
  -5  -5  -9    1.66    0.22
  -5  -5  -9    2.01    0.31
  -5  -5  -9    2.02    0.26
  -5  -5  -9    1.72    0.22
   5   5   9    1.84    0.19
   5   5   9    1.50    0.26
   5   5   9    1.92    0.22
  -6  -5  -9   24.34    0.88
  -6  -5  -9   25.11    0.98
  -6  -5  -9   23.11    0.79
   6   5   9   24.57    0.78
   6   5   9   24.03    0.85
  -7  -5  -9    0.32    0.23
  -7  -5  -9    0.24    0.28
  -7  -5  -9    0.04    0.23
   7   5   9    0.00    0.18
   7   5   9    0.21    0.19
  -8  -5  -9    8.47    0.53
  -8  -5  -9    8.47    0.59
  -8  -5  -9    9.22    0.58
   8   5   9    8.34    0.55
   8   5   9    8.13    0.48
   8   5   9    7.54    0.47
  -9  -5  -9   -0.28    0.29
  -9  -5  -9    0.64    0.36
  -9  -5  -9   -0.01    0.23
   9   5   9    0.41    0.25
   9   5   9   -0.15    0.21
   9   5   9    0.44    0.42
   9   5   9    0.10    0.28
 -10  -5  -9    1.31    0.39
 -10  -5  -9    1.63    0.35
 -10  -5  -9    2.19    0.45
  10   5   9    1.72    0.36
  10   5   9    1.64    0.33
   5  -6  -9    2.22    0.33
   5  -6  -9    1.53    0.35
   5  -6  -9    2.48    0.48
   5  -6  -9    3.22    0.45
   5  -6  -9    2.27    0.38
  -5   6   9    1.39    0.34
   4  -6  -9    0.59    0.30
   4  -6  -9    0.06    0.23
   4  -6  -9    0.20    0.49
   4  -6  -9    0.13    0.23
   4  -6  -9    0.90    0.28
  -4   6   9    0.74    0.29
   3  -6  -9   12.57    0.53
   3  -6  -9   13.31    0.61
   3  -6  -9   12.56    0.59
   3  -6  -9   13.87    0.67
  -3   6   9   13.61    0.62
   2  -6  -9    2.72    0.27
   2  -6  -9    2.83    0.35
   2  -6  -9    3.14    0.36
   2  -6  -9    3.43    0.28
   2  -6  -9    2.86    0.34
  -2   6   9    3.14    0.16
  -2   6   9    3.41    0.26
   1  -6  -9   10.83    0.49
   1  -6  -9   10.53    0.40
   1  -6  -9   10.86    0.49
   1  -6  -9   10.10    0.48
   1  -6  -9   10.54    0.43
  -1   6   9   10.37    0.38
   0  -6  -9   -0.11    0.13
   0  -6  -9   -0.17    0.13
   0  -6  -9    0.22    0.11
   0   6   9    0.04    0.08
   0   6   9    0.01    0.10
   0   6   9    0.05    0.10
  -1  -6  -9   24.46    0.78
  -1  -6  -9   25.97    0.81
  -1  -6  -9   24.84    0.68
  -1  -6  -9   25.84    0.80
   1   6   9   25.22    0.69
   1   6   9   26.54    0.70
   1   6   9   26.23    0.67
  -2  -6  -9   -0.13    0.15
  -2  -6  -9   -0.02    0.11
  -2  -6  -9    0.03    0.13
  -2  -6  -9   -0.05    0.13
  -2  -6  -9   -0.04    0.09
   2   6   9    0.11    0.09
   2   6   9    0.04    0.08
   2   6   9    0.34    0.10
  -3  -6  -9   52.57    1.39
  -3  -6  -9   50.48    1.43
  -3  -6  -9   50.93    1.27
  -3  -6  -9   51.47    1.34
  -3  -6  -9   51.24    1.36
   3   6   9   50.30    1.31
   3   6   9   51.56    1.32
   3   6   9   53.85    1.23
  -4  -6  -9    0.68    0.18
  -4  -6  -9    0.59    0.23
  -4  -6  -9    0.66    0.15
  -4  -6  -9    0.74    0.24
  -4  -6  -9    0.97    0.18
   4   6   9    0.90    0.16
   4   6   9    0.58    0.13
   4   6   9    0.71    0.12
  -5  -6  -9   22.26    0.81
  -5  -6  -9   22.36    0.91
  -5  -6  -9   21.57    0.69
  -5  -6  -9   21.53    0.73
  -5  -6  -9   19.28    0.94
   5   6   9   21.87    0.70
   5   6   9   21.51    0.69
  -6  -6  -9    2.64    0.38
  -6  -6  -9    2.60    0.33
  -6  -6  -9    2.73    0.33
  -6  -6  -9    3.02    0.39
   6   6   9    3.18    0.32
   6   6   9    2.81    0.29
  -7  -6  -9   15.04    0.66
  -7  -6  -9   15.05    0.73
  -7  -6  -9   14.23    0.68
   7   6   9   14.00    0.61
   7   6   9   14.91    0.56
   7   6   9   14.66    0.62
  -8  -6  -9    0.06    0.22
  -8  -6  -9   -0.24    0.23
  -8  -6  -9   -0.39    0.29
   8   6   9   -0.08    0.21
   8   6   9    0.16    0.18
  -9  -6  -9    3.81    0.52
  -9  -6  -9    4.62    0.49
  -9  -6  -9    4.96    0.70
   9   6   9    4.80    0.63
   9   6   9    4.95    0.47
   9   6   9    5.53    0.48
   9   6   9    4.17    0.48
 -10  -6  -9   -0.11    0.30
 -10  -6  -9   -0.07    0.43
 -10  -6  -9    0.40    0.32
  10   6   9   -0.09    0.27
  10   6   9    0.06    0.28
   4  -7  -9    3.56    0.44
   4  -7  -9    3.65    0.47
   4  -7  -9    4.98    0.56
   4  -7  -9    3.35    0.44
   4  -7  -9    4.29    0.48
  -4   7   9    3.90    0.47
   3  -7  -9    0.65    0.29
   3  -7  -9    0.24    0.28
   3  -7  -9    0.43    0.26
   3  -7  -9    0.82    0.25
   3  -7  -9    0.24    0.22
   2  -7  -9   14.86    0.69
   2  -7  -9   14.22    0.63
   2  -7  -9   15.15    0.64
   2  -7  -9   13.80    0.56
   2  -7  -9   14.70    0.54
  -2   7   9   14.50    0.41
  -2   7   9   14.74    0.56
   1  -7  -9    0.69    0.23
   1  -7  -9    0.53    0.23
   1  -7  -9    0.24    0.23
   1  -7  -9    0.51    0.16
  -1   7   9    0.49    0.10
   0  -7  -9   26.92    0.86
   0  -7  -9   28.14    0.94
   0  -7  -9   25.99    0.76
   0  -7  -9   26.82    0.82
   0   7   9   27.57    0.71
   0   7   9   26.69    0.72
  -1  -7  -9    2.35    0.44
  -1  -7  -9    2.43    0.20
  -1  -7  -9    1.99    0.25
  -1  -7  -9    2.19    0.28
   1   7   9    2.06    0.14
   1   7   9    2.41    0.18
  -2  -7  -9   12.36    0.54
  -2  -7  -9   13.37    0.48
  -2  -7  -9   13.07    0.43
   2   7   9   12.69    0.43
  -3  -7  -9    0.56    0.16
  -3  -7  -9    0.25    0.17
  -3  -7  -9    0.32    0.19
  -3  -7  -9    0.24    0.12
  -3  -7  -9    0.23    0.13
   3   7   9    0.45    0.13
  -4  -7  -9   23.35    0.74
  -4  -7  -9   22.00    0.68
  -4  -7  -9   22.51    0.91
  -4  -7  -9   22.52    0.79
  -4  -7  -9   21.86    0.73
   4   7   9   23.56    0.75
   4   7   9   23.32    0.71
  -5  -7  -9    0.12    0.18
  -5  -7  -9    0.19    0.15
  -5  -7  -9    0.45    0.25
  -5  -7  -9   -0.03    0.20
   5   7   9    0.19    0.14
   5   7   9    0.23    0.14
  -6  -7  -9   16.58    0.67
  -6  -7  -9   14.31    0.85
   6   7   9   16.48    0.62
   6   7   9   16.51    0.62
  -7  -7  -9    0.06    0.37
  -7  -7  -9    0.20    0.26
  -7  -7  -9   -0.12    0.24
  -7  -7  -9    0.05    0.24
   7   7   9    0.14    0.16
   7   7   9    0.32    0.19
   7   7   9    0.15    0.20
  -8  -7  -9    4.86    0.51
  -8  -7  -9    5.97    0.66
  -8  -7  -9    4.85    0.49
  -8  -7  -9    5.28    0.50
   8   7   9    5.50    0.47
   8   7   9    6.55    0.81
   8   7   9    5.80    0.54
   8   7   9    5.22    0.46
  -9  -7  -9    0.74    0.33
  -9  -7  -9    0.26    0.27
  -9  -7  -9    0.51    0.45
  -9  -7  -9    0.24    0.31
   9   7   9    0.81    0.44
   9   7   9    0.06    0.51
   9   7   9    0.40    0.29
   9   7   9    0.47    0.27
 -10  -7  -9    1.52    0.37
   4  -8  -9   -0.17    0.30
   4  -8  -9   -0.10    0.26
   4  -8  -9   -0.31    0.26
   4  -8  -9    0.23    0.27
  -4   8   9   -0.93    0.36
   3  -8  -9   10.15    0.63
   3  -8  -9   11.65    0.62
   3  -8  -9   10.20    0.54
   3  -8  -9   10.22    0.57
   3  -8  -9   10.24    0.56
   2  -8  -9    1.10    0.23
   2  -8  -9    0.65    0.25
   2  -8  -9    0.80    0.25
   2  -8  -9    1.02    0.25
   2  -8  -9    0.58    0.33
   1  -8  -9   18.45    0.70
   1  -8  -9   19.68    0.78
   1  -8  -9   17.78    0.68
   1  -8  -9   17.77    0.75
   1  -8  -9   18.71    0.72
  -1   8   9   18.11    0.52
   0  -8  -9    1.04    0.18
   0  -8  -9    0.88    0.22
   0  -8  -9    0.86    0.26
   0  -8  -9    1.03    0.23
   0   8   9    0.73    0.12
  -1  -8  -9   17.61    0.57
  -1  -8  -9   18.28    0.66
  -1  -8  -9   17.82    0.73
   1   8   9   17.75    0.54
   1   8   9   17.80    0.54
  -2  -8  -9    0.12    0.18
  -2  -8  -9    0.19    0.13
  -2  -8  -9    0.14    0.15
   2   8   9    0.28    0.13
   2   8   9    0.07    0.11
  -3  -8  -9   18.41    0.73
  -3  -8  -9   19.84    0.58
  -3  -8  -9   19.14    0.61
  -3  -8  -9   18.61    0.67
  -3  -8  -9   18.94    0.68
   3   8   9   19.73    0.61
   3   8   9   19.01    0.61
  -4  -8  -9    3.05    0.36
  -4  -8  -9    2.94    0.28
  -4  -8  -9    3.35    0.32
  -4  -8  -9    3.64    0.43
   4   8   9    3.10    0.26
   4   8   9    3.34    0.28
  -5  -8  -9   11.87    0.53
  -5  -8  -9   12.65    0.55
  -5  -8  -9   12.79    0.65
   5   8   9   12.85    0.51
   5   8   9   12.07    0.51
  -6  -8  -9    0.32    0.27
  -6  -8  -9    0.01    0.22
  -6  -8  -9    0.07    0.23
   6   8   9   -0.06    0.18
   6   8   9    0.20    0.18
  -7  -8  -9    6.84    0.52
  -7  -8  -9    6.24    0.52
  -7  -8  -9    6.61    0.51
   7   8   9    7.25    0.49
   7   8   9    6.11    0.39
   7   8   9    6.68    0.47
  -8  -8  -9    0.22    0.24
  -8  -8  -9    0.54    0.27
  -8  -8  -9   -0.38    0.24
   8   8   9   -0.39    0.27
   8   8   9    0.01    0.32
   8   8   9    0.07    0.19
   8   8   9    0.44    0.24
  -9  -8  -9    3.04    0.41
  -9  -8  -9    3.34    0.61
  -9  -8  -9    4.56    0.54
   9   8   9    4.40    0.48
   9   8   9    4.29    0.47
   9   8   9    3.14    0.44
   9   8   9    5.50    0.71
   3  -9  -9    0.45    0.27
   3  -9  -9    0.07    0.30
   3  -9  -9    0.27    0.25
   3  -9  -9    0.45    0.31
   3  -9  -9    0.55    0.27
  -3   9   9    0.11    0.28
   2  -9  -9    7.09    0.54
   2  -9  -9    7.64    0.53
   2  -9  -9    6.91    0.49
   2  -9  -9    6.50    0.49
   2  -9  -9    6.68    0.48
   1  -9  -9    0.34    0.23
   1  -9  -9    0.14    0.22
   1  -9  -9    0.14    0.18
   1  -9  -9   -0.01    0.21
   1  -9  -9   -0.13    0.22
  -1   9   9   -0.04    0.11
   0  -9  -9   26.49    0.87
   0  -9  -9   25.65    0.88
   0  -9  -9   26.24    0.80
   0  -9  -9   25.35    0.89
   0   9   9   25.63    0.72
  -1  -9  -9    0.78    0.23
  -1  -9  -9    1.01    0.28
  -1  -9  -9    0.89    0.18
   1   9   9    1.06    0.17
  -2  -9  -9   23.77    0.82
  -2  -9  -9   23.85    0.74
   2   9   9   22.92    0.72
   2   9   9   24.61    0.72
  -3  -9  -9   -0.01    0.25
  -3  -9  -9    0.05    0.12
  -3  -9  -9   -0.08    0.18
  -3  -9  -9   -0.14    0.14
  -3  -9  -9    0.00    0.41
   3   9   9    0.00    0.14
  -4  -9  -9   12.91    0.65
  -4  -9  -9   13.42    0.51
  -4  -9  -9   13.38    0.63
  -4  -9  -9   13.29    0.53
   4   9   9   12.97    0.51
   4   9   9   13.32    0.53
  -5  -9  -9    0.20    0.20
  -5  -9  -9   -0.35    0.24
  -5  -9  -9   -0.33    0.22
   5   9   9   -0.06    0.16
   5   9   9   -0.19    0.20
  -6  -9  -9   11.84    0.67
  -6  -9  -9   11.34    0.64
  -6  -9  -9   12.52    0.72
  -6  -9  -9   12.91    0.66
   6   9   9   13.00    0.60
   6   9   9   13.24    0.62
   6   9   9   13.07    0.46
  -7  -9  -9    0.78    0.27
  -7  -9  -9    0.75    0.27
  -7  -9  -9    0.94    0.30
   7   9   9    0.88    0.27
   7   9   9    1.04    0.19
   7   9   9    0.87    0.29
   7   9   9    0.66    0.26
  -8  -9  -9    5.47    0.52
  -8  -9  -9    5.10    0.52
  -8  -9  -9    3.91    0.46
   8   9   9    5.16    0.49
   8   9   9    5.05    0.54
   8   9   9    4.46    0.57
   8   9   9    3.92    0.49
  -9  -9  -9    0.44    0.31
  -9  -9  -9   -0.04    0.29
  -9  -9  -9    0.11    0.26
   9   9   9   -0.19    0.27
   9   9   9    0.21    0.39
   9   9   9    0.37    0.35
   2 -10  -9    0.30    0.29
   2 -10  -9    0.04    0.25
   2 -10  -9    0.57    0.28
   2 -10  -9    0.43    0.25
   2 -10  -9    0.57    0.29
  -2  10   9    0.33    0.28
   1 -10  -9    7.88    0.52
   1 -10  -9    7.48    0.51
   1 -10  -9    7.39    0.48
   1 -10  -9    8.50    0.54
   1 -10  -9    7.30    0.49
  -1  10   9    6.89    0.50
  -1  10   9    7.20    0.33
   0 -10  -9    0.57    0.24
   0 -10  -9    0.57    0.24
   0 -10  -9    0.76    0.22
   0  10   9    0.77    0.16
  -1 -10  -9   22.15    0.82
  -1 -10  -9   21.26    0.72
  -1 -10  -9   20.78    0.79
   1  10   9   20.73    0.66
  -2 -10  -9    0.09    0.21
  -2 -10  -9    0.07    0.21
   2  10   9   -0.01    0.13
   2  10   9   -0.13    0.16
  -3 -10  -9   22.66    0.87
  -3 -10  -9   22.74    0.83
   3  10   9   22.51    0.75
   3  10   9   23.81    0.75
  -4 -10  -9    0.02    0.26
  -4 -10  -9    0.04    0.17
  -4 -10  -9   -0.01    0.23
  -4 -10  -9   -0.15    0.20
   4  10   9   -0.02    0.16
   4  10   9   -0.25    0.16
   4  10   9    0.20    0.22
  -5 -10  -9   13.54    0.64
  -5 -10  -9   13.60    0.60
  -5 -10  -9   13.94    0.69
  -5 -10  -9   14.52    0.72
   5  10   9   14.05    0.61
   5  10   9   14.96    0.63
   5  10   9   14.70    0.65
  -6 -10  -9   -0.03    0.27
  -6 -10  -9   -0.03    0.23
  -6 -10  -9   -0.06    0.26
   6  10   9    0.09    0.22
   6  10   9    0.07    0.27
   6  10   9    0.02    0.23
  -7 -10  -9    7.85    0.61
  -7 -10  -9    7.31    0.53
  -7 -10  -9    7.33    0.70
  -7 -10  -9    6.75    0.55
   7  10   9    6.99    0.52
   7  10   9    8.09    0.54
   7  10   9    6.92    0.53
  -8 -10  -9    0.84    0.33
  -8 -10  -9    0.10    0.27
  -8 -10  -9    0.11    0.26
   8  10   9   -0.52    0.25
   8  10   9   -0.21    0.31
   8  10   9    0.30    0.33
   1 -11  -9    0.09    0.22
   1 -11  -9    0.39    0.28
   1 -11  -9   -0.05    0.28
  -1  11   9    0.31    0.28
  -1  11   9    0.11    0.17
   0 -11  -9    9.79    0.60
   0 -11  -9    9.06    0.60
   0 -11  -9    9.41    0.54
   0  11   9    8.74    0.41
   0  11   9    8.45    0.57
  -1 -11  -9    1.42    0.27
  -1 -11  -9    0.53    0.25
  -1 -11  -9    0.64    0.27
   1  11   9    1.02    0.21
   1  11   9    0.68    0.27
  -2 -11  -9   16.15    0.71
  -2 -11  -9   16.52    0.73
   2  11   9   15.86    0.60
   2  11   9   15.79    0.71
  -3 -11  -9    0.53    0.42
  -3 -11  -9    0.82    0.27
  -3 -11  -9    1.38    0.31
   3  11   9    0.58    0.20
   3  11   9    0.95    0.29
   3  11   9    0.95    0.23
  -4 -11  -9    9.78    0.61
  -4 -11  -9   11.29    0.63
   4  11   9   10.79    0.60
   4  11   9   10.07    0.52
  -5 -11  -9    0.10    0.29
  -5 -11  -9    0.07    0.24
  -5 -11  -9    0.05    0.27
  -5 -11  -9    0.36    0.24
   5  11   9    0.19    0.21
   5  11   9    0.16    0.26
  -6 -11  -9    8.75    0.64
  -6 -11  -9    9.28    0.58
  -6 -11  -9    9.02    0.58
  -6 -11  -9    8.03    0.64
   6  11   9    9.03    0.54
   6  11   9    8.70    0.59
   6  11   9    9.20    0.62
  -7 -11  -9    0.30    0.26
  -7 -11  -9    0.02    0.36
  -7 -11  -9   -0.35    0.27
  -7 -11  -9    0.02    0.26
   7  11   9    0.30    0.27
   7  11   9   -0.15    0.28
   7  11   9   -0.25    0.31
  -8 -11  -9    5.70    0.80
  -8 -11  -9    5.39    0.59
  -8 -11  -9    6.25    0.59
  -8 -11  -9    5.74    0.54
   8  11   9    4.78    0.57
   8  11   9    5.29    0.56
   8  11   9    5.39    0.65
   0 -12  -9    1.15    0.29
   0 -12  -9    0.65    0.34
   0 -12  -9    1.24    0.33
   0  12   9    0.36    0.32
   0  12   9    0.68    0.22
  -1 -12  -9    5.68    0.55
  -1 -12  -9    4.90    0.52
  -1 -12  -9    4.48    0.48
   1  12   9    4.86    0.38
   1  12   9    4.95    0.50
  -2 -12  -9    0.68    0.29
  -2 -12  -9    0.44    0.25
   2  12   9    0.37    0.29
   2  12   9    0.31    0.20
  -3 -12  -9    6.39    0.53
  -3 -12  -9    6.13    0.51
   3  12   9    5.54    0.49
   3  12   9    6.00    0.44
   3  12   9    5.82    0.52
  -4 -12  -9    0.11    0.25
  -4 -12  -9    0.35    0.28
   4  12   9   -0.03    0.22
   4  12   9    0.72    0.29
   4  12   9    0.08    0.29
  -5 -12  -9    7.72    0.62
  -5 -12  -9    7.35    0.50
  -5 -12  -9    8.56    0.65
  -5 -12  -9    6.74    0.54
   5  12   9    6.49    0.56
   5  12   9    8.91    0.60
   5  12   9    7.51    0.52
  -6 -12  -9    0.82    0.28
  -6 -12  -9    0.31    0.34
  -6 -12  -9    0.66    0.30
  -6 -12  -9    0.18    0.34
   6  12   9    0.23    0.33
   6  12   9   -0.10    0.28
   6  12   9   -0.09    0.23
  -7 -12  -9    3.06    0.47
  -7 -12  -9    3.84    0.52
  -7 -12  -9    4.46    0.51
  -7 -12  -9    3.45    0.53
   7  12   9    3.16    0.43
   7  12   9    3.01    0.47
   7  12   9    2.63    0.43
  -2 -13  -9    3.16    0.43
  -3 -13  -9    0.70    0.33
  -3 -13  -9    0.67    0.31
   3  13   9    0.72    0.33
   3  13   9    0.37    0.25
  -4 -13  -9    4.65    0.57
  -4 -13  -9    4.68    0.52
   4  13   9    4.53    0.52
   4  13   9    5.34    0.62
   4  13   9    3.87    0.45
  -5 -13  -9    0.69    0.34
  -5 -13  -9    0.34    0.28
   5  13   9   -0.02    0.24
   5  13   9   -0.23    0.31
   5  13   9    0.08    0.34
   2   8 -10    1.73    0.35
   2   8 -10    1.19    0.36
   2   8 -10    1.14    0.38
  -2  -8  10    2.02    0.42
  -2  -8  10    0.92    0.35
  -2  -8  10    1.90    0.35
   1   8 -10    0.11    0.25
   1   8 -10   -0.23    0.28
   1   8 -10    0.35    0.31
  -1  -8  10    0.02    0.22
  -1  -8  10    0.22    0.30
  -1  -8  10   -0.11    0.38
   0   8 -10    4.22    0.52
   0   8 -10    3.76    0.52
   0   8 -10    4.12    0.44
   0   8 -10    5.00    0.70
   0  -8  10    3.84    0.52
   0  -8  10    3.42    0.48
   0  -8  10    4.30    0.43
  -1   8 -10    0.48    0.28
  -1   8 -10    0.38    0.34
  -1   8 -10    0.15    0.28
  -1   8 -10    0.59    0.30
  -1   8 -10    0.48    0.24
   1  -8  10   -0.21    0.21
   1  -8  10   -0.09    0.27
  -2   8 -10    1.95    0.38
  -2   8 -10    2.20    0.34
  -2   8 -10    2.38    0.35
  -2   8 -10    2.05    0.36
   2  -8  10    1.93    0.29
   2  -8  10    2.56    0.38
   2  -8  10    1.98    0.30
  -3   8 -10    1.03    0.32
  -3   8 -10    0.32    0.28
  -3   8 -10    0.18    0.25
  -3   8 -10    0.42    0.24
   3  -8  10    0.09    0.27
   3  -8  10    0.53    0.31
   3  -8  10    0.31    0.22
   3   7 -10    1.79    0.41
   3   7 -10    1.82    0.38
   3   7 -10    2.28    0.52
  -3  -7  10    1.73    0.38
  -3  -7  10    2.45    0.41
  -3  -7  10    2.44    0.38
   2   7 -10   -0.38    0.23
   2   7 -10   -0.20    0.28
   2   7 -10   -0.12    0.26
  -2  -7  10    0.15    0.25
  -2  -7  10   -0.19    0.30
  -2  -7  10    0.35    0.27
   1   7 -10    4.16    0.49
   1   7 -10    3.57    0.43
   1   7 -10    3.01    0.42
  -1  -7  10    4.12    0.41
  -1  -7  10    4.24    0.48
  -1  -7  10    4.19    0.47
   0   7 -10    0.47    0.31
   0   7 -10    0.16    0.20
   0   7 -10   -0.17    0.24
   0   7 -10   -0.06    0.29
   0   7 -10    0.55    0.28
   0  -7  10    0.46    0.29
   0  -7  10   -0.11    0.24
   0  -7  10    0.04    0.19
  -1   7 -10    4.86    0.59
  -1   7 -10    6.09    0.48
  -1   7 -10    4.86    0.46
  -1   7 -10    4.95    0.42
  -1   7 -10    5.46    0.55
   1  -7  10    5.19    0.52
   1  -7  10    4.72    0.40
   1  -7  10    5.72    0.46
   1  -7  10    4.48    0.52
  -2   7 -10    0.34    0.21
  -2   7 -10    0.45    0.27
  -2   7 -10    0.31    0.25
  -2   7 -10    0.54    0.24
   2  -7  10    0.75    0.23
   2  -7  10    0.38    0.19
   2  -7  10    0.43    0.27
  -3   7 -10    3.11    0.43
  -3   7 -10    4.28    0.40
  -3   7 -10    4.29    0.45
  -3   7 -10    3.34    0.47
  -3   7 -10    4.72    0.55
   3  -7  10    3.66    0.38
   3  -7  10    3.92    0.37
   3  -7  10    3.85    0.44
  -4   7 -10    0.42    0.25
  -4   7 -10    0.95    0.28
  -4   7 -10    1.09    0.29
  -4   7 -10    0.81    0.26
   4  -7  10    0.72    0.26
   4  -7  10    0.33    0.27
   4  -7  10    0.53    0.22
  -5   7 -10    1.62    0.32
  -5   7 -10    2.01    0.33
  -5   7 -10    1.67    0.34
  -5   7 -10    1.28    0.32
   5  -7  10    1.81    0.33
   5  -7  10    1.56    0.33
   5  -7  10    1.40    0.27
   5  -7  10    1.71    0.40
   4   6 -10    2.65    0.44
   4   6 -10    2.91    0.43
   4   6 -10    2.64    0.39
   4   6 -10    3.59    0.50
  -4  -6  10    4.23    0.56
  -4  -6  10    2.85    0.45
  -4  -6  10    2.49    0.38
   3   6 -10   -0.01    0.33
   3   6 -10    0.19    0.34
   3   6 -10    0.23    0.27
   3   6 -10   -0.02    0.25
  -3  -6  10   -0.08    0.30
  -3  -6  10    0.63    0.30
  -3  -6  10   -0.16    0.25
   2   6 -10    2.15    0.50
   2   6 -10    1.86    0.36
   2   6 -10    2.37    0.32
   2   6 -10    1.89    0.35
  -2  -6  10    2.35    0.37
  -2  -6  10    2.03    0.37
  -2  -6  10    2.22    0.32
   1   6 -10    0.24    0.20
   1   6 -10    0.21    0.25
   1   6 -10   -0.04    0.25
   1   6 -10   -0.43    0.20
  -1  -6  10    0.76    0.60
  -1  -6  10    0.12    0.19
  -1  -6  10   -0.03    0.24
   0   6 -10    6.64    0.48
   0   6 -10    5.70    0.54
   0   6 -10    6.41    0.41
   0   6 -10    5.65    0.52
   0   6 -10    6.02    0.43
   0  -6  10    6.55    0.49
   0  -6  10    5.70    0.46
   0  -6  10    5.76    0.42
  -1   6 -10    0.53    0.24
  -1   6 -10    0.12    0.22
  -1   6 -10    0.55    0.22
  -1   6 -10    0.25    0.26
  -1   6 -10    0.26    0.20
   1  -6  10    0.15    0.24
   1  -6  10    0.50    0.22
   1  -6  10    0.55    0.25
  -2   6 -10   10.90    0.49
  -2   6 -10   10.65    0.57
  -2   6 -10    9.75    0.51
  -2   6 -10    9.22    0.51
   2  -6  10   11.52    0.59
   2  -6  10    9.79    0.51
   2  -6  10   10.24    0.56
   2  -6  10   10.54    0.46
  -3   6 -10    0.54    0.22
  -3   6 -10    0.50    0.25
  -3   6 -10    0.05    0.24
  -3   6 -10    0.79    0.20
  -3   6 -10    0.03    0.23
   3  -6  10   -0.22    0.33
   3  -6  10    0.62    0.18
   3  -6  10    0.31    0.20
   3  -6  10    0.48    0.25
  -4   6 -10    4.99    0.43
  -4   6 -10    3.91    0.46
  -4   6 -10    4.20    0.43
  -4   6 -10    4.46    0.40
   4  -6  10    4.00    0.40
   4  -6  10    3.91    0.42
   4  -6  10    4.38    0.38
  -5   6 -10    0.63    0.26
  -5   6 -10    0.59    0.26
  -5   6 -10    0.82    0.28
  -5   6 -10    0.94    0.26
   5  -6  10    0.98    0.25
   5  -6  10    1.00    0.26
   5  -6  10    0.32    0.26
  -6   6 -10    2.09    0.33
  -6   6 -10    1.86    0.31
  -6   6 -10    1.71    0.34
   6  -6  10    1.65    0.28
   6  -6  10    1.69    0.36
   6  -6  10    2.21    0.37
   6  -6  10    2.02    0.34
   4   5 -10    0.04    0.34
   4   5 -10    0.31    0.29
   4   5 -10    0.56    0.29
   4   5 -10   -0.10    0.26
  -4  -5  10    0.01    0.30
  -4  -5  10    0.26    0.29
  -4  -5  10   -0.38    0.25
   3   5 -10    2.87    0.40
   3   5 -10    3.74    0.52
   3   5 -10    2.44    0.38
   3   5 -10    3.21    0.42
  -3  -5  10    3.69    0.47
  -3  -5  10    2.86    0.35
  -3  -5  10    2.72    0.40
   2   5 -10    0.25    0.25
   2   5 -10    0.11    0.25
   2   5 -10    0.23    0.22
   2   5 -10    0.40    0.27
  -2  -5  10   -0.03    0.23
  -2  -5  10   -0.07    0.25
  -2  -5  10   -0.11    0.20
   1   5 -10    8.13    0.53
   1   5 -10    8.16    0.52
   1   5 -10    8.25    0.47
   1   5 -10    8.06    0.40
  -1  -5  10    7.63    0.47
  -1  -5  10    8.72    0.55
  -1  -5  10    8.14    0.51
   0   5 -10    0.13    0.23
   0   5 -10    0.13    0.19
   0   5 -10    0.53    0.32
   0   5 -10    0.13    0.19
   0   5 -10    0.22    0.25
   0   5 -10   -0.02    0.16
   0  -5  10   -0.01    0.18
   0  -5  10    0.37    0.19
   0  -5  10    0.05    0.21
  -1   5 -10    6.69    0.44
  -1   5 -10    5.99    0.40
  -1   5 -10    6.67    0.46
  -1   5 -10    6.26    0.37
   1  -5  10    6.01    0.43
   1  -5  10    6.23    0.41
   1  -5  10    5.96    0.42
  -2   5 -10    0.48    0.18
  -2   5 -10    0.30    0.20
  -2   5 -10    0.43    0.19
  -2   5 -10    0.37    0.20
  -2   5 -10    0.54    0.22
   2  -5  10    0.66    0.22
   2  -5  10    0.53    0.19
   2  -5  10    0.25    0.22
   2  -5  10    0.25    0.15
  -3   5 -10   11.86    0.58
  -3   5 -10   12.71    0.56
  -3   5 -10   11.45    0.55
  -3   5 -10   13.51    0.47
  -3   5 -10   11.79    0.54
   3  -5  10   12.35    0.44
   3  -5  10   12.97    0.60
   3  -5  10   11.78    0.53
   3  -5  10   10.65    0.56
  -4   5 -10    0.45    0.24
  -4   5 -10    0.53    0.22
  -4   5 -10    0.32    0.24
  -4   5 -10    0.66    0.25
   4  -5  10    0.25    0.18
   4  -5  10    0.51    0.17
   4  -5  10    0.37    0.23
  -5   5 -10    5.84    0.49
  -5   5 -10    5.70    0.45
  -5   5 -10    6.14    0.45
  -5   5 -10    6.47    0.44
   5  -5  10    5.43    0.44
   5  -5  10    6.43    0.43
  -6   5 -10    0.48    0.24
  -6   5 -10    0.58    0.27
  -6   5 -10    0.59    0.24
  -6   5 -10    0.62    0.26
   6  -5  10    0.39    0.25
   6  -5  10    0.82    0.23
   6  -5  10    0.64    0.31
   6  -5  10    0.30    0.25
  -7   5 -10    1.47    0.29
  -7   5 -10    1.81    0.31
  -7   5 -10    1.69    0.34
   7  -5  10    1.13    0.36
   7  -5  10    1.59    0.29
   7  -5  10    1.77    0.37
   7  -5  10    2.14    0.35
   5   4 -10    0.37    0.30
   5   4 -10    0.45    0.38
   5   4 -10    0.26    0.31
   5   4 -10   -0.26    0.31
  -5  -4  10   -0.05    0.30
  -5  -4  10    0.04    0.30
  -5  -4  10   -0.62    0.27
   4   4 -10    3.52    0.51
   4   4 -10    4.23    0.46
   4   4 -10    3.77    0.49
   4   4 -10    3.12    0.45
  -4  -4  10    4.18    0.48
  -4  -4  10    2.43    0.40
  -4  -4  10    3.56    0.45
   3   4 -10    0.24    0.25
   3   4 -10   -0.03    0.26
   3   4 -10   -0.14    0.23
   3   4 -10    0.13    0.27
  -3  -4  10   -0.24    0.24
  -3  -4  10    0.39    0.22
  -3  -4  10    0.14    0.22
   2   4 -10    8.27    0.53
   2   4 -10    7.89    0.43
   2   4 -10    8.11    0.52
   2   4 -10    8.33    0.48
  -2  -4  10    7.62    0.51
  -2  -4  10    8.48    0.52
  -2  -4  10    8.16    0.49
   1   4 -10    0.53    0.26
   1   4 -10    0.55    0.26
   1   4 -10    0.88    0.20
  -1  -4  10    0.20    0.20
  -1  -4  10    0.01    0.31
  -1  -4  10    0.28    0.24
   0   4 -10    8.14    0.36
   0   4 -10    7.84    0.37
   0   4 -10    7.37    0.47
   0   4 -10    8.47    0.48
   0   4 -10    7.81    0.44
   0  -4  10    7.05    0.41
   0  -4  10    8.22    0.55
   0  -4  10    6.83    0.45
  -1   4 -10    0.46    0.20
  -1   4 -10   -0.02    0.17
  -1   4 -10    0.48    0.17
  -1   4 -10    0.16    0.15
  -1   4 -10   -0.10    0.19
   1  -4  10    0.24    0.16
   1  -4  10    0.28    0.21
   1  -4  10    0.39    0.19
  -2   4 -10   10.82    0.45
  -2   4 -10   11.17    0.52
  -2   4 -10   11.11    0.53
  -2   4 -10   10.99    0.45
  -2   4 -10    9.05    0.54
   2  -4  10   10.44    0.51
   2  -4  10   10.94    0.51
  -3   4 -10   -0.07    0.22
  -3   4 -10   -0.14    0.13
  -3   4 -10    0.15    0.17
  -3   4 -10    0.19    0.17
  -3   4 -10    0.24    0.17
   3  -4  10   -0.14    0.12
   3  -4  10   -0.15    0.17
   3  -4  10    0.19    0.20
   3  -4  10    0.00    0.19
  -4   4 -10    8.04    0.46
  -4   4 -10    9.41    0.49
  -4   4 -10    8.71    0.49
   4  -4  10    8.31    0.49
   4  -4  10    7.81    0.37
   4  -4  10    9.09    0.50
   4  -4  10    8.91    0.46
  -5   4 -10    0.43    0.20
  -5   4 -10    1.10    0.27
  -5   4 -10    0.24    0.24
  -5   4 -10    0.79    0.25
   5  -4  10    0.42    0.21
   5  -4  10    0.68    0.25
   5  -4  10    0.58    0.18
  -6   4 -10    5.26    0.42
  -6   4 -10    3.91    0.45
  -6   4 -10    4.47    0.41
  -6   4 -10    5.65    0.38
   6  -4  10    4.58    0.44
   6  -4  10    5.01    0.44
   6  -4  10    4.77    0.38
  -7   4 -10    0.89    0.27
  -7   4 -10    0.64    0.24
  -7   4 -10    0.29    0.23
   7  -4  10    0.46    0.23
   7  -4  10    0.14    0.30
   7  -4  10    0.69    0.29
   7  -4  10    0.56    0.29
   5   3 -10    1.91    0.37
   5   3 -10    1.81    0.38
   5   3 -10    1.94    0.40
   5   3 -10    2.71    0.44
  -5  -3  10    1.99    0.33
  -5  -3  10    2.47    0.37
  -5  -3  10    2.61    0.44
   4   3 -10    0.25    0.25
   4   3 -10   -0.09    0.25
   4   3 -10    0.42    0.30
   4   3 -10    0.02    0.23
  -4  -3  10    0.68    0.29
  -4  -3  10   -0.11    0.27
  -4  -3  10    0.09    0.20
   3   3 -10    5.09    0.47
   3   3 -10    4.76    0.49
   3   3 -10    5.07    0.46
   3   3 -10    4.99    0.41
  -3  -3  10    4.64    0.41
  -3  -3  10    4.60    0.39
  -3  -3  10    4.89    0.45
   2   3 -10    0.07    0.20
   2   3 -10    0.00    0.20
   2   3 -10   -0.11    0.22
   2   3 -10   -0.11    0.21
  -2  -3  10   -0.16    0.19
  -2  -3  10    0.23    0.24
  -2  -3  10   -0.13    0.16
   1   3 -10   21.46    0.80
   1   3 -10   21.63    0.72
   1   3 -10   22.25    0.71
   1   3 -10   21.52    0.80
  -1  -3  10   22.30    0.75
  -1  -3  10   22.80    0.74
  -1  -3  10   22.71    0.82
   0   3 -10    0.24    0.21
   0   3 -10    0.53    0.16
   0   3 -10    0.56    0.17
   0   3 -10    0.23    0.23
   0  -3  10    0.28    0.25
   0  -3  10    0.53    0.16
  -1   3 -10    7.87    0.44
  -1   3 -10    7.45    0.53
  -1   3 -10    7.33    0.39
  -1   3 -10    7.23    0.34
  -1   3 -10    7.27    0.41
  -1   3 -10    8.08    0.35
   1  -3  10    6.79    0.39
   1  -3  10    6.03    0.49
   1  -3  10    7.45    0.39
  -2   3 -10    0.86    0.19
  -2   3 -10    0.94    0.21
  -2   3 -10    1.14    0.21
  -2   3 -10    0.81    0.16
  -2   3 -10    0.62    0.20
   2  -3  10    0.89    0.38
   2  -3  10    0.79    0.19
   2  -3  10    0.83    0.19
  -3   3 -10    7.43    0.40
  -3   3 -10    7.75    0.41
  -3   3 -10    7.16    0.40
  -3   3 -10    7.39    0.33
  -3   3 -10    6.69    0.37
   3  -3  10    6.82    0.41
   3  -3  10    7.14    0.39
   3  -3  10    7.02    0.31
   3  -3  10    6.88    0.46
  -4   3 -10    0.52    0.13
  -4   3 -10    0.42    0.20
  -4   3 -10    0.18    0.20
  -4   3 -10    0.66    0.18
   4  -3  10    0.45    0.19
   4  -3  10    0.48    0.19
   4  -3  10    0.19    0.13
   4  -3  10    0.52    0.22
  -5   3 -10   10.47    0.51
  -5   3 -10   11.12    0.47
  -5   3 -10   11.99    0.89
   5  -3  10   11.42    0.55
   5  -3  10   10.12    0.50
   5  -3  10   10.19    0.43
   5  -3  10   10.66    0.52
  -6   3 -10    0.31    0.23
  -6   3 -10    0.26    0.45
  -6   3 -10    0.08    0.18
  -6   3 -10    0.80    0.19
   6  -3  10    0.32    0.23
   6  -3  10    0.18    0.18
   6  -3  10   -0.03    0.25
  -7   3 -10    3.08    0.41
  -7   3 -10    3.38    0.41
  -7   3 -10    3.39    0.40
   7  -3  10    2.68    0.40
   7  -3  10    2.52    0.35
   7  -3  10    3.19    0.40
  -8   3 -10    0.47    0.25
  -8   3 -10    0.85    0.28
  -8   3 -10    0.53    0.26
   8  -3  10    0.74    0.32
   8  -3  10    0.58    0.24
   8  -3  10    0.68    0.44
   5   2 -10    0.12    0.33
   5   2 -10   -0.02    0.29
   5   2 -10   -0.01    0.28
   5   2 -10    0.20    0.27
  -5  -2  10    0.16    0.21
  -5  -2  10    0.02    0.32
  -5  -2  10    0.05    0.30
   4   2 -10    6.09    0.49
   4   2 -10    7.34    0.42
   4   2 -10    7.16    0.55
   4   2 -10    6.87    0.54
   4   2 -10    5.84    0.53
  -4  -2  10    6.94    0.56
  -4  -2  10    7.56    0.48
  -4  -2  10    7.18    0.45
   3   2 -10    0.02    0.24
   3   2 -10    0.13    0.17
   3   2 -10    0.05    0.22
   3   2 -10    0.31    0.25
  -3  -2  10    0.38    0.26
  -3  -2  10    0.31    0.18
   2   2 -10   12.70    0.55
   2   2 -10   12.79    0.48
   2   2 -10   13.39    0.61
   2   2 -10   11.87    0.59
  -2  -2  10   13.30    0.61
  -2  -2  10   11.84    0.56
  -2  -2  10   12.41    0.51
   1   2 -10    0.35    0.16
   1   2 -10   -0.10    0.17
   1   2 -10    0.18    0.15
  -1  -2  10    0.24    0.15
  -1  -2  10    0.25    0.15
   0   2 -10   12.03    0.51
   0   2 -10   12.74    0.49
   0   2 -10   12.67    0.54
   0   2 -10   12.30    0.48
   0  -2  10   12.05    0.52
   0  -2  10   13.37    0.49
   0  -2  10   12.08    0.54
  -1   2 -10    0.96    0.18
  -1   2 -10    1.07    0.19
  -1   2 -10    1.06    0.22
  -1   2 -10    1.17    0.23
  -1   2 -10    1.14    0.18
  -1   2 -10    0.96    0.19
   1  -2  10    0.96    0.21
   1  -2  10    1.31    0.20
   1  -2  10    1.12    0.19
  -2   2 -10   21.18    0.71
  -2   2 -10   21.63    0.66
  -2   2 -10   21.60    0.64
  -2   2 -10   20.99    0.69
  -2   2 -10   20.78    0.80
   2  -2  10   20.92    0.69
   2  -2  10   20.46    0.71
   2  -2  10   20.91    0.72
  -3   2 -10    0.69    0.18
  -3   2 -10    1.00    0.18
  -3   2 -10    0.93    0.19
  -3   2 -10    0.95    0.15
  -3   2 -10    0.77    0.17
   3  -2  10    0.69    0.19
   3  -2  10    0.76    0.18
   3  -2  10    0.82    0.22
  -4   2 -10   10.38    0.47
  -4   2 -10    9.98    0.45
  -4   2 -10    9.64    0.45
  -4   2 -10   10.58    0.38
  -4   2 -10    9.43    0.43
   4  -2  10    8.20    0.35
   4  -2  10    9.81    0.45
   4  -2  10   10.15    0.46
   4  -2  10   10.53    0.68
  -5   2 -10    0.98    0.23
  -5   2 -10    0.88    0.34
  -5   2 -10    0.81    0.21
   5  -2  10    0.84    0.23
   5  -2  10    1.32    0.23
   5  -2  10    1.01    0.21
  -6   2 -10    9.15    0.50
  -6   2 -10    8.38    0.50
  -6   2 -10    7.93    0.45
   6  -2  10    8.33    0.48
   6  -2  10    8.17    0.45
   6  -2  10    8.27    0.53
  -7   2 -10    0.25    0.22
  -7   2 -10    0.25    0.24
  -7   2 -10    0.20    0.20
   7  -2  10    0.30    0.22
   7  -2  10    0.00    0.25
   7  -2  10   -0.06    0.19
  -8   2 -10    2.24    0.32
  -8   2 -10    2.19    0.35
  -8   2 -10    2.55    0.35
   8  -2  10    2.57    0.39
   8  -2  10    2.49    0.32
   5   1 -10    4.59    0.48
   5   1 -10    3.77    0.50
   5   1 -10    3.78    0.49
  -5  -1  10    4.28    0.42
  -5  -1  10    4.99    0.47
  -5  -1  10    3.94    0.52
   4   1 -10    0.60    0.30
   4   1 -10    0.05    0.24
   4   1 -10    0.41    0.24
   4   1 -10    0.55    0.25
  -4  -1  10    0.13    0.17
  -4  -1  10    0.42    0.22
  -4  -1  10    0.28    0.28
   3   1 -10    4.99    0.40
   3   1 -10    5.16    0.44
   3   1 -10    4.73    0.43
   3   1 -10    5.06    0.28
  -3  -1  10    4.84    0.46
  -3  -1  10    4.73    0.33
  -3  -1  10    5.03    0.38
   2   1 -10    0.12    0.14
   2   1 -10    0.14    0.18
  -2  -1  10    0.43    0.22
  -2  -1  10    0.41    0.15
   1   1 -10   15.98    0.62
   1   1 -10   16.13    0.53
   1   1 -10   16.23    0.59
   1   1 -10   16.73    0.63
  -1  -1  10   16.81    0.56
  -1  -1  10   15.55    0.56
  -1  -1  10   16.25    0.64
   0   1 -10    0.25    0.15
   0   1 -10    0.42    0.19
   0   1 -10    0.45    0.14
   0   1 -10    0.11    0.15
   0  -1  10    0.12    0.12
   0  -1  10    0.12    0.13
   0  -1  10    0.21    0.18
  -1   1 -10   29.06    0.90
  -1   1 -10   31.84    0.88
  -1   1 -10   30.93    0.87
  -1   1 -10   30.84    0.88
  -1   1 -10   30.74    0.87
  -1   1 -10   29.38    0.88
   1  -1  10   30.17    0.87
   1  -1  10   30.14    0.87
  -2   1 -10    0.25    0.27
  -2   1 -10    0.51    0.15
  -2   1 -10    0.72    0.18
  -2   1 -10    0.67    0.15
  -2   1 -10    0.35    0.19
  -2   1 -10    0.72    0.18
   2  -1  10    0.57    0.14
   2  -1  10    0.47    0.19
   2  -1  10    0.63    0.16
  -3   1 -10   20.95    0.67
  -3   1 -10   20.88    0.65
  -3   1 -10   20.58    0.61
  -3   1 -10   19.81    0.74
   3  -1  10   21.01    0.67
   3  -1  10   20.11    0.66
  -4   1 -10    2.21    0.27
  -4   1 -10    1.43    0.20
  -4   1 -10    2.43    0.30
  -4   1 -10    1.92    0.18
  -4   1 -10    2.17    0.23
   4  -1  10    2.01    0.25
   4  -1  10    2.13    0.27
   4  -1  10    1.86    0.24
  -5   1 -10   13.79    0.43
  -5   1 -10   14.19    0.57
  -5   1 -10   14.60    0.56
   5  -1  10   14.16    0.56
   5  -1  10   15.83    0.58
  -6   1 -10    0.34    0.20
  -6   1 -10    0.27    0.18
  -6   1 -10    0.20    0.29
   6  -1  10    0.25    0.19
   6  -1  10    0.57    0.24
   6  -1  10    0.13    0.18
  -7   1 -10    7.69    0.50
  -7   1 -10    6.92    0.44
  -7   1 -10    7.75    0.52
   7  -1  10    6.58    0.45
   7  -1  10    6.62    0.51
   7  -1  10    6.98    0.43
  -8   1 -10    0.14    0.21
  -8   1 -10    0.64    0.30
  -8   1 -10    0.49    0.24
   8  -1  10    0.05    0.20
   8  -1  10    0.10    0.26
   8  -1  10    0.47    0.27
  -9   1 -10    1.36    0.33
  -9   1 -10    1.17    0.33
   9  -1  10    1.45    0.32
   9  -1  10    1.38    0.29
   5   0 -10    0.13    0.26
   5   0 -10    0.62    0.30
   5   0 -10    0.09    0.25
  -5   0  10    0.39    0.34
  -5   0  10    0.20    0.19
   4   0 -10    7.48    0.51
   4   0 -10    7.83    0.55
   4   0 -10    7.00    0.49
  -4   0  10    8.21    0.42
  -4   0  10    6.99    0.40
  -4   0  10    8.14    0.59
   3   0 -10    0.50    0.23
   3   0 -10    0.38    0.20
   3   0 -10    0.39    0.26
   3   0 -10    0.46    0.24
  -3   0  10    0.88    0.29
  -3   0  10    0.25    0.15
  -3   0  10    0.87    0.17
   2   0 -10   12.68    0.42
   2   0 -10   12.97    0.79
   2   0 -10   13.75    0.59
   2   0 -10   13.23    0.57
  -2   0  10   12.63    0.62
  -2   0  10   13.77    0.49
  -2   0  10   13.06    0.70
   1   0 -10   -0.07    0.17
   1   0 -10    0.01    0.17
   1   0 -10    0.14    0.11
   1   0 -10   -0.08    0.12
   1   0 -10   -0.29    0.13
  -1   0  10    0.15    0.11
  -1   0  10    0.23    0.12
  -1   0  10    0.06    0.17
   0   0 -10   10.78    0.46
   0   0 -10   10.92    0.38
   0   0 -10   11.07    0.40
   0   0 -10   10.87    0.46
   0   0 -10   10.71    0.46
   0   0  10   10.79    0.42
   0   0  10   11.38    0.47
   0   0  10   11.40    0.42
  -1   0 -10    1.03    0.16
  -1   0 -10    1.22    0.21
  -1   0 -10    1.59    0.23
  -1   0 -10    1.66    0.20
  -1   0 -10    1.41    0.19
  -1   0 -10    1.82    0.38
   1   0  10    1.41    0.20
   1   0  10    1.78    0.23
   1   0  10    1.64    0.20
  -2   0 -10   51.43    1.34
  -2   0 -10   53.81    1.39
  -2   0 -10   52.80    1.36
  -2   0 -10   54.99    1.37
  -2   0 -10   52.27    1.36
  -2   0 -10   51.78    1.42
   2   0  10   53.94    1.44
   2   0  10   52.32    1.37
   2   0  10   52.10    1.39
  -3   0 -10    0.67    0.16
  -3   0 -10    1.10    0.20
  -3   0 -10    0.84    0.19
  -3   0 -10    0.65    0.14
  -3   0 -10    0.68    0.15
   3   0  10    0.83    0.15
   3   0  10    0.65    0.18
   3   0  10    0.88    0.17
  -4   0 -10   19.83    0.66
  -4   0 -10   19.39    0.57
  -4   0 -10   20.04    0.66
   4   0  10   19.73    0.70
   4   0  10   18.47    0.65
   4   0  10   19.97    0.65
  -5   0 -10    2.19    0.19
  -5   0 -10    2.22    0.30
  -5   0 -10    1.89    0.26
  -5   0 -10    2.11    0.29
   5   0  10    2.07    0.27
   5   0  10    2.25    0.30
   5   0  10    1.94    0.26
  -6   0 -10    9.44    0.47
  -6   0 -10    9.01    0.50
  -6   0 -10    8.98    0.52
   6   0  10    9.28    0.50
   6   0  10    9.86    0.48
   6   0  10    7.76    0.51
  -7   0 -10    0.49    0.26
  -7   0 -10    0.83    0.24
  -7   0 -10    0.57    0.20
   7   0  10    0.51    0.19
   7   0  10    0.66    0.25
   7   0  10    0.59    0.25
  -8   0 -10    7.02    0.52
  -8   0 -10    5.16    0.44
   8   0  10    7.15    0.49
   8   0  10    6.61    0.45
   8   0  10    6.62    0.51
  -9   0 -10    0.23    0.31
  -9   0 -10    0.29    0.29
  -9   0 -10    0.08    0.25
   9   0  10    0.16    0.24
   9   0  10    0.78    0.31
   5  -1 -10    4.64    0.50
   5  -1 -10    5.59    0.50
   5  -1 -10    3.93    0.54
  -5   1  10    4.61    0.37
  -5   1  10    5.24    0.62
   4  -1 -10    0.96    0.27
   4  -1 -10    0.95    0.27
   4  -1 -10    1.18    0.32
  -4   1  10    1.02    0.19
  -4   1  10    1.54    0.24
  -4   1  10    1.30    0.33
   3  -1 -10    7.65    0.46
   3  -1 -10    7.62    0.48
   3  -1 -10    7.77    0.53
  -3   1  10    7.50    0.37
  -3   1  10    8.00    0.37
  -3   1  10    8.62    0.53
   2  -1 -10    0.73    0.23
   2  -1 -10    0.49    0.33
  -2   1  10    0.80    0.23
  -2   1  10    0.85    0.16
  -2   1  10    0.63    0.18
   1  -1 -10   19.55    0.68
   1  -1 -10   19.60    0.55
  -1   1  10   18.52    0.60
  -1   1  10   20.27    0.60
  -1   1  10   20.73    0.90
   0  -1 -10    0.17    0.11
   0  -1 -10    0.08    0.11
   0  -1 -10    0.11    0.15
   0  -1 -10   -0.05    0.13
   0   1  10    0.23    0.11
   0   1  10    0.18    0.10
   0   1  10    0.40    0.16
  -1  -1 -10   31.89    0.93
  -1  -1 -10   33.15    0.88
  -1  -1 -10   32.96    0.95
  -1  -1 -10   32.53    0.93
  -1  -1 -10   32.31    0.81
   1   1  10   31.60    0.92
   1   1  10   32.79    0.90
   1   1  10   33.31    0.95
  -2  -1 -10    1.68    0.25
  -2  -1 -10    1.61    0.21
  -2  -1 -10    1.79    0.24
  -2  -1 -10    2.12    0.27
  -2  -1 -10    1.63    0.20
   2   1  10    1.85    0.20
   2   1  10    1.88    0.22
   2   1  10    1.80    0.21
  -3  -1 -10   21.79    0.68
  -3  -1 -10   21.38    0.66
  -3  -1 -10   21.82    0.64
  -3  -1 -10   22.09    0.70
   3   1  10   21.10    0.67
   3   1  10   21.53    0.67
   3   1  10   21.42    0.67
  -4  -1 -10   -0.35    0.14
  -4  -1 -10   -0.11    0.10
  -4  -1 -10   -0.02    0.13
  -4  -1 -10    0.07    0.18
   4   1  10   -0.13    0.12
   4   1  10    0.08    0.14
   4   1  10   -0.16    0.13
  -5  -1 -10   16.88    0.60
  -5  -1 -10   15.83    0.61
  -5  -1 -10   15.51    0.48
  -5  -1 -10   15.03    0.57
   5   1  10   16.07    0.58
   5   1  10   15.09    0.65
   5   1  10   16.69    0.58
  -6  -1 -10    1.11    0.26
  -6  -1 -10    1.04    0.15
  -6  -1 -10    1.01    0.22
  -6  -1 -10    0.97    0.23
   6   1  10    1.60    0.24
   6   1  10    0.94    0.20
   6   1  10    0.50    0.21
  -7  -1 -10    8.74    0.54
  -7  -1 -10    8.78    0.48
   7   1  10    8.86    0.47
   7   1  10    8.54    0.50
   7   1  10    7.85    0.45
  -8  -1 -10    0.45    0.34
  -8  -1 -10    0.41    0.28
  -8  -1 -10    0.46    0.21
   8   1  10    0.32    0.25
   8   1  10    0.30    0.21
  -9  -1 -10    3.75    0.50
  -9  -1 -10    3.95    0.45
  -9  -1 -10    4.52    0.56
   9   1  10    4.03    0.42
   9   1  10    4.07    0.47
   5  -2 -10    0.13    0.30
   5  -2 -10    0.05    0.26
   5  -2 -10   -0.10    0.23
  -5   2  10    0.17    0.35
  -5   2  10    0.04    0.15
   4  -2 -10    6.29    0.55
   4  -2 -10    7.21    0.49
   4  -2 -10    6.98    0.48
  -4   2  10    6.17    0.34
  -4   2  10    6.45    0.53
   3  -2 -10   -0.04    0.21
   3  -2 -10    0.15    0.20
   3  -2 -10   -0.01    0.21
  -3   2  10   -0.10    0.12
  -3   2  10   -0.33    0.23
   2  -2 -10   28.82    0.73
  -2   2  10   26.28    0.79
  -2   2  10   28.04    0.89
   1  -2 -10    2.58    0.21
   1  -2 -10    2.59    0.28
   1  -2 -10    2.09    0.28
  -1   2  10    2.39    0.26
  -1   2  10    2.59    0.21
  -1   2  10    2.97    0.22
   0  -2 -10   19.41    0.58
   0  -2 -10   19.27    0.67
   0  -2 -10   19.51    0.65
   0  -2 -10   19.20    0.54
   0   2  10   18.94    0.59
   0   2  10   19.09    0.58
   0   2  10   19.20    0.62
  -1  -2 -10    0.79    0.18
  -1  -2 -10    0.60    0.16
  -1  -2 -10    0.59    0.17
  -1  -2 -10    0.66    0.13
  -1  -2 -10    0.77    0.11
   1   2  10    0.71    0.16
   1   2  10    0.59    0.12
   1   2  10    0.55    0.12
  -2  -2 -10   27.17    0.77
  -2  -2 -10   26.52    0.78
  -2  -2 -10   25.92    0.80
  -2  -2 -10   25.95    0.74
  -2  -2 -10   25.83    0.83
   2   2  10   26.66    0.76
   2   2  10   26.74    0.76
   2   2  10   26.55    0.76
  -3  -2 -10    0.56    0.15
  -3  -2 -10    1.12    0.24
  -3  -2 -10    0.52    0.14
   3   2  10    0.73    0.15
   3   2  10    0.66    0.15
   3   2  10    0.80    0.17
  -4  -2 -10   25.95    0.78
  -4  -2 -10   26.00    0.84
  -4  -2 -10   26.48    0.74
   4   2  10   26.01    0.78
   4   2  10   25.68    0.76
   4   2  10   26.13    0.78
  -5  -2 -10   -0.03    0.20
  -5  -2 -10   -0.02    0.14
  -5  -2 -10   -0.04    0.11
   5   2  10    0.14    0.14
   5   2  10   -0.01    0.16
   5   2  10    0.20    0.14
  -6  -2 -10   10.64    0.52
  -6  -2 -10   11.48    0.55
  -6  -2 -10   10.55    0.38
  -6  -2 -10   10.86    0.52
   6   2  10   10.91    0.56
   6   2  10   10.67    0.53
   6   2  10   11.00    0.49
  -7  -2 -10    0.45    0.19
  -7  -2 -10    0.29    0.22
  -7  -2 -10    1.00    0.29
   7   2  10    0.58    0.22
   7   2  10    0.08    0.18
  -8  -2 -10    5.08    0.42
  -8  -2 -10    5.00    0.51
  -8  -2 -10    4.65    0.49
   8   2  10    4.70    0.40
   8   2  10    4.85    0.44
   8   2  10    4.12    0.52
  -9  -2 -10    0.29    0.32
  -9  -2 -10   -0.22    0.23
   9   2  10    0.21    0.23
   9   2  10   -0.16    0.23
   5  -3 -10    5.78    0.50
   5  -3 -10    5.50    0.63
   5  -3 -10    5.99    0.51
  -5   3  10    5.31    0.51
  -5   3  10    5.20    0.34
   4  -3 -10   -0.01    0.23
   4  -3 -10   -0.03    0.26
   4  -3 -10    0.24    0.23
  -4   3  10   -0.45    0.26
  -4   3  10    0.14    0.12
   3  -3 -10    6.26    0.49
   3  -3 -10    5.70    0.43
   3  -3 -10    6.04    0.44
  -3   3  10    6.77    0.54
  -3   3  10    6.35    0.31
   2  -3 -10    0.14    0.19
   2  -3 -10    0.08    0.15
   2  -3 -10   -0.04    0.21
  -2   3  10    0.11    0.18
  -2   3  10    0.33    0.13
  -2   3  10    0.26    0.12
   1  -3 -10   28.23    0.91
   1  -3 -10   29.13    0.91
   1  -3 -10   29.77    0.79
  -1   3  10   28.51    0.80
  -1   3  10   29.52    0.83
  -1   3  10   29.28    0.86
   0  -3 -10    0.10    0.15
   0  -3 -10   -0.07    0.17
   0  -3 -10    0.17    0.13
   0   3  10   -0.13    0.09
   0   3  10   -0.04    0.10
   0   3  10   -0.10    0.12
  -1  -3 -10   48.71    1.12
  -1  -3 -10   46.93    1.28
  -1  -3 -10   45.81    1.17
  -1  -3 -10   46.04    1.23
  -1  -3 -10   47.21    1.26
   1   3  10   46.69    1.19
   1   3  10   48.50    1.22
   1   3  10   45.42    1.20
  -2  -3 -10   -0.14    0.16
  -2  -3 -10    0.10    0.14
  -2  -3 -10   -0.07    0.15
  -2  -3 -10    0.00    0.11
  -2  -3 -10    0.00    0.12
   2   3  10   -0.07    0.11
   2   3  10   -0.15    0.10
  -3  -3 -10   21.25    0.78
  -3  -3 -10   21.94    0.66
  -3  -3 -10   22.20    0.67
  -3  -3 -10   21.51    0.73
  -3  -3 -10   22.64    0.75
   3   3  10   22.63    0.65
   3   3  10   22.20    0.66
   3   3  10   20.94    0.66
  -4  -3 -10    0.95    0.17
  -4  -3 -10    1.01    0.16
  -4  -3 -10    0.58    0.25
  -4  -3 -10    1.04    0.21
   4   3  10    0.82    0.17
   4   3  10    0.67    0.15
   4   3  10    0.86    0.16
  -5  -3 -10   27.09    0.77
  -5  -3 -10   27.83    0.85
  -5  -3 -10   26.89    0.91
   5   3  10   28.54    0.84
   5   3  10   27.07    0.79
   5   3  10   27.10    0.83
  -6  -3 -10    0.39    0.19
  -6  -3 -10    0.34    0.13
  -6  -3 -10    0.37    0.24
  -6  -3 -10    0.50    0.21
   6   3  10    0.04    0.15
   6   3  10    0.41    0.18
   6   3  10    0.13    0.15
  -7  -3 -10    8.69    0.49
  -7  -3 -10    8.93    0.55
  -7  -3 -10    9.33    0.58
   7   3  10    8.80    0.44
   7   3  10    9.29    0.50
   7   3  10    8.59    0.47
  -8  -3 -10   -0.22    0.37
  -8  -3 -10   -0.09    0.21
  -8  -3 -10    0.00    0.28
   8   3  10   -0.03    0.20
   8   3  10   -0.60    0.24
   8   3  10    0.01    0.22
  -9  -3 -10    2.49    0.41
  -9  -3 -10    2.33    0.41
  -9  -3 -10    2.83    0.38
   9   3  10    3.28    0.43
   9   3  10    1.83    0.31
 -10  -3 -10   -0.25    0.32
   5  -4 -10    0.30    0.29
   5  -4 -10    0.66    0.34
   5  -4 -10    0.82    0.38
  -5   4  10    0.81    0.16
  -5   4  10    0.32    0.30
   4  -4 -10    4.46    0.44
   4  -4 -10    4.22    0.46
   4  -4 -10    4.57    0.53
  -4   4  10    3.58    0.48
  -4   4  10    3.99    0.25
   3  -4 -10   -0.25    0.16
   3  -4 -10   -0.02    0.22
   3  -4 -10   -0.16    0.20
   3  -4 -10   -0.13    0.21
  -3   4  10    0.07    0.11
   2  -4 -10   16.21    0.71
   2  -4 -10   16.04    0.53
   2  -4 -10   16.66    0.66
   2  -4 -10   16.86    0.66
   1  -4 -10    1.31    0.24
   1  -4 -10    1.24    0.23
   1  -4 -10    1.58    0.26
   1  -4 -10    1.87    0.22
  -1   4  10    1.80    0.22
  -1   4  10    1.52    0.17
  -1   4  10    1.43    0.17
   0  -4 -10   30.99    0.88
   0  -4 -10   31.11    0.96
   0   4  10   31.64    0.83
   0   4  10   32.15    0.87
  -1  -4 -10    0.05    0.11
  -1  -4 -10    0.06    0.14
  -1  -4 -10   -0.18    0.14
  -1  -4 -10    0.04    0.15
   1   4  10    0.05    0.10
   1   4  10    0.14    0.11
   1   4  10   -0.04    0.09
  -2  -4 -10   37.82    1.00
  -2  -4 -10   38.11    1.10
  -2  -4 -10   38.51    1.07
  -2  -4 -10   38.20    1.10
  -2  -4 -10   38.56    1.01
   2   4  10   38.51    1.02
   2   4  10   39.87    1.01
   2   4  10   39.34    1.02
  -3  -4 -10    3.37    0.35
  -3  -4 -10    3.37    0.26
  -3  -4 -10    3.42    0.26
  -3  -4 -10    3.99    0.32
   3   4  10    3.47    0.24
   3   4  10    3.25    0.21
   3   4  10    3.12    0.24
  -4  -4 -10   39.00    1.16
  -4  -4 -10   38.41    0.96
  -4  -4 -10   38.80    1.06
  -4  -4 -10   37.74    1.19
  -4  -4 -10   39.72    1.10
  -4  -4 -10   38.76    1.16
   4   4  10   39.31    1.06
   4   4  10   39.51    1.02
   4   4  10   38.61    1.06
  -5  -4 -10    0.23    0.24
  -5  -4 -10    0.04    0.12
  -5  -4 -10    0.38    0.19
  -5  -4 -10   -0.09    0.22
   5   4  10    0.00    0.12
   5   4  10    0.01    0.12
   5   4  10    0.31    0.13
  -6  -4 -10   20.44    0.72
  -6  -4 -10   19.63    0.79
  -6  -4 -10   19.96    0.72
  -6  -4 -10   19.76    0.63
   6   4  10   20.13    0.63
   6   4  10   20.60    0.70
   6   4  10   19.19    0.68
  -7  -4 -10    0.07    0.22
  -7  -4 -10    0.18    0.28
  -7  -4 -10   -0.22    0.19
   7   4  10    0.12    0.20
   7   4  10    0.23    0.18
  -8  -4 -10    4.34    0.44
  -8  -4 -10    4.32    0.56
  -8  -4 -10    4.14    0.51
   8   4  10    3.76    0.42
   8   4  10    4.61    0.46
   8   4  10    4.18    0.39
  -9  -4 -10    0.36    0.34
  -9  -4 -10    0.53    0.48
  -9  -4 -10    0.36    0.26
   9   4  10    0.01    0.19
   9   4  10    0.50    0.33
 -10  -4 -10    2.13    0.47
 -10  -4 -10    0.79    0.32
 -10  -4 -10    1.24    0.39
  10   4  10    1.60    0.32
  10   4  10    1.89    0.36
   4  -5 -10    0.61    0.32
   4  -5 -10    0.55    0.28
   4  -5 -10    1.34    0.33
  -4   5  10    0.96    0.14
  -4   5  10    1.78    0.34
   3  -5 -10    5.22    0.54
   3  -5 -10    6.17    0.47
   3  -5 -10    6.32    0.40
   3  -5 -10    5.65    0.42
   3  -5 -10    6.38    0.45
  -3   5  10    7.04    0.54
  -3   5  10    6.28    0.27
   2  -5 -10    0.32    0.21
   2  -5 -10    0.52    0.22
   2  -5 -10    0.38    0.17
   2  -5 -10    0.43    0.24
   2  -5 -10    0.59    0.18
  -2   5  10    0.46    0.15
  -2   5  10    0.61    0.29
   1  -5 -10    9.22    0.36
   1  -5 -10   10.35    0.51
   1  -5 -10   10.65    0.42
  -1   5  10    9.60    0.34
  -1   5  10    9.80    0.49
   0  -5 -10   -0.04    0.13
   0  -5 -10   -0.12    0.16
   0  -5 -10   -0.06    0.14
   0  -5 -10    0.02    0.14
   0   5  10    0.09    0.12
   0   5  10   -0.04    0.08
   0   5  10    0.01    0.10
  -1  -5 -10   42.14    1.04
  -1  -5 -10   43.67    1.29
  -1  -5 -10   42.75    1.17
   1   5  10   43.16    1.10
   1   5  10   43.68    1.09
  -2  -5 -10    1.60    0.24
  -2  -5 -10    1.10    0.14
  -2  -5 -10    1.28    0.26
  -2  -5 -10    1.00    0.19
  -2  -5 -10    1.71    0.21
  -2  -5 -10    1.60    0.18
   2   5  10    1.31    0.15
   2   5  10    1.55    0.18
   2   5  10    1.13    0.15
  -3  -5 -10   30.35    0.91
  -3  -5 -10   31.21    1.04
  -3  -5 -10   30.37    0.91
  -3  -5 -10   30.48    0.87
  -3  -5 -10   30.67    0.78
   3   5  10   31.99    0.87
   3   5  10   30.58    0.87
   3   5  10   32.30    0.82
  -4  -5 -10    1.81    0.24
  -4  -5 -10    1.60    0.29
  -4  -5 -10    1.96    0.25
  -4  -5 -10    1.88    0.30
  -4  -5 -10    2.09    0.23
   4   5  10    2.10    0.22
   4   5  10    1.69    0.22
   4   5  10    1.93    0.19
  -5  -5 -10   20.05    0.78
  -5  -5 -10   19.76    0.64
  -5  -5 -10   19.42    0.75
  -5  -5 -10   20.27    0.80
   5   5  10   20.53    0.59
   5   5  10   19.79    0.66
   5   5  10   19.38    0.66
  -6  -5 -10    1.06    0.24
  -6  -5 -10    0.78    0.18
  -6  -5 -10    1.02    0.30
   6   5  10    1.12    0.21
   6   5  10    1.26    0.24
  -7  -5 -10   15.15    0.70
  -7  -5 -10   15.66    0.66
  -7  -5 -10   15.04    0.73
   7   5  10   13.53    0.61
  -8  -5 -10   -0.20    0.28
  -8  -5 -10    0.03    0.22
  -8  -5 -10    0.26    0.30
   8   5  10   -0.25    0.19
   8   5  10   -0.01    0.31
   8   5  10   -0.08    0.22
  -9  -5 -10    3.42    0.46
  -9  -5 -10    5.28    0.72
  -9  -5 -10    3.07    0.45
   9   5  10    2.38    0.35
   9   5  10    3.06    0.38
   9   5  10    3.78    0.46
 -10  -5 -10    0.27    0.31
 -10  -5 -10    0.24    0.34
   4  -6 -10    5.04    0.48
   4  -6 -10    6.01    0.55
   4  -6 -10    3.76    0.49
   4  -6 -10    4.60    0.59
  -4   6  10    5.35    0.53
  -4   6  10    5.01    0.24
   3  -6 -10    0.43    0.24
   3  -6 -10    0.32    0.23
   3  -6 -10    0.40    0.24
   3  -6 -10    0.06    0.21
   3  -6 -10    0.08    0.27
  -3   6  10    0.75    0.24
  -3   6  10    0.06    0.10
   2  -6 -10   11.38    0.56
   2  -6 -10   11.98    0.61
   2  -6 -10   11.67    0.57
   2  -6 -10   12.38    0.49
   2  -6 -10   11.27    0.47
  -2   6  10   11.46    0.46
  -2   6  10   11.76    0.38
   1  -6 -10    0.86    0.18
   1  -6 -10    0.34    0.15
   1  -6 -10    0.44    0.23
   1  -6 -10    0.41    0.20
   1  -6 -10    0.52    0.23
  -1   6  10    0.50    0.15
  -1   6  10    0.46    0.11
   0  -6 -10   12.62    0.57
   0  -6 -10   12.20    0.49
   0  -6 -10   12.91    0.67
   0  -6 -10   12.07    0.41
   0   6  10   13.45    0.42
   0   6  10   12.64    0.41
  -1  -6 -10    2.07    0.27
  -1  -6 -10    1.86    0.25
  -1  -6 -10    1.83    0.27
  -1  -6 -10    1.60    0.18
   1   6  10    1.70    0.17
   1   6  10    1.82    0.18
   1   6  10    1.87    0.25
  -2  -6 -10   19.16    0.54
  -2  -6 -10   19.01    0.69
  -2  -6 -10   19.13    0.82
  -2  -6 -10   19.38    0.55
  -2  -6 -10   18.99    0.61
   2   6  10   19.55    0.59
   2   6  10   21.18    0.56
   2   6  10   20.66    0.60
  -3  -6 -10    0.05    0.15
  -3  -6 -10    0.08    0.20
  -3  -6 -10    0.13    0.18
  -3  -6 -10    0.39    0.15
  -3  -6 -10    0.18    0.11
   3   6  10    0.12    0.11
   3   6  10    0.10    0.10
   3   6  10    0.21    0.11
  -4  -6 -10   20.72    0.68
  -4  -6 -10   19.65    0.86
  -4  -6 -10   20.61    0.70
  -4  -6 -10   20.65    0.75
  -4  -6 -10   20.96    0.61
   4   6  10   20.85    0.65
   4   6  10   21.06    0.66
  -5  -6 -10   -0.12    0.27
  -5  -6 -10    0.18    0.24
   5   6  10    0.43    0.15
   5   6  10    0.23    0.14
   5   6  10    0.02    0.13
  -6  -6 -10   14.23    0.78
  -6  -6 -10   14.23    0.61
  -6  -6 -10   14.15    0.71
   6   6  10   13.97    0.57
   6   6  10   13.11    0.57
  -7  -6 -10    0.55    0.35
  -7  -6 -10   -0.09    0.22
  -7  -6 -10    0.38    0.29
   7   6  10    0.37    0.21
   7   6  10    0.47    0.20
  -8  -6 -10    6.39    0.54
  -8  -6 -10    6.31    0.50
  -8  -6 -10    6.69    0.68
   8   6  10    5.76    0.43
   8   6  10    7.03    0.53
  -9  -6 -10   -0.65    0.42
  -9  -6 -10    0.62    0.30
  -9  -6 -10    0.17    0.31
   9   6  10    0.35    0.25
   9   6  10    0.67    0.41
   9   6  10   -0.31    0.24
   3  -7 -10    8.23    0.51
   3  -7 -10    9.45    0.62
   3  -7 -10    8.76    0.59
   3  -7 -10    8.11    0.51
   3  -7 -10    7.46    0.51
  -3   7  10    7.41    0.47
  -3   7  10    7.82    0.29
   2  -7 -10    1.48    0.29
   2  -7 -10    1.34    0.26
   2  -7 -10    1.71    0.32
   2  -7 -10    1.10    0.27
   2  -7 -10    1.38    0.30
  -2   7  10    1.03    0.21
  -2   7  10    0.92    0.13
   1  -7 -10   10.35    0.53
   1  -7 -10   10.63    0.56
   1  -7 -10   10.50    0.53
   1  -7 -10   10.13    0.42
   1  -7 -10    9.65    0.48
  -1   7  10   10.36    0.36
  -1   7  10   10.66    0.41
   0  -7 -10    0.21    0.20
   0  -7 -10    0.11    0.17
   0  -7 -10    0.07    0.18
   0  -7 -10    0.16    0.14
   0   7  10    0.20    0.20
   0   7  10    0.11    0.12
  -1  -7 -10   16.92    0.70
  -1  -7 -10   17.21    0.67
  -1  -7 -10   15.45    0.85
  -1  -7 -10   17.23    0.54
   1   7  10   17.49    0.51
   1   7  10   17.47    0.53
   1   7  10   17.98    0.53
  -2  -7 -10    1.96    0.26
  -2  -7 -10    1.94    0.20
  -2  -7 -10    2.06    0.30
  -2  -7 -10    2.06    0.25
   2   7  10    2.09    0.20
   2   7  10    1.88    0.20
  -3  -7 -10   19.47    0.68
  -3  -7 -10   18.99    0.60
  -3  -7 -10   19.37    0.67
  -3  -7 -10   18.72    0.69
  -3  -7 -10   18.29    0.73
   3   7  10   19.76    0.61
   3   7  10   19.61    0.61
  -4  -7 -10    1.53    0.19
  -4  -7 -10    0.99    0.20
  -4  -7 -10    1.47    0.28
  -4  -7 -10    1.22    0.22
   4   7  10    1.36    0.20
   4   7  10    1.60    0.20
  -5  -7 -10   10.01    0.54
  -5  -7 -10    9.72    0.56
  -5  -7 -10    9.49    0.44
   5   7  10    9.63    0.45
   5   7  10    9.86    0.46
  -6  -7 -10    0.11    0.26
  -6  -7 -10    0.47    0.30
  -6  -7 -10    0.03    0.28
   6   7  10    0.62    0.21
   6   7  10    0.45    0.22
  -7  -7 -10    8.69    0.57
  -7  -7 -10    7.69    0.54
  -7  -7 -10    8.35    0.55
   7   7  10    7.81    0.47
   7   7  10    8.23    0.48
  -8  -7 -10   -0.01    0.24
  -8  -7 -10   -0.07    0.28
  -8  -7 -10   -0.22    0.25
   8   7  10   -0.12    0.27
   8   7  10   -0.05    0.22
   8   7  10    0.30    0.21
  -9  -7 -10    4.82    0.55
  -9  -7 -10    3.07    0.43
  -9  -7 -10    4.88    0.54
   9   7  10    3.68    0.52
   9   7  10    4.06    0.48
   9   7  10    6.24    0.67
   9   7  10    4.05    0.48
   3  -8 -10   -0.41    0.23
   3  -8 -10    0.44    0.32
   3  -8 -10    0.07    0.26
   3  -8 -10   -0.04    0.27
   3  -8 -10   -0.44    0.26
   2  -8 -10   13.00    0.64
   2  -8 -10   11.81    0.55
   2  -8 -10   11.94    0.58
   2  -8 -10   12.46    0.62
   2  -8 -10   12.27    0.66
  -2   8  10   11.49    0.37
   1  -8 -10    0.56    0.25
   1  -8 -10    0.58    0.22
   1  -8 -10    0.34    0.23
   1  -8 -10    0.05    0.18
  -1   8  10    0.27    0.11
   0  -8 -10   22.51    0.81
   0  -8 -10   23.08    0.82
   0  -8 -10   21.91    0.69
   0   8  10   22.07    0.64
  -1  -8 -10    0.30    0.24
  -1  -8 -10    0.42    0.20
  -1  -8 -10    0.33    0.23
  -1  -8 -10    0.53    0.15
   1   8  10    0.59    0.14
  -2  -8 -10   12.98    0.62
  -2  -8 -10   13.12    0.47
   2   8  10   14.00    0.47
   2   8  10   13.32    0.48
  -3  -8 -10   -0.06    0.13
  -3  -8 -10    0.08    0.17
  -3  -8 -10   -0.05    0.18
  -3  -8 -10    0.13    0.25
   3   8  10   -0.04    0.12
   3   8  10   -0.06    0.13
  -4  -8 -10   18.75    0.73
  -4  -8 -10   18.69    0.70
  -4  -8 -10   20.04    0.65
  -4  -8 -10   18.41    0.61
  -4  -8 -10   16.91    0.86
   4   8  10   18.93    0.63
   4   8  10   18.37    0.64
  -5  -8 -10    0.52    0.21
  -5  -8 -10    0.70    0.20
  -5  -8 -10    0.85    0.29
  -5  -8 -10    0.60    0.25
  -5  -8 -10    0.82    0.33
   5   8  10    0.25    0.23
   5   8  10    0.57    0.20
  -6  -8 -10   10.87    0.62
  -6  -8 -10   12.11    0.66
  -6  -8 -10   10.85    0.60
  -6  -8 -10   11.27    0.71
   6   8  10   11.65    0.55
  -7  -8 -10    0.20    0.24
  -7  -8 -10    0.31    0.26
  -7  -8 -10    0.52    0.27
   7   8  10    0.08    0.19
   7   8  10    0.08    0.23
   7   8  10    0.44    0.19
  -8  -8 -10    2.77    0.42
  -8  -8 -10    2.39    0.36
  -8  -8 -10    3.20    0.42
   8   8  10    2.51    0.39
   8   8  10    3.23    0.45
   8   8  10    3.11    0.37
   8   8  10    3.14    0.42
  -9  -8 -10    0.53    0.32
  -9  -8 -10   -0.04    0.26
  -9  -8 -10    0.19    0.31
   9   8  10    0.69    0.39
   9   8  10   -0.07    0.28
   9   8  10    0.11    0.28
   9   8  10    0.44    0.33
   2  -9 -10    1.02    0.30
   2  -9 -10    1.02    0.28
   2  -9 -10    0.77    0.29
   2  -9 -10    1.03    0.29
   2  -9 -10    0.30    0.29
   1  -9 -10   13.92    0.58
   1  -9 -10   14.46    0.64
   1  -9 -10   13.92    0.63
   1  -9 -10   14.04    0.67
  -1   9  10   14.01    0.45
   0  -9 -10    0.73    0.25
   0  -9 -10    0.30    0.18
   0  -9 -10    0.17    0.22
   0  -9 -10    0.30    0.23
   0   9  10    0.29    0.12
  -1  -9 -10   18.20    0.72
  -1  -9 -10   17.87    0.73
  -1  -9 -10   17.89    0.61
   1   9  10   18.16    0.57
  -2  -9 -10   -0.02    0.15
  -2  -9 -10    0.23    0.20
  -2  -9 -10    0.04    0.23
   2   9  10   -0.06    0.12
   2   9  10   -0.22    0.15
  -3  -9 -10   19.78    0.73
  -3  -9 -10   19.66    0.75
  -3  -9 -10   20.31    0.66
  -3  -9 -10   19.33    0.79
   3   9  10   21.13    0.67
   3   9  10   19.90    0.67
  -4  -9 -10    0.04    0.31
  -4  -9 -10    0.83    0.26
  -4  -9 -10    0.28    0.22
  -4  -9 -10    0.78    0.18
  -4  -9 -10    0.42    0.19
   4   9  10    0.33    0.17
   4   9  10    0.61    0.20
  -5  -9 -10   15.82    0.62
  -5  -9 -10   15.97    0.74
  -5  -9 -10   16.26    0.76
  -5  -9 -10   16.04    0.65
   5   9  10   16.50    0.63
   5   9  10   15.50    0.62
  -6  -9 -10   -0.36    0.22
  -6  -9 -10    0.23    0.26
  -6  -9 -10    0.22    0.28
  -6  -9 -10    0.10    0.25
   6   9  10    0.20    0.22
   6   9  10    0.04    0.19
  -7  -9 -10    6.31    0.53
  -7  -9 -10    5.35    0.52
  -7  -9 -10    6.34    0.51
   7   9  10    5.63    0.49
   7   9  10    6.29    0.38
   7   9  10    6.34    0.48
   7   9  10    6.79    0.51
  -8  -9 -10    0.25    0.29
  -8  -9 -10   -0.15    0.26
  -8  -9 -10    0.09    0.25
   8   9  10   -0.01    0.26
   8   9  10   -0.46    0.27
   8   9  10   -0.29    0.30
   8   9  10    0.43    0.28
  -9  -9 -10    2.47    0.42
  -9  -9 -10    2.00    0.36
  -9  -9 -10    1.63    0.39
   9   9  10    3.37    0.47
   9   9  10    2.42    0.37
   1 -10 -10    0.43    0.26
   1 -10 -10    0.80    0.31
   1 -10 -10    0.43    0.26
   1 -10 -10    0.26    0.24
  -1  10  10    0.59    0.14
   0 -10 -10   13.61    0.66
   0 -10 -10   13.30    0.70
   0 -10 -10   14.03    0.66
   0  10  10   13.07    0.47
  -1 -10 -10    1.53    0.29
  -1 -10 -10    1.80    0.31
  -1 -10 -10    2.21    0.32
   1  10  10    1.68    0.24
  -2 -10 -10   11.39    0.57
  -2 -10 -10   10.48    0.58
   2  10  10   10.41    0.45
  -3 -10 -10   -0.09    0.21
  -3 -10 -10   -0.01    0.24
  -3 -10 -10   -0.07    0.19
   3  10  10   -0.10    0.17
   3  10  10   -0.10    0.14
  -4 -10 -10   13.04    0.67
  -4 -10 -10   13.15    0.63
  -4 -10 -10   14.42    0.51
  -4 -10 -10   13.15    0.68
   4  10  10   12.76    0.54
   4  10  10   13.54    0.57
  -5 -10 -10    0.01    0.23
  -5 -10 -10    0.11    0.22
  -5 -10 -10    0.19    0.24
  -5 -10 -10   -0.14    0.26
   5  10  10   -0.16    0.17
   5  10  10   -0.29    0.21
  -6 -10 -10   13.36    0.84
  -6 -10 -10   13.88    0.70
  -6 -10 -10   13.28    0.72
   6  10  10   11.54    0.62
   6  10  10   11.36    0.63
   6  10  10   12.28    0.61
  -7 -10 -10    0.34    0.29
  -7 -10 -10   -0.47    0.33
  -7 -10 -10   -0.19    0.26
  -7 -10 -10    0.09    0.30
   7  10  10    0.07    0.25
   7  10  10    0.55    0.26
   7  10  10    0.12    0.29
  -8 -10 -10    4.25    0.54
  -8 -10 -10    4.12    0.51
  -8 -10 -10    3.72    0.50
   8  10  10    3.80    0.51
   8  10  10    3.73    0.45
   8  10  10    3.87    0.54
   0 -11 -10    0.73    0.30
   0 -11 -10    0.85    0.28
   0 -11 -10    0.97    0.32
   0  11  10    1.17    0.30
   0  11  10    0.99    0.19
  -1 -11 -10    6.23    0.56
  -1 -11 -10    5.65    0.48
  -1 -11 -10    6.76    0.53
   1  11  10    6.07    0.37
   1  11  10    5.99    0.50
  -2 -11 -10    0.60    0.28
  -2 -11 -10   -0.24    0.22
   2  11  10    0.07    0.16
   2  11  10   -0.03    0.24
  -3 -11 -10   11.35    0.60
  -3 -11 -10   11.36    0.65
   3  11  10   11.47    0.52
   3  11  10   10.66    0.62
   3  11  10   10.84    0.53
  -4 -11 -10    0.75    0.32
  -4 -11 -10    0.58    0.29
   4  11  10    0.43    0.24
   4  11  10    0.81    0.21
   4  11  10    0.36    0.27
  -5 -11 -10    8.99    0.63
  -5 -11 -10    8.01    0.59
  -5 -11 -10    7.44    0.58
  -5 -11 -10    7.79    0.49
   5  11  10    7.62    0.56
   5  11  10    7.42    0.48
   5  11  10    7.06    0.54
  -6 -11 -10   -0.02    0.30
  -6 -11 -10   -0.02    0.27
  -6 -11 -10    0.17    0.29
  -6 -11 -10    0.47    0.29
   6  11  10    0.31    0.24
   6  11  10   -0.03    0.24
   6  11  10    0.50    0.32
  -7 -11 -10    5.36    0.59
  -7 -11 -10    5.95    0.54
  -7 -11 -10    5.13    0.52
  -7 -11 -10    5.32    0.66
   7  11  10    3.91    0.50
   7  11  10    4.70    0.57
   7  11  10    4.22    0.50
  -1 -12 -10    0.46    0.31
  -1 -12 -10    1.21    0.33
  -1 -12 -10    1.02    0.29
   1  12  10    1.27    0.35
   1  12  10    1.01    0.23
  -2 -12 -10    6.80    0.53
  -2 -12 -10    7.10    0.57
  -2 -12 -10    7.32    0.59
   2  12  10    6.39    0.42
   2  12  10    6.07    0.53
  -3 -12 -10    0.55    0.27
  -3 -12 -10    0.83    0.31
   3  12  10    0.65    0.22
   3  12  10    0.51    0.31
  -4 -12 -10    4.88    0.50
  -4 -12 -10    5.50    0.52
   4  12  10    4.87    0.41
   4  12  10    4.33    0.53
  -5 -12 -10   -0.21    0.26
  -5 -12 -10   -0.14    0.28
  -5 -12 -10   -0.12    0.32
   5  12  10    0.05    0.30
   5  12  10    0.02    0.20
   5  12  10   -0.08    0.29
  -6 -12 -10    3.61    0.47
  -6 -12 -10    4.09    0.52
  -6 -12 -10    3.30    0.49
   6  12  10    4.02    0.53
   6  12  10    3.70    0.49
   6  12  10    3.30    0.44
   1   7 -11    0.29    0.26
   1   7 -11    0.05    0.29
   1   7 -11    0.18    0.33
  -1  -7  11    0.34    0.33
  -1  -7  11    0.08    0.30
  -1  -7  11   -0.29    0.23
   0   7 -11    4.47    0.51
   0   7 -11    5.28    0.53
   0   7 -11    4.58    0.47
   0  -7  11    4.51    0.61
   0  -7  11    4.18    0.50
   0  -7  11    4.55    0.47
  -1   7 -11    0.23    0.40
  -1   7 -11    0.08    0.27
  -1   7 -11   -0.07    0.37
  -1   7 -11    0.51    0.28
  -1   7 -11    0.22    0.23
   1  -7  11    0.20    0.38
   1  -7  11    0.44    0.28
   1  -7  11    0.18    0.23
  -2   7 -11    2.77    0.39
  -2   7 -11    2.94    0.42
  -2   7 -11    2.91    0.38
  -2   7 -11    2.77    0.39
  -2   7 -11    3.30    0.40
   2  -7  11    2.49    0.37
   2  -7  11    3.12    0.39
  -3   7 -11    0.98    0.30
  -3   7 -11    1.00    0.30
  -3   7 -11    0.72    0.27
  -3   7 -11    0.77    0.31
   3  -7  11    0.30    0.22
   3  -7  11    0.62    0.29
   4  -7  11    1.73    0.35
  -3  -6  11    2.20    0.45
  -3  -6  11    1.98    0.36
   2   6 -11   -0.05    0.26
   2   6 -11   -0.16    0.34
   2   6 -11    0.39    0.27
   2   6 -11    0.12    0.30
  -2  -6  11   -0.21    0.30
  -2  -6  11    0.00    0.30
  -2  -6  11    0.26    0.25
   1   6 -11    2.66    0.34
   1   6 -11    2.29    0.37
   1   6 -11    3.12    0.44
   1   6 -11    2.45    0.41
  -1  -6  11    3.33    0.41
  -1  -6  11    3.10    0.39
  -1  -6  11    2.78    0.41
   0   6 -11   -0.28    0.23
   0   6 -11   -0.08    0.27
   0   6 -11    0.25    0.22
   0  -6  11    0.25    0.29
   0  -6  11   -0.02    0.24
   0  -6  11    0.30    0.22
  -1   6 -11    4.32    0.46
  -1   6 -11    4.53    0.63
  -1   6 -11    5.10    0.42
  -1   6 -11    5.85    0.49
  -1   6 -11    5.45    0.47
   1  -6  11    5.49    0.56
   1  -6  11    4.65    0.41
   1  -6  11    4.66    0.46
  -2   6 -11    0.37    0.29
  -2   6 -11    0.14    0.28
  -2   6 -11    0.45    0.48
  -2   6 -11    0.38    0.34
  -2   6 -11   -0.18    0.20
   2  -6  11    0.21    0.25
   2  -6  11    0.28    0.21
  -3   6 -11    4.56    0.44
  -3   6 -11    4.18    0.48
  -3   6 -11    5.20    0.62
  -3   6 -11    4.43    0.46
  -3   6 -11    5.17    0.40
   3  -6  11    3.97    0.44
   3  -6  11    4.66    0.40
  -4   6 -11    0.35    0.26
  -4   6 -11    0.54    0.25
  -4   6 -11    0.06    0.24
  -4   6 -11    0.46    0.28
   4  -6  11    0.36    0.27
   4  -6  11    0.39    0.23
  -5   6 -11    1.53    0.33
  -5   6 -11    2.08    0.31
  -5   6 -11    1.41    0.33
   5  -6  11    1.39    0.28
   5  -6  11    2.02    0.35
   3   5 -11    0.07    0.32
   3   5 -11    0.46    0.29
   3   5 -11    0.14    0.30
   3   5 -11    0.02    0.32
  -3  -5  11    0.53    0.29
  -3  -5  11    0.34    0.31
  -3  -5  11    0.30    0.34
   2   5 -11    2.95    0.42
   2   5 -11    2.65    0.40
   2   5 -11    1.79    0.34
  -2  -5  11    2.35    0.35
  -2  -5  11    1.96    0.38
  -2  -5  11    1.85    0.31
   1   5 -11   -0.08    0.26
   1   5 -11   -0.11    0.23
   1   5 -11    0.50    0.25
   1   5 -11    0.01    0.21
  -1  -5  11    0.04    0.23
  -1  -5  11   -0.04    0.21
  -1  -5  11   -0.46    0.25
   0   5 -11    4.01    0.33
   0   5 -11    4.49    0.44
   0   5 -11    4.16    0.45
   0   5 -11    4.33    0.40
   0  -5  11    4.59    0.40
   0  -5  11    4.33    0.53
   0  -5  11    5.65    0.46
  -1   5 -11   -0.17    0.23
  -1   5 -11   -0.21    0.17
  -1   5 -11    0.13    0.24
  -1   5 -11   -0.32    0.25
  -1   5 -11   -0.15    0.27
   1  -5  11   -0.37    0.20
   1  -5  11   -0.25    0.24
   1  -5  11    0.14    0.19
  -2   5 -11    6.31    0.40
  -2   5 -11    6.45    0.43
  -2   5 -11    6.02    0.44
  -2   5 -11    6.10    0.50
  -2   5 -11    6.09    0.42
   2  -5  11    5.77    0.41
   2  -5  11    5.78    0.46
   2  -5  11    5.79    0.80
  -3   5 -11    0.53    0.27
  -3   5 -11    0.32    0.23
  -3   5 -11    0.02    0.19
  -3   5 -11    0.53    0.29
  -3   5 -11    0.18    0.19
   3  -5  11    0.24    0.23
   3  -5  11    0.60    0.29
   3  -5  11    0.36    0.19
  -4   5 -11    4.50    0.81
  -4   5 -11    4.26    0.41
  -4   5 -11    3.33    0.38
  -4   5 -11    3.19    0.43
   4  -5  11    4.57    0.43
   4  -5  11    4.12    0.39
  -5   5 -11    0.42    0.26
  -5   5 -11    1.03    0.26
  -5   5 -11    0.08    0.26
  -5   5 -11    0.77    0.25
   5  -5  11    0.37    0.23
   5  -5  11    1.18    0.29
  -6   5 -11    2.29    0.33
  -6   5 -11    1.47    0.32
  -6   5 -11    1.43    0.30
  -6   5 -11    1.25    0.32
   6  -5  11    1.84    0.29
   6  -5  11    2.08    0.40
   6  -5  11    2.04    0.36
   4   4 -11    0.04    0.46
   4   4 -11    0.12    0.36
   4   4 -11   -0.06    0.29
   4   4 -11    0.03    0.29
  -4  -4  11    0.13    0.32
  -4  -4  11    0.19    0.27
  -4  -4  11    0.43    0.30
   3   4 -11    5.79    0.55
   3   4 -11    4.90    0.52
   3   4 -11    5.43    0.53
   3   4 -11    5.75    0.49
  -3  -4  11    5.40    0.51
  -3  -4  11    6.20    0.49
  -3  -4  11    5.87    0.57
   2   4 -11    0.14    0.25
   2   4 -11    0.00    0.22
   2   4 -11   -0.13    0.25
  -2  -4  11    0.21    0.22
  -2  -4  11    0.13    0.24
  -2  -4  11    0.19    0.27
   1   4 -11    3.31    0.42
   1   4 -11    3.60    0.43
   1   4 -11    4.06    0.39
   1   4 -11    4.15    0.44
  -1  -4  11    4.25    0.43
  -1  -4  11    4.27    0.45
  -1  -4  11    4.35    0.39
   0   4 -11    0.46    0.23
   0   4 -11    0.24    0.23
   0   4 -11    0.42    0.19
   0   4 -11    0.18    0.20
   0  -4  11    0.27    0.20
   0  -4  11    0.20    0.23
  -1   4 -11    3.56    0.38
  -1   4 -11    4.59    0.45
  -1   4 -11    3.89    0.37
  -1   4 -11    4.11    0.37
  -1   4 -11    4.33    0.36
  -1   4 -11    3.91    0.30
   1  -4  11    4.29    0.36
   1  -4  11    3.93    0.39
   1  -4  11    3.94    0.42
  -2   4 -11    0.18    0.21
  -2   4 -11    0.30    0.21
  -2   4 -11    0.04    0.17
  -2   4 -11    0.13    0.21
  -2   4 -11    0.09    0.18
   2  -4  11    0.13    0.22
   2  -4  11    0.11    0.20
   2  -4  11    0.23    0.18
  -3   4 -11    8.02    0.47
  -3   4 -11    8.65    0.49
  -3   4 -11    8.58    0.50
  -3   4 -11    9.27    0.41
   3  -4  11    8.35    0.49
   3  -4  11    8.80    0.47
   3  -4  11    9.06    0.51
  -4   4 -11   -0.14    0.18
  -4   4 -11   -0.01    0.20
  -4   4 -11    0.12    0.23
   4  -4  11    0.06    0.18
   4  -4  11    0.16    0.22
   4  -4  11   -0.10    0.23
  -5   4 -11    4.49    0.39
  -5   4 -11    3.24    0.37
  -5   4 -11    4.40    0.49
  -5   4 -11    3.97    0.42
   5  -4  11    4.13    0.41
   5  -4  11    3.44    0.38
  -6   4 -11    0.67    0.29
  -6   4 -11    0.64    0.26
  -6   4 -11    0.84    0.27
  -6   4 -11    0.55    0.23
   6  -4  11    0.22    0.24
   6  -4  11    0.36    0.25
   6  -4  11    0.82    0.24
  -7   4 -11    1.44    0.32
  -7   4 -11    1.60    0.31
  -7   4 -11    1.31    0.31
   7  -4  11    1.46    0.39
   7  -4  11    1.70    0.29
   7  -4  11    1.83    0.36
   7  -4  11    0.70    0.33
   4   3 -11    3.40    0.47
   4   3 -11    3.16    0.46
   4   3 -11    3.47    0.60
   4   3 -11    3.61    0.52
  -4  -3  11    3.53    0.51
  -4  -3  11    4.13    0.50
  -4  -3  11    4.95    0.48
   3   3 -11    0.29    0.27
   3   3 -11   -0.23    0.24
   3   3 -11    0.25    0.29
   3   3 -11    0.08    0.25
  -3  -3  11   -0.27    0.23
  -3  -3  11    0.30    0.22
  -3  -3  11    0.61    0.30
   2   3 -11    4.85    0.44
   2   3 -11    3.45    0.44
   2   3 -11    4.36    0.44
   2   3 -11    3.71    0.44
  -2  -3  11    3.69    0.44
  -2  -3  11    4.33    0.41
  -2  -3  11    5.00    0.49
   1   3 -11    0.48    0.22
   1   3 -11    0.16    0.21
   1   3 -11    0.15    0.22
   1   3 -11    0.10    0.20
  -1  -3  11    0.38    0.27
  -1  -3  11    0.24    0.20
  -1  -3  11    0.51    0.25
   0   3 -11    9.59    0.48
   0   3 -11    9.31    0.49
   0   3 -11    8.51    0.59
   0   3 -11    8.56    0.50
   0  -3  11    7.60    0.47
   0  -3  11    9.61    0.51
  -1   3 -11    0.30    0.21
  -1   3 -11    0.45    0.19
  -1   3 -11    0.41    0.18
  -1   3 -11    0.41    0.19
  -1   3 -11    0.55    0.22
   1  -3  11    0.31    0.20
   1  -3  11    0.26    0.18
   1  -3  11    0.25    0.31
  -2   3 -11    9.55    0.45
  -2   3 -11    9.50    0.51
  -2   3 -11    8.94    0.47
  -2   3 -11    9.37    0.42
  -2   3 -11    9.36    0.49
   2  -3  11   10.24    0.50
   2  -3  11    9.79    0.48
   2  -3  11   10.22    0.50
  -3   3 -11    0.24    0.21
  -3   3 -11    0.34    0.19
  -3   3 -11    0.45    0.16
  -3   3 -11    0.72    0.21
  -3   3 -11    0.43    0.21
   3  -3  11    0.44    0.18
   3  -3  11    0.68    0.26
   3  -3  11    0.35    0.21
  -4   3 -11    8.11    0.46
  -4   3 -11    7.58    0.49
  -4   3 -11    8.58    0.46
  -4   3 -11    8.43    0.47
  -4   3 -11    9.26    0.36
   4  -3  11    9.14    0.51
   4  -3  11    8.20    0.48
   4  -3  11    8.33    0.46
  -5   3 -11    0.31    0.25
  -5   3 -11    0.27    0.19
  -5   3 -11    0.22    0.23
  -5   3 -11    0.12    0.22
   5  -3  11    0.46    0.22
   5  -3  11   -0.19    0.18
   5  -3  11    0.52    0.26
  -6   3 -11    4.28    0.42
  -6   3 -11    3.91    0.38
  -6   3 -11    3.93    0.42
  -6   3 -11    4.93    0.50
   6  -3  11    4.36    0.42
   6  -3  11    4.34    0.39
  -7   3 -11    0.36    0.24
  -7   3 -11    0.39    0.24
  -7   3 -11    0.33    0.25
   7  -3  11    0.38    0.30
   7  -3  11    0.23    0.23
   7  -3  11    0.10    0.26
   4   2 -11    0.77    0.30
   4   2 -11   -0.08    0.25
   4   2 -11   -0.32    0.32
  -4  -2  11    0.28    0.19
  -4  -2  11   -0.19    0.31
  -4  -2  11    0.06    0.30
   3   2 -11    3.56    0.47
   3   2 -11    4.22    0.44
   3   2 -11    3.36    0.40
   3   2 -11    4.44    0.37
  -3  -2  11    3.55    0.46
  -3  -2  11    3.89    0.40
   2   2 -11    0.53    0.25
   2   2 -11   -0.15    0.18
   2   2 -11   -0.17    0.20
   2   2 -11   -0.19    0.23
  -2  -2  11   -0.21    0.17
  -2  -2  11   -0.12    0.25
  -2  -2  11   -0.06    0.16
   1   2 -11   14.52    0.56
   1   2 -11   14.24    0.59
   1   2 -11   14.17    0.64
   1   2 -11   13.48    0.62
  -1  -2  11   14.91    0.65
  -1  -2  11   14.77    0.59
  -1  -2  11   15.03    0.57
   0   2 -11    0.17    0.19
   0   2 -11    0.10    0.17
   0   2 -11   -0.06    0.17
   0   2 -11   -0.24    0.17
   0  -2  11   -0.39    0.19
   0  -2  11    0.06    0.16
   0  -2  11    0.41    0.18
  -1   2 -11   11.80    0.50
  -1   2 -11   12.28    0.48
  -1   2 -11   11.55    0.53
   1  -2  11   11.92    0.55
   1  -2  11   11.50    0.50
   1  -2  11   11.73    0.49
  -2   2 -11    1.08    0.21
  -2   2 -11    0.97    0.22
  -2   2 -11    0.96    0.22
  -2   2 -11    1.41    0.19
  -2   2 -11    1.26    0.23
   2  -2  11    1.44    0.23
   2  -2  11    1.52    0.22
   2  -2  11    1.11    0.25
  -3   2 -11   10.89    0.54
  -3   2 -11   11.20    0.43
  -3   2 -11   11.86    0.49
  -3   2 -11   11.19    0.52
  -3   2 -11    9.80    0.60
   3  -2  11   11.75    0.51
   3  -2  11   10.60    0.52
  -4   2 -11    0.46    0.21
  -4   2 -11    0.38    0.21
  -4   2 -11    0.43    0.15
  -4   2 -11    0.50    0.19
   4  -2  11    0.55    0.19
   4  -2  11    0.43    0.19
   4  -2  11    0.68    0.23
  -5   2 -11    9.77    0.57
  -5   2 -11   11.81    0.56
  -5   2 -11   10.60    0.51
   5  -2  11   10.87    0.51
   5  -2  11   11.00    0.55
   5  -2  11   10.85    0.54
  -6   2 -11    0.20    0.20
  -6   2 -11    0.47    0.25
  -6   2 -11    0.49    0.25
   6  -2  11    0.60    0.29
   6  -2  11    0.23    0.22
   6  -2  11    0.00    0.18
  -7   2 -11    2.97    0.39
  -7   2 -11    3.44    0.42
  -7   2 -11    2.51    0.33
   7  -2  11    2.62    0.37
   7  -2  11    2.99    0.37
  -8   2 -11    0.40    0.28
  -8   2 -11    0.29    0.25
  -8   2 -11    0.55    0.28
   8  -2  11    0.25    0.29
   8  -2  11    0.07    0.28
   8  -2  11    0.43    0.23
   4   1 -11    4.04    0.45
   4   1 -11    3.77    0.46
   4   1 -11    4.90    0.54
  -4  -1  11    4.38    0.43
  -4  -1  11    4.66    0.38
  -4  -1  11    4.09    0.54
   3   1 -11   -0.16    0.24
   3   1 -11   -0.32    0.18
   3   1 -11   -0.29    0.24
   3   1 -11    0.36    0.23
  -3  -1  11    0.33    0.18
  -3  -1  11    0.11    0.25
  -3  -1  11   -0.12    0.19
   2   1 -11    5.40    0.41
   2   1 -11    3.77    0.35
   2   1 -11    4.49    0.42
   2   1 -11    3.78    0.39
  -2  -1  11    5.37    0.52
  -2  -1  11    4.01    0.34
  -2  -1  11    4.10    0.42
   1   1 -11   -0.16    0.14
   1   1 -11   -0.02    0.21
   1   1 -11   -0.16    0.20
   1   1 -11   -0.13    0.18
  -1  -1  11   -0.15    0.15
  -1  -1  11    0.26    0.22
  -1  -1  11   -0.04    0.14
   0   1 -11   18.06    0.69
   0   1 -11   18.12    0.67
   0   1 -11   18.80    0.67
   0   1 -11   20.05    0.65
   0   1 -11   18.36    0.70
   0  -1  11   19.42    0.64
   0  -1  11   18.86    0.65
  -1   1 -11    0.48    0.18
  -1   1 -11    0.54    0.21
  -1   1 -11    0.29    0.16
  -1   1 -11    0.03    0.15
   1  -1  11    0.34    0.14
   1  -1  11    0.41    0.16
   1  -1  11    0.02    0.19
  -2   1 -11   16.62    0.56
  -2   1 -11   15.82    0.57
  -2   1 -11   15.80    0.64
  -2   1 -11   14.99    0.55
   2  -1  11   14.95    0.58
   2  -1  11   15.70    0.58
   2  -1  11   15.60    0.60
  -3   1 -11    1.45    0.23
  -3   1 -11    1.37    0.23
  -3   1 -11    1.60    0.25
  -3   1 -11    1.35    0.22
  -3   1 -11    1.34    0.18
   3  -1  11    1.30    0.20
   3  -1  11    0.81    0.22
   3  -1  11    1.35    0.21
  -4   1 -11    9.37    0.46
  -4   1 -11    9.90    0.49
  -4   1 -11    9.83    0.46
  -4   1 -11    9.35    0.37
   4  -1  11    8.56    0.60
   4  -1  11    9.46    0.52
   4  -1  11    9.66    0.46
  -5   1 -11    1.46    0.27
  -5   1 -11    1.08    0.23
  -5   1 -11    1.45    0.25
  -5   1 -11    1.25    0.16
   5  -1  11    0.99    0.22
   5  -1  11    1.25    0.25
   5  -1  11    1.42    0.25
  -6   1 -11    9.82    0.54
  -6   1 -11    9.65    0.49
  -6   1 -11    9.24    0.55
   6  -1  11   10.93    0.56
   6  -1  11    9.62    0.51
   6  -1  11    9.13    0.48
  -7   1 -11    0.25    0.27
  -7   1 -11    0.71    0.23
   7  -1  11    0.83    0.24
   7  -1  11    0.32    0.23
  -8   1 -11    3.52    0.41
  -8   1 -11    2.69    0.37
  -8   1 -11    4.14    0.48
   8  -1  11    3.54    0.40
   8  -1  11    3.84    0.46
   8  -1  11    3.23    0.46
   4   0 -11    0.39    0.25
   4   0 -11    0.59    0.27
   4   0 -11    0.33    0.27
  -4   0  11    0.02    0.30
  -4   0  11    0.49    0.18
   3   0 -11    4.16    0.41
   3   0 -11    4.76    0.41
  -3   0  11    4.61    0.46
  -3   0  11    3.99    0.35
  -3   0  11    4.65    0.35
   2   0 -11    0.07    0.21
   2   0 -11    0.08    0.19
   2   0 -11   -0.19    0.23
   2   0 -11   -0.14    0.13
  -2   0  11    0.02    0.23
  -2   0  11   -0.14    0.15
  -2   0  11    0.13    0.14
   1   0 -11   13.75    0.59
   1   0 -11   12.99    0.57
   1   0 -11   12.95    0.65
   1   0 -11   13.63    0.46
  -1   0  11   14.00    0.53
  -1   0  11   14.25    0.51
  -1   0  11   13.08    0.67
   0   0 -11    0.80    0.16
   0   0 -11    0.90    0.22
   0   0 -11    0.83    0.20
   0   0 -11    1.08    0.17
   0   0  11    0.85    0.16
   0   0  11    0.96    0.23
   0   0  11    0.98    0.17
  -1   0 -11   15.13    0.54
  -1   0 -11   13.80    0.69
  -1   0 -11   14.60    0.55
  -1   0 -11   14.77    0.56
  -1   0 -11   14.55    0.51
   1   0  11   15.14    0.57
   1   0  11   14.56    0.53
   1   0  11   14.86    0.53
  -2   0 -11    0.16    0.15
  -2   0 -11    0.11    0.21
  -2   0 -11    0.09    0.16
  -2   0 -11    0.16    0.17
  -2   0 -11    0.34    0.14
   2   0  11    0.34    0.15
   2   0  11    0.14    0.16
   2   0  11    0.02    0.13
  -3   0 -11   10.85    0.45
  -3   0 -11   11.28    0.50
  -3   0 -11   10.85    0.45
  -3   0 -11   11.32    0.48
  -3   0 -11   10.48    0.48
   3   0  11   10.63    0.46
   3   0  11   11.16    0.48
  -4   0 -11    1.56    0.20
  -4   0 -11    1.13    0.21
  -4   0 -11    1.34    0.25
  -4   0 -11    1.69    0.24
   4   0  11    1.40    0.22
   4   0  11    1.15    0.22
   4   0  11    1.29    0.21
  -5   0 -11   12.01    0.42
  -5   0 -11   12.60    0.54
  -5   0 -11   12.46    0.55
   5   0  11   12.55    0.59
   5   0  11   12.35    0.54
  -6   0 -11    0.57    0.38
  -6   0 -11    0.47    0.20
  -6   0 -11    0.39    0.23
   6   0  11    0.42    0.19
   6   0  11    0.69    0.23
   6   0  11    0.57    0.22
  -7   0 -11    7.31    0.46
  -7   0 -11    8.26    0.54
  -7   0 -11    7.80    0.53
   7   0  11    8.80    0.56
   7   0  11    7.77    0.46
   7   0  11    7.59    0.48
  -8   0 -11    0.71    0.30
  -8   0 -11    0.03    0.21
   8   0  11    0.79    0.29
   8   0  11    0.49    0.23
   8   0  11    0.51    0.26
  -9   0 -11    2.18    0.41
  -9   0 -11    3.04    0.42
  -9   0 -11    2.04    0.34
   9   0  11    1.72    0.36
   9   0  11    1.75    0.33
   4  -1 -11    7.88    0.54
   4  -1 -11    7.57    0.55
   4  -1 -11    6.93    0.58
  -4   1  11    7.52    0.62
  -4   1  11    7.04    0.39
   3  -1 -11    0.64    0.24
   3  -1 -11    1.16    0.27
   3  -1 -11    0.52    0.24
  -3   1  11    0.62    0.28
  -3   1  11    1.17    0.20
  -3   1  11    0.66    0.18
   2  -1 -11    8.14    0.47
   2  -1 -11    7.89    0.48
  -2   1  11    8.50    0.39
  -2   1  11    7.67    0.38
  -2   1  11    7.93    0.49
   1  -1 -11   -0.18    0.12
   1  -1 -11    0.10    0.19
   1  -1 -11   -0.28    0.19
  -1   1  11   -0.24    0.13
  -1   1  11    0.09    0.13
  -1   1  11    0.26    0.21
   0  -1 -11   10.93    0.39
   0  -1 -11   10.53    0.48
   0  -1 -11   10.06    0.39
   0  -1 -11   10.52    0.48
   0   1  11   10.46    0.47
   0   1  11   10.90    0.44
   0   1  11   10.86    0.42
  -1  -1 -11    0.01    0.16
  -1  -1 -11    0.01    0.13
  -1  -1 -11    0.24    0.16
  -1  -1 -11   -0.14    0.12
   1   1  11    0.15    0.11
   1   1  11   -0.04    0.12
   1   1  11    0.15    0.15
  -2  -1 -11   24.19    0.75
  -2  -1 -11   25.69    0.75
  -2  -1 -11   25.30    0.79
  -2  -1 -11   25.06    0.77
   2   1  11   24.18    0.76
   2   1  11   25.10    0.76
  -3  -1 -11    0.31    0.22
  -3  -1 -11    0.41    0.18
  -3  -1 -11    0.44    0.14
  -3  -1 -11    0.72    0.21
   3   1  11    0.42    0.15
   3   1  11    0.16    0.16
   3   1  11    0.26    0.15
  -4  -1 -11   13.06    0.56
  -4  -1 -11   13.36    0.52
  -4  -1 -11   13.75    0.56
  -4  -1 -11   13.89    0.47
   4   1  11   13.59    0.65
   4   1  11   13.14    0.52
   4   1  11   13.59    0.53
  -5  -1 -11    0.10    0.12
  -5  -1 -11    0.21    0.24
  -5  -1 -11    0.13    0.21
  -5  -1 -11    0.66    0.21
   5   1  11    0.46    0.19
   5   1  11    0.20    0.17
   5   1  11    0.22    0.17
  -6  -1 -11    7.40    0.46
  -6  -1 -11    7.01    0.50
  -6  -1 -11    6.88    0.42
  -6  -1 -11    6.35    0.37
   6   1  11    6.47    0.42
   6   1  11    6.07    0.41
   6   1  11    6.48    0.43
  -7  -1 -11    0.36    0.28
  -7  -1 -11    0.06    0.18
   7   1  11    0.38    0.19
   7   1  11    0.13    0.22
   7   1  11    0.72    0.25
  -8  -1 -11    5.56    0.45
  -8  -1 -11    6.30    0.80
  -8  -1 -11    5.90    0.53
   8   1  11    6.03    0.44
   8   1  11    6.25    0.51
   8   1  11    6.38    0.51
  -9  -1 -11    0.34    0.35
  -9  -1 -11   -0.10    0.23
  -9  -1 -11   -0.19    0.32
   9   1  11    0.22    0.23
   9   1  11    0.11    0.25
   4  -2 -11    0.17    0.25
   4  -2 -11    0.67    0.29
   4  -2 -11    0.25    0.28
  -4   2  11   -0.13    0.35
  -4   2  11    0.56    0.17
   3  -2 -11    6.60    0.47
   3  -2 -11    6.43    0.52
   3  -2 -11    7.05    0.46
  -3   2  11    6.54    0.36
  -3   2  11    7.19    0.52
   2  -2 -11    0.06    0.21
   2  -2 -11    0.35    0.20
  -2   2  11    0.15    0.14
  -2   2  11    0.21    0.24
  -2   2  11    0.05    0.13
   1  -2 -11   20.98    0.59
   1  -2 -11   19.96    0.73
  -1   2  11   18.82    0.63
  -1   2  11   19.67    0.70
  -1   2  11   20.56    0.62
   0  -2 -11    0.13    0.16
   0  -2 -11    0.11    0.14
   0  -2 -11    0.12    0.18
   0  -2 -11    0.14    0.12
   0   2  11   -0.12    0.10
   0   2  11   -0.24    0.16
   0   2  11    0.01    0.11
  -1  -2 -11   21.33    0.67
  -1  -2 -11   21.91    0.64
   1   2  11   20.66    0.66
   1   2  11   22.04    0.77
   1   2  11   21.58    0.66
  -2  -2 -11    0.08    0.19
  -2  -2 -11   -0.36    0.16
  -2  -2 -11    0.14    0.12
  -2  -2 -11   -0.05    0.13
  -2  -2 -11   -0.08    0.15
   2   2  11    0.00    0.14
   2   2  11    0.18    0.12
   2   2  11   -0.15    0.13
  -3  -2 -11   23.71    0.72
  -3  -2 -11   22.18    0.77
  -3  -2 -11   23.92    0.72
   3   2  11   23.57    0.76
   3   2  11   23.33    0.74
   3   2  11   24.13    0.73
  -4  -2 -11    0.04    0.12
  -4  -2 -11   -0.12    0.22
  -4  -2 -11    0.12    0.15
   4   2  11    0.07    0.13
   4   2  11    0.00    0.15
   4   2  11   -0.02    0.15
  -5  -2 -11   13.42    0.61
  -5  -2 -11   14.70    0.58
  -5  -2 -11   13.19    0.55
  -5  -2 -11   14.31    0.48
   5   2  11   14.00    0.55
   5   2  11   13.99    0.56
  -6  -2 -11   -0.12    0.13
  -6  -2 -11   -0.20    0.26
  -6  -2 -11   -0.01    0.22
  -6  -2 -11   -0.20    0.17
   6   2  11    0.02    0.18
   6   2  11   -0.12    0.16
   6   2  11    0.27    0.18
  -7  -2 -11    4.23    0.48
  -7  -2 -11    4.59    0.39
  -7  -2 -11    4.98    0.48
   7   2  11    4.35    0.45
   7   2  11    5.39    0.41
   7   2  11    5.41    0.40
  -8  -2 -11   -0.18    0.27
  -8  -2 -11    0.17    0.21
  -8  -2 -11    0.42    0.31
   8   2  11    0.10    0.19
   8   2  11    0.07    0.24
   8   2  11    0.39    0.36
  -9  -2 -11    2.45    0.44
  -9  -2 -11    1.67    0.40
  -9  -2 -11    2.95    0.39
   9   2  11    1.53    0.31
   4  -3 -11    5.41    0.58
   4  -3 -11    5.31    0.46
   4  -3 -11    4.12    0.44
  -4   3  11    4.65    0.58
  -4   3  11    4.69    0.33
   3  -3 -11    0.39    0.22
   3  -3 -11    0.32    0.23
   3  -3 -11    0.51    0.26
  -3   3  11    0.63    0.30
  -3   3  11    0.62    0.14
   2  -3 -11   13.81    0.61
   2  -3 -11   13.98    0.68
   2  -3 -11   13.57    0.62
  -2   3  11   14.18    0.49
   1  -3 -11    0.96    0.17
   1  -3 -11    0.89    0.25
   1  -3 -11    0.61    0.20
  -1   3  11    0.83    0.21
  -1   3  11    0.75    0.15
  -1   3  11    0.76    0.14
   0  -3 -11   19.63    0.61
   0  -3 -11   18.99    0.69
   0  -3 -11   19.19    0.70
   0   3  11   18.64    0.60
   0   3  11   19.70    0.64
   0   3  11   20.04    0.60
  -1  -3 -11    1.55    0.21
  -1  -3 -11    1.74    0.25
  -1  -3 -11    1.76    0.26
  -1  -3 -11    1.58    0.20
   1   3  11    1.40    0.19
   1   3  11    1.68    0.20
   1   3  11    1.88    0.22
  -2  -3 -11   29.93    0.83
  -2  -3 -11   30.06    0.81
  -2  -3 -11   30.01    0.89
  -2  -3 -11   29.44    0.91
   2   3  11   29.25    0.85
   2   3  11   30.06    0.84
   2   3  11   30.58    0.85
  -3  -3 -11    0.21    0.13
  -3  -3 -11    0.05    0.21
  -3  -3 -11   -0.01    0.13
  -3  -3 -11   -0.24    0.21
   3   3  11    0.14    0.12
   3   3  11    0.24    0.14
   3   3  11    0.06    0.17
  -4  -3 -11   30.08    0.84
  -4  -3 -11   27.48    0.93
  -4  -3 -11   28.37    0.94
   4   3  11   27.78    1.08
   4   3  11   29.67    0.83
   4   3  11   29.07    0.86
  -5  -3 -11    0.47    0.22
  -5  -3 -11   -0.08    0.24
  -5  -3 -11    0.21    0.16
  -5  -3 -11   -0.04    0.12
   5   3  11    0.09    0.15
   5   3  11    0.21    0.17
   5   3  11    0.11    0.15
  -6  -3 -11    7.84    0.35
  -6  -3 -11    7.84    0.54
  -6  -3 -11    8.11    0.52
  -6  -3 -11    7.46    0.46
   6   3  11    7.72    0.45
   6   3  11    7.86    0.45
   6   3  11    7.94    0.40
  -7  -3 -11    0.66    0.28
  -7  -3 -11    0.28    0.30
  -7  -3 -11    0.49    0.21
   7   3  11    1.17    0.26
   7   3  11    0.65    0.21
  -8  -3 -11    4.24    0.46
  -8  -3 -11    4.21    0.50
   8   3  11    4.64    0.41
   8   3  11    3.92    0.51
   8   3  11    4.31    0.45
  -9  -3 -11   -0.01    0.33
  -9  -3 -11   -0.18    0.35
  -9  -3 -11    0.25    0.28
   9   3  11    0.17    0.26
   9   3  11   -0.01    0.22
   4  -4 -11    0.63    0.31
   4  -4 -11    0.50    0.33
   4  -4 -11    0.43    0.29
  -4   4  11    0.36    0.15
  -4   4  11    0.60    0.35
   3  -4 -11    2.43    0.36
   3  -4 -11    2.84    0.41
   3  -4 -11    2.77    0.39
  -3   4  11    2.93    0.24
  -3   4  11    2.98    0.37
   2  -4 -11    0.30    0.17
   2  -4 -11    0.24    0.24
   2  -4 -11    0.03    0.21
   2  -4 -11    0.20    0.20
  -2   4  11    0.19    0.12
  -2   4  11    0.04    0.21
   1  -4 -11   18.94    0.72
   1  -4 -11   19.25    0.61
   1  -4 -11   18.93    0.74
  -1   4  11   18.86    0.58
  -1   4  11   19.61    0.58
  -1   4  11   18.56    0.69
   0  -4 -11    0.88    0.18
   0   4  11    0.68    0.17
   0   4  11    0.88    0.14
   0   4  11    0.56    0.15
  -1  -4 -11   25.79    0.82
  -1  -4 -11   25.74    0.84
  -1  -4 -11   24.34    0.68
  -1  -4 -11   25.38    0.82
   1   4  11   26.38    0.73
   1   4  11   26.32    0.74
   1   4  11   24.79    0.73
  -2  -4 -11    0.29    0.20
  -2  -4 -11    0.36    0.15
  -2  -4 -11    0.16    0.19
  -2  -4 -11    0.26    0.13
   2   4  11    0.01    0.12
   2   4  11    0.14    0.11
   2   4  11    0.22    0.12
  -3  -4 -11   17.05    0.60
  -3  -4 -11   16.02    0.68
  -3  -4 -11   16.91    0.57
  -3  -4 -11   16.46    0.60
   3   4  11   18.18    0.54
   3   4  11   17.26    0.57
   3   4  11   16.34    0.56
  -4  -4 -11    1.88    0.24
  -4  -4 -11    1.72    0.24
  -4  -4 -11    1.60    0.31
   4   4  11    1.75    0.23
   4   4  11    1.83    0.22
   4   4  11    1.87    0.24
  -5  -4 -11   23.82    0.74
  -5  -4 -11   24.45    0.89
  -5  -4 -11   24.51    0.80
   5   4  11   24.06    0.78
   5   4  11   24.94    0.73
   5   4  11   24.26    0.78
  -6  -4 -11   -0.07    0.20
  -6  -4 -11    0.35    0.29
  -6  -4 -11   -0.06    0.23
  -6  -4 -11    0.13    0.15
   6   4  11    0.01    0.25
   6   4  11    0.36    0.16
   6   4  11    0.05    0.18
  -7  -4 -11    8.92    0.53
  -7  -4 -11    9.51    0.63
  -7  -4 -11    8.81    0.58
   7   4  11   10.56    0.56
   7   4  11    9.47    0.45
   7   4  11   10.04    0.51
  -8  -4 -11    0.33    0.25
  -8  -4 -11    0.39    0.32
  -8  -4 -11    0.32    0.33
   8   4  11    0.19    0.23
   8   4  11    0.69    0.29
   8   4  11    0.08    0.21
  -9  -4 -11    2.08    0.33
  -9  -4 -11    2.00    0.42
  -9  -4 -11    2.22    0.86
   9   4  11    1.65    0.40
   9   4  11    1.69    0.31
   9   4  11    2.07    0.32
   4  -5 -11    2.64    0.39
   4  -5 -11    2.84    0.48
   4  -5 -11    3.69    0.48
  -4   5  11    3.90    0.53
  -4   5  11    2.75    0.26
   3  -5 -11    0.07    0.25
   3  -5 -11   -0.01    0.28
   3  -5 -11   -0.01    0.24
  -3   5  11    0.14    0.27
  -3   5  11   -0.11    0.12
   2  -5 -11    8.37    0.54
   2  -5 -11    8.22    0.45
   2  -5 -11    7.52    0.49
   2  -5 -11    7.16    0.47
  -2   5  11    7.61    0.43
  -2   5  11    7.64    0.32
   1  -5 -11    2.23    0.27
   1  -5 -11    2.23    0.31
   1  -5 -11    1.39    0.27
  -1   5  11    2.17    0.26
  -1   5  11    1.86    0.20
   0  -5 -11   12.63    0.57
   0  -5 -11   13.20    0.57
   0  -5 -11   13.26    0.50
   0   5  11   13.23    0.44
   0   5  11   11.83    0.49
   0   5  11   13.58    0.46
  -1  -5 -11    0.78    0.19
  -1  -5 -11    0.62    0.24
  -1  -5 -11    0.66    0.20
   1   5  11    0.91    0.15
   1   5  11    0.55    0.14
   1   5  11    0.79    0.14
  -2  -5 -11   14.23    0.49
  -2  -5 -11   15.29    0.61
  -2  -5 -11   15.05    0.60
  -2  -5 -11   14.78    0.57
  -2  -5 -11   14.45    0.49
   2   5  11   14.48    0.50
   2   5  11   15.27    0.47
   2   5  11   15.03    0.50
  -3  -5 -11    1.14    0.22
  -3  -5 -11    0.93    0.18
  -3  -5 -11    0.62    0.25
   3   5  11    0.76    0.15
   3   5  11    1.31    0.18
   3   5  11    0.91    0.15
  -4  -5 -11   20.49    0.76
  -4  -5 -11   20.82    0.69
  -4  -5 -11   21.07    0.69
  -4  -5 -11   20.77    0.83
   4   5  11   20.92    0.69
   4   5  11   22.46    0.63
   4   5  11   21.44    0.68
  -5  -5 -11   -0.05    0.15
  -5  -5 -11   -0.01    0.14
  -5  -5 -11   -0.05    0.25
  -5  -5 -11    0.27    0.19
   5   5  11    0.03    0.15
   5   5  11   -0.21    0.13
   5   5  11    0.38    0.16
  -6  -5 -11   12.27    0.69
  -6  -5 -11   13.71    0.61
  -6  -5 -11   12.58    0.50
   6   5  11   13.35    0.58
   6   5  11   13.62    0.48
  -7  -5 -11    0.63    0.24
  -7  -5 -11    0.55    0.31
   7   5  11    0.85    0.24
   7   5  11    0.52    0.25
  -8  -5 -11    5.76    0.49
  -8  -5 -11    6.58    0.68
  -8  -5 -11    5.88    0.57
   8   5  11    5.50    0.56
   8   5  11    5.00    0.46
   8   5  11    5.57    0.44
  -9  -5 -11    1.12    0.47
  -9  -5 -11    0.39    0.35
  -9  -5 -11    0.39    0.28
   9   5  11    0.23    0.25
   9   5  11    0.34    0.43
   9   5  11    0.08    0.22
   3  -6 -11    5.52    0.51
   3  -6 -11    4.44    0.55
   3  -6 -11    3.41    0.35
   3  -6 -11    3.35    0.41
  -3   6  11    3.96    0.24
  -3   6  11    4.31    0.46
   2  -6 -11   -0.16    0.20
   2  -6 -11   -0.11    0.24
   2  -6 -11    0.12    0.23
   2  -6 -11   -0.15    0.21
  -2   6  11   -0.07    0.21
  -2   6  11   -0.02    0.10
   1  -6 -11    9.43    0.51
   1  -6 -11    9.14    0.51
  -1   6  11    9.44    0.45
  -1   6  11    8.66    0.35
   0  -6 -11    0.30    0.23
   0  -6 -11    0.30    0.20
   0  -6 -11    0.72    0.21
   0   6  11    0.66    0.15
   0   6  11    0.47    0.13
  -1  -6 -11   17.78    0.68
  -1  -6 -11   17.41    0.70
  -1  -6 -11   17.37    0.70
   1   6  11   17.49    0.60
   1   6  11   18.87    0.56
   1   6  11   18.41    0.53
  -2  -6 -11    2.38    0.25
  -2  -6 -11    2.30    0.28
   2   6  11    2.46    0.22
   2   6  11    2.37    0.20
  -3  -6 -11   12.77    0.52
  -3  -6 -11   12.43    0.59
  -3  -6 -11   11.90    0.52
  -3  -6 -11   12.09    0.49
   3   6  11   11.82    0.49
   3   6  11   12.33    0.46
   3   6  11   13.31    0.42
  -4  -6 -11    0.54    0.19
  -4  -6 -11    0.18    0.22
  -4  -6 -11    0.38    0.17
  -4  -6 -11    0.52    0.14
  -4  -6 -11    0.09    0.25
   4   6  11    0.36    0.17
   4   6  11    0.35    0.13
   4   6  11    0.22    0.14
  -5  -6 -11   10.58    0.44
  -5  -6 -11    8.79    0.76
  -5  -6 -11   11.24    0.60
  -5  -6 -11   11.39    0.51
   5   6  11   10.84    0.47
   5   6  11   11.10    0.39
   5   6  11   10.04    0.54
  -6  -6 -11   -0.03    0.39
  -6  -6 -11   -0.11    0.21
  -6  -6 -11   -0.25    0.16
  -6  -6 -11   -0.61    0.24
   6   6  11   -0.06    0.22
  -7  -6 -11   10.23    0.63
  -7  -6 -11    9.91    0.57
  -7  -6 -11    9.66    0.63
   7   6  11   10.02    0.61
   7   6  11    9.20    0.52
  -8  -6 -11    0.02    0.29
  -8  -6 -11   -0.14    0.24
   8   6  11   -0.27    0.27
   8   6  11   -0.01    0.20
   8   6  11   -0.12    0.23
  -9  -6 -11    2.26    0.40
  -9  -6 -11    2.22    0.43
   9   6  11    1.96    0.32
   9   6  11    2.33    0.41
   9   6  11    1.43    0.28
   3  -7 -11   -0.03    0.29
   3  -7 -11    0.30    0.25
   3  -7 -11   -0.02    0.32
   3  -7 -11    0.14    0.28
  -3   7  11   -0.02    0.28
  -3   7  11    0.18    0.11
   2  -7 -11   11.98    0.61
   2  -7 -11   12.03    0.64
   2  -7 -11   12.11    0.63
   2  -7 -11   11.89    0.66
  -2   7  11   10.44    0.56
  -2   7  11   11.58    0.40
   1  -7 -11    0.14    0.22
   1  -7 -11    0.37    0.23
   1  -7 -11    0.50    0.26
  -1   7  11    0.10    0.12
  -1   7  11    0.47    0.18
   0  -7 -11    8.84    0.51
   0  -7 -11    9.16    0.50
   0  -7 -11    9.17    0.49
   0   7  11    9.14    0.36
  -1  -7 -11    0.11    0.21
  -1  -7 -11   -0.01    0.18
  -1  -7 -11   -0.08    0.23
   1   7  11    0.10    0.11
  -2  -7 -11   17.73    0.57
  -2  -7 -11   18.19    0.71
  -2  -7 -11   17.81    0.68
   2   7  11   16.98    0.58
   2   7  11   18.57    0.58
  -3  -7 -11   -0.07    0.16
  -3  -7 -11    0.05    0.17
  -3  -7 -11    0.15    0.13
  -3  -7 -11   -0.01    0.25
   3   7  11    0.34    0.14
   3   7  11    0.00    0.12
  -4  -7 -11   18.05    0.67
  -4  -7 -11   18.49    0.72
  -4  -7 -11   16.97    0.55
  -4  -7 -11   17.49    0.64
  -4  -7 -11   17.40    1.13
   4   7  11   17.96    0.60
   4   7  11   17.28    0.62
  -5  -7 -11    0.65    0.29
  -5  -7 -11    0.46    0.24
  -5  -7 -11    0.75    0.30
  -5  -7 -11    0.63    0.24
  -5  -7 -11    0.47    0.18
   5   7  11    0.75    0.19
   5   7  11    0.47    0.19
  -6  -7 -11    5.72    0.40
  -6  -7 -11    5.31    0.52
  -6  -7 -11    6.26    0.51
  -6  -7 -11    5.13    0.43
  -6  -7 -11    5.86    0.53
   6   7  11    6.15    0.44
   6   7  11    5.95    0.45
  -7  -7 -11   -0.35    0.27
  -7  -7 -11   -0.13    0.23
  -7  -7 -11    0.28    0.29
   7   7  11    0.38    0.19
   7   7  11    0.23    0.23
  -8  -7 -11    4.34    0.51
  -8  -7 -11    4.26    0.54
  -8  -7 -11    3.14    0.44
   8   7  11    3.86    0.40
   8   7  11    3.75    0.45
   8   7  11    4.24    0.48
  -9  -7 -11    0.22    0.31
  -9  -7 -11   -0.65    0.29
  -9  -7 -11    0.15    0.29
   9   7  11    0.17    0.26
   9   7  11    0.18    0.33
   9   7  11   -0.29    0.26
   9   7  11   -0.58    0.33
   2  -8 -11    0.59    0.32
   2  -8 -11    0.98    0.29
   2  -8 -11    0.83    0.27
   2  -8 -11    1.00    0.30
  -2   8  11    1.00    0.14
   1  -8 -11    8.71    0.54
   1  -8 -11    8.88    0.52
   1  -8 -11    8.56    0.48
   1  -8 -11    8.24    0.52
  -1   8  11    8.63    0.34
   0  -8 -11    0.04    0.26
   0  -8 -11    0.19    0.21
   0  -8 -11    0.08    0.18
   0  -8 -11   -0.10    0.24
   0   8  11    0.34    0.13
  -1  -8 -11   15.60    0.67
  -1  -8 -11   16.31    0.66
  -1  -8 -11   15.55    0.68
  -1  -8 -11   15.90    0.54
   1   8  11   15.31    0.52
  -2  -8 -11    0.53    0.16
  -2  -8 -11    0.31    0.20
  -2  -8 -11    0.75    0.31
   2   8  11    0.31    0.14
   2   8  11    0.63    0.17
  -3  -8 -11   23.98    0.90
  -3  -8 -11   23.16    0.69
  -3  -8 -11   23.51    0.78
  -3  -8 -11   23.31    0.81
   3   8  11   23.89    0.78
   3   8  11   22.24    0.73
  -4  -8 -11    0.23    0.24
  -4  -8 -11    0.33    0.29
  -4  -8 -11    0.53    0.17
  -4  -8 -11    0.38    0.23
  -4  -8 -11    0.19    0.19
   4   8  11    0.26    0.15
   4   8  11    0.50    0.25
  -5  -8 -11   10.06    0.53
  -5  -8 -11    9.80    0.45
  -5  -8 -11    9.39    0.64
  -5  -8 -11    9.21    0.71
  -5  -8 -11    9.87    0.54
   5   8  11    9.90    0.49
   5   8  11    9.97    0.50
  -6  -8 -11    0.13    0.25
  -6  -8 -11    0.32    0.23
  -6  -8 -11    0.30    0.29
  -6  -8 -11    0.08    0.27
   6   8  11    0.44    0.20
   6   8  11    0.32    0.21
  -7  -8 -11    6.64    0.55
  -7  -8 -11    6.72    0.55
  -7  -8 -11    6.85    0.55
   7   8  11    5.95    0.48
   7   8  11    4.88    0.43
  -8  -8 -11    0.15    0.28
  -8  -8 -11    0.17    0.30
  -8  -8 -11    0.10    0.31
   8   8  11   -0.18    0.25
   8   8  11    0.04    0.25
  -9  -8 -11    2.36    0.41
   1  -9 -11    0.73    0.27
   1  -9 -11    1.47    0.32
   1  -9 -11    1.70    0.32
   1  -9 -11    1.09    0.30
  -1   9  11    1.36    0.17
   0  -9 -11    8.34    0.54
   0  -9 -11    9.31    0.55
   0  -9 -11    8.83    0.53
   0  -9 -11    7.96    0.44
   0   9  11    8.33    0.36
  -1  -9 -11    0.05    0.20
  -1  -9 -11    0.39    0.20
  -1  -9 -11    0.36    0.24
   1   9  11    0.04    0.13
  -2  -9 -11   13.66    0.66
  -2  -9 -11   13.70    0.52
  -2  -9 -11   12.84    0.61
   2   9  11   14.93    0.58
   2   9  11   13.54    0.51
  -3  -9 -11    0.14    0.22
  -3  -9 -11   -0.04    0.16
  -3  -9 -11   -0.15    0.22
  -3  -9 -11    0.00    0.20
   3   9  11   -0.04    0.13
   3   9  11   -0.27    0.15
  -4  -9 -11   17.75    0.80
  -4  -9 -11   17.40    0.61
  -4  -9 -11   17.81    0.72
  -4  -9 -11   17.68    0.87
  -4  -9 -11   17.40    0.61
   4   9  11   18.37    0.68
   4   9  11   17.25    0.64
  -5  -9 -11   -0.10    0.24
  -5  -9 -11    0.40    0.21
  -5  -9 -11    0.30    0.31
  -5  -9 -11    0.18    0.28
  -5  -9 -11   -0.25    0.21
   5   9  11    0.52    0.21
   5   9  11    0.35    0.18
  -6  -9 -11    9.86    0.60
  -6  -9 -11    9.60    0.65
  -6  -9 -11   10.96    0.65
   6   9  11    9.98    0.53
   6   9  11    9.61    0.53
  -7  -9 -11    0.32    0.29
  -7  -9 -11    0.33    0.28
  -7  -9 -11    0.69    0.31
  -7  -9 -11    0.48    0.42
   7   9  11    0.34    0.23
   7   9  11    0.14    0.24
   7   9  11   -0.23    0.21
  -8  -9 -11    3.91    0.50
  -8  -9 -11    3.71    0.53
  -8  -9 -11    3.72    0.46
   8   9  11    3.76    0.54
   8   9  11    4.02    0.44
   8   9  11    4.15    0.53
   8   9  11    3.38    0.48
   0 -10 -11    0.70    0.30
   0 -10 -11    0.28    0.27
   0 -10 -11    0.35    0.24
   0  10  11    0.53    0.16
  -1 -10 -11    9.61    0.61
  -1 -10 -11    9.92    0.51
  -1 -10 -11    9.99    0.58
   1  10  11    9.92    0.43
  -2 -10 -11    0.81    0.26
  -2 -10 -11    0.81    0.24
  -2 -10 -11    0.42    0.28
   2  10  11    0.70    0.17
  -3 -10 -11   10.25    0.47
  -3 -10 -11   10.17    0.64
  -3 -10 -11    9.46    0.56
   3  10  11    9.28    0.45
   3  10  11    9.87    0.48
  -4 -10 -11    0.50    0.28
  -4 -10 -11   -0.12    0.22
  -4 -10 -11    0.71    0.31
   4  10  11    0.30    0.18
   4  10  11    0.05    0.21
  -5 -10 -11    7.72    0.51
  -5 -10 -11    8.40    0.62
  -5 -10 -11    8.96    0.62
  -5 -10 -11    7.42    0.50
   5  10  11    8.16    0.46
   5  10  11    8.71    0.54
  -6 -10 -11    0.51    0.32
  -6 -10 -11    0.39    0.36
  -6 -10 -11    0.49    0.35
  -6 -10 -11    0.12    0.30
   6  10  11   -0.01    0.22
   6  10  11   -0.15    0.20
  -7 -10 -11    7.60    0.66
  -7 -10 -11    7.53    0.60
  -7 -10 -11    6.32    0.56
  -7 -10 -11    6.45    0.63
   7  10  11    7.15    0.58
   7  10  11    6.90    0.54
   7  10  11    6.06    0.52
  -1 -11 -11    1.52    0.30
  -1 -11 -11    1.50    0.36
  -1 -11 -11    1.49    0.34
   1  11  11    1.39    0.22
  -2 -11 -11    5.77    0.55
  -2 -11 -11    5.31    0.50
   2  11  11    5.55    0.37
  -3 -11 -11   -0.07    0.24
  -3 -11 -11   -0.06    0.28
   3  11  11    0.32    0.18
  -4 -11 -11    4.03    0.54
  -4 -11 -11    3.33    0.46
   4  11  11    3.87    0.43
   4  11  11    3.73    0.38
  -5 -11 -11   -0.08    0.27
  -5 -11 -11   -0.41    0.33
  -5 -11 -11   -0.12    0.30
   5  11  11    0.28    0.28
   5  11  11    0.26    0.28
   5  11  11    0.13    0.22
  -6 -11 -11    6.00    0.59
  -6 -11 -11    6.96    0.56
  -6 -11 -11    5.67    0.59
  -6 -11 -11    5.69    0.62
   6  11  11    5.47    0.48
   6  11  11    6.39    0.52
   6  11  11    6.20    0.55
  -3 -12 -11    4.72    0.53
  -3 -12 -11    4.84    0.51
  -3 -12 -11    5.69    0.61
   3  12  11    4.35    0.41
   3  12  11    4.59    0.51
  -4 -12 -11    0.15    0.27
  -4 -12 -11   -0.06    0.30
   4  12  11    0.63    0.34
   4  12  11    0.05    0.30
   4  12  11    0.38    0.22
   1   6 -12    0.00    0.29
   1   6 -12   -0.47    0.30
   1   6 -12   -0.06    0.25
  -1  -6  12   -0.01    0.30
  -1  -6  12    0.21    0.26
  -1  -6  12    0.41    0.32
   0   6 -12    2.58    0.36
   0   6 -12    4.52    0.51
   0   6 -12    3.79    0.49
   0  -6  12    4.02    0.57
   0  -6  12    2.46    0.39
   0  -6  12    3.79    0.45
  -1   6 -12    0.04    0.28
  -1   6 -12    0.66    0.30
  -1   6 -12    0.38    0.24
   1  -6  12    0.09    0.22
   1  -6  12   -0.03    0.26
   1  -6  12    0.05    0.31
  -2   6 -12    1.82    0.32
  -2   6 -12    2.36    0.35
  -2   6 -12    2.39    0.37
   2  -6  12    1.97    0.36
   2  -6  12    1.81    0.29
   2  -6  12    2.42    0.57
  -3   6 -12    0.32    0.31
  -3   6 -12   -0.22    0.33
  -3   6 -12    0.82    0.30
  -3   6 -12    0.21    0.24
  -3   6 -12   -0.26    0.30
   3  -6  12    0.19    0.27
   3  -6  12    0.48    0.22
   2   5 -12   -0.34    0.31
   2   5 -12    0.26    0.29
   2   5 -12   -0.12    0.32
   2   5 -12    0.33    0.30
  -2  -5  12   -0.13    0.29
  -2  -5  12   -0.15    0.25
  -2  -5  12   -0.04    0.32
   1   5 -12    1.83    0.36
   1   5 -12    1.45    0.32
   1   5 -12    2.33    0.39
   1   5 -12    2.63    0.37
  -1  -5  12    1.46    0.31
  -1  -5  12    1.08    0.33
  -1  -5  12    1.01    0.33
   0   5 -12   -0.02    0.23
   0   5 -12   -0.13    0.25
   0   5 -12   -0.02    0.24
   0   5 -12   -0.03    0.27
   0  -5  12   -0.15    0.25
   0  -5  12   -0.50    0.21
   0  -5  12    0.13    0.27
  -1   5 -12    4.31    0.46
  -1   5 -12    4.48    0.47
  -1   5 -12    4.37    0.43
   1  -5  12    3.91    0.45
   1  -5  12    4.98    0.42
   1  -5  12    3.92    0.47
  -2   5 -12   -0.33    0.31
  -2   5 -12    0.25    0.25
  -2   5 -12    0.36    0.35
  -2   5 -12   -0.15    0.21
   2  -5  12    0.23    0.26
   2  -5  12    0.03    0.21
  -3   5 -12    3.42    0.50
  -3   5 -12    2.78    0.41
  -3   5 -12    4.11    0.39
  -3   5 -12    4.44    0.43
  -3   5 -12    3.46    0.42
   3  -5  12    3.46    0.39
   3  -5  12    3.12    0.42
   3  -5  12    4.08    0.59
  -4   5 -12    0.02    0.31
  -4   5 -12    0.24    0.26
  -4   5 -12    0.40    0.29
  -4   5 -12    0.46    0.25
   4  -5  12    0.26    0.22
   4  -5  12    0.13    0.27
  -5   5 -12    1.87    0.36
  -5   5 -12    1.38    0.29
  -5   5 -12    1.93    0.35
  -5   5 -12    2.04    0.48
   5  -5  12    1.75    0.33
   5  -5  12    1.63    0.30
   2   4 -12    2.52    0.35
   2   4 -12    2.28    0.41
   2   4 -12    2.30    0.36
   2   4 -12    1.53    0.37
  -2  -4  12    2.37    0.35
  -2  -4  12    2.26    0.33
  -2  -4  12    1.64    0.39
   1   4 -12   -0.29    0.21
   1   4 -12    0.37    0.28
   1   4 -12    0.00    0.23
  -1  -4  12    0.00    0.24
  -1  -4  12   -0.13    0.20
  -1  -4  12   -0.12    0.22
   0   4 -12    4.53    0.40
   0   4 -12    5.48    0.46
   0   4 -12    5.05    0.47
   0   4 -12    5.27    0.43
   0  -4  12    4.46    0.46
   0  -4  12    5.21    0.41
   0  -4  12    4.91    0.48
  -1   4 -12   -0.09    0.21
  -1   4 -12    0.21    0.24
  -1   4 -12    0.15    0.25
  -1   4 -12    0.10    0.19
   1  -4  12   -0.01    0.20
   1  -4  12    0.15    0.24
   1  -4  12    0.31    0.27
  -2   4 -12    6.14    0.47
  -2   4 -12    6.43    0.43
  -2   4 -12    5.53    0.46
  -2   4 -12    5.91    0.44
   2  -4  12    6.07    0.59
   2  -4  12    6.11    0.46
   2  -4  12    6.55    0.44
  -3   4 -12   -0.04    0.19
  -3   4 -12    0.24    0.22
  -3   4 -12    0.66    0.31
  -3   4 -12    0.31    0.21
  -3   4 -12   -0.06    0.27
   3  -4  12   -0.02    0.25
   3  -4  12    0.48    0.20
   3  -4  12   -0.02    0.23
  -4   4 -12    3.74    0.38
  -4   4 -12    4.54    0.53
  -4   4 -12    4.38    0.48
  -4   4 -12    3.80    0.39
   4  -4  12    2.44    0.35
   4  -4  12    4.09    0.64
   4  -4  12    3.39    0.38
  -5   4 -12    0.25    0.21
  -5   4 -12    0.40    0.27
  -5   4 -12    0.35    0.31
  -5   4 -12    0.39    0.24
   5  -4  12    0.79    0.27
   5  -4  12    0.47    0.23
  -6   4 -12    2.17    0.37
  -6   4 -12    1.55    0.31
  -6   4 -12    1.46    0.33
  -6   4 -12    1.48    0.28
   6  -4  12    1.70    0.30
   6  -4  12    1.85    0.33
   3   3 -12    3.51    0.50
   3   3 -12    3.50    0.45
   3   3 -12    4.92    0.59
   3   3 -12    3.94    0.49
  -3  -3  12    4.65    0.46
  -3  -3  12    4.42    0.61
  -3  -3  12    4.40    0.47
   2   3 -12    0.04    0.25
   2   3 -12    0.09    0.27
   2   3 -12    0.07    0.29
   2   3 -12    0.39    0.25
  -2  -3  12   -0.23    0.23
  -2  -3  12    0.14    0.22
  -2  -3  12   -0.52    0.28
   1   3 -12    4.25    0.48
   1   3 -12    5.07    0.43
   1   3 -12    5.85    0.47
   1   3 -12    5.01    0.45
  -1  -3  12    5.04    0.40
  -1  -3  12    4.69    0.48
  -1  -3  12    5.34    0.44
   0   3 -12    0.08    0.22
   0   3 -12    0.88    0.23
   0   3 -12    0.51    0.24
   0   3 -12    0.32    0.22
   0  -3  12    0.25    0.23
   0  -3  12    0.19    0.20
   0  -3  12    0.41    0.24
  -1   3 -12    5.25    0.44
  -1   3 -12    5.18    0.39
  -1   3 -12    5.13    0.41
  -1   3 -12    5.03    0.61
   1  -3  12    4.69    0.42
   1  -3  12    4.86    0.40
   1  -3  12    5.96    0.48
  -2   3 -12    0.96    0.29
  -2   3 -12    0.53    0.20
  -2   3 -12    0.51    0.20
  -2   3 -12    0.28    0.21
   2  -3  12    0.21    0.19
   2  -3  12    0.42    0.23
   2  -3  12    0.37    0.25
  -3   3 -12    9.69    0.59
  -3   3 -12    9.42    0.52
  -3   3 -12    9.02    0.46
  -3   3 -12    8.68    0.51
  -3   3 -12    9.28    0.49
   3  -3  12    8.88    0.51
   3  -3  12    9.12    0.49
   3  -3  12    9.40    0.54
  -4   3 -12   -0.21    0.18
  -4   3 -12    0.37    0.23
  -4   3 -12    0.11    0.28
  -4   3 -12    0.14    0.18
  -4   3 -12    0.57    0.29
   4  -3  12    0.05    0.19
   4  -3  12    0.16    0.22
  -5   3 -12    3.14    0.40
  -5   3 -12    3.57    0.44
  -5   3 -12    3.54    0.38
  -5   3 -12    3.67    0.40
   5  -3  12    3.98    0.42
   5  -3  12    3.47    0.40
   5  -3  12    3.69    0.39
  -6   3 -12   -0.03    0.29
  -6   3 -12    0.50    0.28
  -6   3 -12    0.24    0.21
   6  -3  12    0.66    0.24
   6  -3  12    0.29    0.26
  -7   3 -12    0.48    0.31
  -7   3 -12    1.11    0.29
  -7   3 -12    2.19    0.36
   7  -3  12    0.81    0.32
   7  -3  12    1.56    0.30
   3   2 -12   -0.08    0.26
   3   2 -12    0.56    0.33
   3   2 -12   -0.17    0.26
   3   2 -12    0.35    0.38
  -3  -2  12    0.64    0.36
  -3  -2  12    0.34    0.22
  -3  -2  12    0.15    0.25
   2   2 -12    4.31    0.47
   2   2 -12    4.13    0.43
   2   2 -12    4.67    0.41
  -2  -2  12    4.51    0.45
  -2  -2  12    4.92    0.41
  -2  -2  12    4.11    0.50
   1   2 -12   -0.10    0.22
   1   2 -12    0.06    0.20
   1   2 -12   -0.17    0.23
   1   2 -12    0.41    0.25
  -1  -2  12   -0.35    0.19
  -1  -2  12    0.08    0.24
  -1  -2  12   -0.08    0.17
   0   2 -12    7.65    0.48
   0   2 -12    7.43    0.44
   0   2 -12    8.21    0.49
   0   2 -12    7.18    0.43
   0  -2  12    8.35    0.46
   0  -2  12    6.81    0.47
   0  -2  12    7.36    0.47
  -1   2 -12    0.36    0.20
  -1   2 -12    0.27    0.21
  -1   2 -12    0.44    0.23
   1  -2  12    0.37    0.20
   1  -2  12   -0.15    0.20
   1  -2  12    0.27    0.20
  -2   2 -12    6.34    0.43
  -2   2 -12    6.97    0.39
  -2   2 -12    6.91    0.42
   2  -2  12    7.10    0.45
   2  -2  12    6.62    0.42
   2  -2  12    6.62    0.47
  -3   2 -12    0.62    0.22
  -3   2 -12    0.52    0.20
  -3   2 -12    0.44    0.26
  -3   2 -12    0.65    0.26
  -3   2 -12    0.44    0.18
   3  -2  12    0.33    0.23
   3  -2  12    0.36    0.20
   3  -2  12    0.13    0.20
  -4   2 -12    8.74    0.56
  -4   2 -12    8.29    0.47
  -4   2 -12    8.85    0.49
  -4   2 -12    8.95    0.46
   4  -2  12    8.72    0.48
   4  -2  12    8.87    0.50
   4  -2  12    9.26    0.66
  -5   2 -12    1.30    0.25
  -5   2 -12    0.74    0.28
  -5   2 -12    1.01    0.24
  -5   2 -12    0.64    0.31
   5  -2  12    0.94    0.25
   5  -2  12    0.80    0.24
   5  -2  12    0.73    0.27
  -6   2 -12    5.12    0.47
  -6   2 -12    5.79    0.44
  -6   2 -12    4.92    0.58
   6  -2  12    5.27    0.45
   6  -2  12    5.02    0.42
   6  -2  12    6.21    0.57
  -7   2 -12    0.26    0.30
  -7   2 -12    0.58    0.26
  -7   2 -12    0.25    0.28
   7  -2  12    1.12    0.30
   7  -2  12    0.12    0.22
   3   1 -12    2.99    0.43
   3   1 -12    3.84    0.44
   3   1 -12    2.88    0.44
  -3  -1  12    3.04    0.45
  -3  -1  12    3.82    0.38
  -3  -1  12    3.94    0.46
   2   1 -12    0.23    0.21
   2   1 -12    0.04    0.31
   2   1 -12    0.13    0.23
   2   1 -12    0.30    0.24
  -2  -1  12    0.25    0.28
  -2  -1  12   -0.04    0.17
  -2  -1  12   -0.08    0.22
   1   1 -12    7.28    0.48
   1   1 -12    8.34    0.55
   1   1 -12    7.08    0.40
   1   1 -12    7.36    0.48
  -1  -1  12    7.92    0.44
  -1  -1  12    8.22    0.52
  -1  -1  12    7.64    0.44
   0   1 -12    0.31    0.23
   0   1 -12    0.11    0.20
   0   1 -12    0.41    0.19
   0   1 -12    0.25    0.21
   0  -1  12    0.24    0.22
   0  -1  12    0.71    0.20
   0  -1  12    0.35    0.19
  -1   1 -12    4.73    0.36
  -1   1 -12    4.70    0.38
  -1   1 -12    5.52    0.40
  -1   1 -12    4.98    0.37
  -1   1 -12    5.67    0.38
   1  -1  12    4.96    0.36
   1  -1  12    5.37    0.41
   1  -1  12    5.36    0.39
  -2   1 -12    0.85    0.24
  -2   1 -12    0.54    0.19
  -2   1 -12    0.72    0.21
   2  -1  12    0.72    0.20
   2  -1  12    0.50    0.23
   2  -1  12    0.66    0.31
  -3   1 -12    8.92    0.48
  -3   1 -12   10.28    0.46
  -3   1 -12    9.11    0.46
  -3   1 -12    8.40    0.46
   3  -1  12    8.93    0.49
   3  -1  12    9.15    0.48
   3  -1  12    8.45    0.45
  -4   1 -12    0.47    0.25
  -4   1 -12    0.25    0.17
  -4   1 -12    0.30    0.20
  -4   1 -12    0.75    0.17
  -4   1 -12   -0.01    0.23
   4  -1  12    0.47    0.21
   4  -1  12    0.52    0.23
   4  -1  12    0.52    0.20
  -5   1 -12    9.97    0.58
  -5   1 -12   10.74    0.57
  -5   1 -12    9.85    0.51
  -5   1 -12   10.72    0.46
   5  -1  12    9.53    0.51
   5  -1  12   10.39    0.63
   5  -1  12    9.80    0.51
  -6   1 -12    0.63    0.21
  -6   1 -12    0.18    0.31
  -6   1 -12    0.54    0.30
   6  -1  12    0.55    0.24
   6  -1  12    0.69    0.28
   6  -1  12    0.04    0.19
  -7   1 -12    3.95    0.47
  -7   1 -12    3.24    0.40
  -7   1 -12    3.86    0.45
   7  -1  12    3.32    0.39
   7  -1  12    4.42    0.45
  -8   1 -12    1.19    0.32
  -8   1 -12    0.45    0.25
  -8   1 -12    0.81    0.34
   8  -1  12    0.37    0.31
   8  -1  12    0.69    0.31
   8  -1  12    0.76    0.26
  -4   0  12    2.73    0.50
   3   0 -12   -0.04    0.24
   3   0 -12    0.24    0.28
  -3   0  12    0.21    0.32
  -3   0  12    0.72    0.24
  -3   0  12    0.12    0.18
   2   0 -12    3.28    0.40
   2   0 -12    3.91    0.40
  -2   0  12    3.91    0.34
  -2   0  12    3.18    0.32
  -2   0  12    3.63    0.46
   1   0 -12    0.20    0.24
   1   0 -12   -0.30    0.21
   1   0 -12    0.04    0.26
   1   0 -12    0.17    0.21
  -1   0  12    0.14    0.16
  -1   0  12    0.05    0.24
   0   0 -12   11.80    0.66
   0   0 -12   11.88    0.56
   0   0 -12   11.91    0.54
   0   0 -12   12.69    0.59
   0   0  12   11.95    0.57
   0   0  12   12.46    0.52
  -1   0 -12    0.28    0.20
  -1   0 -12    0.30    0.19
  -1   0 -12   -0.29    0.19
  -1   0 -12    0.46    0.19
  -1   0 -12    0.21    0.16
   1   0  12    0.09    0.21
   1   0  12    0.16    0.15
   1   0  12    0.17    0.16
  -2   0 -12   11.36    0.49
  -2   0 -12   10.52    0.54
  -2   0 -12   10.82    0.51
   2   0  12   10.88    0.48
   2   0  12   11.21    0.50
  -3   0 -12   -0.57    0.45
  -3   0 -12   -0.14    0.13
   3   0  12   -0.39    0.20
   3   0  12    0.20    0.18
  -4   0 -12    4.95    0.42
  -4   0 -12    5.35    0.31
  -4   0 -12    5.69    0.39
  -4   0 -12    5.93    0.46
   4   0  12    6.00    0.41
   4   0  12    6.01    0.39
   4   0  12    5.60    0.40
  -5   0 -12    0.66    0.21
  -5   0 -12    0.38    0.23
  -5   0 -12   -0.28    0.25
  -5   0 -12   -0.04    0.14
   5   0  12    0.66    0.28
   5   0  12    0.38    0.20
   5   0  12    0.17    0.20
  -6   0 -12    8.90    0.57
  -6   0 -12    9.16    0.49
  -6   0 -12    8.73    0.58
   6   0  12    8.79    0.49
   6   0  12    8.46    0.59
   6   0  12    8.10    0.47
  -7   0 -12    0.16    0.28
  -7   0 -12    0.13    0.20
  -7   0 -12   -0.04    0.27
   7   0  12    0.66    0.30
   7   0  12   -0.23    0.23
   7   0  12    0.45    0.22
  -8   0 -12    2.33    0.41
  -8   0 -12    2.59    0.35
   8   0  12    3.55    0.47
   8   0  12    3.16    0.41
   8   0  12    2.27    0.36
   3  -1 -12    4.93    0.46
   3  -1 -12    4.58    0.46
  -3   1  12    4.03    0.39
  -3   1  12    4.52    0.35
  -3   1  12    4.89    0.53
   2  -1 -12   -0.07    0.22
   2  -1 -12    0.05    0.20
  -2   1  12    0.10    0.25
  -2   1  12    0.08    0.15
  -2   1  12   -0.10    0.18
   1  -1 -12   12.57    0.58
   1  -1 -12   11.89    0.43
   1  -1 -12   12.14    0.59
  -1   1  12   12.16    0.48
  -1   1  12   10.63    0.48
  -1   1  12   12.23    0.58
   0  -1 -12    0.37    0.15
   0  -1 -12    0.47    0.25
   0  -1 -12    0.31    0.17
   0  -1 -12    0.15    0.19
   0   1  12    0.29    0.15
   0   1  12    0.22    0.25
   0   1  12    0.40    0.14
  -1  -1 -12   12.64    0.48
  -1  -1 -12   12.49    0.57
  -1  -1 -12   13.60    0.56
  -1  -1 -12   13.91    0.51
   1   1  12   13.44    0.51
   1   1  12   13.53    0.55
   1   1  12   13.09    0.53
  -2  -1 -12   -0.10    0.19
  -2  -1 -12   -0.02    0.15
  -2  -1 -12   -0.15    0.19
  -2  -1 -12   -0.11    0.14
   2   1  12   -0.24    0.17
   2   1  12    0.16    0.15
  -3  -1 -12   11.06    0.49
  -3  -1 -12   11.69    0.57
  -3  -1 -12   11.72    0.46
   3   1  12   11.45    0.49
   3   1  12   10.84    0.48
   3   1  12   11.43    0.50
  -4  -1 -12    0.10    0.13
  -4  -1 -12   -0.15    0.20
  -4  -1 -12    0.26    0.26
   4   1  12    0.25    0.26
   4   1  12    0.05    0.19
   4   1  12   -0.17    0.17
  -5  -1 -12    7.16    0.42
  -5  -1 -12    7.79    0.50
  -5  -1 -12    7.88    0.35
   5   1  12    7.25    0.42
   5   1  12    6.61    0.42
   5   1  12    8.10    0.47
  -6  -1 -12   -0.29    0.16
  -6  -1 -12   -0.32    0.29
   6   1  12   -0.01    0.18
   6   1  12    0.03    0.23
   6   1  12   -0.18    0.19
  -7  -1 -12    5.42    0.51
  -7  -1 -12    5.06    0.60
  -7  -1 -12    5.27    0.42
   7   1  12    5.18    0.45
   7   1  12    4.43    0.40
  -8  -1 -12    0.31    0.37
  -8  -1 -12    0.29    0.23
  -8  -1 -12    0.26    0.31
   8   1  12    1.19    0.30
   8   1  12    0.12    0.27
   8   1  12    0.43    0.23
   3  -2 -12    0.45    0.25
   3  -2 -12    0.48    0.25
  -3   2  12    0.44    0.30
  -3   2  12    0.62    0.17
   2  -2 -12    7.35    0.48
   2  -2 -12    6.95    0.48
  -2   2  12    7.37    0.39
  -2   2  12    7.16    0.50
  -2   2  12    7.06    0.38
   1  -2 -12    0.09    0.19
   1  -2 -12   -0.14    0.20
  -1   2  12    0.34    0.25
  -1   2  12    0.27    0.15
  -1   2  12    0.05    0.13
   0  -2 -12   13.18    0.58
   0  -2 -12   12.15    0.45
   0  -2 -12   11.82    0.43
   0  -2 -12   12.31    0.56
   0   2  12   12.73    0.54
   0   2  12   11.11    0.46
   0   2  12   12.05    0.46
  -1  -2 -12    0.15    0.17
  -1  -2 -12   -0.06    0.17
  -1  -2 -12    0.05    0.14
  -1  -2 -12    0.27    0.21
   1   2  12   -0.01    0.14
   1   2  12    0.36    0.14
   1   2  12   -0.12    0.16
  -2  -2 -12   23.98    0.82
  -2  -2 -12   24.41    0.81
  -2  -2 -12   24.38    0.74
  -2  -2 -12   24.65    0.79
   2   2  12   23.16    0.82
   2   2  12   25.26    0.76
   2   2  12   25.07    0.82
  -3  -2 -12    0.31    0.16
  -3  -2 -12    0.23    0.25
  -3  -2 -12    0.24    0.16
  -3  -2 -12    0.40    0.25
   3   2  12    0.21    0.16
   3   2  12    0.14    0.21
   3   2  12    0.35    0.20
  -4  -2 -12   10.44    0.43
  -4  -2 -12   11.01    0.50
  -4  -2 -12   10.84    0.59
   4   2  12   10.50    0.46
   4   2  12   10.09    0.49
   4   2  12   11.17    0.49
  -5  -2 -12    0.57    0.21
  -5  -2 -12    0.66    0.16
  -5  -2 -12    0.50    0.31
   5   2  12    0.28    0.18
   5   2  12    0.40    0.22
   5   2  12    0.59    0.21
  -6  -2 -12    5.93    0.43
  -6  -2 -12    7.05    0.53
  -6  -2 -12    6.16    0.33
   6   2  12    7.27    0.49
   6   2  12    5.65    0.42
   6   2  12    6.79    0.47
  -7  -2 -12   -0.03    0.30
  -7  -2 -12    0.12    0.19
  -7  -2 -12    0.18    0.28
   7   2  12   -0.05    0.22
   7   2  12    0.10    0.25
   7   2  12    0.15    0.20
  -8  -2 -12    4.63    0.64
  -8  -2 -12    4.58    0.45
  -8  -2 -12    3.69    0.49
   8   2  12    4.16    0.45
   8   2  12    4.05    0.41
   8   2  12    4.71    0.60
   3  -3 -12    5.08    0.46
   3  -3 -12    5.01    0.46
   3  -3 -12    4.63    0.57
  -3   3  12    4.98    0.33
  -3   3  12    5.94    0.53
   2  -3 -12    0.19    0.23
   2  -3 -12    0.38    0.21
  -2   3  12    0.24    0.14
  -2   3  12    0.21    0.25
   1  -3 -12   11.64    0.60
   1  -3 -12   11.89    0.57
   1  -3 -12   12.61    0.54
  -1   3  12   11.90    0.47
  -1   3  12   12.17    0.45
   0  -3 -12    0.12    0.21
   0  -3 -12    0.10    0.18
   0  -3 -12    0.08    0.16
   0   3  12    0.05    0.13
   0   3  12    0.26    0.14
   0   3  12   -0.11    0.17
  -1  -3 -12   10.79    0.47
  -1  -3 -12   10.73    0.40
  -1  -3 -12   10.33    0.55
   1   3  12   10.28    0.43
   1   3  12   10.98    0.43
  -2  -3 -12    1.07    0.22
  -2  -3 -12    0.61    0.16
  -2  -3 -12    0.60    0.24
  -2  -3 -12    0.67    0.20
   2   3  12    0.51    0.16
   2   3  12    0.41    0.15
   2   3  12    0.36    0.28
  -3  -3 -12   22.21    0.72
  -3  -3 -12   23.01    0.75
  -3  -3 -12   21.85    0.82
   3   3  12   21.78    0.74
   3   3  12   22.61    0.70
   3   3  12   22.19    0.71
  -4  -3 -12    0.30    0.15
  -4  -3 -12    0.13    0.27
  -4  -3 -12    0.11    0.17
   4   3  12    0.04    0.15
   4   3  12    0.04    0.17
   4   3  12   -0.18    0.15
  -5  -3 -12   14.54    0.52
  -5  -3 -12   14.74    0.70
  -5  -3 -12   14.45    0.60
   5   3  12   15.16    0.55
   5   3  12   14.37    0.60
  -6  -3 -12    0.41    0.21
  -6  -3 -12   -0.06    0.16
   6   3  12    0.22    0.19
   6   3  12    0.34    0.20
   6   3  12    0.36    0.22
  -7  -3 -12    5.67    0.60
  -7  -3 -12    5.02    0.43
  -7  -3 -12    4.10    0.51
   7   3  12    4.83    0.51
   7   3  12    4.89    0.40
   7   3  12    4.23    0.39
  -8  -3 -12    0.00    0.32
  -8  -3 -12    0.56    0.28
   8   3  12    0.54    0.25
   8   3  12    0.50    0.36
  -9  -3 -12    2.35    0.39
  -9  -3 -12    3.44    0.51
  -9  -3 -12    2.00    0.41
   9   3  12    1.79    0.35
   9   3  12    3.04    0.43
   3  -4 -12    0.92    0.32
   3  -4 -12    0.21    0.27
   3  -4 -12    0.25    0.27
  -3   4  12    0.48    0.31
  -3   4  12    0.55    0.16
   2  -4 -12    5.81    0.46
   2  -4 -12    6.64    0.48
  -2   4  12    6.48    0.33
  -2   4  12    6.43    0.48
   1  -4 -12    1.10    0.20
   1  -4 -12    0.90    0.26
   1  -4 -12    1.19    0.25
  -1   4  12    1.15    0.17
  -1   4  12    1.24    0.25
   0  -4 -12    6.95    0.37
   0  -4 -12    6.28    0.42
   0  -4 -12    6.83    0.44
   0   4  12    6.54    0.33
   0   4  12    6.86    0.33
  -1  -4 -12    0.52    0.19
  -1  -4 -12    0.81    0.23
  -1  -4 -12    0.70    0.25
   1   4  12    0.59    0.14
   1   4  12    0.75    0.15
   1   4  12    0.58    0.21
  -2  -4 -12   15.59    0.73
  -2  -4 -12   17.94    0.64
  -2  -4 -12   16.60    0.55
  -2  -4 -12   16.78    0.64
   2   4  12   16.24    0.57
   2   4  12   17.48    0.56
   2   4  12   17.37    0.57
  -3  -4 -12   -0.13    0.20
  -3  -4 -12   -0.29    0.15
  -3  -4 -12    0.12    0.15
   3   4  12    0.24    0.14
   3   4  12   -0.07    0.14
   3   4  12    0.33    0.21
  -4  -4 -12   18.45    0.65
  -4  -4 -12   18.08    0.72
  -4  -4 -12   17.94    0.79
   4   4  12   17.83    0.58
   4   4  12   17.68    0.63
  -5  -4 -12    0.06    0.15
  -5  -4 -12    0.29    0.48
   5   4  12   -0.07    0.30
   5   4  12    0.19    0.21
  -6  -4 -12    8.13    0.39
  -6  -4 -12    8.52    0.51
   6   4  12    8.42    0.48
   6   4  12    8.38    0.88
   6   4  12    8.59    0.43
  -7  -4 -12    0.87    0.35
  -7  -4 -12    0.92    0.27
   7   4  12    1.51    0.41
   7   4  12    1.08    0.25
  -8  -4 -12    5.09    0.58
  -8  -4 -12    4.80    0.48
   8   4  12    4.78    0.45
   8   4  12    5.48    0.73
  -9  -4 -12    0.17    0.36
  -9  -4 -12   -0.13    0.29
   9   4  12    0.00    0.22
   9   4  12    0.01    0.25
   9   4  12    0.28    0.38
   3  -5 -12    3.20    0.43
   3  -5 -12    3.30    0.47
   3  -5 -12    3.20    0.45
  -3   5  12    3.51    0.50
  -3   5  12    3.18    0.28
   2  -5 -12    0.19    0.24
   2  -5 -12    0.41    0.26
  -2   5  12    0.29    0.48
  -2   5  12    0.35    0.13
   1  -5 -12    8.99    0.51
   1  -5 -12    8.79    0.52
   1  -5 -12    9.67    0.45
  -1   5  12    8.86    0.38
  -1   5  12    9.97    0.48
   0  -5 -12    1.24    0.28
   0  -5 -12    1.36    0.25
   0  -5 -12    1.29    0.22
   0   5  12    1.01    0.16
   0   5  12    1.27    0.17
  -1  -5 -12   10.09    0.55
  -1  -5 -12   10.75    0.52
  -1  -5 -12   10.67    0.49
   1   5  12   11.38    0.42
   1   5  12   11.09    0.42
   1   5  12   10.21    0.42
  -2  -5 -12    0.05    0.16
  -2  -5 -12   -0.15    0.16
  -2  -5 -12   -0.34    0.18
   2   5  12    0.10    0.13
   2   5  12   -0.18    0.13
   2   5  12   -0.09    0.13
  -3  -5 -12    9.56    0.45
  -3  -5 -12    9.41    0.42
  -3  -5 -12    9.63    0.47
  -3  -5 -12    8.69    0.52
   3   5  12    8.68    0.41
   3   5  12    9.98    0.37
   3   5  12    9.41    0.41
  -4  -5 -12    0.11    0.20
  -4  -5 -12   -0.17    0.27
  -4  -5 -12    0.13    0.23
  -4  -5 -12    0.05    0.17
   4   5  12   -0.03    0.15
   4   5  12    0.12    0.26
   4   5  12   -0.15    0.13
  -5  -5 -12   12.98    0.58
  -5  -5 -12   12.25    0.66
  -5  -5 -12   11.52    0.72
  -5  -5 -12   11.97    0.67
   5   5  12   12.92    0.46
   5   5  12   12.05    0.54
   5   5  12   12.19    0.55
  -6  -5 -12    0.20    0.21
  -6  -5 -12    0.09    0.38
  -6  -5 -12    0.05    0.17
  -6  -5 -12    0.14    0.28
   6   5  12    0.12    0.19
   6   5  12    0.18    0.22
   6   5  12   -0.05    0.17
  -7  -5 -12    5.40    0.56
  -7  -5 -12    5.90    0.48
   7   5  12    6.40    0.53
   7   5  12    5.56    0.44
  -8  -5 -12   -0.21    0.25
  -8  -5 -12    0.00    0.34
   8   5  12    0.32    0.32
   8   5  12    0.29    0.25
  -9  -5 -12    2.79    0.40
  -9  -5 -12    2.04    0.45
   9   5  12    1.81    0.33
   9   5  12    1.45    0.31
   9   5  12    2.36    0.45
   2  -6 -12    4.57    0.44
   2  -6 -12    4.18    0.46
   2  -6 -12    4.28    0.46
  -2   6  12    4.18    0.46
  -2   6  12    4.41    0.27
   1  -6 -12    0.41    0.23
   1  -6 -12    0.64    0.23
   1  -6 -12    0.82    0.26
  -1   6  12    0.54    0.14
  -1   6  12    0.76    0.24
   0  -6 -12   10.17    0.54
   0  -6 -12    9.45    0.53
   0  -6 -12   10.07    0.48
   0   6  12   10.57    0.41
   0   6  12    9.49    0.40
  -1  -6 -12   -0.10    0.21
  -1  -6 -12    0.18    0.21
  -1  -6 -12    0.12    0.19
   1   6  12   -0.12    0.14
   1   6  12    0.28    0.14
   1   6  12    0.17    0.14
  -2  -6 -12   16.33    0.66
  -2  -6 -12   15.11    0.63
   2   6  12   14.45    0.53
   2   6  12   15.57    0.54
   2   6  12   15.20    0.49
  -3  -6 -12    0.71    0.29
  -3  -6 -12    0.95    0.22
  -3  -6 -12   -0.04    0.19
  -3  -6 -12    0.28    0.21
   3   6  12    0.08    0.14
   3   6  12    0.01    0.13
   3   6  12    0.00    0.14
  -4  -6 -12    8.53    0.45
  -4  -6 -12    9.69    0.54
  -4  -6 -12    7.78    0.51
  -4  -6 -12    7.97    0.58
   4   6  12    8.95    0.35
   4   6  12    8.71    0.44
  -5  -6 -12   -0.15    0.18
  -5  -6 -12   -0.05    0.27
  -5  -6 -12    0.17    0.30
  -5  -6 -12    0.21    0.24
   5   6  12   -0.06    0.15
   5   6  12   -0.04    0.17
   5   6  12    0.29    0.18
  -6  -6 -12    6.34    0.61
  -6  -6 -12    6.79    0.59
  -6  -6 -12    6.96    0.50
  -6  -6 -12    6.33    0.41
   6   6  12    6.58    0.46
   6   6  12    7.00    0.35
   6   6  12    7.01    0.48
  -7  -6 -12   -0.02    0.24
  -7  -6 -12   -0.04    0.32
  -7  -6 -12   -0.07    0.30
   7   6  12   -0.21    0.20
   7   6  12    0.17    0.26
  -8  -6 -12    3.88    0.55
  -8  -6 -12    3.60    0.49
  -8  -6 -12    2.73    0.43
   8   6  12    3.12    0.39
   8   6  12    3.12    0.44
   8   6  12    4.35    0.45
  -9  -6 -12   -0.18    0.34
  -9  -6 -12   -0.10    0.31
   2  -7 -12    0.28    0.28
   2  -7 -12   -0.64    0.24
   2  -7 -12    0.13    0.28
  -2   7  12   -0.07    0.13
   1  -7 -12    7.06    0.52
   1  -7 -12    6.92    0.52
   1  -7 -12    8.07    0.52
  -1   7  12    7.23    0.34
   0  -7 -12    0.22    0.23
   0  -7 -12    0.30    0.28
   0  -7 -12    0.24    0.22
   0   7  12    0.26    0.14
  -1  -7 -12   18.96    0.91
  -1  -7 -12   18.83    0.74
  -1  -7 -12   19.59    0.76
   1   7  12   18.45    0.61
  -2  -7 -12    0.67    0.23
  -2  -7 -12    1.07    0.29
   2   7  12    1.40    0.19
   2   7  12    1.02    0.17
  -3  -7 -12   10.41    0.63
  -3  -7 -12   11.38    0.54
  -3  -7 -12   11.44    0.50
  -3  -7 -12   11.27    0.64
   3   7  12   11.36    0.46
   3   7  12   11.01    0.47
  -4  -7 -12    0.45    0.23
  -4  -7 -12    0.45    0.29
  -4  -7 -12    0.75    0.24
   4   7  12    0.30    0.16
  -5  -7 -12    7.85    0.60
  -5  -7 -12    9.90    0.52
  -5  -7 -12    9.15    0.56
  -5  -7 -12    9.14    0.64
   5   7  12    8.75    0.52
   5   7  12    9.03    0.48
  -6  -7 -12   -0.30    0.26
  -6  -7 -12   -0.18    0.24
  -6  -7 -12    0.18    0.31
  -6  -7 -12   -0.03    0.27
   6   7  12   -0.39    0.19
   6   7  12   -0.06    0.20
  -7  -7 -12    6.57    0.61
  -7  -7 -12    6.95    0.57
  -7  -7 -12    6.88    0.58
   7   7  12    7.10    0.51
   7   7  12    6.02    0.51
  -8  -7 -12    0.10    0.31
  -8  -7 -12    0.49    0.32
  -8  -7 -12    0.07    0.30
   8   7  12    0.01    0.25
   8   7  12   -0.03    0.26
   8   7  12   -0.08    0.22
   1  -8 -12    0.48    0.28
   1  -8 -12    0.59    0.28
   1  -8 -12    0.57    0.28
  -1   8  12    0.52    0.14
   0  -8 -12    8.44    0.54
   0  -8 -12    8.50    0.54
   0  -8 -12    7.60    0.53
   0   8  12    8.80    0.37
  -1  -8 -12   -0.33    0.24
  -1  -8 -12    0.49    0.22
  -1  -8 -12   -0.06    0.23
   1   8  12    0.11    0.14
  -2  -8 -12   14.26    0.65
  -2  -8 -12   15.41    0.70
   2   8  12   15.55    0.55
   2   8  12   16.27    0.55
  -3  -8 -12   -0.40    0.25
  -3  -8 -12    0.06    0.21
  -3  -8 -12    0.00    0.23
   3   8  12    0.03    0.13
   3   8  12   -0.22    0.15
  -4  -8 -12   14.92    0.59
  -4  -8 -12   15.06    0.68
  -4  -8 -12   14.73    0.76
  -4  -8 -12   15.22    0.65
   4   8  12   13.87    0.58
   4   8  12   15.14    0.59
  -5  -8 -12   -0.43    0.30
  -5  -8 -12   -0.14    0.21
  -5  -8 -12    0.39    0.30
  -5  -8 -12    0.29    0.25
   5   8  12   -0.05    0.42
   5   8  12    0.07    0.18
  -6  -8 -12    7.82    0.60
  -6  -8 -12    7.18    0.48
  -6  -8 -12    8.35    0.55
  -6  -8 -12    7.84    0.59
  -6  -8 -12    7.73    0.59
   6   8  12    7.37    0.50
   6   8  12    6.64    0.49
  -7  -8 -12    0.27    0.31
  -7  -8 -12   -0.33    0.28
  -7  -8 -12    0.20    0.29
   7   8  12    0.06    0.23
   7   8  12   -0.07    0.22
  -8  -8 -12    2.96    0.45
  -8  -8 -12    4.56    0.59
  -8  -8 -12    4.01    0.55
   8   8  12    3.90    0.48
   8   8  12    3.08    0.41
   8   8  12    3.68    0.43
   0  -9 -12    0.56    0.29
   0  -9 -12    0.10    0.27
   0  -9 -12    0.62    0.27
   0   9  12    0.40    0.15
  -1  -9 -12    8.46    0.54
  -1  -9 -12    8.07    0.56
   1   9  12    7.88    0.38
  -2  -9 -12    1.17    0.30
  -2  -9 -12    1.45    0.31
   2   9  12    1.44    0.20
  -3  -9 -12   11.34    0.65
  -3  -9 -12   10.91    0.57
   3   9  12   10.39    0.46
   3   9  12   10.97    0.53
  -4  -9 -12   -0.03    0.22
  -4  -9 -12    0.40    0.31
  -4  -9 -12    0.47    0.29
   4   9  12    0.13    0.16
   4   9  12   -0.07    0.19
  -5  -9 -12    9.08    0.55
  -5  -9 -12    8.33    0.64
  -5  -9 -12    9.36    0.58
  -5  -9 -12    9.84    0.67
  -5  -9 -12    9.74    0.61
   5   9  12    9.11    0.51
   5   9  12    9.39    0.56
  -6  -9 -12    0.40    0.33
  -6  -9 -12   -0.08    0.27
  -6  -9 -12   -0.04    0.29
  -6  -9 -12    0.25    0.31
   6   9  12   -0.13    0.22
   6   9  12    0.12    0.21
  -7  -9 -12    6.21    0.60
  -7  -9 -12    7.47    0.59
  -7  -9 -12    5.97    0.66
  -7  -9 -12    6.71    0.60
   7   9  12    7.28    0.61
   7   9  12    6.11    0.50
  -1 -10 -12    0.56    0.31
  -1 -10 -12    0.57    0.26
   1  10  12    0.29    0.16
  -2 -10 -12    3.46    0.43
  -2 -10 -12    4.70    0.56
   2  10  12    3.51    0.33
  -3 -10 -12    0.20    0.30
  -3 -10 -12    0.17    0.24
   3  10  12    0.37    0.24
   3  10  12    0.19    0.17
  -4 -10 -12    8.82    0.57
  -4 -10 -12    8.73    0.63
  -4 -10 -12    7.31    0.58
   4  10  12    7.98    0.45
   4  10  12    9.04    0.51
  -5 -10 -12    0.84    0.27
  -5 -10 -12    0.76    0.28
  -5 -10 -12    1.21    0.36
  -5 -10 -12    1.07    0.36
   5  10  12    0.90    0.28
   5  10  12    0.73    0.22
  -6 -10 -12    4.80    0.61
  -6 -10 -12    6.54    0.67
  -6 -10 -12    5.44    0.60
  -6 -10 -12    6.80    0.57
   6  10  12    5.00    0.43
   6  10  12    4.79    0.46
  -7 -10 -12    0.30    0.38
  -7 -10 -12    0.33    0.32
  -7 -10 -12    0.48    0.33
  -7 -10 -12    0.16    0.32
   7  10  12   -0.14    0.25
   7  10  12    0.43    0.33
   7  10  12    0.42    0.28
  -3 -11 -12    4.67    0.63
  -3 -11 -12    3.67    0.50
   3  11  12    4.48    0.37
  -4 -11 -12    0.73    0.36
  -4 -11 -12    0.55    0.29
   4  11  12    0.40    0.20
   4  11  12    0.32    0.32
  -5 -11 -12    4.48    0.52
  -5 -11 -12    2.47    0.43
  -5 -11 -12    4.32    0.48
   5  11  12    3.55    0.41
   5  11  12    4.00    0.49
   0  -5  13    2.45    0.41
  -1   5 -13    0.04    0.30
  -1   5 -13   -0.12    0.26
  -1   5 -13   -0.08    0.27
   1  -5  13   -0.07    0.30
   1  -5  13    0.20    0.30
   1  -5  13   -0.08    0.23
  -2   5 -13    1.43    0.31
  -2   5 -13    1.79    0.34
  -2   5 -13    2.28    0.34
   2  -5  13    1.64    0.31
   2  -5  13    1.48    0.36
   2  -5  13    1.19    0.33
  -3   5 -13    0.46    0.31
  -3   5 -13    0.38    0.30
  -3   5 -13    0.72    0.26
   3  -5  13    0.27    0.29
   3  -5  13    0.42    0.36
   3  -5  13    0.17    0.22
   1   4 -13    1.76    0.33
   1   4 -13    1.51    0.34
   1   4 -13    1.50    0.35
   1   4 -13    1.70    0.37
  -1  -4  13    1.99    0.35
  -1  -4  13    1.40    0.36
  -1  -4  13    1.38    0.30
   0   4 -13   -0.12    0.27
   0   4 -13    0.24    0.29
   0   4 -13    0.03    0.25
   0   4 -13    0.17    0.34
   0  -4  13    0.11    0.29
   0  -4  13    0.67    0.29
   0  -4  13    0.07    0.24
  -1   4 -13    4.64    0.47
  -1   4 -13    4.30    0.46
  -1   4 -13    4.13    0.46
   1  -4  13    4.71    0.49
   1  -4  13    5.47    0.52
   1  -4  13    5.04    0.44
  -2   4 -13    0.15    0.25
  -2   4 -13   -0.08    0.25
  -2   4 -13   -0.37    0.21
   2  -4  13    0.80    0.30
   2  -4  13    0.09    0.22
   2  -4  13    0.26    0.27
  -3   4 -13    3.47    0.45
  -3   4 -13    3.30    0.40
  -3   4 -13    2.86    0.38
   3  -4  13    2.96    0.39
   3  -4  13    3.62    0.42
   3  -4  13    3.45    0.44
  -4   4 -13    0.16    0.23
  -4   4 -13    0.16    0.35
  -4   4 -13    0.57    0.28
  -4   4 -13    0.90    0.42
   4  -4  13    0.69    0.24
   4  -4  13    0.26    0.27
   4  -4  13    1.00    0.82
  -5   4 -13    1.13    0.36
   5  -4  13    1.39    0.32
   2   3 -13    2.08    0.40
  -2  -3  13    1.09    0.41
   1   3 -13    0.21    0.29
   1   3 -13   -0.66    0.28
   1   3 -13   -0.04    0.24
   1   3 -13    0.44    0.25
  -1  -3  13    0.05    0.27
  -1  -3  13    0.48    0.27
  -1  -3  13    0.21    0.24
   0   3 -13    3.70    0.46
   0   3 -13    4.02    0.42
   0   3 -13    3.51    0.44
   0   3 -13    3.35    0.43
   0  -3  13    3.42    0.46
   0  -3  13    3.95    0.47
   0  -3  13    3.56    0.41
  -1   3 -13    0.20    0.24
  -1   3 -13    0.26    0.21
  -1   3 -13    0.14    0.24
  -1   3 -13    0.21    0.23
   1  -3  13   -0.21    0.20
   1  -3  13    0.30    0.26
   1  -3  13    0.14    0.23
  -2   3 -13    5.27    0.46
  -2   3 -13    5.64    0.45
  -2   3 -13    4.70    0.42
   2  -3  13    4.86    0.41
   2  -3  13    3.92    0.43
   2  -3  13    5.52    0.50
  -3   3 -13    0.86    0.24
  -3   3 -13    0.47    0.23
  -3   3 -13    0.77    0.26
   3  -3  13    0.92    0.31
   3  -3  13    0.48    0.27
   3  -3  13    0.31    0.21
  -4   3 -13    5.15    0.58
  -4   3 -13    4.64    0.45
  -4   3 -13    3.59    0.40
  -4   3 -13    4.97    0.41
   4  -3  13    4.19    0.45
   4  -3  13    4.88    0.83
   4  -3  13    4.75    0.44
  -5   3 -13    0.27    0.23
  -5   3 -13    0.82    0.32
  -5   3 -13    0.12    0.41
  -5   3 -13    0.69    0.27
   5  -3  13    0.50    0.25
   5  -3  13    0.69    0.27
   5  -3  13    0.08    0.36
  -6   3 -13    1.97    0.37
   6  -3  13    2.02    0.35
   2   2 -13   -0.24    0.29
   2   2 -13    0.18    0.26
   2   2 -13   -0.19    0.23
   2   2 -13    0.70    0.31
  -2  -2  13    0.31    0.25
  -2  -2  13    0.11    0.24
  -2  -2  13    0.60    0.35
   1   2 -13    1.78    0.30
   1   2 -13    1.61    0.32
   1   2 -13    1.43    0.32
   1   2 -13    2.11    0.37
  -1  -2  13    2.52    0.33
  -1  -2  13    2.29    0.38
  -1  -2  13    1.85    0.29
   0   2 -13    0.04    0.21
   0   2 -13    0.07    0.25
   0   2 -13    0.01    0.22
   0   2 -13   -0.16    0.26
   0  -2  13    0.27    0.22
   0  -2  13    0.24    0.25
   0  -2  13   -0.07    0.21
  -1   2 -13    4.07    0.39
  -1   2 -13    3.61    0.40
  -1   2 -13    3.94    0.43
  -1   2 -13    3.49    0.47
   1  -2  13    3.97    0.41
   1  -2  13    3.38    0.39
   1  -2  13    4.19    0.43
  -2   2 -13    0.39    0.21
  -2   2 -13    0.20    0.23
  -2   2 -13   -0.06    0.23
   2  -2  13    0.38    0.24
   2  -2  13    0.20    0.20
   2  -2  13   -0.22    0.21
  -3   2 -13    7.97    0.48
  -3   2 -13    7.70    0.44
  -3   2 -13    8.32    0.49
   3  -2  13    7.90    0.56
   3  -2  13    8.52    0.53
   3  -2  13    7.91    0.48
  -4   2 -13    0.21    0.31
  -4   2 -13    0.54    0.19
  -4   2 -13    0.81    0.24
  -4   2 -13   -0.03    0.20
   4  -2  13    0.09    0.44
   4  -2  13    0.49    0.26
   4  -2  13   -0.37    0.19
  -5   2 -13    3.62    0.70
  -5   2 -13    4.50    0.53
  -5   2 -13    3.20    0.39
   5  -2  13    4.27    0.43
   5  -2  13    3.92    0.53
   5  -2  13    4.39    0.44
  -6   2 -13    0.56    0.33
  -6   2 -13    0.91    0.36
  -6   2 -13    0.93    0.26
   6  -2  13    0.76    0.24
   6  -2  13    0.72    0.28
   6  -2  13    0.90    0.42
   2   1 -13    3.55    0.44
   2   1 -13    3.41    0.44
   2   1 -13    3.35    0.44
  -2  -1  13    3.85    0.40
  -2  -1  13    3.70    0.45
  -2  -1  13    3.29    0.47
   1   1 -13   -0.06    0.25
   1   1 -13    0.22    0.26
   1   1 -13    0.80    0.24
  -1  -1  13    0.09    0.20
  -1  -1  13   -0.13    0.21
  -1  -1  13   -0.23    0.28
   0   1 -13    5.41    0.48
   0   1 -13    5.19    0.43
   0   1 -13    5.32    0.43
   0   1 -13    5.69    0.44
   0  -1  13    5.23    0.45
   0  -1  13    5.37    0.42
   0  -1  13    5.29    0.42
  -1   1 -13    0.17    0.21
  -1   1 -13    0.19    0.20
  -1   1 -13   -0.39    0.20
   1  -1  13    0.05    0.19
   1  -1  13   -0.03    0.21
   1  -1  13   -0.34    0.19
  -2   1 -13    3.82    0.36
  -2   1 -13    3.94    0.37
   2  -1  13    3.34    0.39
   2  -1  13    3.28    0.37
   2  -1  13    4.26    0.41
  -3   1 -13   -0.03    0.20
  -3   1 -13    0.17    0.19
  -3   1 -13    0.17    0.19
   3  -1  13    0.65    0.24
   3  -1  13    0.53    0.23
   3  -1  13   -0.06    0.18
  -4   1 -13    7.10    0.53
  -4   1 -13    7.87    0.39
  -4   1 -13    7.20    0.46
   4  -1  13    7.44    0.60
   4  -1  13    6.58    0.45
   4  -1  13    7.33    0.48
  -5   1 -13   -0.08    0.31
  -5   1 -13   -0.30    0.19
   5  -1  13   -0.03    0.19
   5  -1  13   -0.24    0.31
   5  -1  13    0.06    0.23
  -6   1 -13    5.03    0.60
  -6   1 -13    3.51    0.44
  -6   1 -13    4.42    0.43
   6  -1  13    3.95    0.42
   6  -1  13    5.18    0.45
   6  -1  13    3.85    0.45
  -7   1 -13    0.38    0.24
  -7   1 -13   -0.34    0.31
  -7   1 -13    0.42    0.35
   7  -1  13    0.54    0.25
   7  -1  13    0.57    0.29
   2   0 -13    0.27    0.26
   2   0 -13    0.29    0.26
  -2   0  13    0.23    0.26
  -2   0  13    0.28    0.32
  -2   0  13    0.13    0.20
   1   0 -13    5.69    0.45
   1   0 -13    5.77    0.45
   1   0 -13    5.49    0.45
  -1   0  13    5.14    0.39
  -1   0  13    6.48    0.53
   0   0 -13   -0.34    0.18
   0   0 -13    0.40    0.22
   0   0 -13    0.19    0.23
   0   0  13   -0.02    0.15
   0   0  13    0.24    0.23
  -1   0 -13    5.26    0.41
  -1   0 -13    5.12    0.45
   1   0  13    4.78    0.43
   1   0  13    5.75    0.51
   1   0  13    4.96    0.38
  -2   0 -13    0.09    0.19
  -2   0 -13    0.23    0.25
   2   0  13    0.00    0.19
   2   0  13    0.21    0.18
   2   0  13   -0.09    0.21
  -3   0 -13    6.49    0.43
  -3   0 -13    7.12    0.40
   3   0  13    6.93    0.47
   3   0  13    6.29    0.43
   3   0  13    7.18    0.45
  -4   0 -13   -0.22    0.19
  -4   0 -13   -0.07    0.20
  -4   0 -13    0.56    0.43
   4   0  13    0.06    0.21
   4   0  13    0.20    0.19
   4   0  13   -0.49    0.21
  -5   0 -13    5.38    0.55
  -5   0 -13    4.86    0.34
  -5   0 -13    5.51    0.43
   5   0  13    5.06    0.42
   5   0  13    6.21    0.43
  -6   0 -13    1.15    0.33
  -6   0 -13    0.17    0.31
  -6   0 -13    0.39    0.22
   6   0  13    0.54    0.23
   6   0  13    0.22    0.24
   6   0  13    0.70    0.35
  -7   0 -13    2.94    0.48
  -7   0 -13    2.28    0.40
  -7   0 -13    3.06    0.41
   7   0  13    3.55    0.45
   7   0  13    2.73    0.39
   7   0  13    2.88    0.44
   2  -1 -13    3.17    0.41
   2  -1 -13    3.00    0.41
  -2   1  13    3.64    0.46
  -2   1  13    2.85    0.34
  -2   1  13    3.36    0.40
   1  -1 -13    0.24    0.21
   1  -1 -13    0.12    0.24
  -1   1  13   -0.14    0.24
  -1   1  13   -0.02    0.15
  -1   1  13    0.29    0.19
   0  -1 -13   10.70    0.54
   0  -1 -13   11.17    0.57
   0  -1 -13   11.33    0.45
   0   1  13   11.09    0.49
   0   1  13   11.41    0.56
   0   1  13   10.94    0.49
  -1  -1 -13   -0.04    0.19
  -1  -1 -13   -0.17    0.23
  -1  -1 -13    0.02    0.17
  -1  -1 -13    0.08    0.19
   1   1  13   -0.06    0.16
   1   1  13    0.14    0.17
   1   1  13    0.19    0.21
  -2  -1 -13    9.20    0.47
  -2  -1 -13    9.46    0.53
  -2  -1 -13    9.36    0.49
   2   1  13    8.92    0.49
   2   1  13    9.25    0.51
   2   1  13    8.51    0.47
  -3  -1 -13    0.17    0.18
  -3  -1 -13    0.32    0.20
   3   1  13    0.06    0.19
   3   1  13    0.07    0.22
   3   1  13   -0.13    0.18
  -4  -1 -13    5.52    0.40
  -4  -1 -13    5.24    0.38
  -4  -1 -13    5.27    0.53
   4   1  13    5.19    0.40
   4   1  13    5.12    0.44
   4   1  13    5.43    0.40
  -5  -1 -13    0.16    0.18
  -5  -1 -13    0.36    0.35
  -5  -1 -13    0.27    0.17
   5   1  13    0.25    0.21
   5   1  13    0.17    0.27
   5   1  13    0.05    0.19
  -6  -1 -13    6.30    0.58
  -6  -1 -13    6.01    0.45
   6   1  13    6.80    0.45
   6   1  13    6.32    0.45
   6   1  13    6.44    0.85
  -7  -1 -13   -0.49    0.43
  -7  -1 -13   -0.23    0.31
  -7  -1 -13   -0.27    0.23
   7   1  13    0.26    0.61
   7   1  13    0.03    0.22
   7   1  13    0.18    0.26
  -8  -1 -13    1.74    0.32
  -8  -1 -13    1.67    0.40
  -8  -1 -13    2.26    0.44
   8   1  13    1.81    0.31
   8   1  13    2.71    0.39
   2  -2 -13   -0.22    0.22
   2  -2 -13   -0.29    0.24
  -2   2  13    0.02    0.16
  -2   2  13    0.30    0.31
   1  -2 -13    4.77    0.42
   1  -2 -13    5.10    0.43
  -1   2  13    5.35    0.37
  -1   2  13    5.42    0.35
  -1   2  13    5.00    0.48
   0  -2 -13    0.26    0.23
   0  -2 -13   -0.17    0.18
   0   2  13    0.34    0.24
   0   2  13    0.06    0.14
  -1  -2 -13   12.18    0.48
  -1  -2 -13   12.41    0.51
  -1  -2 -13   11.89    0.58
  -1  -2 -13   12.34    0.56
   1   2  13   11.33    0.50
   1   2  13   11.68    0.53
   1   2  13   12.02    0.54
  -2  -2 -13   -0.04    0.22
  -2  -2 -13    0.19    0.21
  -2  -2 -13   -0.41    0.16
  -2  -2 -13    0.19    0.20
   2   2  13    0.12    0.17
   2   2  13   -0.08    0.14
  -3  -2 -13   11.96    0.61
  -3  -2 -13   12.12    0.53
   3   2  13   11.45    0.53
   3   2  13   12.09    0.56
  -4  -2 -13    0.15    0.20
  -4  -2 -13    0.28    0.31
  -4  -2 -13    0.10    0.18
   4   2  13    0.02    0.19
   4   2  13    0.39    0.21
   4   2  13    0.05    0.23
  -5  -2 -13    6.51    0.36
  -5  -2 -13    7.25    0.61
  -5  -2 -13    6.09    0.44
   5   2  13    6.99    0.50
   5   2  13    6.86    0.44
   5   2  13    6.38    0.44
  -6  -2 -13    0.67    0.23
  -6  -2 -13    0.43    0.18
  -6  -2 -13   -0.22    0.35
   6   2  13    1.02    0.31
   6   2  13    0.38    0.20
   6   2  13    0.58    0.24
  -7  -2 -13    4.96    0.58
  -7  -2 -13    5.62    0.46
   7   2  13    4.50    0.43
   7   2  13    4.67    0.48
   7   2  13    5.91    0.63
  -8  -2 -13    0.77    0.36
  -8  -2 -13    0.17    0.26
  -8  -2 -13    0.46    0.54
   8   2  13    0.11    0.37
   8   2  13    0.29    0.30
   8   2  13    0.57    0.26
   2  -3 -13    2.49    0.36
   2  -3 -13    2.02    0.35
  -2   3  13    3.09    0.41
  -2   3  13    2.87    0.30
   1  -3 -13    0.12    0.20
   1  -3 -13   -0.09    0.22
  -1   3  13    0.03    0.15
  -1   3  13    0.10    0.18
   0  -3 -13    7.37    0.48
   0  -3 -13    7.96    0.49
   0  -3 -13    8.28    0.42
   0   3  13    7.27    0.39
   0   3  13    8.25    0.49
   0   3  13    8.49    0.41
  -1  -3 -13   -0.11    0.22
  -1  -3 -13    0.14    0.19
  -1  -3 -13    0.03    0.18
  -1  -3 -13    0.28    0.20
   1   3  13    0.07    0.15
   1   3  13    0.32    0.20
   1   3  13    0.18    0.14
  -2  -3 -13   13.27    0.51
  -2  -3 -13   13.58    0.64
  -2  -3 -13   13.74    0.59
  -2  -3 -13   14.63    0.61
   2   3  13   14.15    0.68
   2   3  13   13.33    0.55
   2   3  13   14.22    0.55
  -3  -3 -13    0.31    0.18
  -3  -3 -13    0.04    0.24
  -3  -3 -13    0.16    0.20
   3   3  13    0.24    0.17
   3   3  13    0.30    0.17
   3   3  13   -0.15    0.17
  -4  -3 -13    7.47    0.54
  -4  -3 -13    7.83    0.73
  -4  -3 -13    8.27    0.42
  -4  -3 -13    7.75    0.47
   4   3  13    7.64    0.40
   4   3  13    7.39    0.46
   4   3  13    7.71    0.48
  -5  -3 -13    2.09    0.42
  -5  -3 -13    1.65    0.27
   5   3  13    2.11    0.28
   5   3  13    1.71    0.27
  -6  -3 -13    6.33    0.64
  -6  -3 -13    6.76    0.53
  -6  -3 -13    7.34    0.49
   6   3  13    7.74    0.54
   6   3  13    6.49    0.45
   6   3  13    6.80    0.46
  -7  -3 -13    0.64    0.26
  -7  -3 -13    0.15    0.34
   7   3  13    0.16    0.21
   7   3  13    0.00    0.25
   7   3  13    0.38    0.29
  -8  -3 -13    4.52    0.62
  -8  -3 -13    4.46    0.52
   8   3  13    5.23    0.52
   8   3  13    4.49    0.64
   8   3  13    4.61    0.47
   2  -4 -13    0.31    0.27
   2  -4 -13    0.00    0.24
  -2   4  13    0.15    0.15
  -2   4  13    0.46    0.35
   1  -4 -13    5.61    0.46
   1  -4 -13    5.54    0.46
  -1   4  13    5.23    0.45
  -1   4  13    5.78    0.34
   0  -4 -13   -0.12    0.21
   0  -4 -13   -0.07    0.21
   0  -4 -13   -0.17    0.20
   0   4  13    0.12    0.12
   0   4  13    0.55    0.18
  -1  -4 -13    5.21    0.41
  -1  -4 -13    4.42    0.44
  -1  -4 -13    5.24    0.38
   1   4  13    5.34    0.33
   1   4  13    5.38    0.32
   1   4  13    4.99    0.35
  -2  -4 -13    0.07    0.19
  -2  -4 -13    0.28    0.25
  -2  -4 -13    0.34    0.19
   2   4  13    0.01    0.14
   2   4  13    0.04    0.15
  -3  -4 -13    9.12    0.58
  -3  -4 -13    9.66    0.51
   3   4  13    9.54    0.45
   3   4  13    9.85    0.46
  -4  -4 -13    0.01    0.27
  -4  -4 -13   -0.01    0.23
  -4  -4 -13    0.05    0.18
  -4  -4 -13   -0.72    0.37
   4   4  13    0.25    0.18
   4   4  13    0.10    0.23
  -5  -4 -13    8.53    0.63
  -5  -4 -13    7.99    0.51
  -5  -4 -13    8.05    0.66
  -5  -4 -13    8.59    0.62
   5   4  13    8.91    0.51
   5   4  13    8.02    0.47
   5   4  13    8.80    0.42
  -6  -4 -13    0.57    0.38
  -6  -4 -13    0.32    0.23
   6   4  13    0.20    0.20
   6   4  13   -0.17    0.22
  -7  -4 -13    4.54    0.48
  -7  -4 -13    3.42    0.48
  -7  -4 -13    3.26    0.35
   7   4  13    4.58    0.43
   7   4  13    4.29    0.43
   7   4  13    3.73    0.52
  -8  -4 -13    0.28    0.36
  -8  -4 -13    0.33    0.30
   8   4  13    0.42    0.25
   8   4  13    0.25    0.32
   2  -5 -13    4.18    0.47
   2  -5 -13    3.73    0.47
  -2   5  13    4.06    0.31
  -2   5  13    4.18    0.49
   1  -5 -13    0.00    0.22
   1  -5 -13    0.76    0.27
  -1   5  13    0.14    0.14
  -1   5  13   -0.17    0.25
   0  -5 -13    7.65    0.51
   0  -5 -13    7.06    0.49
   0  -5 -13    7.50    0.48
   0   5  13    7.07    0.36
   0   5  13    7.81    0.43
  -1  -5 -13    0.04    0.23
  -1  -5 -13   -0.11    0.18
  -1  -5 -13   -0.29    0.20
   1   5  13   -0.15    0.13
   1   5  13    0.12    0.16
  -2  -5 -13    8.31    0.53
  -2  -5 -13    8.38    0.49
   2   5  13    7.61    0.39
   2   5  13    7.53    0.39
   2   5  13    8.26    0.37
  -3  -5 -13    0.22    0.22
  -3  -5 -13    0.34    0.25
  -3  -5 -13    0.51    0.23
   3   5  13    0.21    0.15
   3   5  13    0.33    0.15
   3   5  13    0.43    0.19
  -4  -5 -13    8.21    0.47
  -4  -5 -13    7.91    0.62
  -4  -5 -13    7.56    0.49
  -4  -5 -13    8.46    0.68
   4   5  13    8.14    0.44
   4   5  13    7.89    0.37
   4   5  13    7.91    0.44
  -5  -5 -13    0.20    0.32
  -5  -5 -13   -0.04    0.23
  -5  -5 -13   -0.56    0.29
  -5  -5 -13   -0.19    0.21
   5   5  13    0.07    0.21
   5   5  13    0.22    0.17
   5   5  13   -0.02    0.18
  -6  -5 -13    4.63    0.38
  -6  -5 -13    5.24    0.46
  -6  -5 -13    4.73    0.61
  -6  -5 -13    5.58    0.61
   6   5  13    5.00    0.42
   6   5  13    5.63    0.47
   6   5  13    6.08    0.38
  -7  -5 -13    0.02    0.32
  -7  -5 -13   -0.38    0.20
  -7  -5 -13   -0.18    0.26
  -7  -5 -13   -0.23    0.32
   7   5  13    0.61    0.23
   7   5  13    0.26    0.33
   7   5  13   -0.36    0.25
  -8  -5 -13    3.07    0.49
  -8  -5 -13    2.19    0.38
   8   5  13    2.09    0.39
   8   5  13    2.18    0.36
   1  -6 -13    9.59    0.59
   1  -6 -13    8.32    0.66
   1  -6 -13    9.59    0.58
  -1   6  13    9.47    0.41
   0  -6 -13    1.21    0.37
   0  -6 -13    0.79    0.29
   0  -6 -13    1.02    0.27
   0   6  13    0.97    0.18
   0   6  13    1.12    0.28
  -1  -6 -13    8.87    0.52
  -1  -6 -13    8.57    0.52
   1   6  13    8.57    0.41
   1   6  13    8.87    0.39
   1   6  13    8.46    0.41
  -2  -6 -13    0.08    0.29
  -2  -6 -13    0.30    0.21
   2   6  13    0.00    0.15
   2   6  13    0.36    0.17
   2   6  13   -0.16    0.16
  -3  -6 -13    8.00    0.59
  -3  -6 -13    8.24    0.49
  -3  -6 -13    8.12    0.44
  -3  -6 -13    8.37    0.46
   3   6  13    8.13    0.41
   3   6  13    7.75    0.35
  -4  -6 -13    0.24    0.26
  -4  -6 -13    0.05    0.30
  -4  -6 -13   -0.25    0.23
  -4  -6 -13    0.10    0.20
   4   6  13   -0.01    0.15
   4   6  13   -0.06    0.16
   4   6  13    0.40    0.20
  -5  -6 -13    9.99    0.53
  -5  -6 -13    9.81    0.59
  -5  -6 -13    8.07    0.62
  -5  -6 -13    8.98    0.66
   5   6  13    9.76    0.53
   5   6  13   10.54    0.41
   5   6  13    9.82    0.51
  -6  -6 -13    0.81    0.36
  -6  -6 -13    0.50    0.34
  -6  -6 -13    0.60    0.28
  -6  -6 -13    0.46    0.26
   6   6  13    0.36    0.20
   6   6  13    0.56    0.24
   6   6  13    0.63    0.22
  -7  -6 -13    2.71    0.44
  -7  -6 -13    3.41    0.49
  -7  -6 -13    2.55    0.46
   7   6  13    2.99    0.40
   7   6  13    2.54    0.34
  -8  -6 -13   -0.74    0.66
  -8  -6 -13   -0.40    0.28
  -8  -6 -13    0.11    0.35
   8   6  13    0.71    0.31
   8   6  13    0.31    0.27
   1  -7 -13    0.09    0.27
   1  -7 -13    0.17    0.27
   1  -7 -13    0.39    0.28
   0  -7 -13    8.99    0.56
   0  -7 -13    8.59    0.58
   0  -7 -13    8.69    0.54
   0   7  13    8.37    0.40
  -1  -7 -13    0.21    0.25
  -1  -7 -13    0.24    0.27
  -1  -7 -13   -0.09    0.19
   1   7  13   -0.04    0.13
  -2  -7 -13   12.99    0.62
  -2  -7 -13   14.10    0.68
   2   7  13   13.03    0.51
   2   7  13   12.28    0.50
  -3  -7 -13    0.32    0.22
  -3  -7 -13   -0.13    0.27
  -3  -7 -13    0.41    0.23
   3   7  13    0.00    0.14
  -4  -7 -13    8.81    0.55
  -4  -7 -13    9.71    0.66
  -4  -7 -13    9.57    0.54
  -4  -7 -13    9.52    0.51
   4   7  13    9.28    0.48
   4   7  13   10.62    0.50
  -5  -7 -13    0.20    0.40
  -5  -7 -13   -0.14    0.29
  -5  -7 -13   -0.06    0.32
  -5  -7 -13    0.07    0.22
   5   7  13    0.01    0.21
   5   7  13    0.09    0.19
  -6  -7 -13    6.55    0.50
  -6  -7 -13    6.63    0.58
  -6  -7 -13    7.02    0.58
  -6  -7 -13    7.31    0.63
   6   7  13    6.51    0.48
   6   7  13    6.25    0.50
  -7  -7 -13    0.13    0.34
  -7  -7 -13    0.04    0.30
  -7  -7 -13    0.23    0.32
   7   7  13    0.31    0.29
   7   7  13   -0.19    0.24
  -8  -7 -13    2.63    0.45
  -8  -7 -13    2.30    0.44
  -8  -7 -13    2.36    0.44
   8   7  13    2.49    0.35
   8   7  13    2.95    0.40
   0  -8 -13    1.27    0.32
   0  -8 -13    1.24    0.31
   0  -8 -13    1.48    0.31
   0   8  13    1.14    0.19
  -1  -8 -13    8.53    0.54
  -1  -8 -13    9.21    0.57
   1   8  13    8.41    0.41
  -2  -8 -13    0.65    0.29
  -2  -8 -13    0.32    0.24
   2   8  13    0.45    0.17
  -3  -8 -13    8.95    0.60
  -3  -8 -13    9.30    0.53
   3   8  13    8.20    0.43
  -4  -8 -13    1.11    0.39
  -4  -8 -13    0.51    0.25
  -4  -8 -13   -0.20    0.30
   4   8  13    0.34    0.18
   4   8  13    0.10    0.23
  -5  -8 -13    9.75    0.56
  -5  -8 -13   10.11    0.69
  -5  -8 -13    9.09    0.78
  -5  -8 -13    8.70    0.65
   5   8  13    9.65    0.56
   5   8  13    8.86    0.51
  -6  -8 -13    0.24    0.26
  -6  -8 -13    0.02    0.30
  -6  -8 -13   -0.09    0.31
  -6  -8 -13    0.66    0.35
   6   8  13    0.12    0.25
   6   8  13   -0.16    0.23
  -7  -8 -13    5.91    0.61
  -7  -8 -13    6.15    0.60
  -7  -8 -13    5.37    0.63
   7   8  13    6.45    0.51
   7   8  13    5.96    0.47
  -1  -9 -13    0.31    0.32
  -1  -9 -13    0.62    0.27
   1   9  13    0.44    0.18
  -2  -9 -13    8.22    0.56
  -2  -9 -13    8.29    0.62
   2   9  13    7.28    0.41
  -3  -9 -13    0.99    0.27
  -3  -9 -13    1.55    0.35
   3   9  13    0.47    0.25
   3   9  13    1.34    0.22
  -4  -9 -13    6.76    0.56
  -4  -9 -13    7.88    0.68
  -4  -9 -13    7.44    0.53
   4   9  13    7.79    0.46
  -5  -9 -13    0.18    0.26
  -5  -9 -13    0.49    0.34
  -5  -9 -13    0.35    0.33
  -5  -9 -13   -0.27    0.33
   5   9  13    0.12    0.27
   5   9  13   -0.15    0.20
  -6  -9 -13    3.96    0.48
  -6  -9 -13    5.56    0.63
  -6  -9 -13    6.09    0.67
  -6  -9 -13    4.68    0.54
   6   9  13    4.22    0.43
   6   9  13    4.72    0.44
  -3 -10 -13    4.47    0.49
  -3 -10 -13    5.00    0.64
   3  10  13    4.81    0.40
  -4 -10 -13    0.21    0.35
  -4 -10 -13    0.07    0.26
   4  10  13    0.43    0.23
   4  10  13    0.39    0.28
  -5 -10 -13    4.55    0.59
  -5 -10 -13    3.89    0.46
  -5 -10 -13    3.73    0.53
   5  10  13    3.73    0.41
   5  10  13    4.01    0.40
  -1   3 -14    4.97    0.47
  -1   3 -14    3.88    0.48
  -1   3 -14    3.82    0.47
   1  -3  14    4.08    0.53
   1  -3  14    4.35    0.54
   1  -3  14    3.81    0.44
  -2   3 -14    0.01    0.28
  -2   3 -14    0.25    0.27
  -2   3 -14    0.36    0.25
   2  -3  14    0.17    0.27
   2  -3  14    0.49    0.25
   2  -3  14    0.23    0.28
  -3   3 -14    2.90    0.40
  -3   3 -14    3.31    0.46
  -3   3 -14    3.67    0.44
   3  -3  14    2.63    0.39
   3  -3  14    2.07    0.31
   3  -3  14    2.21    0.39
  -4   3 -14    0.30    0.24
  -4   3 -14    1.08    0.31
   4  -3  14    0.56    0.33
   4  -3  14    0.46    0.25
   4  -3  14    0.40    0.31
   0   2 -14    1.97    0.32
   0   2 -14    2.91    0.42
   0   2 -14    1.81    0.37
   0   2 -14    1.89    0.37
   0  -2  14    2.05    0.39
   0  -2  14    1.83    0.32
   0  -2  14    2.80    0.36
  -1   2 -14    0.13    0.24
  -1   2 -14   -0.19    0.22
  -1   2 -14   -0.22    0.23
  -1   2 -14    0.07    0.28
   1  -2  14    0.24    0.28
   1  -2  14   -0.18    0.21
   1  -2  14    0.64    0.26
  -2   2 -14    3.85    0.43
  -2   2 -14    2.96    0.42
  -2   2 -14    5.24    0.45
   2  -2  14    4.02    0.47
   2  -2  14    3.46    0.47
   2  -2  14    4.06    0.42
  -3   2 -14    0.23    0.23
  -3   2 -14    0.13    0.25
  -3   2 -14   -0.01    0.28
   3  -2  14    0.08    0.26
   3  -2  14    0.23    0.21
   3  -2  14   -0.32    0.25
  -4   2 -14    2.65    0.35
  -4   2 -14    4.10    0.41
   4  -2  14    3.26    0.41
   4  -2  14    2.76    0.39
   4  -2  14    3.28    0.42
  -5   2 -14    0.12    0.37
  -5   2 -14    0.37    0.26
   5  -2  14   -0.04    0.25
   5  -2  14    1.13    0.36
   5  -2  14    0.74    0.31
   1   1 -14    1.61    0.30
   1   1 -14    1.70    0.34
   1   1 -14    1.87    0.33
  -1  -1  14    1.35    0.30
  -1  -1  14    1.88    0.41
  -1  -1  14    1.78    0.32
   0   1 -14    0.19    0.26
   0   1 -14    0.02    0.26
   0   1 -14    0.13    0.25
   0   1 -14    0.12    0.23
   0  -1  14    0.27    0.22
   0  -1  14    0.52    0.24
   0  -1  14    0.23    0.29
  -1   1 -14    4.24    0.44
  -1   1 -14    2.83    0.39
  -1   1 -14    3.06    0.41
  -1   1 -14    2.52    0.36
   1  -1  14    4.57    0.48
   1  -1  14    3.88    0.40
   1  -1  14    3.90    0.44
  -2   1 -14   -0.22    0.21
  -2   1 -14   -0.12    0.21
   2  -1  14    0.01    0.22
   2  -1  14    0.02    0.25
   2  -1  14   -0.04    0.20
  -3   1 -14    4.34    0.43
  -3   1 -14    4.52    0.46
   3  -1  14    5.20    0.51
   3  -1  14    4.56    0.49
   3  -1  14    4.38    0.40
  -4   1 -14    0.14    0.23
  -4   1 -14    0.21    0.22
   4  -1  14    0.01    0.22
   4  -1  14    0.01    0.28
   4  -1  14    0.44    0.27
  -5   1 -14    2.32    0.45
  -5   1 -14    2.11    0.32
   5  -1  14    2.53    0.37
   5  -1  14    2.64    0.36
   5  -1  14    3.04    0.41
  -6   1 -14    0.12    0.36
  -6   1 -14    0.27    0.26
   6  -1  14    0.77    0.29
   6  -1  14   -0.13    0.35
   6  -1  14    0.03    0.23
   1   0 -14    0.29    0.26
   1   0 -14    0.04    0.24
  -1   0  14   -0.02    0.33
  -1   0  14   -0.21    0.20
  -1   0  14    0.05    0.24
   0   0 -14    5.03    0.46
   0   0 -14    5.26    0.47
   0   0 -14    6.10    0.47
   0   0  14    4.69    0.42
   0   0  14    5.34    0.51
   0   0  14    5.27    0.53
  -1   0 -14   -0.09    0.20
  -1   0 -14    0.12    0.22
  -1   0 -14   -0.29    0.25
   1   0  14   -0.10    0.19
   1   0  14    0.18    0.20
   1   0  14    0.09    0.24
  -2   0 -14    2.68    0.33
  -2   0 -14    3.47    0.42
  -2   0 -14    4.08    0.46
   2   0  14    4.17    0.41
   2   0  14    2.66    0.38
   2   0  14    3.55    0.42
  -3   0 -14    0.08    0.25
  -3   0 -14    0.33    0.22
   3   0  14    0.53    0.22
   3   0  14   -0.15    0.23
   3   0  14    0.40    0.24
  -4   0 -14    6.91    0.47
  -4   0 -14    5.05    0.41
   4   0  14    5.43    0.45
   4   0  14    5.28    0.50
   4   0  14    6.02    0.47
  -5   0 -14   -0.27    0.21
   5   0  14    0.03    0.28
   5   0  14    0.15    0.22
   5   0  14   -0.24    0.24
  -6   0 -14    2.00    0.42
  -6   0 -14    2.39    0.34
   6   0  14    2.14    0.32
   6   0  14    2.81    0.39
   1  -1 -14    4.02    0.44
   1  -1 -14    4.46    0.44
  -1   1  14    4.44    0.38
  -1   1  14    4.18    0.46
  -1   1  14    3.93    0.54
   0  -1 -14    0.10    0.23
   0  -1 -14   -0.13    0.26
   0   1  14   -0.16    0.17
   0   1  14   -0.25    0.23
   0   1  14    0.09    0.26
  -1  -1 -14    6.30    0.45
  -1  -1 -14    5.52    0.48
   1   1  14    5.87    0.44
   1   1  14    5.10    0.45
   1   1  14    5.76    0.42
  -2  -1 -14    0.50    0.27
  -2  -1 -14    0.21    0.30
  -2  -1 -14    0.58    0.24
   2   1  14    0.29    0.22
   2   1  14    0.14    0.19
   2   1  14    0.43    0.25
  -3  -1 -14    5.05    0.59
  -3  -1 -14    5.34    0.42
  -3  -1 -14    6.46    0.45
   3   1  14    5.77    0.45
   3   1  14    6.05    0.46
   3   1  14    6.08    0.43
  -4  -1 -14    0.59    0.23
  -4  -1 -14    0.22    0.23
   4   1  14    0.12    0.24
   4   1  14    0.47    0.22
   4   1  14   -0.19    0.22
  -5  -1 -14    5.89    0.46
  -5  -1 -14    5.95    0.39
  -5  -1 -14    5.00    0.62
   5   1  14    6.12    0.45
   5   1  14    5.48    0.50
   5   1  14    6.20    0.48
  -6  -1 -14   -0.20    0.22
  -6  -1 -14    0.03    0.37
   6   1  14    0.00    0.26
   6   1  14    0.47    0.23
   6   1  14    0.10    0.29
  -7  -1 -14    2.20    0.36
  -7  -1 -14    2.50    0.47
   7   1  14    2.73    0.38
   7   1  14    1.69    0.32
   7   1  14    2.54    0.43
   1  -2 -14    0.31    0.27
   1  -2 -14    0.42    0.26
  -1   2  14    0.12    0.17
  -1   2  14    0.21    0.31
   0  -2 -14    6.66    0.51
   0  -2 -14    6.89    0.49
   0   2  14    6.39    0.42
   0   2  14    7.07    0.51
  -1  -2 -14    0.35    0.23
  -1  -2 -14    0.43    0.28
   1   2  14    0.34    0.18
   1   2  14    0.14    0.23
   1   2  14    0.12    0.25
  -2  -2 -14    4.97    0.42
   2   2  14    5.83    0.42
   2   2  14    4.99    0.42
   2   2  14    5.01    0.39
  -3  -2 -14    0.98    0.25
  -3  -2 -14    0.85    0.25
  -3  -2 -14    0.49    0.32
   3   2  14    0.77    0.23
   3   2  14    1.03    0.24
   3   2  14    0.87    0.27
  -4  -2 -14    5.67    0.66
  -4  -2 -14    6.04    0.46
   4   2  14    6.03    0.43
   4   2  14    7.03    0.48
   4   2  14    5.53    0.44
  -5  -2 -14    0.24    0.21
  -5  -2 -14    0.86    0.43
  -5  -2 -14    0.69    0.25
   5   2  14    0.19    0.21
   5   2  14   -0.05    0.23
   5   2  14    0.28    0.23
  -6  -2 -14    6.19    0.68
  -6  -2 -14    6.17    0.51
   6   2  14    7.08    0.56
   6   2  14    6.19    0.46
   6   2  14    6.68    0.49
  -7  -2 -14    0.33    0.26
  -7  -2 -14   -0.14    0.38
   7   2  14    0.46    0.25
   7   2  14    0.31    0.33
   7   2  14    0.26    0.29
   1  -3 -14    2.75    0.40
   1  -3 -14    2.31    0.36
  -1   3  14    2.64    0.32
  -1   3  14    2.52    0.38
   0  -3 -14    0.65    0.27
   0  -3 -14    0.11    0.24
   0   3  14    0.52    0.27
   0   3  14    0.13    0.16
   0   3  14    0.29    0.20
  -1  -3 -14    6.33    0.44
  -1  -3 -14    4.98    0.45
  -1  -3 -14    6.18    0.46
   1   3  14    4.53    0.36
   1   3  14    5.16    0.41
   1   3  14    6.22    0.47
  -2  -3 -14   -0.52    0.20
  -2  -3 -14    0.20    0.25
  -2  -3 -14    0.19    0.23
   2   3  14    0.13    0.17
   2   3  14   -0.26    0.22
  -3  -3 -14    7.51    0.49
  -3  -3 -14    7.43    0.46
  -3  -3 -14    7.19    0.66
   3   3  14    7.48    0.56
   3   3  14    7.07    0.47
   3   3  14    7.44    0.46
  -4  -3 -14   -0.30    0.37
  -4  -3 -14    0.22    0.22
  -4  -3 -14    0.10    0.24
   4   3  14    0.06    0.19
   4   3  14   -0.38    0.22
   4   3  14    0.04    0.20
  -5  -3 -14    5.35    0.44
  -5  -3 -14    4.72    0.62
  -5  -3 -14    4.44    0.40
  -5  -3 -14    4.08    0.53
   5   3  14    4.93    0.42
   5   3  14    5.31    0.43
   5   3  14    5.08    0.45
  -6  -3 -14   -0.01    0.21
  -6  -3 -14    0.33    0.40
  -6  -3 -14    0.37    0.25
   6   3  14    0.56    0.25
   6   3  14    0.44    0.27
   6   3  14    0.17    0.25
  -7  -3 -14    3.90    0.53
  -7  -3 -14    3.53    0.49
   7   3  14    3.84    0.43
   7   3  14    4.05    0.55
   7   3  14    5.43    0.52
   1  -4 -14   -0.10    0.24
   1  -4 -14   -0.12    0.25
  -1   4  14   -0.10    0.15
  -1   4  14    0.23    0.29
   0  -4 -14    4.68    0.47
   0  -4 -14    4.54    0.45
   0   4  14    5.31    0.47
   0   4  14    3.64    0.32
  -1  -4 -14    0.17    0.21
  -1  -4 -14    0.30    0.27
  -1  -4 -14    0.55    0.25
   1   4  14    0.24    0.19
   1   4  14    0.58    0.27
   1   4  14    0.26    0.17
  -2  -4 -14    6.63    0.46
  -2  -4 -14    6.94    0.53
  -2  -4 -14    6.06    0.45
   2   4  14    6.23    0.38
   2   4  14    6.40    0.41
  -3  -4 -14    0.16    0.21
  -3  -4 -14    0.16    0.31
  -3  -4 -14    0.02    0.22
   3   4  14   -0.21    0.21
   3   4  14    0.23    0.18
   3   4  14   -0.04    0.22
  -4  -4 -14    5.88    0.61
  -4  -4 -14    4.37    0.40
   4   4  14    4.20    0.40
   4   4  14    5.02    0.42
  -5  -4 -14    0.01    0.34
  -5  -4 -14   -0.34    0.36
  -5  -4 -14   -0.06    0.23
  -5  -4 -14    0.00    0.23
   5   4  14    0.03    0.21
   5   4  14   -0.09    0.24
   5   4  14    0.22    0.22
  -6  -4 -14    3.54    0.46
  -6  -4 -14    2.88    0.51
  -6  -4 -14    3.78    0.54
  -6  -4 -14    4.16    0.40
   6   4  14    2.87    0.40
   6   4  14    2.81    0.39
   6   4  14    3.69    0.46
  -7  -4 -14    0.46    0.38
  -7  -4 -14   -0.19    0.28
   7   4  14    0.18    0.30
   7   4  14    0.31    0.23
   7   4  14    0.70    0.28
   0  -5 -14    0.25    0.23
   0  -5 -14   -0.23    0.26
   0  -5 -14    0.44    0.30
   0   5  14   -0.13    0.15
   0   5  14    0.19    0.27
  -1  -5 -14    5.20    0.45
  -1  -5 -14    5.36    0.48
   1   5  14    4.78    0.35
  -2  -5 -14   -0.10    0.21
  -2  -5 -14    0.63    0.30
   2   5  14   -0.28    0.18
   2   5  14   -0.10    0.19
   2   5  14    0.03    0.16
  -3  -5 -14    8.03    0.50
  -3  -5 -14    7.94    0.48
  -3  -5 -14    7.41    0.72
   3   5  14    8.26    0.45
   3   5  14    8.09    0.40
  -4  -5 -14   -0.10    0.21
  -4  -5 -14    0.51    0.35
  -4  -5 -14    0.61    0.33
   4   5  14    0.33    0.20
   4   5  14    0.36    0.19
   4   5  14    0.34    0.23
  -5  -5 -14    4.43    0.56
  -5  -5 -14    5.24    0.65
  -5  -5 -14    3.31    0.46
  -5  -5 -14    4.04    0.42
   5   5  14    4.27    0.35
   5   5  14    3.98    0.41
   5   5  14    4.04    0.42
  -6  -5 -14    0.07    0.38
  -6  -5 -14    0.07    0.38
  -6  -5 -14    0.34    0.41
  -6  -5 -14    0.44    0.27
   6   5  14   -0.14    0.21
   6   5  14    0.09    0.24
   6   5  14    0.31    0.34
  -7  -5 -14    2.48    0.40
  -7  -5 -14    2.24    0.48
  -7  -5 -14    2.92    0.47
   7   5  14    2.08    0.37
   7   5  14    2.61    0.36
   7   5  14    1.74    0.33
   0  -6 -14    5.65    0.51
   0  -6 -14    6.30    0.54
   0  -6 -14    6.43    0.52
   0   6  14    6.23    0.38
  -1  -6 -14   -0.17    0.23
  -1  -6 -14   -0.23    0.26
  -1  -6 -14   -0.19    0.26
   1   6  14   -0.01    0.16
  -2  -6 -14    7.45    0.55
  -2  -6 -14    7.97    0.51
   2   6  14    6.75    0.41
   2   6  14    7.23    0.43
  -3  -6 -14    0.08    0.22
  -3  -6 -14   -0.26    0.30
   3   6  14   -0.05    0.16
   3   6  14    0.07    0.24
  -4  -6 -14    7.82    0.63
  -4  -6 -14    7.43    0.60
  -4  -6 -14    8.75    0.74
  -4  -6 -14    7.83    0.50
   4   6  14    8.04    0.51
   4   6  14    7.91    0.48
  -5  -6 -14    0.20    0.23
  -5  -6 -14   -0.02    0.27
  -5  -6 -14    0.48    0.35
   5   6  14   -0.17    0.21
   5   6  14    0.15    0.24
  -6  -6 -14    5.04    0.59
  -6  -6 -14    4.36    0.46
  -6  -6 -14    4.47    0.46
  -6  -6 -14    4.63    0.57
   6   6  14    3.71    0.47
   6   6  14    4.11    0.47
  -7  -6 -14    0.33    0.37
  -7  -6 -14   -0.01    0.40
  -7  -6 -14    0.00    0.31
   7   6  14   -0.43    0.24
   7   6  14    0.62    0.31
  -1  -7 -14    5.81    0.52
  -1  -7 -14    5.55    0.48
  -1  -7 -14    5.15    0.54
   1   7  14    5.35    0.36
  -2  -7 -14    0.43    0.28
  -2  -7 -14    1.07    0.27
   2   7  14    0.15    0.24
   2   7  14    0.22    0.16
  -3  -7 -14    8.50    0.65
  -3  -7 -14    8.52    0.53
   3   7  14    7.10    0.44
   3   7  14    8.17    0.49
  -4  -7 -14    0.14    0.34
  -4  -7 -14    0.15    0.32
  -4  -7 -14   -0.26    0.22
   4   7  14    0.14    0.24
   4   7  14    0.30    0.20
  -5  -7 -14    8.59    0.63
  -5  -7 -14   11.06    0.75
  -5  -7 -14    8.53    0.56
  -5  -7 -14    9.52    0.68
   5   7  14    9.42    0.55
   5   7  14   10.01    0.55
  -6  -7 -14   -0.52    0.29
  -6  -7 -14   -0.22    0.25
  -6  -7 -14    0.57    0.39
  -6  -7 -14    0.59    0.35
   6   7  14   -0.09    0.24
   6   7  14   -0.06    0.25
  -2  -8 -14    4.97    0.49
  -2  -8 -14    5.84    0.57
   2   8  14    5.21    0.38
  -3  -8 -14    0.29    0.32
  -3  -8 -14    0.34    0.27
   3   8  14    0.64    0.26
   3   8  14    0.09    0.18
  -4  -8 -14    5.96    0.69
  -4  -8 -14    5.81    0.51
   4   8  14    6.45    0.44
   4   8  14    6.35    0.49
  -5  -8 -14    0.16    0.38
  -5  -8 -14    0.04    0.27
  -5  -8 -14    0.33    0.39
  -5  -8 -14    0.00    0.35
   5   8  14    0.24    0.22
   5   8  14    0.16    0.26
  -6  -8 -14    4.64    0.53
  -6  -8 -14    5.97    0.68
  -6  -8 -14    4.85    0.60
  -6  -8 -14    5.47    0.59
   6   8  14    5.49    0.51
   6   8  14    4.74    0.49
  -4  -9 -14    0.34    0.38
  -4  -9 -14    0.51    0.32
  -2   1 -15    2.89    0.37
  -2   1 -15    3.05    0.46
   2  -1  15    3.15    0.43
   2  -1  15    2.99    0.39
   2  -1  15    3.49    0.42
  -3   1 -15    0.46    0.28
  -3   1 -15    0.07    0.26
   3  -1  15   -0.16    0.23
   3  -1  15   -0.68    0.27
   3  -1  15   -0.27    0.28
  -1   0 -15    3.30    0.44
  -1   0 -15    3.73    0.43
  -1   0 -15    4.12    0.55
   1   0  15    2.75    0.41
   1   0  15    3.34    0.44
   1   0  15    3.59    0.43
  -2   0 -15    0.50    0.26
  -2   0 -15   -0.19    0.24
   2   0  15   -0.44    0.26
   2   0  15   -0.61    0.31
   2   0  15   -0.07    0.24
  -3   0 -15    4.89    0.49
  -3   0 -15    4.88    0.46
   3   0  15    3.73    0.49
   3   0  15    4.18    0.45
   3   0  15    4.91    0.54
  -4   0 -15    0.39    0.27
  -4   0 -15   -0.27    0.24
   4   0  15    0.17    0.29
   4   0  15   -0.15    0.29
   4   0  15    0.11    0.25
  -1  -1 -15   -0.37    0.28
  -1  -1 -15    0.29    0.27
  -1  -1 -15   -0.09    0.27
   1   1  15   -0.06    0.24
   1   1  15   -0.11    0.20
   1   1  15    0.35    0.30
  -2  -1 -15    3.29    0.44
  -2  -1 -15    3.11    0.46
   2   1  15    3.11    0.39
   2   1  15    4.15    0.42
   2   1  15    3.80    0.45
  -3  -1 -15    0.52    0.26
  -3  -1 -15   -0.29    0.40
  -3  -1 -15   -0.41    0.24
   3   1  15   -0.46    0.23
   3   1  15    0.04    0.27
   3   1  15    0.34    0.24
  -4  -1 -15    5.29    0.46
  -4  -1 -15    4.29    0.54
  -4  -1 -15    5.22    0.50
   4   1  15    5.53    0.50
   4   1  15    6.24    0.52
   4   1  15    5.58    0.48
  -5  -1 -15   -0.13    0.27
  -5  -1 -15    0.05    0.25
   5   1  15    0.22    0.29
   5   1  15   -0.04    0.23
   5   1  15    0.78    0.31
  -1  -2 -15    3.28    0.45
  -1  -2 -15    3.87    0.47
   1   2  15    4.09    0.41
   1   2  15    3.47    0.43
   1   2  15    3.78    0.52
  -2  -2 -15    0.57    0.34
  -2  -2 -15    0.07    0.24
  -2  -2 -15    0.43    0.38
   2   2  15    0.17    0.22
   2   2  15    0.10    0.25
   2   2  15    0.35    0.24
  -3  -2 -15    3.57    0.43
  -3  -2 -15    3.57    0.45
  -3  -2 -15    3.19    0.43
   3   2  15    3.61    0.41
   3   2  15    3.27    0.42
   3   2  15    3.46    0.40
  -4  -2 -15   -0.40    0.24
  -4  -2 -15    0.10    0.36
  -4  -2 -15   -0.03    0.24
   4   2  15    0.16    0.24
   4   2  15   -0.03    0.23
   4   2  15    0.02    0.24
  -5  -2 -15    3.40    0.47
  -5  -2 -15    5.02    0.49
  -5  -2 -15    4.16    0.58
   5   2  15    4.74    0.49
   5   2  15    5.27    0.53
   5   2  15    4.10    0.45
  -1  -3 -15    0.34    0.27
  -1  -3 -15    0.24    0.28
   1   3  15    0.44    0.22
   1   3  15    0.28    0.24
   1   3  15    0.24    0.27
  -2  -3 -15    2.80    0.47
  -2  -3 -15    2.87    0.36
  -2  -3 -15    2.74    0.36
   2   3  15    2.33    0.30
   2   3  15    2.43    0.50
   2   3  15    2.45    0.34
  -3  -3 -15    0.00    0.32
  -3  -3 -15    0.19    0.24
  -3  -3 -15   -0.25    0.25
   3   3  15    0.02    0.22
   3   3  15    0.20    0.22
   3   3  15   -0.03    0.25
  -4  -3 -15    2.92    0.35
  -4  -3 -15    2.80    0.36
  -4  -3 -15    2.44    0.44
   4   3  15    2.75    0.34
   4   3  15    2.81    0.35
   4   3  15    2.96    0.43
  -5  -3 -15    0.28    0.27
  -5  -3 -15   -0.10    0.27
  -5  -3 -15   -0.51    0.40
   5   3  15   -0.18    0.25
   5   3  15   -0.03    0.23
   5   3  15   -0.18    0.29
  -6  -3 -15    2.99    0.39
  -6  -3 -15    3.40    0.60
  -6  -3 -15    3.89    0.57
  -6  -3 -15    3.94    0.52
   6   3  15    4.66    0.47
   6   3  15    4.48    0.53
   6   3  15    4.14    0.49
  -1  -4 -15    4.51    0.49
  -1  -4 -15    3.89    0.45
   1   4  15    3.50    0.46
   1   4  15    4.69    0.48
   1   4  15    3.86    0.40
  -2  -4 -15    0.28    0.31
  -2  -4 -15    0.04    0.24
   2   4  15    0.44    0.27
   2   4  15   -0.08    0.19
   2   4  15   -0.28    0.23
  -3  -4 -15    3.80    0.64
  -3  -4 -15    4.33    0.44
  -3  -4 -15    4.84    0.54
   3   4  15    3.95    0.40
   3   4  15    3.02    0.40
   3   4  15    3.24    0.43
  -4  -4 -15   -0.24    0.25
  -4  -4 -15    0.12    0.24
  -4  -4 -15    0.19    0.34
   4   4  15   -0.07    0.25
   4   4  15   -0.25    0.21
   4   4  15   -0.30    0.22
  -5  -4 -15    2.41    0.35
  -5  -4 -15    2.52    0.34
  -5  -4 -15    3.12    0.50
   5   4  15    2.70    0.36
   5   4  15    2.14    0.31
   5   4  15    2.11    0.32
  -6  -4 -15    1.39    0.41
  -6  -4 -15   -0.17    0.44
  -6  -4 -15   -0.45    0.28
  -6  -4 -15    0.89    0.45
   6   4  15    0.10    0.26
   6   4  15   -0.20    0.27
   6   4  15    0.32    0.29
  -2  -5 -15    5.57    0.55
  -2  -5 -15    5.57    0.50
   2   5  15    6.89    0.44
   2   5  15    5.94    0.49
   2   5  15    5.81    0.54
  -3  -5 -15   -0.08    0.25
  -3  -5 -15    0.51    0.33
   3   5  15    0.14    0.25
   3   5  15   -0.02    0.19
   3   5  15    0.22    0.29
  -4  -5 -15    4.31    0.46
  -4  -5 -15    4.83    0.53
  -4  -5 -15    4.04    0.51
   4   5  15    3.76    0.46
   4   5  15    4.17    0.44
   4   5  15    4.12    0.43
  -5  -5 -15    0.94    0.41
  -5  -5 -15    0.29    0.27
  -5  -5 -15   -0.16    0.24
   5   5  15    0.08    0.28
   5   5  15   -0.05    0.25
   5   5  15   -0.05    0.23
  -6  -5 -15    3.51    0.44
  -6  -5 -15    2.03    0.46
  -6  -5 -15    3.04    0.54
   6   5  15    3.01    0.39
   6   5  15    2.65    0.35
  -2  -6 -15    0.79    0.30
  -2  -6 -15    0.28    0.28
   2   6  15    0.17    0.28
   2   6  15    0.11    0.18
  -3  -6 -15    7.77    0.56
  -3  -6 -15    8.62    0.65
   3   6  15    7.70    0.53
   3   6  15    7.18    0.48
  -4  -6 -15    0.54    0.38
  -4  -6 -15   -0.47    0.27
   4   6  15    0.22    0.26
   4   6  15    0.43    0.23
  -5  -6 -15    4.27    0.50
  -5  -6 -15    4.59    0.55
   5   6  15    4.35    0.47
   5   6  15    3.70    0.46
   0   0   0    0.00    0.00
;
_shelx_hkl_checksum              69374
loop_
_space_group_symop_operation_xyz
'x, y, z'
'-x, -y, -z'
loop_
_atom_site_label
_atom_site_type_symbol
_atom_site_fract_x
_atom_site_fract_y
_atom_site_fract_z
_atom_site_U_iso_or_equiv
_atom_site_adp_type
_atom_site_occupancy
_atom_site_site_symmetry_order
_atom_site_calc_flag
_atom_site_refinement_flags_posn
_atom_site_refinement_flags_adp
_atom_site_refinement_flags_occupancy
Pu1 Pu 0.5000 0.0000 1.0000 0.04264(5) Uani 1 2 d S . P
Cl1 Cl 0.33417(14) 0.16858(10) 0.83752(8) 0.0631(2) Uani 1 1 d . . .
Cl2 Cl 0.82928(15) 0.03284(12) 0.84187(11) 0.0752(3) Uani 1 1 d . . .
O1 O 0.5053(4) -0.1350(2) 0.9286(2) 0.0607(6) Uani 1 1 d . . .
Pu2 Pu 0.0000 0.5000 0.5000 0.04211(5) Uani 1 2 d S . P
Cl3 Cl 0.32775(14) 0.55554(11) 0.35627(10) 0.0657(2) Uani 1 1 d . . .
Cl4 Cl 0.05312(15) 0.30239(10) 0.36780(9) 0.0665(2) Uani 1 1 d . . .
O2 O 0.1072(4) 0.3882(2) 0.6051(2) 0.0613(6) Uani 1 1 d . . .
N1 N 0.5678(5) 0.2354(4) 0.4885(4) 0.0818(11) Uani 1 1 d . . .
HN1 H 0.5076 0.3137 0.5083 0.098 Uiso 1 1 d R U .
C1 C 0.5673(6) 0.1986(4) 0.3781(4) 0.0655(10) Uani 1 1 d . . .
H1 H 0.4998 0.2562 0.3256 0.079 Uiso 1 1 calc R U .
C2 C 0.6681(6) 0.0755(5) 0.3477(3) 0.0664(11) Uani 1 1 d . . .
H2 H 0.6723 0.0484 0.2730 0.080 Uiso 1 1 calc R U .
C3 C 0.7637(5) -0.0084(4) 0.4282(4) 0.0637(10) Uani 1 1 d . . .
H3 H 0.8338 -0.0926 0.4087 0.076 Uiso 1 1 calc R U .
C4 C 0.7539(5) 0.0342(4) 0.5370(4) 0.0608(9) Uani 1 1 d . . .
H4 H 0.8159 -0.0221 0.5933 0.073 Uiso 1 1 calc R U .
C5 C 0.6584(5) 0.1533(4) 0.5632(3) 0.0502(7) Uani 1 1 d . . .
H5 H 0.6550 0.1803 0.6378 0.060 Uiso 1 1 calc R U .
N2 N 0.8989(6) 0.2700(4) 0.0052(4) 0.0834(12) Uani 1 1 d . . .
HN2 H 0.9541 0.1883 -0.0062 0.100 Uiso 1 1 d R U .
C6 C 0.8896(6) 0.3138(5) 0.1095(4) 0.0684(10) Uani 1 1 d . . .
H6 H 0.9433 0.2563 0.1695 0.082 Uiso 1 1 calc R U .
C7 C 0.8039(6) 0.4401(5) 0.1297(4) 0.0710(11) Uani 1 1 d . . .
H7 H 0.7961 0.4699 0.2040 0.085 Uiso 1 1 calc R U .
C8 C 0.7279(6) 0.5254(4) 0.0409(5) 0.0741(12) Uani 1 1 d . . .
H8 H 0.6679 0.6137 0.0537 0.089 Uiso 1 1 calc R U .
C9 C 0.7417(7) 0.4783(5) -0.0682(4) 0.0759(12) Uani 1 1 d . . .
H9 H 0.6938 0.5357 -0.1309 0.091 Uiso 1 1 calc R U .
C10 C 0.8232(7) 0.3514(5) -0.0840(4) 0.0769(12) Uani 1 1 d . . .
H10 H 0.8283 0.3184 -0.1560 0.092 Uiso 1 1 calc R U .
loop_
_atom_site_aniso_label
_atom_site_aniso_U_11
_atom_site_aniso_U_22
_atom_site_aniso_U_33
_atom_site_aniso_U_23
_atom_site_aniso_U_13
_atom_site_aniso_U_12
Pu1 0.04726(9) 0.03962(9) 0.04136(8) -0.01904(6) -0.00426(6) -0.00839(6)
Cl1 0.0676(6) 0.0633(5) 0.0528(5) -0.0163(4) -0.0144(4) 0.0009(4)
Cl2 0.0604(6) 0.0843(7) 0.0733(6) -0.0302(5) 0.0123(5) -0.0242(5)
O1 0.0724(16) 0.0528(14) 0.0623(15) -0.0295(11) -0.0125(12) -0.0120(12)
Pu2 0.05017(10) 0.03712(8) 0.04182(8) -0.00677(6) -0.01912(7) -0.00452(6)
Cl3 0.0649(6) 0.0678(6) 0.0688(6) -0.0233(4) -0.0078(4) -0.0233(4)
Cl4 0.0855(7) 0.0545(5) 0.0683(5) -0.0237(4) -0.0271(5) -0.0097(4)
O2 0.0726(16) 0.0542(14) 0.0591(14) -0.0002(11) -0.0350(12) -0.0015(12)
N1 0.070(2) 0.063(2) 0.108(3) -0.035(2) -0.002(2) -0.0155(18)
C1 0.067(2) 0.064(2) 0.070(2) 0.0023(19) -0.028(2) -0.0188(19)
C2 0.083(3) 0.081(3) 0.0447(18) -0.0170(18) -0.0076(18) -0.040(2)
C3 0.058(2) 0.051(2) 0.072(2) -0.0201(18) 0.0058(18) -0.0141(16)
C4 0.054(2) 0.067(2) 0.059(2) 0.0009(18) -0.0147(17) -0.0177(18)
C5 0.0501(18) 0.057(2) 0.0477(17) -0.0181(15) -0.0090(14) -0.0143(15)
N2 0.075(2) 0.064(2) 0.101(3) -0.024(2) -0.003(2) -0.0106(18)
C6 0.063(2) 0.076(3) 0.063(2) 0.004(2) -0.0188(19) -0.018(2)
C7 0.068(3) 0.094(3) 0.057(2) -0.027(2) -0.0082(19) -0.026(2)
C8 0.062(2) 0.054(2) 0.104(4) -0.025(2) -0.016(2) -0.0059(18)
C9 0.076(3) 0.085(3) 0.071(3) 0.008(2) -0.034(2) -0.022(2)
C10 0.083(3) 0.100(4) 0.057(2) -0.033(2) -0.006(2) -0.032(3)
loop_
_atom_type_symbol
_atom_type_description
_atom_type_scat_dispersion_real
_atom_type_scat_dispersion_imag
_atom_type_scat_source
C C 0.0033 0.0016 'International Tables Vol C Tables 4.2.6.8 and 6.1.1.4'
H H 0.0000 0.0000 'International Tables Vol C Tables 4.2.6.8 and 6.1.1.4'
Cl Cl 0.1484 0.1585 'International Tables Vol C Tables 4.2.6.8 and 6.1.1.4'
N N 0.0061 0.0033 'International Tables Vol C Tables 4.2.6.8 and 6.1.1.4'
O O 0.0106 0.0060 'International Tables Vol C Tables 4.2.6.8 and 6.1.1.4'
Pu Pu -9.4100 4.3056 'International Tables Vol C Tables 4.2.6.8 and 6.1.1.4'
loop_
_geom_angle_atom_site_label_1
_geom_angle_atom_site_label_2
_geom_angle_atom_site_label_3
_geom_angle
_geom_angle_site_symmetry_1
_geom_angle_site_symmetry_3
O1 Pu1 O1 180.00(17) . 2_657
O1 Pu1 Cl1 89.93(9) . .
O1 Pu1 Cl1 90.07(9) 2_657 .
O1 Pu1 Cl1 90.07(9) . 2_657
O1 Pu1 Cl1 89.93(9) 2_657 2_657
Cl1 Pu1 Cl1 180.0 . 2_657
O1 Pu1 Cl2 89.67(9) . 2_657
O1 Pu1 Cl2 90.33(9) 2_657 2_657
Cl1 Pu1 Cl2 90.49(4) . 2_657
Cl1 Pu1 Cl2 89.51(4) 2_657 2_657
O1 Pu1 Cl2 90.33(9) . .
O1 Pu1 Cl2 89.67(9) 2_657 .
Cl1 Pu1 Cl2 89.51(4) . .
Cl1 Pu1 Cl2 90.49(4) 2_657 .
Cl2 Pu1 Cl2 180.0 2_657 .
O2 Pu2 O2 180.0 . 2_566
O2 Pu2 Cl4 89.95(9) . .
O2 Pu2 Cl4 90.05(9) 2_566 .
O2 Pu2 Cl4 90.05(9) . 2_566
O2 Pu2 Cl4 89.95(9) 2_566 2_566
Cl4 Pu2 Cl4 180.0 . 2_566
O2 Pu2 Cl3 90.46(10) . .
O2 Pu2 Cl3 89.54(10) 2_566 .
Cl4 Pu2 Cl3 88.65(3) . .
Cl4 Pu2 Cl3 91.35(3) 2_566 .
O2 Pu2 Cl3 89.54(10) . 2_566
O2 Pu2 Cl3 90.46(10) 2_566 2_566
Cl4 Pu2 Cl3 91.35(3) . 2_566
Cl4 Pu2 Cl3 88.65(3) 2_566 2_566
Cl3 Pu2 Cl3 180.00(3) . 2_566
C5 N1 C1 120.7(4) . .
C5 N1 HN1 119.6 . .
C1 N1 HN1 119.6 . .
C2 C1 N1 118.2(4) . .
C2 C1 H1 120.9 . .
N1 C1 H1 120.9 . .
C1 C2 C3 119.6(4) . .
C1 C2 H2 120.2 . .
C3 C2 H2 120.2 . .
C4 C3 C2 118.7(4) . .
C4 C3 H3 120.7 . .
C2 C3 H3 120.7 . .
C5 C4 C3 120.6(4) . .
C5 C4 H4 119.7 . .
C3 C4 H4 119.7 . .
N1 C5 C4 122.2(4) . .
N1 C5 H5 118.9 . .
C4 C5 H5 118.9 . .
C6 N2 C10 121.1(4) . .
C6 N2 HN2 119.4 . .
C10 N2 HN2 119.4 . .
N2 C6 C7 120.5(4) . .
N2 C6 H6 119.7 . .
C7 C6 H6 119.7 . .
C6 C7 C8 119.8(4) . .
C6 C7 H7 120.1 . .
C8 C7 H7 120.1 . .
C7 C8 C9 118.7(4) . .
C7 C8 H8 120.7 . .
C9 C8 H8 120.7 . .
C10 C9 C8 120.1(4) . .
C10 C9 H9 119.9 . .
C8 C9 H9 119.9 . .
C9 C10 N2 119.7(4) . .
C9 C10 H10 120.2 . .
N2 C10 H10 120.2 . .
loop_
_geom_bond_atom_site_label_1
_geom_bond_atom_site_label_2
_geom_bond_distance
_geom_bond_site_symmetry_2
Pu1 O1 1.734(2) .
Pu1 O1 1.734(2) 2_657
Pu1 Cl1 2.6528(10) .
Pu1 Cl1 2.6528(10) 2_657
Pu1 Cl2 2.6696(10) 2_657
Pu1 Cl2 2.6697(10) .
Pu2 O2 1.728(2) .
Pu2 O2 1.728(2) 2_566
Pu2 Cl4 2.6465(9) .
Pu2 Cl4 2.6465(9) 2_566
Pu2 Cl3 2.6760(10) .
Pu2 Cl3 2.6760(10) 2_566
N1 C5 1.300(6) .
N1 C1 1.376(6) .
N1 HN1 0.8602 .
C1 C2 1.361(6) .
C1 H1 0.9300 .
C2 C3 1.374(6) .
C2 H2 0.9300 .
C3 C4 1.361(6) .
C3 H3 0.9300 .
C4 C5 1.304(5) .
C4 H4 0.9300 .
C5 H5 0.9300 .
N2 C6 1.321(6) .
N2 C10 1.351(7) .
N2 HN2 0.8596 .
C6 C7 1.335(6) .
C6 H6 0.9300 .
C7 C8 1.364(6) .
C7 H7 0.9300 .
C8 C9 1.378(6) .
C8 H8 0.9300 .
C9 C10 1.325(7) .
C9 H9 0.9300 .
C10 H10 0.9300 .
loop_
_geom_torsion_atom_site_label_1
_geom_torsion_atom_site_label_2
_geom_torsion_atom_site_label_3
_geom_torsion_atom_site_label_4
_geom_torsion
C5 N1 C1 C2 -1.8(6)
N1 C1 C2 C3 1.1(6)
C1 C2 C3 C4 0.3(6)
C2 C3 C4 C5 -1.2(6)
C1 N1 C5 C4 0.9(6)
C3 C4 C5 N1 0.7(6)
C10 N2 C6 C7 0.3(7)
N2 C6 C7 C8 -1.1(7)
C6 C7 C8 C9 0.1(7)
C7 C8 C9 C10 1.8(7)
C8 C9 C10 N2 -2.5(7)
C6 N2 C10 C9 1.5(7)
