#------------------------------------------------------------------------------
#$Date: 2017-10-04 18:15:22 +0300 (Wed, 04 Oct 2017) $
#$Revision: 201639 $
#$URL: file:///home/coder/svn-repositories/cod/cif/4/12/65/4126547.cif $
#------------------------------------------------------------------------------
#
# This file is available in the Crystallography Open Database (COD),
# http://www.crystallography.net/
#
# All data on this site have been placed in the public domain by the
# contributors.
#
data_4126547
loop_
_publ_author_name
'Morrison, Gregory'
'Latshaw, Allison M.'
'Spagnuolo, Nicholas R.'
'Zur Loye, Hans-Conrad'
_publ_section_title
;
 Observation of Intense X-ray Scintillation in a Family of Mixed Anion
 Silicates, Cs3RESi4O10F2 (RE = Y, Eu-Lu), Obtained via an Enhanced Flux
 Crystal Growth Technique.
;
_journal_name_full               'Journal of the American Chemical Society'
_journal_paper_doi               10.1021/jacs.7b08559
_journal_year                    2017
_chemical_formula_moiety         'Cs3 F2 O10 Si4 Tm'
_chemical_formula_sum            'Cs3 F2 O10 Si4 Tm'
_chemical_formula_weight         878.02
_space_group_crystal_system      triclinic
_space_group_IT_number           2
_space_group_name_Hall           '-P 1'
_space_group_name_H-M_alt        'P -1'
_symmetry_space_group_name_Hall  '-P 1'
_symmetry_space_group_name_H-M   'P -1'
_audit_creation_date             2017-05-23
_audit_creation_method
;
Olex2 1.2
(compiled 2015.09.30 svn.r3233 for OlexSys, GUI svn.r5103)
;
_cell_angle_alpha                95.807(3)
_cell_angle_beta                 90.018(3)
_cell_angle_gamma                119.799(3)
_cell_formula_units_Z            2
_cell_length_a                   7.0780(6)
_cell_length_b                   7.1138(6)
_cell_length_c                   16.1040(12)
_cell_measurement_reflns_used    9892
_cell_measurement_temperature    302(2)
_cell_measurement_theta_max      36.32
_cell_measurement_theta_min      3.32
_cell_volume                     698.83(10)
_computing_cell_refinement       'SAINT v7.60A (Bruker, 2013)'
_computing_data_collection       'Bruker APEXIII v2016.5-0 (Bruker, 2016)'
_computing_data_reduction        'SAINT v7.60A (Bruker, 2013)'
_computing_molecular_graphics    'Olex2 (Dolomanov et al., 2009)'
_computing_publication_material  'Olex2 (Dolomanov et al., 2009)'
_computing_structure_refinement  'ShelXL (Sheldrick, 2015)'
_computing_structure_solution    'ShelXT (Sheldrick, 2015)'
_diffrn_ambient_temperature      302.01
_diffrn_measured_fraction_theta_full 0.991
_diffrn_measured_fraction_theta_max 0.980
_diffrn_measurement_device_type  'Bruker APEX-II CCD'
_diffrn_measurement_method       '\f and \w scans'
_diffrn_radiation_type           MoK\a
_diffrn_radiation_wavelength     0.71073
_diffrn_reflns_av_R_equivalents  0.0450
_diffrn_reflns_av_unetI/netI     0.0267
_diffrn_reflns_Laue_measured_fraction_full 0.991
_diffrn_reflns_Laue_measured_fraction_max 0.980
_diffrn_reflns_limit_h_max       11
_diffrn_reflns_limit_h_min       -11
_diffrn_reflns_limit_k_max       11
_diffrn_reflns_limit_k_min       -11
_diffrn_reflns_limit_l_max       26
_diffrn_reflns_limit_l_min       -26
_diffrn_reflns_number            6565
_diffrn_reflns_point_group_measured_fraction_full 0.991
_diffrn_reflns_point_group_measured_fraction_max 0.980
_diffrn_reflns_theta_full        25.242
_diffrn_reflns_theta_max         36.511
_diffrn_reflns_theta_min         2.547
_diffrn_standards_number         0
_exptl_absorpt_coefficient_mu    14.455
_exptl_absorpt_correction_T_max  0.4977
_exptl_absorpt_correction_T_min  0.3763
_exptl_absorpt_correction_type   multi-scan
_exptl_absorpt_process_details
;
 TWINABS-2012/1 (Bruker,2012) was used for absorption correction.
 
For component 1:
 wR2(int) was 0.0916 before and 0.0695 after correction.
 The Ratio of minimum to maximum transmission is 0.76.
 The \l/2 correction factor is Not present

Final HKLF 4 output contains 48100 reflections, Rint = 0.0450
 (31937 with I > 3sig(I), Rint = 0.0447)
;
_exptl_crystal_colour            colourless
_exptl_crystal_density_diffrn    4.173
_exptl_crystal_description       'hexagonal plate'
_exptl_crystal_F_000             776
_exptl_crystal_size_max          0.06
_exptl_crystal_size_mid          0.06
_exptl_crystal_size_min          0.02
_refine_diff_density_max         5.007
_refine_diff_density_min         -2.994
_refine_diff_density_rms         0.452
_refine_ls_extinction_coef       0.0042(4)
_refine_ls_extinction_expression Fc^*^=kFc[1+0.001xFc^2^\l^3^/sin(2\q)]^-1/4^
_refine_ls_extinction_method     'SHELXL-2014/7 (Sheldrick 2014'
_refine_ls_goodness_of_fit_ref   1.108
_refine_ls_hydrogen_treatment    undef
_refine_ls_matrix_type           full
_refine_ls_number_parameters     181
_refine_ls_number_reflns         6565
_refine_ls_number_restraints     0
_refine_ls_restrained_S_all      1.108
_refine_ls_R_factor_all          0.0511
_refine_ls_R_factor_gt           0.0460
_refine_ls_shift/su_max          0.001
_refine_ls_shift/su_mean         0.000
_refine_ls_structure_factor_coef Fsqd
_refine_ls_weighting_details
'w=1/[\s^2^(Fo^2^)+30.0000P] where P=(Fo^2^+2Fc^2^)/3'
_refine_ls_weighting_scheme      calc
_refine_ls_wR_factor_gt          0.1125
_refine_ls_wR_factor_ref         0.1156
_reflns_Friedel_coverage         0.000
_reflns_number_gt                6202
_reflns_number_total             6565
_reflns_threshold_expression     'I > 2\s(I)'
_cod_data_source_file            ja7b08559_si_009.cif
_cod_data_source_block           Cs3TmSi4O10F2
_cod_database_code               4126547
_shelx_space_group_comment
;
The symmetry employed for this shelxl refinement is uniquely defined
by the following loop, which should always be used as a source of
symmetry information in preference to the above space-group names.
They are only intended as comments.
;
_shelx_estimated_absorpt_t_max   0.761
_shelx_estimated_absorpt_t_min   0.478
_olex2_refinement_description
;
1. Twinned data refinement
 Scales: 0.576(2) 0.424(2)
2. Others
 Fixed X: Tm1(0.5)
 Fixed Y: Tm1(0)
 Fixed Z: Tm1(0)
;
_shelx_res_file
;
    mor1206d_0m.res created by SHELXL-2014/7

TITL mor1206d_0m_a.res in P-1
REM Old TITL MOR1206d_0m in P1 #1
REM SHELXT solution in P-1
REM R1 0.147, Rweak 0.027, Alpha 0.076, Orientation as input
REM Formula found by SHELXT: O9 F2 Si4 Cs3 Tm
CELL 0.71073 7.078 7.1138 16.104 95.807 90.018 119.799
ZERR 2 0.0006 0.0006 0.0012 0.003 0.003 0.003
LATT 1
SFAC O F Si Cs Tm
UNIT 20 4 8 6 2

L.S. 10
PLAN  20
SIZE 0.02 0.06 0.06
TEMP 28.86
LIST 4
fmap 2 53
acta
TWIN 1 0 0 -1 -1 0 0 0 -1 2
REM <olex2.extras>
REM <HklSrc "%.\\twin4.hkl">
REM </olex2.extras>

WGHT    0.000000   30.000000
EXTI    0.004177
BASF   0.42439
FVAR       0.40113
TM1   5   10.500000   10.000000   10.000000    10.50000    0.00975    0.00740 =
         0.00686    0.00047    0.00132    0.00518
TM2   5    0.500000    1.000000    0.500000    10.50000    0.01433    0.01648 =
         0.00909    0.00194    0.00223    0.00883
CS1   4   -0.155163    0.683972    1.051165    11.00000    0.01784    0.01912 =
         0.01808    0.00300    0.00157    0.01041
CS2   4    1.127586    1.266642    0.681476    11.00000    0.02337    0.02579 =
         0.02336   -0.00518   -0.00011    0.01144
CS3   4    1.185083    1.356313    0.417656    11.00000    0.04331    0.02980 =
         0.03554    0.00025   -0.00240    0.01590
SI1   3    0.448691    0.904770    0.714224    11.00000    0.00854    0.00662 =
         0.00726    0.00028    0.00038    0.00359
SI2   3   -0.374554    0.708278    0.834201    11.00000    0.00811    0.00683 =
         0.00879   -0.00062   -0.00026    0.00454
SI3   3   -0.293213    0.334843    0.828570    11.00000    0.00668    0.00637 =
         0.00996    0.00147    0.00046    0.00336
SI4   3    0.078037    0.790010    0.827025    11.00000    0.00600    0.00529 =
         0.01292    0.00208   -0.00016    0.00217
O1    1   -0.117555    0.847926    0.815102    11.00000    0.01371
O2    1    0.219607    0.881456    0.745710    11.00000    0.00702    0.01892 =
         0.02638    0.01109    0.00473    0.00572
O3    1   -0.442890    0.449024    0.818829    11.00000    0.00792    0.00745 =
         0.02763    0.00090    0.00456    0.00633
O4    1   -0.355630    0.150596    0.749276    11.00000    0.00975    0.01014 =
         0.01414   -0.00336   -0.00102    0.00278
O5    1   -0.424755    0.769988    0.925345    11.00000    0.02095    0.01855 =
         0.01360    0.00304    0.01015    0.01269
O6    1    0.442503    0.853009    0.617184    11.00000    0.03904    0.02013 =
         0.00865    0.00148    0.00238    0.01161
O7    1   -0.042416    0.520740    0.813015    11.00000    0.00751    0.00699 =
         0.01471   -0.00095    0.00021    0.00235
O8    1    0.204058    0.887124    0.915391    11.00000    0.01938    0.02408 =
         0.01666   -0.00612   -0.01232    0.01248
O9    1   -0.304309    0.251944    0.916046    11.00000    0.01985    0.01538 =
         0.01737    0.00996    0.00530    0.00438
O10   1    0.485863    0.729913    0.759637    11.00000    0.01627    0.01258 =
         0.01592   -0.00145   -0.00789    0.00761
F1    2    0.392875    1.226944    0.550398    11.00000    0.04720    0.03433 =
         0.02882   -0.00971   -0.00027    0.03272
F2    2    0.837641    1.234271    0.543435    11.00000    0.01935    0.04295 =
         0.03641    0.01442   -0.00407    0.01475
HKLF 4

REM  mor1206d_0m_a.res in P-1
REM R1 =  0.0460 for    6202 Fo > 4sig(Fo)  and  0.0511 for all    6565 data
REM    181 parameters refined using      0 restraints

END

WGHT      0.0000     22.9059

REM Highest difference peak  5.007,  deepest hole -2.994,  1-sigma level  0.452
Q1    1   0.5026  1.2328  0.5007  11.00000  0.05    5.01
Q2    1   1.1737  1.3408  0.6609  11.00000  0.05    2.63
Q3    1   0.4941  1.0223  0.7582  11.00000  0.05    2.46
Q4    1   1.1623  1.4818  0.4175  11.00000  0.05    2.26
Q5    1   0.1356  0.6965  0.6773  11.00000  0.05    2.04
Q6    1   1.1832  1.4725  0.6783  11.00000  0.05    2.03
Q7    1  -0.5000  0.5000  1.0000  10.50000  0.05    1.92
Q8    1  -0.1152  0.7548  1.0990  11.00000  0.05    1.92
Q9    1   0.4682  0.8956  0.5550  11.00000  0.05    1.84
Q10   1  -0.2245  0.5463  0.8236  11.00000  0.05    1.79
Q11   1  -0.1941  0.7551  0.8433  11.00000  0.05    1.73
Q12   1   0.5140  1.3427  0.5413  11.00000  0.05    1.71
Q13   1   0.8333  0.9654  0.5806  11.00000  0.05    1.70
Q14   1   1.1776  1.4607  0.3603  11.00000  0.05    1.66
Q15   1  -0.1277  0.5395  0.8280  11.00000  0.05    1.64
Q16   1   0.5179  0.8056  0.7392  11.00000  0.05    1.59
Q17   1   0.2573  0.8863  0.7790  11.00000  0.05    1.58
Q18   1   0.3817  1.0763  0.6661  11.00000  0.05    1.57
Q19   1   0.1802  0.5439  0.6254  11.00000  0.05    1.56
Q20   1   1.1612  1.3821  0.7404  11.00000  0.05    1.55
;
_shelx_res_checksum              13021
_shelx_hkl_file
;
   1   0   0 174.975 2.48675
   2   0   0 303.119 4.20062
   4   0   0 202.195 3.73434
   5   0   0 716.899 13.9073
   6   0   0 2588.41 40.5926
   7   0   0 12.7100 2.05713
   8   0   0 300.558 12.7992
   9   0   0 582.509 17.3044
  10   0   0 43.5619 6.06019
 -10   1   0 369.136 22.6347
  -9   1   0 27.4864 6.81158
  -8   1   0 1762.61 64.9826
  -7   1   0 843.532 21.9909
  -6   1   0 18.1279 1.29421
  -5   1   0 8412.33 92.5003
  -4   1   0 551.216 7.02277
  -3   1   0 40.6959 0.95735
  -1   1   0 165.979 1.69854
   0   1   0 347.210 3.18731
   2   1   0 46.6938 0.93527
   3   1   0 1155.72 13.1315
   4   1   0 5422.51 66.6058
   5   1   0 64.2358 3.30195
   6   1   0 639.842 19.9595
   7   1   0 911.930 29.1555
   8   1   0 32.4530 5.00704
   9   1   0 284.170 16.0716
 -11   2   0 0.00000 6.63968
 -10   2   0 554.166 26.6865
  -9   2   0 182.954 6.64287
  -8   2   0 11.6244 2.50112
  -7   2   0 3540.69 44.8486
  -6   2   0 219.831 3.99133
  -5   2   0 100.423 2.95190
  -3   2   0 35.8003 0.89655
  -2   2   0 285.722 3.89952
   0   2   0 2897.83 40.3916
   1   2   0 663.712 8.55349
   2   2   0 9440.14 198.879
   3   2   0 56.4783 1.77870
   4   2   0 694.962 11.1782
   5   2   0 1256.54 18.7068
   6   2   0 140.636 4.75246
   7   2   0 287.946 8.28099
   8   2   0 243.562 9.58621
   9   2   0 16.2635 4.52297
 -10   3   0 0.72377 6.49076
  -9   3   0 2193.64 103.967
  -8   3   0 311.479 6.96604
  -7   3   0 117.497 4.25447
  -6   3   0 6991.75 101.535
  -5   3   0 74.8718 2.01910
  -4   3   0 671.299 7.37110
  -2   3   0 41.7314 0.90771
  -1   3   0 1027.62 9.58719
   1   3   0 47.8792 1.30853
   2   3   0 275.453 3.75189
   3   3   0 2073.92 23.6763
   4   3   0 17.3574 2.26757
   5   3   0 494.871 9.88983
   6   3   0 504.007 28.9475
   7   3   0 125.434 8.69586
   8   3   0 291.318 22.3879
 -10   4   0 162.597 10.1676
  -9   4   0 137.954 9.97062
  -8   4   0 2624.56 35.8225
  -7   4   0 140.832 4.12166
  -6   4   0 516.357 13.8885
  -5   4   0 8604.52 91.7146
  -4   4   0 201.648 3.03620
  -3   4   0 805.066 14.0607
  -2   4   0 9750.27 279.074
  -1   4   0 42.5442 1.27396
   0   4   0 1432.61 19.7641
   1   4   0 2659.50 28.6873
   2   4   0 166.274 3.92296
   3   4   0 967.203 15.4163
   4   4   0 830.002 15.0661
   5   4   0 85.7906 4.87870
   6   4   0 167.401 7.52445
   7   4   0 187.513 20.6079
 -11   5   0 53.4519 7.39521
 -10   5   0 1461.41 42.0457
  -9   5   0 105.113 5.92729
  -8   5   0 286.566 9.36182
  -7   5   0 3819.07 44.5453
  -6   5   0 10.2426 1.32215
  -5   5   0 713.112 17.7750
  -4   5   0 5422.02 58.0748
  -3   5   0 27.3895 1.20875
  -2   5   0 444.803 7.25952
  -1   5   0 2385.70 23.0089
   0   5   0 21.6442 1.56953
   1   5   0 691.845 14.3698
   2   5   0 1481.68 23.6671
   3   5   0 190.717 6.38194
   4   5   0 364.135 12.5813
   5   5   0 328.661 12.2902
   6   5   0 85.0599 9.05382
 -11   6   0 63.1158 7.22788
 -10   6   0 201.423 9.04062
  -9   6   0 2092.30 44.9588
  -8   6   0 15.7451 2.07347
  -7   6   0 677.654 12.6047
  -6   6   0 2741.84 42.9599
  -5   6   0 53.1269 2.73553
  -4   6   0 637.289 10.5395
  -3   6   0 2194.67 22.4460
  -2   6   0 119.070 2.73942
  -1   6   0 585.708 9.09506
   0   6   0 1126.03 15.7846
   1   6   0 245.950 5.66653
   2   6   0 434.124 8.75183
   3   6   0 234.942 9.03975
   4   6   0 287.007 12.5130
   5   6   0 264.137 15.1943
 -11   7   0 790.798 32.9658
 -10   7   0 20.2505 3.85191
  -9   7   0 174.209 6.86999
  -8   7   0 1980.36 37.2220
  -7   7   0 16.0814 2.58079
  -6   7   0 741.131 13.4510
  -5   7   0 1355.98 19.1162
  -4   7   0 30.3065 1.67208
  -3   7   0 849.614 10.4686
  -2   7   0 1436.84 16.3903
  -1   7   0 271.308 5.09414
   0   7   0 456.052 9.23318
   1   7   0 499.959 9.77966
   2   7   0 310.006 16.9688
   3   7   0 237.042 10.1778
   4   7   0 262.211 19.0164
 -11   8   0 193.502 17.2693
 -10   8   0 582.925 18.5559
  -9   8   0 36.3037 5.51492
  -8   8   0 282.372 13.2263
  -7   8   0 992.881 18.2960
  -6   8   0 110.421 7.56148
  -5   8   0 519.592 12.7039
  -4   8   0 1042.21 20.0577
  -3   8   0 202.012 6.75823
  -2   8   0 404.784 8.81315
  -1   8   0 432.776 11.4613
   0   8   0 321.329 9.41393
   1   8   0 407.974 25.5290
   2   8   0 277.045 15.0901
   3   8   0 309.923 25.4920
 -11   9   0 0.00000 6.53582
 -10   9   0 358.718 11.2636
  -9   9   0 599.234 14.4945
  -8   9   0 24.6274 5.37183
  -7   9   0 264.365 9.97807
  -6   9   0 453.036 13.2259
  -5   9   0 89.6855 4.95507
  -4   9   0 425.642 8.72053
  -3   9   0 261.068 8.06411
  -2   9   0 323.772 9.21415
  -1   9   0 277.740 8.78862
   0   9   0 451.180 18.8909
   1   9   0 241.477 9.31700
   2   9   0 35.7283 5.79886
 -10  10   0 29.8027 7.48494
  -9  10   0 308.757 16.9025
  -8  10   0 278.570 15.9751
  -7  10   0 126.365 14.9852
  -6  10   0 155.340 12.6861
  -5  10   0 312.695 16.9500
  -4  10   0 232.693 9.81849
  -3  10   0 204.804 8.41588
  -2  10   0 252.671 13.2731
  -1  10   0 270.669 12.3834
   0  10   0 124.853 12.7519
  -9  11   0 10.0532 6.63760
  -8  11   0 309.476 12.8134
  -7  11   0 180.844 8.54962
  -6  11   0 124.545 7.30969
  -5  11   0 263.520 9.69863
  -4  11   0 294.141 15.5424
  -3  11   0 327.844 21.2476
  -2  11   0 71.6142 8.60132
   2 -11   1 23.0152 6.99040
   3 -11   1 146.184 21.0501
   4 -11   1 44.2723 8.87385
   5 -11   1 80.1024 6.70289
   6 -11   1 238.606 7.96870
   7 -11   1 88.7458 6.65867
   8 -11   1 18.6859 6.42887
   9 -11   1 80.6544 13.3382
   0 -10   1 75.5109 18.5835
   1 -10   1 221.085 10.8171
   2 -10   1 110.794 9.55904
   3 -10   1 74.9762 5.44755
   4 -10   1 308.270 11.0422
   5 -10   1 101.656 8.35733
   6 -10   1 37.3419 8.76376
   7 -10   1 210.770 19.0654
   8 -10   1 83.5049 8.08137
   9 -10   1 18.5670 5.47532
  10 -10   1 23.0835 7.25340
  -2  -9   1 42.2545 8.77087
  -1  -9   1 215.365 8.72481
   0  -9   1 49.1660 5.65363
   1  -9   1 199.721 6.82987
   2  -9   1 324.457 8.94397
   3  -9   1 100.048 4.24007
   4  -9   1 117.273 4.74787
   5  -9   1 561.251 11.7941
   6  -9   1 538.766 13.9255
   7  -9   1 0.00000 4.17894
   8  -9   1 212.351 10.4754
   9  -9   1 168.941 7.17739
  10  -9   1 17.6214 3.47150
  11  -9   1 11.6529 4.56825
  -3  -8   1 136.078 17.0882
  -2  -8   1 81.8269 8.67039
  -1  -8   1 255.775 25.0700
   0  -8   1 508.631 17.2690
   1  -8   1 161.444 6.62215
   2  -8   1 86.1335 4.13335
   3  -8   1 760.865 11.8681
   4  -8   1 350.049 7.96189
   5  -8   1 17.6527 2.59950
   6  -8   1 187.282 7.36736
   7  -8   1 683.338 15.6108
   8  -8   1 17.0884 5.40409
   9  -8   1 91.3599 7.73523
  10  -8   1 188.477 10.6590
  11  -8   1 73.1991 10.9786
  -4  -7   1 13.2893 9.28017
  -3  -7   1 62.3763 6.20867
  -2  -7   1 382.382 19.8987
  -1  -7   1 114.920 5.97662
   0  -7   1 101.676 8.21061
   1  -7   1 1329.32 15.6657
   2  -7   1 812.922 13.0476
   3  -7   1 287.322 11.0930
   4  -7   1 829.512 10.6229
   5  -7   1 486.198 10.9838
   6  -7   1 62.8778 5.86727
   7  -7   1 49.2520 2.95119
   8  -7   1 710.519 16.3502
   9  -7   1 32.4301 4.54186
  10  -7   1 76.3206 5.25232
  11  -7   1 112.413 19.8380
  -5  -6   1 111.913 9.42080
  -4  -6   1 290.154 13.0373
  -3  -6   1 106.525 9.99154
  -2  -6   1 131.369 6.25763
  -1  -6   1 1472.04 20.9549
   0  -6   1 595.835 10.5180
   1  -6   1 180.270 6.38912
   2  -6   1 680.952 9.19930
   3  -6   1 1451.00 20.0795
   4  -6   1 66.2169 7.78427
   5  -6   1 147.394 4.56992
   6  -6   1 507.210 10.1464
   7  -6   1 203.538 6.62642
   8  -6   1 8.20871 2.16264
   9  -6   1 327.551 15.4265
  10  -6   1 41.8964 5.78908
  11  -6   1 52.4734 7.05300
  -6  -5   1 264.025 12.4366
  -5  -5   1 124.972 6.80640
  -4  -5   1 82.9051 6.47528
  -3  -5   1 792.365 15.4998
  -2  -5   1 793.563 14.0128
  -1  -5   1 144.001 3.80899
   0  -5   1 1088.78 15.1983
   1  -5   1 1671.37 17.7274
   2  -5   1 70.6020 1.98808
   3  -5   1 405.166 4.94298
   4  -5   1 1913.02 20.9013
   5  -5   1 15.5632 2.02787
   6  -5   1 109.713 3.00797
   7  -5   1 318.062 7.53273
   8  -5   1 91.3091 5.25490
   9  -5   1 149.528 5.62089
  10  -5   1 61.9256 5.02593
  11  -5   1 50.4595 7.81682
  -7  -4   1 75.0629 8.02856
  -6  -4   1 61.8937 4.90467
  -5  -4   1 650.374 16.5744
  -4  -4   1 308.252 7.36481
  -3  -4   1 125.677 3.85290
  -2  -4   1 697.884 10.1859
  -1  -4   1 1979.31 22.3638
   0  -4   1 0.00000 0.93683
   1  -4   1 386.963 4.70290
   2  -4   1 2339.67 24.0877
   3  -4   1 456.837 5.73259
   4  -4   1 178.019 2.97463
   5  -4   1 649.469 10.6001
   6  -4   1 187.557 4.81252
   7  -4   1 379.141 7.23191
   8  -4   1 46.0318 3.50821
   9  -4   1 156.433 7.74628
  10  -4   1 39.9625 7.90151
  -8  -3   1 29.5897 11.2467
  -7  -3   1 254.252 14.4271
  -6  -3   1 483.423 29.3679
  -5  -3   1 9.40060 2.50875
  -4  -3   1 806.923 12.5805
  -3  -3   1 1503.15 25.7702
  -2  -3   1 89.2749 1.80264
  -1  -3   1 489.775 5.74742
   0  -3   1 1490.15 16.8566
   1  -3   1 52.3081 1.11705
   2  -3   1 51.4336 1.26296
   3  -3   1 89.7343 1.98253
   4  -3   1 233.438 3.00955
   5  -3   1 285.461 4.00888
   6  -3   1 35.6885 3.12377
   7  -3   1 304.646 5.94987
   8  -3   1 67.9783 4.00327
   9  -3   1 63.1343 9.19581
  10  -3   1 22.1397 11.3224
  11  -3   1 33.2025 14.5046
  -9  -2   1 103.188 6.43306
  -8  -2   1 94.4268 9.40059
  -7  -2   1 0.00000 2.55442
  -6  -2   1 213.427 5.68875
  -5  -2   1 679.934 18.4293
  -4  -2   1 130.593 4.99610
  -3  -2   1 384.334 5.36605
  -2  -2   1 2929.69 59.0103
  -1  -2   1 61.9363 1.27190
   0  -2   1 345.079 4.77973
   1  -2   1 445.571 140.918
   2  -2   1 1619.60 19.5857
   3  -2   1 1765.53 18.7157
   4  -2   1 697.025 26.0431
   5  -2   1 147.139 2.87897
   6  -2   1 62.9494 3.40089
   7  -2   1 293.796 8.41738
   8  -2   1 4.24340 2.62554
   9  -2   1 6.20827 4.34014
  10  -2   1 44.3998 8.46406
  -9  -1   1 11.4481 4.77975
  -8  -1   1 179.948 9.63143
  -7  -1   1 802.394 25.0746
  -6  -1   1 34.6218 2.74853
  -5  -1   1 162.433 5.89681
  -4  -1   1 1765.03 24.6017
  -3  -1   1 306.015 4.75071
  -2  -1   1 67.0737 1.46390
  -1  -1   1 309.492 3.52066
   0  -1   1 55.4276 0.85876
   1  -1   1 70.4779 0.98698
   2  -1   1 277.121 3.04616
   3  -1   1 434.572 4.40990
   4  -1   1 303.080 3.81947
   5  -1   1 462.841 6.66024
   6  -1   1 173.451 4.62502
   7  -1   1 228.400 7.10336
   8  -1   1 27.2110 6.27834
   9  -1   1 16.7631 5.74756
  10  -1   1 63.3643 13.0753
 -10   0   1 25.3007 5.35607
  -9   0   1 169.368 7.78204
  -8   0   1 19.7452 2.90985
  -7   0   1 61.6879 2.93239
  -6   0   1 479.155 9.32472
  -5   0   1 12.0115 1.13900
  -4   0   1 162.174 3.20037
  -3   0   1 93.0547 1.87846
  -2   0   1 1563.90 20.3384
  -1   0   1 70.0299 1.27844
   1   0   1 34.2822 0.68492
   2   0   1 2051.14 20.5786
   3   0   1 974.416 10.6225
   4   0   1 155.555 3.12206
   5   0   1 150.410 4.10366
   6   0   1 191.096 5.24994
   7   0   1 5.34643 1.75830
   8   0   1 4.57368 2.14707
   9   0   1 9.90653 3.04754
  10   0   1 9.94418 4.92447
 -10   1   1 1.88327 6.74901
  -9   1   1 115.700 10.6083
  -8   1   1 514.191 22.7024
  -7   1   1 169.853 7.93839
  -6   1   1 76.4627 2.97506
  -5   1   1 923.357 11.5633
  -4   1   1 287.415 3.78116
  -3   1   1 1202.99 13.2429
  -2   1   1 353.616 4.38963
  -1   1   1 35.0763 0.65560
   0   1   1 74.8009 0.93603
   1   1   1 2246.38 22.0691
   2   1   1 456.600 4.64079
   3   1   1 241.902 3.08411
   4   1   1 566.475 8.35841
   5   1   1 57.6527 2.25101
   6   1   1 205.255 11.5765
   7   1   1 82.7016 6.04416
   8   1   1 0.00000 3.32059
   9   1   1 38.9950 6.83338
 -11   2   1 47.2719 11.0788
 -10   2   1 174.751 9.76578
  -9   2   1 19.1179 3.02648
  -8   2   1 99.0740 6.71703
  -7   2   1 369.569 10.2936
  -6   2   1 179.823 3.48139
  -5   2   1 190.725 8.04122
  -4   2   1 84.6573 7.17582
  -3   2   1 568.192 5.96663
  -2   2   1 1841.23 69.1159
  -1   2   1 2117.01 24.9770
   0   2   1 754.720 9.32137
   1   2   1 892.549 11.2625
   2   2   1 1174.29 14.6105
   3   2   1 280.703 4.70062
   4   2   1 109.601 4.30950
   5   2   1 13.8335 6.12629
   6   2   1 124.800 5.77385
   7   2   1 78.0688 4.87073
   8   2   1 57.9581 7.84116
   9   2   1 4.86385 2.76558
 -10   3   1 44.5150 18.4457
  -9   3   1 563.159 27.5480
  -8   3   1 81.1808 3.55129
  -7   3   1 320.965 10.6124
  -6   3   1 50.4539 3.89846
  -5   3   1 180.032 3.59729
  -4   3   1 398.341 6.13003
  -3   3   1 917.034 10.2588
  -2   3   1 366.563 4.18939
  -1   3   1 991.779 11.4042
   0   3   1 828.406 8.39489
   1   3   1 301.374 3.74245
   2   3   1 561.136 7.13301
   3   3   1 247.484 5.37549
   4   3   1 88.0480 3.15996
   5   3   1 121.182 4.92701
   6   3   1 117.940 13.0696
   7   3   1 16.2123 9.27452
   8   3   1 25.7452 12.2721
 -11   4   1 141.128 14.4025
 -10   4   1 23.9651 2.93421
  -9   4   1 103.566 4.96510
  -8   4   1 2.36919 2.00216
  -7   4   1 285.586 5.10519
  -6   4   1 104.030 4.73597
  -5   4   1 413.963 6.23183
  -4   4   1 157.159 3.01010
  -3   4   1 314.235 7.03449
  -2   4   1 1119.81 11.5141
  -1   4   1 214.515 2.99114
   0   4   1 453.347 7.15842
   1   4   1 551.244 8.14896
   2   4   1 68.0228 2.46330
   3   4   1 49.8878 2.57061
   4   4   1 102.218 5.15605
   5   4   1 25.8373 3.88459
   6   4   1 45.3742 5.18299
   7   4   1 34.6508 10.4782
 -11   5   1 37.9498 5.99339
 -10   5   1 108.510 5.96218
  -9   5   1 227.802 7.85802
  -8   5   1 63.6492 3.67380
  -7   5   1 199.141 4.88426
  -6   5   1 193.808 4.50102
  -5   5   1 170.146 6.91904
  -4   5   1 645.682 8.60498
  -3   5   1 405.834 5.36393
  -2   5   1 525.099 7.64248
  -1   5   1 525.500 6.43669
   0   5   1 11.5380 1.68664
   1   5   1 114.650 5.40939
   2   5   1 78.7662 5.47831
   3   5   1 5.48551 2.24333
   4   5   1 138.644 7.18642
   5   5   1 60.0731 5.55243
   6   5   1 14.6455 4.31528
 -11   6   1 59.4678 9.32606
 -10   6   1 50.9516 6.10613
  -9   6   1 97.4794 9.30725
  -8   6   1 66.8048 4.83470
  -7   6   1 158.567 6.92835
  -6   6   1 225.007 8.96364
  -5   6   1 63.7096 2.62127
  -4   6   1 129.467 4.98944
  -3   6   1 404.233 8.10577
  -2   6   1 54.4467 1.83787
  -1   6   1 71.3230 5.21034
   0   6   1 105.133 7.83990
   1   6   1 54.7356 3.06916
   2   6   1 26.8220 7.53567
   3   6   1 52.0539 11.0865
   4   6   1 27.6253 5.32995
   5   6   1 21.0362 10.9805
 -11   7   1 14.3542 5.86546
 -10   7   1 27.4349 5.35616
  -9   7   1 8.76412 3.45404
  -8   7   1 51.7326 5.70181
  -7   7   1 15.8282 4.02496
  -6   7   1 284.639 7.95663
  -5   7   1 84.0877 5.45739
  -4   7   1 103.420 4.14013
  -3   7   1 10.2759 3.15995
  -2   7   1 56.5121 6.27164
  -1   7   1 60.7649 3.32893
   0   7   1 147.965 7.01759
   1   7   1 229.403 10.8334
   2   7   1 31.6984 5.79028
   3   7   1 133.433 12.6507
   4   7   1 72.0647 17.9208
 -11   8   1 45.1314 9.29974
 -10   8   1 25.0352 4.64045
  -9   8   1 21.7010 8.88781
  -8   8   1 3.63327 6.32086
  -7   8   1 85.5622 5.36300
  -6   8   1 121.447 5.80385
  -5   8   1 97.6039 5.63660
  -4   8   1 122.006 7.89153
  -3   8   1 42.8139 5.22016
  -2   8   1 138.659 5.33364
  -1   8   1 101.190 4.12319
   0   8   1 58.8397 5.10830
   1   8   1 97.0209 12.4388
   2   8   1 47.1084 5.98575
   3   8   1 0.00000 11.5816
 -11   9   1 7.49831 6.10314
 -10   9   1 22.2017 4.07059
  -9   9   1 29.0462 5.01827
  -8   9   1 15.5014 6.13556
  -7   9   1 56.0174 5.13128
  -6   9   1 52.2719 5.98469
  -5   9   1 52.5420 5.38360
  -4   9   1 104.479 4.66895
  -3   9   1 74.6492 4.26150
  -2   9   1 37.0289 4.65952
  -1   9   1 99.8231 5.45078
   0   9   1 141.000 8.56753
   1   9   1 29.8490 5.49493
   2   9   1 47.9083 5.38258
  -9  10   1 46.2862 8.74163
  -8  10   1 68.2660 13.0822
  -7  10   1 18.3982 6.94184
  -6  10   1 94.8144 11.0727
  -5  10   1 98.6091 13.0812
  -4  10   1 22.5166 7.21674
  -3  10   1 143.240 8.69880
  -2  10   1 48.6304 7.86801
  -1  10   1 19.6205 5.69360
   0  10   1 110.266 12.3605
  -8  11   1 52.5041 8.18642
  -7  11   1 31.4640 6.86883
  -6  11   1 30.2465 6.44884
  -5  11   1 13.8644 7.69449
  -4  11   1 68.5544 11.6933
  -3  11   1 22.5629 14.3035
  -2  11   1 62.4779 6.08967
   2 -11   2 105.934 9.49897
   3 -11   2 15.3013 8.56348
   4 -11   2 429.937 24.7897
   5 -11   2 80.1467 6.37241
   6 -11   2 134.655 6.39945
   7 -11   2 663.093 17.5430
   8 -11   2 24.7973 7.44698
   9 -11   2 365.735 17.1843
   0 -10   2 71.7123 12.6052
   1 -10   2 64.0363 6.45967
   2 -10   2 555.442 18.2134
   3 -10   2 31.6483 6.01480
   4 -10   2 404.497 16.7275
   5 -10   2 390.754 13.8246
   6 -10   2 93.3188 9.29401
   7 -10   2 444.336 18.8971
   8 -10   2 624.662 28.5089
   9 -10   2 67.0687 8.49185
  10 -10   2 341.362 23.8944
  -2  -9   2 109.862 14.0031
  -1  -9   2 65.0206 4.98153
   0  -9   2 452.807 15.3446
   1  -9   2 86.4762 6.73781
   2  -9   2 445.123 9.98019
   3  -9   2 1469.41 23.8635
   4  -9   2 3.82309 4.17923
   5  -9   2 655.593 11.1309
   6  -9   2 1560.46 30.5560
   7  -9   2 55.5387 8.90213
   8  -9   2 668.152 24.4292
   9  -9   2 408.041 12.1749
  10  -9   2 16.5287 4.27897
  11  -9   2 345.070 11.9978
  -3  -8   2 26.3041 11.9897
  -2  -8   2 518.842 26.0400
  -1  -8   2 128.138 24.6076
   0  -8   2 519.056 12.9846
   1  -8   2 1362.65 26.2412
   2  -8   2 30.4960 5.63147
   3  -8   2 1329.94 21.4246
   4  -8   2 991.372 21.1450
   5  -8   2 62.1687 5.00290
   6  -8   2 1219.60 22.4544
   7  -8   2 764.411 18.5193
   8  -8   2 94.0037 8.10458
   9  -8   2 503.407 23.0769
  10  -8   2 375.408 15.6908
  -4  -7   2 402.461 18.2394
  -3  -7   2 28.8639 4.58322
  -2  -7   2 483.722 22.5422
  -1  -7   2 1148.69 22.5403
   0  -7   2 20.8339 2.79405
   1  -7   2 1072.44 15.6107
   2  -7   2 1652.30 20.7740
   3  -7   2 44.1620 4.38701
   4  -7   2 2827.74 30.8638
   5  -7   2 1595.63 25.2992
   6  -7   2 113.019 6.95373
   7  -7   2 932.254 15.8826
   8  -7   2 517.050 8.85287
   9  -7   2 108.690 4.86977
  10  -7   2 253.482 8.20899
  11  -7   2 207.255 21.7810
  -5  -6   2 85.5979 6.35009
  -4  -6   2 357.291 13.4398
  -3  -6   2 1467.63 43.7860
  -2  -6   2 65.6768 3.69842
  -1  -6   2 1102.08 16.0095
   0  -6   2 1454.43 20.9984
   1  -6   2 57.9941 2.37234
   2  -6   2 2866.16 29.7701
   3  -6   2 1705.34 21.1200
   4  -6   2 51.1487 3.16997
   5  -6   2 2669.77 38.9949
   6  -6   2 867.132 12.6129
   7  -6   2 74.8501 5.25544
   8  -6   2 573.201 10.6364
   9  -6   2 326.765 10.4592
  10  -6   2 149.049 8.28248
  11  -6   2 232.065 12.7936
  -6  -5   2 147.756 9.22950
  -5  -5   2 704.897 20.7611
  -4  -5   2 23.9386 5.40699
  -3  -5   2 1357.50 22.9320
  -2  -5   2 1606.21 31.3504
  -1  -5   2 39.9582 2.25484
   0  -5   2 5289.08 65.1722
   1  -5   2 2774.39 30.7831
   2  -5   2 14.2030 1.02389
   3  -5   2 2692.95 24.2970
   4  -5   2 1198.81 15.7880
   5  -5   2 18.1220 1.42249
   6  -5   2 1494.00 17.7305
   7  -5   2 935.114 14.9467
   8  -5   2 100.212 4.36860
   9  -5   2 468.985 12.6656
  10  -5   2 401.396 12.8106
  11  -5   2 84.2955 9.97653
  -7  -4   2 650.943 33.0891
  -6  -4   2 147.124 6.88866
  -5  -4   2 593.535 20.0855
  -4  -4   2 1041.07 25.0386
  -3  -4   2 26.9363 2.47425
  -2  -4   2 2631.10 33.9996
  -1  -4   2 2952.49 45.9799
   0  -4   2 13.5200 1.46837
   1  -4   2 5902.31 58.0081
   2  -4   2 2821.34 37.7328
   3  -4   2 90.6828 1.71048
   4  -4   2 2696.83 28.6480
   5  -4   2 755.676 13.3581
   6  -4   2 170.967 3.35408
   7  -4   2 748.820 12.9866
   8  -4   2 1043.01 16.3509
   9  -4   2 71.9137 3.71380
  10  -4   2 155.035 13.3215
  -8  -3   2 53.2252 10.6927
  -7  -3   2 338.548 15.2283
  -5  -3   2 32.9970 2.88886
  -4  -3   2 2927.37 41.7384
  -3  -3   2 1701.63 22.6660
  -2  -3   2 13.5955 0.99756
  -1  -3   2 5061.62 56.9507
   0  -3   2 1294.78 13.7559
   1  -3   2 206.774 2.51680
   2  -3   2 5697.47 124.546
   3  -3   2 1566.50 14.6779
   4  -3   2 252.335 3.24633
   5  -3   2 1367.12 13.9759
   6  -3   2 1275.84 17.8415
   7  -3   2 79.6881 2.60857
   8  -3   2 378.405 10.6738
   9  -3   2 567.495 23.0679
  10  -3   2 137.458 19.5662
  11  -3   2 175.143 22.0251
  -9  -2   2 310.308 11.0955
  -8  -2   2 563.992 16.4639
  -7  -2   2 38.9023 3.46768
  -6  -2   2 1081.83 21.3462
  -5  -2   2 1588.72 22.3202
  -4  -2   2 45.2886 2.79709
  -3  -2   2 2999.34 32.9355
  -2  -2   2 2726.35 26.3607
  -1  -2   2 103.582 2.48351
   1  -2   2 2097.16 21.8951
   2  -2   2 1089.17 11.6151
   3  -2   2 2048.16 19.5276
   4  -2   2 2665.92 25.6609
   5  -2   2 819.699 10.4601
   6  -2   2 680.724 9.89604
   7  -2   2 2090.28 31.1757
   8  -2   2 274.933 8.06206
   9  -2   2 232.649 10.5139
  10  -2   2 814.726 35.5464
  -9  -1   2 58.8754 7.77515
  -8  -1   2 625.721 21.6638
  -7  -1   2 916.183 20.2832
  -6  -1   2 10.8544 5.32535
  -5  -1   2 2577.03 52.9046
  -4  -1   2 923.849 13.6815
  -3  -1   2 80.3571 1.88726
  -2  -1   2 6175.94 157.041
  -1  -1   2 2088.40 25.6731
   0  -1   2 541.066 5.19188
   1  -1   2 1658.45 14.6519
   2  -1   2 3466.81 75.1233
   3  -1   2 74.5699 1.22529
   4  -1   2 686.268 7.46830
   5  -1   2 2353.15 31.6628
   6  -1   2 101.629 3.70191
   7  -1   2 628.623 13.6130
   8  -1   2 900.234 40.2578
   9  -1   2 126.268 19.3338
 -10   0   2 339.185 21.2898
  -9   0   2 392.401 13.3789
  -8   0   2 86.0275 5.38744
  -7   0   2 903.892 17.1007
  -6   0   2 841.212 14.7894
  -5   0   2 14.8312 1.15203
  -4   0   2 2715.01 32.7010
  -3   0   2 1560.22 19.6530
  -2   0   2 1083.74 14.9638
  -1   0   2 1606.83 27.2937
   0   0   2 1284.99 80.0128
   1   0   2 638.450 6.74506
   2   0   2 3994.27 69.1321
   3   0   2 8044.23 339.435
   4   0   2 70.8476 1.89195
   5   0   2 301.903 6.20808
   6   0   2 3422.48 49.6476
   7   0   2 29.0942 2.34821
   8   0   2 159.647 6.67692
   9   0   2 931.464 24.8828
  10   0   2 19.9958 5.26809
 -10   1   2 20.4632 6.89126
  -9   1   2 570.580 45.5231
  -8   1   2 409.317 11.0098
  -7   1   2 81.6734 5.11466
  -6   1   2 1584.07 26.4314
  -5   1   2 845.862 11.1026
  -4   1   2 322.602 4.61323
  -3   1   2 1850.62 20.9796
  -2   1   2 3269.49 48.7947
  -1   1   2 587.558 5.93456
   0   1   2 834.627 7.59054
   2   1   2 340.852 3.65147
   3   1   2 837.787 8.38950
   4   1   2 5349.57 76.7241
   5   1   2 123.482 5.07802
   6   1   2 637.199 19.8499
   7   1   2 1067.16 31.0047
   8   1   2 77.5605 8.91519
   9   1   2 250.004 14.9684
 -11   2   2 380.159 20.4605
 -10   2   2 311.673 10.3156
  -9   2   2 112.419 4.89910
  -8   2   2 628.250 11.7191
  -7   2   2 939.820 13.9646
  -6   2   2 225.085 4.48818
  -5   2   2 1483.56 18.9012
  -4   2   2 2598.53 28.0214
  -3   2   2 54.1077 1.28736
  -2   2   2 3861.03 53.8675
   0   2   2 55.4082 1.09215
   1   2   2 731.240 8.53732
   2   2   2 6348.75 58.4526
   3   2   2 53.0132 1.58539
   4   2   2 876.972 11.9402
   5   2   2 3717.28 50.7376
   6   2   2 9.69499 2.75162
   7   2   2 648.226 14.4045
   8   2   2 1066.29 23.5164
 -10   3   2 220.895 24.7394
  -9   3   2 354.885 14.6517
  -8   3   2 94.1086 4.02827
  -7   3   2 869.543 14.7389
  -6   3   2 1145.27 17.3815
  -5   3   2 671.464 9.40673
  -4   3   2 722.110 8.90597
  -3   3   2 7347.92 141.189
  -2   3   2 380.219 4.23845
  -1   3   2 644.018 7.22832
   1   3   2 86.0400 1.69351
   2   3   2 1370.16 13.5109
   3   3   2 4436.15 51.0935
   4   3   2 116.633 3.88165
   5   3   2 424.273 11.3074
   6   3   2 908.511 33.0566
   7   3   2 4.81957 5.53608
   8   3   2 238.452 15.9259
 -11   4   2 203.164 18.2641
 -10   4   2 169.660 10.1667
  -9   4   2 420.747 11.7525
  -8   4   2 908.496 18.6902
  -7   4   2 57.8834 2.44794
  -6   4   2 692.520 11.4175
  -5   4   2 2893.23 42.9991
  -4   4   2 72.5431 1.86168
  -3   4   2 1033.41 14.9839
  -2   4   2 5926.20 65.2980
  -1   4   2 93.8007 1.91506
   0   4   2 1574.24 25.2373
   1   4   2 6782.60 66.8379
   2   4   2 53.8304 2.52443
   3   4   2 468.971 11.7061
   4   4   2 2230.44 29.9501
   5   4   2 0.00000 4.42495
   6   4   2 626.521 18.4613
   7   4   2 348.727 18.4231
 -11   5   2 269.425 13.2129
 -10   5   2 443.487 13.2696
  -9   5   2 75.2159 4.84239
  -8   5   2 418.322 9.00793
  -7   5   2 1908.91 32.5476
  -6   5   2 135.442 5.66040
  -5   5   2 290.159 8.04713
  -4   5   2 4735.22 54.2426
  -3   5   2 71.9456 2.42608
  -2   5   2 1289.14 16.8807
  -1   5   2 7310.43 66.8961
   0   5   2 16.9099 1.90852
   1   5   2 582.792 14.7379
   2   5   2 2716.10 34.5684
   3   5   2 7.59138 2.76912
   4   5   2 741.619 34.3766
   5   5   2 748.302 20.6914
   6   5   2 14.1415 4.95646
 -11   6   2 104.334 11.3685
 -10   6   2 127.620 8.11849
  -9   6   2 658.693 36.2697
  -8   6   2 335.027 11.6196
  -7   6   2 704.142 15.7485
  -6   6   2 3491.60 54.0623
  -5   6   2 210.552 7.72426
  -4   6   2 1072.13 17.2918
  -3   6   2 4460.60 49.1167
  -2   6   2 49.5977 2.93197
  -1   6   2 639.789 10.6372
   0   6   2 2560.11 36.7059
   1   6   2 72.3934 3.66930
   2   6   2 827.971 16.1083
   3   6   2 1110.40 30.7745
   4   6   2 27.2254 5.63252
   5   6   2 300.418 26.0662
 -11   7   2 313.307 26.6908
 -10   7   2 159.365 8.31678
  -9   7   2 286.201 9.08176
  -8   7   2 996.770 20.2725
  -7   7   2 54.5771 6.13860
  -6   7   2 587.362 10.3730
  -5   7   2 3854.08 51.3697
  -4   7   2 72.0150 6.88286
  -3   7   2 460.944 7.89593
  -2   7   2 2766.24 32.5025
  -1   7   2 147.041 4.99284
   0   7   2 725.137 15.2609
   1   7   2 1265.63 21.5035
   2   7   2 61.8676 6.75520
   3   7   2 490.667 18.2837
   4   7   2 264.179 24.8661
 -11   8   2 205.627 20.8192
 -10   8   2 829.179 20.0549
  -9   8   2 107.611 8.59479
  -8   8   2 158.328 12.4336
  -7   8   2 1220.63 24.7908
  -6   8   2 13.1612 2.62804
  -5   8   2 501.941 14.0144
  -4   8   2 2260.28 34.5227
  -3   8   2 7.89283 1.87741
  -2   8   2 981.983 17.9020
  -1   8   2 1242.54 21.3143
   0   8   2 9.31485 5.21814
   1   8   2 400.441 26.0266
   2   8   2 228.661 10.3811
   3   8   2 0.00000 9.71683
 -10   9   2 243.477 12.2243
  -9   9   2 980.510 21.0683
  -8   9   2 120.238 7.92930
  -7   9   2 674.709 24.3251
  -6   9   2 1055.85 21.2211
  -5   9   2 0.00000 4.06824
  -4   9   2 552.653 14.9355
  -3   9   2 1118.41 18.3832
  -2   9   2 44.9039 3.87018
  -1   9   2 483.104 12.2580
   0   9   2 400.102 13.9506
   1   9   2 33.3040 7.35236
  -9  10   2 219.190 14.6332
  -8  10   2 984.851 52.8493
  -7  10   2 9.90031 4.81347
  -6  10   2 718.864 24.9990
  -5  10   2 766.244 27.6164
  -4  10   2 13.9945 5.73770
  -3  10   2 438.765 22.7102
  -2  10   2 201.387 10.7927
  -1  10   2 21.2266 5.66793
   0  10   2 147.354 11.9913
  -8  11   2 282.120 12.9436
  -7  11   2 360.543 13.8218
  -6  11   2 10.9848 5.66791
  -5  11   2 281.076 11.9157
  -4  11   2 262.856 16.1291
  -3  11   2 14.1234 8.91412
   2 -11   3 13.5902 7.27056
   3 -11   3 1.64798 9.32805
   4 -11   3 167.054 18.9358
   5 -11   3 12.6113 5.52150
   6 -11   3 2.26034 4.07327
   7 -11   3 65.9013 7.83816
   8 -11   3 0.00000 8.17357
   9 -11   3 30.2474 6.92780
   0 -10   3 1.66722 6.29363
   1 -10   3 6.88413 3.52154
   2 -10   3 220.134 24.9706
   3 -10   3 20.2827 7.06685
   4 -10   3 83.0975 6.91312
   5 -10   3 122.436 7.36277
   6 -10   3 6.93779 4.19704
   7 -10   3 62.0385 9.60015
   8 -10   3 62.7885 17.1609
   9 -10   3 15.3077 5.56945
  10 -10   3 18.5643 9.10995
  -2  -9   3 0.00000 6.99001
  -1  -9   3 9.10830 3.65899
   0  -9   3 127.124 6.22994
   1  -9   3 38.3956 4.72434
   2  -9   3 13.6099 2.96065
   3  -9   3 395.186 9.93309
   4  -9   3 73.3270 5.30235
   5  -9   3 25.1703 2.87579
   6  -9   3 91.9912 4.07796
   7  -9   3 30.2429 6.56829
   8  -9   3 61.8231 9.35732
   9  -9   3 12.3260 3.91518
  10  -9   3 42.1156 5.80660
  11  -9   3 9.11755 7.53432
  -3  -8   3 0.00000 10.1741
  -2  -8   3 176.740 11.8080
  -1  -8   3 64.3448 9.46000
   0  -8   3 40.1718 4.04827
   1  -8   3 495.611 11.3969
   2  -8   3 31.5620 3.28944
   3  -8   3 61.6514 3.46399
   4  -8   3 53.1698 3.62788
   5  -8   3 47.4508 5.11831
   6  -8   3 194.543 6.99416
   7  -8   3 59.5621 4.32639
   8  -8   3 2.43217 2.40828
   9  -8   3 53.0939 10.7862
  10  -8   3 97.5059 8.13274
  -4  -7   3 202.744 21.3691
  -3  -7   3 16.3754 4.95092
  -2  -7   3 33.5526 7.30531
  -1  -7   3 339.409 14.1441
   0  -7   3 17.6179 2.07084
   1  -7   3 89.5390 4.78185
   2  -7   3 58.6264 5.19639
   3  -7   3 43.3913 2.25750
   4  -7   3 218.507 6.54688
   5  -7   3 299.409 8.65653
   6  -7   3 29.7897 2.94322
   7  -7   3 319.031 7.69598
   8  -7   3 34.6726 3.88230
   9  -7   3 16.8295 4.19988
  10  -7   3 66.7701 5.09953
  -5  -6   3 9.52694 5.92991
  -4  -6   3 39.7069 6.30574
  -3  -6   3 476.513 24.0894
  -2  -6   3 11.3083 2.41880
  -1  -6   3 214.157 7.36866
   0  -6   3 75.3957 9.62469
   1  -6   3 38.7575 2.43185
   2  -6   3 744.214 10.7013
   3  -6   3 149.373 6.57766
   4  -6   3 115.953 3.37717
   5  -6   3 788.454 12.4906
   6  -6   3 326.773 7.04667
   7  -6   3 60.5711 3.24207
   8  -6   3 196.173 6.82996
   9  -6   3 96.5071 5.71775
  10  -6   3 63.9497 7.88398
  11  -6   3 6.88312 7.83118
  -6  -5   3 1.33179 5.18144
  -5  -5   3 97.4015 5.33358
  -4  -5   3 12.3601 4.49048
  -3  -5   3 52.6418 3.48431
  -2  -5   3 71.7271 3.96097
  -1  -5   3 18.9598 2.19622
   0  -5   3 893.846 13.6316
   1  -5   3 273.674 5.47544
   2  -5   3 187.527 3.31428
   3  -5   3 1905.13 18.4686
   4  -5   3 260.446 4.70020
   5  -5   3 52.9347 1.98236
   6  -5   3 718.190 8.73318
   7  -5   3 607.673 9.51461
   8  -5   3 42.4248 2.58110
   9  -5   3 41.5540 3.34989
  10  -5   3 237.568 8.27148
  11  -5   3 10.8467 6.81957
  -7  -4   3 53.0436 9.65194
  -6  -4   3 10.4324 3.29362
  -5  -4   3 48.6166 4.52385
  -4  -4   3 74.0468 3.39954
  -3  -4   3 77.7045 4.05084
  -2  -4   3 749.027 10.8420
  -1  -4   3 324.131 6.00881
   0  -4   3 30.7395 1.88951
   1  -4   3 2602.73 23.2447
   2  -4   3 470.908 6.24072
   3  -4   3 228.518 3.48495
   4  -4   3 887.240 9.62215
   5  -4   3 775.023 9.67822
   6  -4   3 59.7612 2.12537
   7  -4   3 139.730 4.17534
   8  -4   3 688.143 11.7182
   9  -4   3 60.9311 7.10802
  10  -4   3 213.050 15.3057
  -8  -3   3 0.12247 8.08748
  -7  -3   3 76.3549 10.6556
  -6  -3   3 81.6779 9.65478
  -5  -3   3 10.7747 3.52404
  -4  -3   3 137.744 5.90425
  -3  -3   3 260.329 6.39545
  -2  -3   3 268.071 4.57548
  -1  -3   3 2696.01 26.2056
   0  -3   3 1938.04 23.9280
   1  -3   3 67.3975 1.40150
   2  -3   3 2845.36 23.7417
   3  -3   3 3157.88 37.1648
   4  -3   3 195.033 2.89687
   5  -3   3 178.373 4.31949
   6  -3   3 947.653 20.9829
   7  -3   3 207.801 5.47269
   8  -3   3 80.7723 6.54635
   9  -3   3 249.271 13.4051
  10  -3   3 56.5008 8.89216
  11  -3   3 37.9319 10.1995
  -9  -2   3 5.37122 5.71171
  -8  -2   3 66.4609 7.45966
  -7  -2   3 30.9501 3.65231
  -6  -2   3 173.994 6.95408
  -5  -2   3 232.973 8.06321
  -4  -2   3 72.2429 3.27777
  -3  -2   3 1798.06 23.7266
  -2  -2   3 631.401 12.5247
  -1  -2   3 98.1890 1.86245
   0  -2   3 1501.69 20.6871
   1  -2   3 4742.03 161.639
   2  -2   3 6.87468 0.67440
   3  -2   3 1264.63 12.4296
   4  -2   3 1143.04 19.7304
   5  -2   3 96.6224 2.39786
   6  -2   3 337.910 8.92222
   7  -2   3 683.108 21.3008
   8  -2   3 162.098 5.29766
   9  -2   3 212.761 11.0343
  10  -2   3 181.916 16.5654
  -9  -1   3 12.8962 6.59018
  -8  -1   3 33.3534 5.41020
  -7  -1   3 57.4026 4.19534
  -6  -1   3 35.0108 6.49319
  -5  -1   3 745.951 14.7993
  -4  -1   3 246.205 4.49141
  -3  -1   3 164.527 2.78799
  -2  -1   3 2873.68 30.4546
  -1  -1   3 3862.35 63.3268
   0  -1   3 20.1803 0.59168
   1  -1   3 1658.17 15.1438
   3  -1   3 295.970 3.91143
   4  -1   3 264.336 3.52072
   5  -1   3 875.779 12.1573
   6  -1   3 422.321 9.63582
   7  -1   3 155.866 5.62357
   8  -1   3 39.9821 4.69972
   9  -1   3 93.0949 10.1530
 -10   0   3 17.7059 4.95785
  -9   0   3 2.41141 2.39023
  -8   0   3 0.73938 1.47617
  -7   0   3 317.681 7.57289
  -6   0   3 304.168 6.65230
  -5   0   3 49.6524 1.87323
  -4   0   3 874.463 12.7343
  -3   0   3 3140.48 39.9696
  -2   0   3 7.70328 0.62286
  -1   0   3 1659.98 21.6149
   0   0   3 242.150 2.75051
   1   0   3 83.5758 1.24506
   2   0   3 414.458 5.52253
   3   0   3 1613.67 17.2014
   4   0   3 112.044 2.21475
   5   0   3 135.387 3.55089
   6   0   3 447.986 9.06948
   7   0   3 231.444 6.71015
   8   0   3 210.893 7.28918
   9   0   3 35.9335 4.06001
  10   0   3 54.3601 7.28582
 -10   1   3 11.8611 5.52912
  -9   1   3 14.1909 9.26440
  -8   1   3 73.3537 6.41876
  -7   1   3 32.9103 3.14622
  -6   1   3 772.042 18.4604
  -5   1   3 720.793 10.3618
  -4   1   3 198.949 4.07917
  -3   1   3 1191.34 14.9251
  -1   1   3 80.8716 1.08840
   0   1   3 69.1678 0.99950
   1   1   3 2560.60 21.8926
   2   1   3 1048.61 9.66535
   3   1   3 249.799 3.76057
   4   1   3 89.4167 2.66344
   5   1   3 231.314 6.58196
   6   1   3 543.581 16.0360
   7   1   3 14.6267 3.00922
   8   1   3 68.8344 6.77083
   9   1   3 77.1792 12.6951
 -11   2   3 21.3507 6.66681
 -10   2   3 68.0493 7.87957
  -9   2   3 0.00000 2.03573
  -8   2   3 216.727 5.93083
  -7   2   3 795.902 16.3855
  -6   2   3 56.5109 2.07021
  -5   2   3 521.731 15.3614
  -4   2   3 1314.12 20.9957
  -3   2   3 317.632 4.85995
  -2   2   3 745.752 28.7193
  -1   2   3 2842.78 31.0524
   0   2   3 160.706 3.66031
   1   2   3 525.594 17.8383
   2   2   3 128.899 3.32120
   3   2   3 756.402 9.71863
   4   2   3 445.791 15.9336
   5   2   3 78.5354 4.04895
   6   2   3 343.813 8.43662
   7   2   3 260.532 11.2918
   8   2   3 42.3425 4.29642
 -10   3   3 86.7904 10.8362
  -9   3   3 62.6611 8.20896
  -8   3   3 27.7163 2.69730
  -7   3   3 215.472 6.56448
  -6   3   3 835.555 15.1897
  -5   3   3 66.8319 2.10672
  -4   3   3 299.010 7.06239
  -3   3   3 1614.67 18.6623
  -2   3   3 1006.22 10.5032
  -1   3   3 93.9854 1.78935
   0   3   3 46.8872 1.30901
   1   3   3 895.716 9.23201
   2   3   3 1920.72 24.2537
   3   3   3 48.8039 2.12002
   4   3   3 83.0647 3.11387
   5   3   3 295.126 16.1133
   6   3   3 190.015 12.1285
   7   3   3 65.3112 6.56591
   8   3   3 33.1571 16.4287
 -11   4   3 66.6902 11.6950
 -10   4   3 48.8491 6.22779
  -9   4   3 77.7302 4.94624
  -8   4   3 743.566 14.9451
  -7   4   3 343.506 10.2613
  -6   4   3 230.396 6.25340
  -5   4   3 1204.23 17.8203
  -4   4   3 137.181 3.86180
  -3   4   3 428.197 8.22007
  -2   4   3 91.2518 1.91026
  -1   4   3 835.761 9.57776
   0   4   3 475.963 5.91840
   1   4   3 17.3155 1.49102
   2   4   3 189.439 4.37016
   3   4   3 511.420 9.71995
   4   4   3 252.715 6.20253
   5   4   3 34.0930 4.03369
   6   4   3 308.330 9.57695
   7   4   3 64.0877 8.39982
 -11   5   3 0.00000 7.15387
 -10   5   3 296.189 10.7017
  -9   5   3 31.2457 4.89333
  -8   5   3 68.3923 4.53031
  -7   5   3 622.309 18.0239
  -6   5   3 281.739 12.3338
  -5   5   3 132.855 4.92083
  -4   5   3 67.3745 3.26721
  -3   5   3 1085.15 15.2121
  -2   5   3 1564.00 17.7256
  -1   5   3 79.4153 2.76958
   0   5   3 58.3801 2.55854
   1   5   3 949.045 14.5835
   2   5   3 626.171 10.8081
   3   5   3 15.7283 2.76423
   4   5   3 278.552 12.9830
   5   5   3 166.637 6.94985
   6   5   3 29.6210 9.03839
 -11   6   3 35.0107 6.34919
 -10   6   3 142.993 9.77416
  -9   6   3 247.071 9.27403
  -8   6   3 175.422 8.26321
  -7   6   3 339.390 13.7465
  -6   6   3 485.469 10.4266
  -5   6   3 264.431 7.78501
  -4   6   3 420.968 11.4925
  -3   6   3 31.2766 2.21832
  -2   6   3 198.775 5.91533
  -1   6   3 883.212 14.3488
   0   6   3 574.757 10.2212
   1   6   3 126.872 7.36929
   2   6   3 344.604 8.88483
   3   6   3 180.052 8.82339
   4   6   3 12.8518 5.00716
 -11   7   3 77.7381 9.67149
 -10   7   3 83.6459 7.35175
  -9   7   3 287.724 12.3361
  -8   7   3 41.0731 4.27687
  -7   7   3 237.406 7.37519
  -6   7   3 378.648 10.2241
  -5   7   3 63.8309 3.12890
  -4   7   3 177.794 8.48268
  -3   7   3 592.125 10.5742
  -2   7   3 592.960 9.30033
  -1   7   3 85.6675 5.03126
   0   7   3 398.723 12.0032
   1   7   3 378.682 13.2928
   2   7   3 32.1108 4.80632
   3   7   3 104.710 7.47873
 -11   8   3 51.9684 8.58504
 -10   8   3 221.944 10.6926
  -9   8   3 98.1238 7.12303
  -8   8   3 218.577 11.9807
  -7   8   3 18.6173 5.27479
  -6   8   3 294.173 9.25014
  -5   8   3 358.951 8.60364
  -4   8   3 277.157 8.04045
  -3   8   3 8.69674 2.35779
  -2   8   3 350.987 7.53855
  -1   8   3 341.730 8.98335
   0   8   3 37.7845 3.66429
   1   8   3 144.367 10.3729
   2   8   3 171.190 10.2475
   3   8   3 38.4546 14.9006
 -10   9   3 81.2086 7.75140
  -9   9   3 47.5379 4.93027
  -8   9   3 51.6337 5.34604
  -7   9   3 276.475 12.4500
  -6   9   3 177.136 6.44739
  -5   9   3 37.2415 3.59411
  -4   9   3 237.820 6.56747
  -3   9   3 151.010 4.52735
  -2   9   3 24.9796 3.77312
  -1   9   3 141.321 5.12644
   0   9   3 194.224 9.41284
   1   9   3 15.2403 6.62621
 -10  10   3 77.7188 10.3224
  -9  10   3 67.0921 10.7686
  -8  10   3 28.4251 7.89501
  -7  10   3 73.5127 13.7291
  -6  10   3 271.137 17.1503
  -5  10   3 173.295 15.9551
  -4  10   3 36.1203 9.10821
  -3  10   3 98.0048 8.01888
  -2  10   3 165.462 9.41640
  -1  10   3 32.3156 12.2101
   0  10   3 64.5885 8.31387
  -8  11   3 57.1107 8.53406
  -7  11   3 61.8905 7.94053
  -6  11   3 0.00000 5.75876
  -5  11   3 67.1177 7.39892
  -4  11   3 97.0568 12.1539
  -3  11   3 29.2306 10.3903
   2 -11   4 273.274 11.7864
   3 -11   4 122.042 13.5999
   4 -11   4 238.730 10.8355
   5 -11   4 139.997 8.09908
   6 -11   4 145.189 8.57870
   7 -11   4 221.873 10.6777
   8 -11   4 8.93499 8.76395
   9 -11   4 36.3355 6.04156
   0 -10   4 299.040 16.3765
   1 -10   4 80.0972 7.38972
   2 -10   4 103.647 15.7755
   3 -10   4 310.461 15.3975
   4 -10   4 95.9765 9.96802
   5 -10   4 290.437 11.4057
   6 -10   4 158.747 10.7555
   7 -10   4 70.0624 10.3204
   8 -10   4 490.130 31.1773
   9 -10   4 15.4660 5.97238
  10 -10   4 80.8515 13.1844
  -2  -9   4 311.310 29.2181
  -1  -9   4 180.861 8.52526
   0  -9   4 199.434 10.2659
   1  -9   4 232.375 9.34641
   2  -9   4 77.8496 5.31841
   3  -9   4 532.465 12.4634
   4  -9   4 131.413 4.37949
   5  -9   4 141.011 5.89483
   6  -9   4 333.354 7.73395
   7  -9   4 101.735 5.35584
   8  -9   4 391.918 18.8031
   9  -9   4 707.494 18.3392
  10  -9   4 17.2318 5.44510
  11  -9   4 192.200 20.5781
  -3  -8   4 109.144 17.9864
  -2  -8   4 75.3635 11.2012
  -1  -8   4 181.709 10.5444
   0  -8   4 101.255 6.46422
   1  -8   4 426.765 11.2902
   2  -8   4 640.594 11.4855
   3  -8   4 280.952 7.32625
   4  -8   4 941.682 18.0562
   5  -8   4 134.308 6.64613
   6  -8   4 414.716 14.2891
   7  -8   4 1049.42 23.5849
   8  -8   4 35.0036 5.57732
   9  -8   4 647.683 36.1842
  10  -8   4 588.830 24.8658
  -4  -7   4 286.678 18.6077
  -3  -7   4 338.697 15.7209
  -2  -7   4 65.8110 7.29431
  -1  -7   4 485.841 8.85810
   0  -7   4 339.384 6.53506
   1  -7   4 393.889 7.04184
   2  -7   4 824.334 12.3038
   3  -7   4 91.7584 3.05941
   4  -7   4 838.593 11.6842
   5  -7   4 1907.74 25.6911
   6  -7   4 98.3443 3.74996
   7  -7   4 1246.76 16.6514
   8  -7   4 1058.62 15.6807
   9  -7   4 0.01345 2.60026
  10  -7   4 772.719 16.8057
  11  -7   4 401.672 25.5111
  -5  -6   4 147.572 11.2751
  -4  -6   4 79.7845 8.42640
  -3  -6   4 425.588 14.1149
  -2  -6   4 565.857 10.7504
  -1  -6   4 502.113 9.86570
   0  -6   4 1013.39 15.2732
   1  -6   4 67.2698 2.97945
   2  -6   4 662.527 8.23772
   3  -6   4 1714.07 20.6849
   4  -6   4 18.1044 1.83398
   5  -6   4 1334.18 17.6498
   6  -6   4 2138.78 30.1474
   7  -6   4 36.7884 2.57042
   8  -6   4 2008.85 44.6216
   9  -6   4 681.482 24.8957
  10  -6   4 10.9588 3.03927
  11  -6   4 544.891 32.8539
  -6  -5   4 117.013 7.92607
  -5  -5   4 239.459 9.78278
  -4  -5   4 156.229 7.70450
  -3  -5   4 212.724 7.12580
  -2  -5   4 1016.21 20.6130
  -1  -5   4 54.5034 2.76465
   0  -5   4 888.044 12.1489
   1  -5   4 3041.43 39.1424
   2  -5   4 207.487 3.24654
   3  -5   4 4726.82 42.1623
   4  -5   4 2193.95 28.3809
   5  -5   4 124.395 2.83854
   6  -5   4 2788.70 35.1598
   7  -5   4 1077.21 19.4752
   8  -5   4 4.78098 1.77317
   9  -5   4 1488.22 30.5279
  10  -5   4 411.479 14.5821
  11  -5   4 36.0391 10.7031
  -7  -4   4 249.646 17.6299
  -6  -4   4 143.667 7.67284
  -5  -4   4 189.637 10.2194
  -4  -4   4 1112.23 20.6165
  -3  -4   4 109.355 4.91741
  -2  -4   4 720.309 11.7967
  -1  -4   4 2262.23 30.9252
   0  -4   4 13.8005 1.25831
   1  -4   4 3945.25 37.2819
   2  -4   4 3892.82 40.8746
   3  -4   4 95.8283 1.84718
   4  -4   4 7248.81 65.4788
   5  -4   4 3393.88 46.5283
   6  -4   4 73.6929 2.45456
   7  -4   4 2514.01 37.9920
   8  -4   4 651.365 18.2524
   9  -4   4 25.7151 3.83127
  10  -4   4 1180.61 32.4310
  -8  -3   4 62.9027 12.3825
  -7  -3   4 72.6133 5.68047
  -6  -3   4 328.255 12.8443
  -5  -3   4 141.667 5.33647
  -4  -3   4 740.863 13.5983
  -3  -3   4 1810.55 26.9129
  -2  -3   4 259.747 5.08166
  -1  -3   4 4035.86 42.5695
   0  -3   4 4123.93 39.3175
   1  -3   4 334.892 4.42214
   2  -3   4 6936.94 185.610
   3  -3   4 3021.54 26.5328
   4  -3   4 89.8464 2.46465
   5  -3   4 9446.15 110.658
   6  -3   4 691.016 10.4774
   7  -3   4 33.2272 3.15960
   8  -3   4 2083.50 46.1308
   9  -3   4 44.7590 5.21025
  10  -3   4 8.87566 7.62030
  11  -3   4 250.731 23.0679
  -9  -2   4 54.0059 6.13500
  -8  -2   4 454.850 12.1923
  -7  -2   4 143.726 5.94723
  -6  -2   4 347.006 9.58707
  -5  -2   4 1758.78 24.8460
  -4  -2   4 19.8624 1.76795
  -3  -2   4 4308.28 48.4703
  -2  -2   4 3448.54 42.0377
  -1  -2   4 321.759 4.14077
   1  -2   4 4168.99 62.0723
   2  -2   4 955.290 8.82468
   3  -2   4 8502.86 160.392
   4  -2   4 803.764 8.26680
   5  -2   4 769.410 11.5993
   6  -2   4 4600.06 57.8785
   7  -2   4 328.308 8.26364
   8  -2   4 63.3154 4.19857
   9  -2   4 1235.86 28.2771
  10  -2   4 100.993 7.18252
  -9  -1   4 30.9866 6.35704
  -8  -1   4 289.871 10.1624
  -7  -1   4 879.062 27.0322
  -6  -1   4 133.740 9.39280
  -5  -1   4 1260.42 24.5588
  -4  -1   4 2491.04 32.0955
  -3  -1   4 95.5837 2.13245
  -2  -1   4 6766.96 172.320
  -1  -1   4 4219.26 88.4698
   0  -1   4 544.920 6.10214
   2  -1   4 1235.98 11.7822
   3  -1   4 207.225 2.71251
   4  -1   4 9237.44 113.886
   5  -1   4 48.3097 1.95383
   6  -1   4 56.5322 3.02480
   7  -1   4 2141.93 72.3667
   8  -1   4 69.7881 5.68607
   9  -1   4 135.026 12.8575
 -10   0   4 105.907 9.04638
  -9   0   4 678.127 21.5705
  -8   0   4 23.7551 2.80351
  -7   0   4 1210.67 22.0992
  -6   0   4 2132.34 35.9029
  -5   0   4 119.930 3.29907
  -4   0   4 6979.06 107.142
  -3   0   4 3037.11 40.3325
  -2   0   4 952.162 13.3534
   0   0   4 1369.58 14.2848
   1   0   4 1572.30 16.4333
   3   0   4 666.103 7.57353
   4   0   4 8.39107 0.91624
   5   0   4 5183.37 64.8065
   6   0   4 123.390 3.78052
   7   0   4 57.6758 3.02135
   8   0   4 1319.43 25.4242
   9   0   4 6.77937 2.44197
  10   0   4 82.6243 11.4222
 -10   1   4 27.2404 9.95688
  -9   1   4 303.948 30.8247
  -8   1   4 1284.17 67.8111
  -7   1   4 34.0865 4.21968
  -6   1   4 2529.00 39.2574
  -5   1   4 2574.14 45.6277
  -4   1   4 101.534 2.85072
  -3   1   4 8119.68 153.363
  -2   1   4 1238.50 14.7581
  -1   1   4 1522.46 14.5592
   1   1   4 199.714 2.60091
   2   1   4 57.7353 1.15748
   3   1   4 8351.52 115.065
   4   1   4 157.494 3.96587
   5   1   4 230.925 5.81424
   6   1   4 1501.68 32.8735
   7   1   4 166.929 9.54409
   8   1   4 134.260 8.96106
   9   1   4 282.733 19.0628
 -10   2   4 609.200 21.0393
  -9   2   4 4.44233 3.60734
  -8   2   4 1794.36 35.4100
  -7   2   4 1150.69 19.8460
  -6   2   4 113.343 5.73064
  -5   2   4 9884.70 114.864
  -4   2   4 818.622 9.83481
  -3   2   4 321.258 5.84609
  -1   2   4 231.888 2.60607
   0   2   4 49.0870 1.11345
   2   2   4 70.9992 1.66100
   3   2   4 136.069 3.04826
   4   2   4 3004.33 43.8270
   5   2   4 55.8330 2.74005
   6   2   4 81.5596 3.97570
   7   2   4 604.679 14.5165
   8   2   4 44.3168 3.82360
 -10   3   4 824.620 42.2803
  -9   3   4 623.932 24.1588
  -8   3   4 0.00000 3.92241
  -7   3   4 2388.65 36.9704
  -6   3   4 747.766 11.7272
  -5   3   4 501.176 9.99582
  -4   3   4 8746.53 237.255
  -3   3   4 657.685 7.80684
  -2   3   4 73.2399 2.00090
   0   3   4 43.4105 1.19125
   1   3   4 71.1100 1.82332
   2   3   4 3754.77 37.1878
   3   3   4 175.793 3.54763
   4   3   4 382.699 6.72626
   5   3   4 825.872 29.7302
   6   3   4 227.070 15.0678
   7   3   4 155.310 9.68674
   8   3   4 202.944 12.4188
 -11   4   4 404.441 27.6616
 -10   4   4 26.4778 4.13828
  -9   4   4 1850.38 44.2500
  -8   4   4 746.406 14.7493
  -7   4   4 4.17859 4.26736
  -6   4   4 4702.85 62.6528
  -5   4   4 50.5481 2.87586
  -4   4   4 62.7238 4.85114
  -3   4   4 8936.51 143.587
  -2   4   4 107.269 2.25714
  -1   4   4 267.362 6.62967
   0   4   4 4491.14 43.7956
   1   4   4 458.409 8.07161
   2   4   4 284.143 7.83490
   3   4   4 2046.85 28.8890
   4   4   4 87.6199 3.67427
   5   4   4 142.106 6.90087
   6   4   4 538.190 18.2175
   7   4   4 150.509 11.6797
 -11   5   4 578.555 37.6130
 -10   5   4 406.848 14.0443
  -9   5   4 101.900 8.98610
  -8   5   4 2217.98 46.5641
  -7   5   4 377.849 11.0520
  -6   5   4 253.141 10.2946
  -5   5   4 5110.32 63.4132
  -4   5   4 182.438 4.07880
  -3   5   4 123.907 4.11259
  -2   5   4 3499.12 34.9571
  -1   5   4 252.833 4.53447
   0   5   4 333.733 7.34381
   1   5   4 2206.49 32.2958
   2   5   4 198.815 5.92068
   3   5   4 192.415 6.54769
   4   5   4 557.175 23.0087
   5   5   4 273.430 10.2662
   6   5   4 85.8951 13.0071
 -11   6   4 22.9109 9.60992
 -10   6   4 1034.81 26.5035
  -9   6   4 77.3597 5.44013
  -8   6   4 140.174 7.97504
  -7   6   4 2472.66 39.4562
  -6   6   4 127.653 4.29661
  -5   6   4 266.584 6.43715
  -4   6   4 3060.16 43.3319
  -3   6   4 138.329 4.71576
  -2   6   4 227.081 5.93201
  -1   6   4 2037.31 29.3553
   0   6   4 154.652 4.99503
   1   6   4 173.122 6.85932
   2   6   4 597.651 11.8770
   3   6   4 368.770 12.7595
   4   6   4 288.247 10.7349
 -11   7   4 127.089 10.1975
 -10   7   4 10.2162 3.92958
  -9   7   4 1279.35 25.8477
  -8   7   4 89.0213 5.86387
  -7   7   4 61.9266 3.91403
  -6   7   4 1542.83 22.9087
  -5   7   4 46.1557 2.70757
  -4   7   4 360.785 8.27671
  -3   7   4 2295.65 32.8186
  -2   7   4 257.307 5.85641
  -1   7   4 163.819 6.10773
   0   7   4 961.288 17.5718
   1   7   4 472.464 13.3079
   2   7   4 209.739 8.92294
   3   7   4 325.732 11.5569
   4   7   4 281.309 31.2172
 -11   8   4 446.141 17.6832
 -10   8   4 133.403 10.0296
  -9   8   4 109.262 7.48990
  -8   8   4 1438.67 41.5294
  -7   8   4 130.179 10.4157
  -6   8   4 76.9117 5.09485
  -5   8   4 956.474 19.2413
  -4   8   4 101.736 5.91106
  -3   8   4 188.990 5.19365
  -2   8   4 530.221 11.2561
  -1   8   4 622.476 15.1010
   0   8   4 411.333 9.88660
   1   8   4 690.706 20.7589
   2   8   4 382.054 17.6515
   3   8   4 62.0272 6.67468
 -10   9   4 415.708 20.6544
  -9   9   4 21.0959 4.92492
  -8   9   4 157.487 8.09734
  -7   9   4 738.192 22.0825
  -6   9   4 277.428 10.0977
  -5   9   4 158.878 5.77971
  -4   9   4 596.570 12.1373
  -3   9   4 320.697 8.78325
  -2   9   4 182.491 5.79591
  -1   9   4 501.290 11.9128
   0   9   4 287.495 11.5028
   1   9   4 55.7709 7.76465
  -9  10   4 290.011 23.5208
  -8  10   4 35.4262 8.87620
  -7  10   4 121.318 14.5787
  -6  10   4 405.344 21.8305
  -5  10   4 283.605 15.4995
  -4  10   4 306.488 11.8853
  -3  10   4 355.651 13.5279
  -2  10   4 385.632 12.8005
  -1  10   4 53.0314 11.1574
  -8  11   4 234.119 12.1452
  -7  11   4 103.587 8.10848
  -6  11   4 87.4238 7.22102
  -5  11   4 315.511 13.4252
  -4  11   4 281.477 12.0893
  -3  11   4 97.6343 9.62890
   2 -11   5 89.2389 10.1522
   3 -11   5 0.00000 7.43846
   4 -11   5 156.997 9.43335
   5 -11   5 216.645 8.94847
   6 -11   5 28.0272 6.66026
   7 -11   5 131.557 8.00990
   8 -11   5 88.0073 10.0831
   9 -11   5 54.7046 14.6070
   0 -10   5 24.4885 9.05032
   1 -10   5 20.6301 4.69829
   2 -10   5 156.346 15.1442
   3 -10   5 202.129 12.2992
   4 -10   5 4.96335 6.18127
   5 -10   5 356.654 15.0375
   6 -10   5 291.145 13.6358
   7 -10   5 77.3384 8.80632
   8 -10   5 131.960 14.3251
   9 -10   5 101.940 11.7904
  10 -10   5 96.3826 10.7429
  -2  -9   5 88.3444 14.5248
  -1  -9   5 1.36434 4.29989
   0  -9   5 320.109 10.6265
   1  -9   5 409.276 14.8311
   2  -9   5 21.4492 3.23358
   3  -9   5 343.895 7.63367
   4  -9   5 399.974 9.24444
   5  -9   5 151.128 5.30518
   6  -9   5 217.798 7.28558
   7  -9   5 224.765 7.24286
   8  -9   5 153.315 8.86719
   9  -9   5 176.834 8.00029
  10  -9   5 37.0093 4.99245
  11  -9   5 1.03764 11.5612
  -3  -8   5 17.8055 9.40205
  -2  -8   5 163.587 9.44049
  -1  -8   5 359.283 15.2798
   0  -8   5 24.5868 3.90608
   1  -8   5 459.663 12.4304
   2  -8   5 484.320 10.5879
   3  -8   5 188.162 7.12078
   4  -8   5 880.712 17.5253
   5  -8   5 568.281 14.1530
   6  -8   5 381.623 8.63958
   7  -8   5 218.629 8.50322
   8  -8   5 201.578 8.53996
   9  -8   5 253.823 10.1585
  10  -8   5 8.27363 5.69143
  -4  -7   5 153.448 16.1718
  -3  -7   5 203.141 10.7059
  -2  -7   5 12.2616 6.62854
  -1  -7   5 637.461 14.0838
   0  -7   5 740.557 11.2545
   1  -7   5 380.890 8.01056
   2  -7   5 1155.92 23.1808
   3  -7   5 1033.91 13.3954
   4  -7   5 231.925 5.46505
   5  -7   5 281.355 11.1328
   6  -7   5 354.142 6.82976
   7  -7   5 277.684 7.10510
   8  -7   5 101.274 6.80360
   9  -7   5 141.975 5.72458
  10  -7   5 173.888 7.98864
  -5  -6   5 196.688 15.4129
  -4  -6   5 4.44956 6.39984
  -3  -6   5 278.963 15.3968
  -2  -6   5 512.897 13.0950
  -1  -6   5 300.852 8.13647
   0  -6   5 1490.73 25.3227
   1  -6   5 1289.61 19.7274
   2  -6   5 710.862 11.2135
   3  -6   5 623.174 14.5197
   4  -6   5 810.487 10.8987
   5  -6   5 538.728 10.5958
   6  -6   5 103.123 8.85021
   7  -6   5 224.903 5.97222
   8  -6   5 384.266 13.5082
   9  -6   5 62.4877 11.1929
  10  -6   5 65.2112 5.90276
  11  -6   5 33.6587 12.4499
  -6  -5   5 11.5521 6.14564
  -5  -5   5 324.068 13.1147
  -4  -5   5 428.703 15.9111
  -3  -5   5 161.401 5.94542
  -2  -5   5 1186.42 17.6160
  -1  -5   5 1422.95 21.4469
   0  -5   5 431.688 6.65758
   1  -5   5 807.646 9.41867
   2  -5   5 1646.36 18.6286
   3  -5   5 1753.34 17.5310
   4  -5   5 519.671 6.21852
   5  -5   5 210.646 4.35409
   6  -5   5 207.551 5.88340
   7  -5   5 11.9970 3.08554
   8  -5   5 71.0223 3.33668
   9  -5   5 103.153 5.15218
  10  -5   5 6.72927 5.19887
  -7  -4   5 155.883 16.0132
  -6  -4   5 342.499 10.4214
  -5  -4   5 126.579 8.03129
  -4  -4   5 913.970 16.3472
  -3  -4   5 902.415 13.9695
  -2  -4   5 847.139 11.9400
  -1  -4   5 607.752 11.7952
   0  -4   5 948.613 9.46761
   1  -4   5 1235.33 12.6238
   2  -4   5 0.00000 0.88009
   3  -4   5 1303.48 13.4921
   4  -4   5 401.438 5.75802
   5  -4   5 14.3251 1.63337
   6  -4   5 85.7479 2.86066
   7  -4   5 161.574 5.74323
   8  -4   5 146.176 6.11910
   9  -4   5 0.00000 2.98683
  10  -4   5 39.4382 5.44791
  -8  -3   5 75.1776 17.2409
  -7  -3   5 128.402 16.0312
  -6  -3   5 138.013 13.7294
  -5  -3   5 605.876 13.0554
  -4  -3   5 353.381 12.9936
  -3  -3   5 563.314 9.73802
  -2  -3   5 1928.44 27.5276
  -1  -3   5 1467.68 21.3794
   0  -3   5 766.332 8.20019
   1  -3   5 1006.50 9.67887
   2  -3   5 104.949 2.71185
   3  -3   5 158.701 2.45878
   4  -3   5 627.267 7.66188
   5  -3   5 250.744 6.22227
   6  -3   5 25.1501 1.83572
   7  -3   5 0.00000 3.36953
   8  -3   5 57.5911 10.7726
   9  -3   5 44.7394 7.75760
  10  -3   5 0.00000 4.47958
  11  -3   5 30.8598 12.5468
  -9  -2   5 41.3779 10.3431
  -8  -2   5 167.211 8.49347
  -7  -2   5 225.632 7.83620
  -6  -2   5 549.839 16.7404
  -5  -2   5 212.194 7.49815
  -4  -2   5 792.295 11.7279
  -3  -2   5 1662.43 38.8396
  -2  -2   5 26.2085 3.01031
  -1  -2   5 945.161 9.87670
   0  -2   5 892.841 40.0467
   1  -2   5 74.6144 1.54053
   2  -2   5 21.3940 0.94585
   3  -2   5 885.152 23.4973
   4  -2   5 46.3987 1.57432
   5  -2   5 168.373 3.72000
   6  -2   5 176.272 10.4790
   7  -2   5 49.6968 2.87904
   8  -2   5 51.3957 3.28276
   9  -2   5 82.6212 7.19077
  10  -2   5 11.1468 3.15129
  -9  -1   5 99.3010 8.44970
  -8  -1   5 173.933 7.54191
  -7  -1   5 175.869 10.9037
  -6  -1   5 453.457 19.4359
  -5  -1   5 512.823 11.8047
  -4  -1   5 587.222 11.3461
  -3  -1   5 1147.73 14.6218
  -2  -1   5 106.739 2.38124
  -1  -1   5 71.8948 1.25947
   0  -1   5 1780.58 16.8074
   1  -1   5 59.2264 1.31953
   2  -1   5 38.9741 0.96460
   3  -1   5 385.007 4.64340
   4  -1   5 54.5317 2.01438
   5  -1   5 275.967 7.99464
   6  -1   5 87.3837 3.58375
   7  -1   5 58.5604 4.78254
   8  -1   5 44.3307 6.35511
   9  -1   5 7.89887 7.42862
 -10   0   5 104.223 8.83579
  -9   0   5 173.890 8.11415
  -8   0   5 250.525 19.9101
  -7   0   5 280.480 12.2164
  -6   0   5 7.76380 1.98944
  -5   0   5 218.304 6.09878
  -4   0   5 377.693 8.11707
  -3   0   5 147.304 3.12803
  -2   0   5 20.2675 0.94764
  -1   0   5 98.6226 1.82383
   0   0   5 110.580 1.68364
   1   0   5 107.755 1.73747
   2   0   5 354.578 4.20263
   3   0   5 9.32047 0.68446
   4   0   5 0.00000 0.86894
   5   0   5 63.4896 2.37935
   6   0   5 0.00000 1.13038
   7   0   5 32.4129 2.61103
   8   0   5 14.8614 2.61656
   9   0   5 8.77489 2.80277
 -10   1   5 59.6002 13.4720
  -9   1   5 225.321 13.4793
  -8   1   5 136.163 9.63001
  -7   1   5 203.346 10.8604
  -6   1   5 283.057 7.75932
  -5   1   5 26.1426 2.44526
  -4   1   5 766.134 14.5308
  -3   1   5 51.0497 1.46680
  -2   1   5 46.1071 1.14383
  -1   1   5 110.397 1.81298
   0   1   5 285.482 3.57965
   1   1   5 3.80207 0.45905
   2   1   5 410.745 4.81678
   3   1   5 405.086 6.42060
   4   1   5 193.195 4.76472
   5   1   5 46.2674 3.16025
   6   1   5 40.7242 3.91996
   7   1   5 86.5503 6.51502
   8   1   5 19.3910 5.13579
   9   1   5 52.3692 10.3115
 -10   2   5 30.2399 7.30240
  -9   2   5 157.465 5.74012
  -8   2   5 276.391 12.4316
  -7   2   5 22.9399 2.18834
  -6   2   5 98.2063 5.94400
  -5   2   5 508.901 11.9524
  -4   2   5 37.0075 1.71199
  -3   2   5 224.185 10.9817
  -2   2   5 452.904 9.67843
  -1   2   5 12.5769 1.12362
   0   2   5 556.039 8.49514
   1   2   5 134.839 7.74214
   2   2   5 486.711 7.97382
   3   2   5 33.7451 2.47280
   4   2   5 113.164 8.50454
   5   2   5 113.178 5.52965
   6   2   5 46.7870 3.81675
   7   2   5 0.00000 7.03585
   8   2   5 17.8425 4.00215
 -11   3   5 3.32823 9.74488
 -10   3   5 312.513 18.7576
  -9   3   5 18.5091 4.41952
  -8   3   5 117.140 7.16571
  -7   3   5 102.859 7.18854
  -6   3   5 46.8019 2.21429
  -5   3   5 196.537 4.93111
  -4   3   5 27.9121 2.88547
  -3   3   5 12.4223 0.85943
  -2   3   5 464.538 8.17361
  -1   3   5 201.801 3.65081
   0   3   5 30.2817 1.00412
   1   3   5 118.925 2.51824
   2   3   5 765.926 10.9248
   3   3   5 198.793 5.35407
   4   3   5 133.945 3.82672
   5   3   5 30.8411 8.18275
   6   3   5 105.753 9.96084
   7   3   5 40.4359 7.60819
   8   3   5 59.4288 13.1904
 -11   4   5 19.2266 7.09153
 -10   4   5 85.2531 4.72536
  -9   4   5 156.576 7.21527
  -8   4   5 114.171 3.82782
  -7   4   5 6.75645 2.16246
  -6   4   5 81.8188 3.30197
  -5   4   5 293.709 8.61921
  -4   4   5 76.7712 6.57681
  -3   4   5 386.227 5.46122
  -2   4   5 436.558 6.78191
  -1   4   5 264.944 7.03482
   0   4   5 530.125 7.26270
   1   4   5 294.127 4.99676
   2   4   5 54.8934 4.16242
   3   4   5 72.6289 5.36730
   4   4   5 98.7110 3.10383
   5   4   5 47.3590 7.37562
   6   4   5 90.7019 8.39418
   7   4   5 10.8042 4.76597
 -11   5   5 6.58483 8.60454
 -10   5   5 29.1324 5.40270
  -9   5   5 9.69385 3.63493
  -8   5   5 16.9858 3.54048
  -7   5   5 54.0936 3.40019
  -6   5   5 70.7894 4.37100
  -5   5   5 83.4559 2.93092
  -4   5   5 260.238 7.08623
  -3   5   5 117.726 8.39514
  -2   5   5 737.028 9.09509
  -1   5   5 124.290 3.41931
   0   5   5 161.014 5.21783
   1   5   5 24.7532 2.97389
   2   5   5 148.405 4.81201
   3   5   5 11.0155 4.02093
   4   5   5 57.7437 6.05350
   5   5   5 16.7736 3.74918
   6   5   5 16.3787 6.91023
 -11   6   5 0.00000 7.15003
 -10   6   5 91.7882 8.04564
  -9   6   5 32.3723 6.68255
  -8   6   5 64.9112 4.21198
  -7   6   5 89.1347 5.07051
  -6   6   5 22.7062 4.62928
  -5   6   5 111.839 4.32826
  -4   6   5 107.806 9.16216
  -3   6   5 312.078 8.39097
  -2   6   5 0.00000 2.08305
  -1   6   5 145.893 11.8286
   0   6   5 432.996 9.88506
   1   6   5 47.7936 5.14982
   2   6   5 181.960 11.6974
   3   6   5 13.1407 4.29946
   4   6   5 53.9969 7.46909
   5   6   5 183.330 29.7270
 -11   7   5 0.00000 6.70224
 -10   7   5 16.1239 3.51184
  -9   7   5 24.4243 4.96052
  -8   7   5 98.1191 10.9194
  -7   7   5 31.3309 3.38783
  -6   7   5 42.6307 4.22825
  -5   7   5 45.8562 4.43910
  -4   7   5 68.5520 3.77590
  -3   7   5 180.637 11.5061
  -2   7   5 223.110 5.66548
  -1   7   5 132.511 4.75745
   0   7   5 118.423 10.6483
   1   7   5 20.8559 3.50114
   2   7   5 14.7380 5.87178
   3   7   5 85.7076 9.02219
   4   7   5 17.7630 14.0691
 -11   8   5 19.6152 5.86930
 -10   8   5 0.00000 6.44278
  -9   8   5 8.82679 4.38103
  -8   8   5 78.1267 9.17720
  -7   8   5 107.063 10.6783
  -6   8   5 25.0331 3.86798
  -5   8   5 69.5379 7.50849
  -4   8   5 120.834 6.00759
  -3   8   5 5.69123 2.27990
  -2   8   5 45.9590 3.37820
  -1   8   5 24.0986 4.97869
   0   8   5 5.81281 3.57575
   1   8   5 225.872 12.2525
   2   8   5 18.7365 6.19784
 -10   9   5 36.1872 8.35734
  -9   9   5 16.5552 3.94685
  -8   9   5 15.1683 4.14699
  -7   9   5 17.8010 4.89871
  -6   9   5 104.117 5.64155
  -5   9   5 22.3803 2.91158
  -4   9   5 124.823 6.43909
  -3   9   5 22.1803 4.30471
  -2   9   5 26.2451 4.17919
  -1   9   5 154.541 6.97591
   0   9   5 23.4608 4.63244
   1   9   5 10.8624 8.50036
  -9  10   5 172.535 35.5188
  -8  10   5 36.2649 10.0996
  -7  10   5 15.7377 5.20524
  -6  10   5 48.1279 9.14937
  -5  10   5 7.48960 7.26541
  -4  10   5 22.5305 7.11147
  -3  10   5 98.6658 11.8159
  -2  10   5 50.6828 8.04714
  -1  10   5 4.42636 7.11634
  -8  11   5 106.673 14.9110
  -7  11   5 10.7128 5.11196
  -6  11   5 0.00000 4.83131
  -5  11   5 61.5118 8.48385
  -4  11   5 4.42312 5.54030
   2 -11   6 11.8627 8.33521
   3 -11   6 380.368 15.1024
   4 -11   6 230.934 10.6926
   5 -11   6 93.8996 6.83078
   6 -11   6 536.746 18.0699
   7 -11   6 230.218 11.1311
   8 -11   6 155.495 13.6313
   9 -11   6 370.741 30.3657
   0 -10   6 53.0187 8.17580
   1 -10   6 387.841 13.3984
   2 -10   6 495.319 19.6080
   3 -10   6 153.282 9.34536
   4 -10   6 538.202 16.5831
   5 -10   6 275.163 10.6783
   6 -10   6 150.536 9.15471
   7 -10   6 805.942 28.1875
   8 -10   6 93.0989 10.3229
   9 -10   6 262.902 20.0898
  10 -10   6 446.918 28.4803
  -2  -9   6 3.48890 3.09475
  -1  -9   6 412.547 14.4759
   0  -9   6 527.569 17.0380
   1  -9   6 211.384 15.7072
   2  -9   6 1110.57 18.8138
   3  -9   6 201.042 7.61821
   4  -9   6 511.386 10.1408
   5  -9   6 1134.40 23.9685
   6  -9   6 147.567 8.61111
   7  -9   6 154.495 5.93137
   8  -9   6 467.254 14.0460
   9  -9   6 168.563 8.46582
  10  -9   6 119.709 12.2620
  -3  -8   6 392.699 22.2724
  -2  -8   6 493.811 18.1595
  -1  -8   6 228.740 9.83973
   0  -8   6 444.564 13.9885
   1  -8   6 178.148 10.5005
   2  -8   6 359.590 9.18164
   3  -8   6 1159.91 24.0249
   4  -8   6 284.395 11.8945
   5  -8   6 663.800 15.8425
   6  -8   6 1018.78 19.6500
   7  -8   6 101.011 7.50782
   8  -8   6 321.708 10.6028
   9  -8   6 309.775 12.9104
  10  -8   6 33.1229 7.34702
  -4  -7   6 227.595 16.6624
  -3  -7   6 177.101 8.47160
  -2  -7   6 1102.83 28.6105
  -1  -7   6 175.621 5.34758
   0  -7   6 330.786 8.11621
   1  -7   6 1627.97 21.6315
   2  -7   6 146.709 4.69879
   3  -7   6 909.068 13.9340
   4  -7   6 978.744 13.5492
   5  -7   6 93.0770 4.60380
   6  -7   6 676.039 12.0659
   7  -7   6 689.329 13.0218
   8  -7   6 160.273 5.86002
   9  -7   6 129.479 4.99985
  10  -7   6 283.177 8.84673
  11  -7   6 115.735 14.9942
  -5  -6   6 91.5824 10.9457
  -4  -6   6 657.450 24.6298
  -3  -6   6 160.523 8.82590
  -2  -6   6 367.395 8.87452
  -1  -6   6 1399.37 19.1837
   0  -6   6 452.966 9.64282
   1  -6   6 1592.89 22.2318
   2  -6   6 1211.80 16.5029
   3  -6   6 65.7890 2.34256
   4  -6   6 1193.20 16.2762
   5  -6   6 1070.17 15.0218
   6  -6   6 24.4519 3.88316
   7  -6   6 465.380 10.5863
   8  -6   6 464.040 11.5593
   9  -6   6 324.166 11.4384
  10  -6   6 220.148 10.8989
  11  -6   6 300.957 16.2713
  -6  -5   6 510.676 27.7017
  -5  -5   6 303.111 15.5666
  -4  -5   6 423.195 12.0756
  -3  -5   6 1203.88 26.6062
  -2  -5   6 142.089 5.11707
  -1  -5   6 1440.68 21.1107
   0  -5   6 1908.62 33.9342
   1  -5   6 41.3980 2.08815
   2  -5   6 1238.84 13.6865
   3  -5   6 2312.44 27.0259
   4  -5   6 366.751 5.92569
   5  -5   6 1276.65 15.5047
   6  -5   6 849.324 17.0747
   7  -5   6 185.414 5.02776
   8  -5   6 281.390 7.69719
   9  -5   6 569.121 21.1611
  10  -5   6 141.543 9.12554
  11  -5   6 103.143 10.8270
  -7  -4   6 262.031 19.2655
  -6  -4   6 131.515 6.14070
  -5  -4   6 982.368 30.1191
  -4  -4   6 205.646 8.24471
  -3  -4   6 1020.26 15.8475
  -2  -4   6 1475.33 31.0652
  -1  -4   6 49.2522 2.20075
   0  -4   6 1902.42 17.3863
   1  -4   6 1890.84 27.9808
   2  -4   6 221.540 3.15219
   3  -4   6 1904.23 17.0461
   4  -4   6 1091.17 19.1676
   5  -4   6 481.476 7.40377
   6  -4   6 684.981 10.0004
   7  -4   6 1616.01 24.4173
   8  -4   6 225.886 7.80341
   9  -4   6 90.7550 6.77109
  10  -4   6 503.651 14.8798
  11  -4   6 225.141 13.0880
  -8  -3   6 195.407 16.7894
  -6  -3   6 147.772 6.76004
  -5  -3   6 659.872 14.1405
  -4  -3   6 1057.72 15.5361
  -3  -3   6 66.0054 2.88719
  -2  -3   6 1108.87 17.5716
  -1  -3   6 2024.88 19.7529
   0  -3   6 23.0425 1.01069
   1  -3   6 4280.59 37.9993
   2  -3   6 2310.80 20.5815
   3  -3   6 15.6391 0.89714
   4  -3   6 1043.53 11.9632
   5  -3   6 978.948 13.5717
   6  -3   6 866.053 13.5589
   7  -3   6 552.218 17.5396
   8  -3   6 1075.26 21.5347
   9  -3   6 351.669 18.9078
  10  -3   6 161.805 9.99403
  -8  -2   6 99.4977 6.20275
  -7  -2   6 144.327 5.80380
  -6  -2   6 1060.39 18.6637
  -5  -2   6 46.9617 2.25722
  -4  -2   6 1260.98 17.4326
  -3  -2   6 1872.96 22.3463
  -2  -2   6 247.332 4.00684
  -1  -2   6 4578.03 48.0492
   0  -2   6 3158.72 29.3795
   1  -2   6 322.988 3.40102
   2  -2   6 2005.59 18.6363
   3  -2   6 3833.30 33.2932
   4  -2   6 1002.99 11.2087
   5  -2   6 250.608 5.00309
   6  -2   6 2055.10 25.9147
   7  -2   6 453.535 7.74523
   8  -2   6 146.885 5.35927
   9  -2   6 862.187 19.4323
  10  -2   6 150.157 7.77377
  -9  -1   6 249.639 24.8749
  -8  -1   6 505.115 22.8274
  -7  -1   6 103.875 6.90137
  -6  -1   6 586.285 14.5918
  -5  -1   6 606.747 13.8131
  -4  -1   6 268.813 5.95928
  -3  -1   6 2075.19 24.9942
  -2  -1   6 2378.67 26.8229
  -1  -1   6 320.447 4.59546
   0  -1   6 2115.53 20.1337
   1  -1   6 1741.78 17.7395
   2  -1   6 748.477 8.77068
   3  -1   6 1347.31 14.6499
   4  -1   6 2242.21 26.4894
   5  -1   6 861.118 14.6348
   6  -1   6 196.677 5.67920
   7  -1   6 1619.56 42.3760
   8  -1   6 346.784 17.3497
   9  -1   6 58.3521 8.19681
 -10   0   6 439.105 20.4423
  -9   0   6 166.857 8.40847
  -8   0   6 344.710 13.9293
  -7   0   6 710.527 20.5998
  -6   0   6 13.9204 2.75238
  -5   0   6 1285.72 24.9834
  -4   0   6 905.426 18.7923
  -3   0   6 14.7850 0.99610
  -2   0   6 2044.03 26.6277
  -1   0   6 1735.36 17.9681
   0   0   6 937.306 9.32764
   1   0   6 352.345 4.30811
   2   0   6 6601.74 161.837
   3   0   6 656.507 7.89285
   4   0   6 30.5409 1.35241
   5   0   6 4496.92 56.3866
   6   0   6 211.559 5.04797
   7   0   6 84.0703 3.80020
   8   0   6 1271.28 26.3945
   9   0   6 171.104 7.47312
 -10   1   6 92.0385 18.3546
  -9   1   6 227.196 11.7637
  -8   1   6 98.7191 8.34029
  -7   1   6 631.036 35.3385
  -6   1   6 950.394 32.1409
  -5   1   6 600.710 13.6101
  -4   1   6 1035.19 19.1916
  -3   1   6 3468.58 42.8483
  -2   1   6 697.049 8.99501
  -1   1   6 349.835 4.79122
   0   1   6 1743.66 16.4224
   1   1   6 806.304 8.28458
   2   1   6 302.074 4.12978
   3   1   6 4171.97 48.5422
   4   1   6 956.819 13.8158
   5   1   6 149.624 5.08708
   6   1   6 2282.01 46.0386
   7   1   6 129.980 8.77517
   8   1   6 92.3504 9.30724
   9   1   6 735.219 49.9785
 -10   2   6 56.4218 5.89084
  -9   2   6 149.182 6.53099
  -8   2   6 441.150 11.2401
  -7   2   6 126.201 5.10761
  -6   2   6 746.432 16.0231
  -5   2   6 947.433 11.7056
  -4   2   6 1042.92 13.7152
  -3   2   6 1452.15 20.5381
  -2   2   6 6432.38 71.9495
  -1   2   6 775.616 8.36378
   0   2   6 265.034 8.06249
   1   2   6 9999.99 196.672
   2   2   6 469.808 6.25740
   3   2   6 481.090 9.26194
   4   2   6 5328.03 68.3783
   5   2   6 57.3441 2.90613
   6   2   6 170.386 7.33232
   7   2   6 1225.45 32.4025
   8   2   6 26.8641 6.11270
 -11   3   6 120.504 7.72029
 -10   3   6 272.779 11.0645
  -9   3   6 335.393 10.5190
  -8   3   6 330.245 8.39408
  -7   3   6 1229.45 23.9449
  -6   3   6 863.070 14.5444
  -5   3   6 272.691 8.13818
  -4   3   6 2270.27 28.0855
  -3   3   6 657.329 9.58340
  -2   3   6 286.077 5.01387
  -1   3   6 9479.40 182.397
   0   3   6 1573.24 14.8366
   1   3   6 273.091 5.45223
   2   3   6 4401.63 58.6601
   3   3   6 180.565 4.32103
   4   3   6 35.2477 3.90359
   5   3   6 2118.07 34.6273
   6   3   6 2.50552 5.75179
   7   3   6 121.506 8.03578
 -11   4   6 152.331 17.4362
 -10   4   6 184.974 7.26069
  -9   4   6 507.247 18.0496
  -8   4   6 263.208 8.99807
  -7   4   6 753.531 13.3474
  -6   4   6 2181.00 32.6963
  -5   4   6 655.548 11.7882
  -4   4   6 44.3961 2.31558
  -3   4   6 3949.29 48.0497
  -2   4   6 424.942 5.35531
  -1   4   6 115.015 5.05773
   0   4   6 8286.90 82.8602
   1   4   6 18.4672 1.42361
   2   4   6 141.953 7.05360
   3   4   6 3775.05 43.5043
   4   4   6 21.8645 2.22957
   5   4   6 129.347 9.76564
   6   4   6 702.617 18.5623
   7   4   6 6.93562 6.93018
 -11   5   6 240.853 21.4409
 -10   5   6 197.134 10.8323
  -9   5   6 80.9553 5.94369
  -8   5   6 1080.63 23.3198
  -7   5   6 606.671 13.5733
  -6   5   6 158.339 5.58486
  -5   5   6 4537.20 59.2567
  -4   5   6 1128.57 19.9735
  -3   5   6 583.454 12.4615
  -2   5   6 4675.40 57.1576
  -1   5   6 21.7504 1.50616
   0   5   6 0.00000 4.89274
   1   5   6 4267.70 61.9463
   2   5   6 26.1540 2.69930
   3   5   6 78.8721 5.61088
   4   5   6 1449.83 32.5413
   5   5   6 6.94648 4.10938
   6   5   6 97.6322 7.52153
 -11   6   6 130.905 13.7624
 -10   6   6 635.269 23.5123
  -9   6   6 463.525 13.3509
  -8   6   6 176.573 4.82778
  -7   6   6 1507.27 27.6116
  -6   6   6 246.842 7.49349
  -5   6   6 206.393 4.99606
  -4   6   6 5268.12 72.8154
  -3   6   6 189.746 8.48973
  -2   6   6 108.921 3.07165
  -1   6   6 4509.20 65.1378
   0   6   6 34.7216 3.36508
   1   6   6 190.557 5.77060
   2   6   6 1507.92 31.2116
   3   6   6 91.0137 6.63381
   4   6   6 160.346 12.0511
   5   6   6 459.575 40.4041
 -11   7   6 227.120 13.7575
 -10   7   6 145.343 6.71897
  -9   7   6 808.566 23.6471
  -8   7   6 417.598 15.9667
  -7   7   6 81.3319 4.10975
  -6   7   6 2459.32 42.7592
  -5   7   6 109.678 5.14137
  -4   7   6 21.8389 2.73767
  -3   7   6 3610.53 56.9414
  -2   7   6 46.6365 3.31979
  -1   7   6 241.402 6.09376
   0   7   6 1833.35 29.8895
   1   7   6 101.694 5.77956
   2   7   6 132.875 7.00671
   3   7   6 754.109 18.4019
 -11   8   6 434.363 31.9123
 -10   8   6 133.842 12.6861
  -9   8   6 125.864 7.97599
  -8   8   6 1320.16 30.7917
  -7   8   6 203.331 24.8743
  -6   8   6 148.865 8.54939
  -5   8   6 2159.35 34.5614
  -4   8   6 77.3439 5.99763
  -3   8   6 65.6581 5.87067
  -2   8   6 1536.79 27.2690
  -1   8   6 119.038 6.10299
   0   8   6 26.2976 4.51304
   1   8   6 733.713 20.7840
   2   8   6 0.00000 7.59246
 -10   9   6 709.829 34.3611
  -9   9   6 187.002 8.29578
  -8   9   6 77.6433 6.14003
  -7   9   6 1172.79 22.8425
  -6   9   6 7.20224 5.47584
  -5   9   6 174.969 7.20281
  -4   9   6 1526.04 23.9211
  -3   9   6 63.1982 4.90458
  -2   9   6 137.020 6.71361
  -1   9   6 728.873 14.1728
   0   9   6 3.69418 4.48872
   1   9   6 234.549 11.1523
  -9  10   6 682.271 41.7693
  -8  10   6 14.2539 6.48361
  -7  10   6 140.372 10.2766
  -6  10   6 767.267 22.9885
  -5  10   6 3.91576 3.11737
  -4  10   6 126.482 7.93281
  -3  10   6 686.267 42.2953
  -2  10   6 0.00000 6.65805
  -1  10   6 253.018 25.1916
  -7  11   6 7.14845 6.33570
  -6  11   6 118.771 6.05934
  -5  11   6 362.546 11.0151
  -4  11   6 8.08675 5.39806
   2 -11   7 5.44955 2.91517
   3 -11   7 132.788 8.22218
   4 -11   7 12.0781 8.13478
   5 -11   7 8.67530 6.18319
   6 -11   7 20.3291 7.90668
   7 -11   7 0.00000 7.48928
   8 -11   7 0.00000 9.76100
   0 -10   7 5.49210 3.80393
   1 -10   7 86.7154 9.67412
   2 -10   7 75.3039 8.08779
   3 -10   7 32.6495 7.12181
   4 -10   7 147.086 9.19962
   5 -10   7 14.7235 5.80504
   6 -10   7 108.584 8.18528
   7 -10   7 51.0380 9.13838
   8 -10   7 14.6576 9.36683
   9 -10   7 51.4993 9.75310
  -2  -9   7 6.25685 2.32254
  -1  -9   7 138.115 8.24630
   0  -9   7 14.5361 4.02020
   1  -9   7 27.3629 5.09324
   2  -9   7 186.836 6.94038
   3  -9   7 51.2907 3.74223
   4  -9   7 51.8411 3.49911
   5  -9   7 93.3258 5.44185
   6  -9   7 50.9190 4.71223
   7  -9   7 161.300 6.41591
   8  -9   7 12.5700 5.20763
   9  -9   7 2.67308 4.05574
  10  -9   7 57.5025 6.68161
  -3  -8   7 106.155 11.5839
  -2  -8   7 23.5445 5.71245
  -1  -8   7 12.5570 5.19629
   0  -8   7 183.685 12.0385
   1  -8   7 20.1283 3.15422
   2  -8   7 474.663 11.8277
   3  -8   7 50.6646 4.79025
   4  -8   7 29.8269 3.20807
   5  -8   7 261.122 6.92723
   6  -8   7 55.4167 4.62238
   7  -8   7 143.935 6.54805
   8  -8   7 36.2917 3.41280
   9  -8   7 46.8816 5.35500
  10  -8   7 17.1840 6.42918
  -4  -7   7 3.71505 7.70534
  -3  -7   7 35.2277 4.20105
  -2  -7   7 233.914 11.2000
  -1  -7   7 5.57279 2.59175
   0  -7   7 127.239 4.68133
   1  -7   7 153.645 7.38588
   2  -7   7 48.9441 3.00117
   3  -7   7 262.481 6.84157
   4  -7   7 85.1514 7.28380
   5  -7   7 91.3738 3.70240
   6  -7   7 623.984 11.7519
   7  -7   7 157.772 6.95113
   8  -7   7 216.342 8.87806
   9  -7   7 150.734 6.24613
  10  -7   7 134.934 9.23127
  11  -7   7 35.4075 10.1750
  -5  -6   7 7.42110 9.83599
  -4  -6   7 291.154 24.1681
  -3  -6   7 25.8364 3.83774
  -2  -6   7 384.546 11.6787
  -1  -6   7 19.2612 9.74112
   0  -6   7 80.7765 3.92518
   1  -6   7 389.466 7.39098
   2  -6   7 204.061 11.4157
   3  -6   7 348.241 5.84319
   4  -6   7 714.439 11.6620
   5  -6   7 525.072 14.4236
   6  -6   7 110.938 3.76331
   7  -6   7 580.768 10.6502
   8  -6   7 97.2808 5.32790
   9  -6   7 43.5336 5.44639
  10  -6   7 81.3507 9.06722
  11  -6   7 237.867 21.9123
  -6  -5   7 4.04541 8.54756
  -5  -5   7 15.4434 6.57495
  -4  -5   7 60.9111 5.25712
  -3  -5   7 39.7806 3.51594
  -2  -5   7 41.4049 3.11442
  -1  -5   7 362.541 7.06480
   0  -5   7 158.205 3.51597
   1  -5   7 350.817 6.12582
   2  -5   7 2414.08 25.9563
   3  -5   7 98.7756 3.47381
   4  -5   7 746.127 9.34104
   5  -5   7 1070.02 13.6849
   6  -5   7 660.768 11.0427
   7  -5   7 116.457 4.59792
   8  -5   7 409.563 7.53044
   9  -5   7 375.416 13.0091
  10  -5   7 11.8437 4.50497
  11  -5   7 40.9710 5.61235
  -7  -4   7 26.5077 12.6840
  -6  -4   7 71.1839 4.95070
  -5  -4   7 36.7176 4.53880
  -4  -4   7 42.2349 3.63816
  -3  -4   7 232.169 5.48940
  -2  -4   7 124.186 5.18880
  -1  -4   7 420.901 7.82511
   0  -4   7 2288.79 22.3645
   1  -4   7 345.612 5.25809
   2  -4   7 825.206 9.53100
   3  -4   7 2231.03 20.3801
   4  -4   7 448.655 7.07884
   5  -4   7 218.166 4.40515
   6  -4   7 650.336 9.02909
   7  -4   7 1022.69 14.7151
   8  -4   7 28.5241 4.14215
   9  -4   7 136.950 7.06791
  10  -4   7 249.680 11.6483
  11  -4   7 46.9761 5.97208
  -8  -3   7 17.3572 7.18901
  -7  -3   7 15.2833 12.9081
  -6  -3   7 51.3846 5.46631
  -5  -3   7 238.401 8.10329
  -4  -3   7 274.732 9.71946
  -3  -3   7 335.857 9.05271
  -2  -3   7 2504.98 45.8288
  -1  -3   7 338.198 6.14839
   0  -3   7 724.761 8.86510
   1  -3   7 2493.45 22.4853
   2  -3   7 3474.79 39.7136
   3  -3   7 577.481 7.59844
   4  -3   7 2339.35 25.5631
   5  -3   7 749.231 15.5545
   6  -3   7 68.6003 3.45813
   7  -3   7 331.863 8.71013
   8  -3   7 616.153 22.8406
   9  -3   7 23.0818 4.98894
  10  -3   7 78.5225 8.05448
  -8  -2   7 9.51076 2.55988
  -7  -2   7 145.714 6.17806
  -6  -2   7 75.7982 4.63736
  -5  -2   7 135.063 3.99680
  -4  -2   7 667.806 11.5489
  -3  -2   7 116.701 4.59047
  -2  -2   7 816.731 12.1402
  -1  -2   7 2533.60 26.4456
   0  -2   7 2059.88 28.9215
   1  -2   7 719.701 7.99585
   2  -2   7 3367.47 29.6164
   3  -2   7 3941.68 47.7093
   4  -2   7 242.348 3.96606
   5  -2   7 498.311 8.85529
   6  -2   7 1164.88 26.2833
   7  -2   7 151.362 5.48992
   8  -2   7 1.05290 2.70755
   9  -2   7 185.750 11.5081
  10  -2   7 102.448 14.1128
  -9  -1   7 24.5861 7.37654
  -8  -1   7 10.0470 3.24153
  -7  -1   7 126.090 7.58310
  -6  -1   7 634.285 20.0662
  -5  -1   7 332.908 8.51394
  -4  -1   7 555.069 10.5109
  -3  -1   7 2052.61 27.2528
  -2  -1   7 3143.12 34.6413
  -1  -1   7 634.780 7.74037
   0  -1   7 4900.97 60.4331
   1  -1   7 1491.50 16.3893
   2  -1   7 123.786 2.19448
   3  -1   7 2166.82 24.5415
   4  -1   7 1845.70 23.2519
   5  -1   7 96.0697 3.56204
   6  -1   7 212.161 5.77000
   7  -1   7 512.212 14.2003
   8  -1   7 153.648 11.0185
   9  -1   7 22.5384 6.21299
  10  -1   7 93.3249 15.2021
 -10   0   7 14.1632 6.92916
  -9   0   7 10.2534 3.68277
  -8   0   7 54.0000 5.34703
  -7   0   7 146.026 7.10743
  -6   0   7 113.013 6.82328
  -5   0   7 1041.04 25.4835
  -4   0   7 401.186 9.58377
  -3   0   7 539.550 8.26365
  -2   0   7 3471.37 40.1748
  -1   0   7 1505.10 15.3181
   0   0   7 152.931 2.13841
   1   0   7 1440.66 15.4494
   2   0   7 2990.78 28.4555
   3   0   7 161.149 2.80665
   4   0   7 328.628 6.51372
   5   0   7 849.967 12.9726
   6   0   7 202.823 5.37087
   7   0   7 46.8057 2.81857
   8   0   7 47.6502 4.03311
   9   0   7 23.5992 3.50241
 -10   1   7 82.6122 13.0730
  -9   1   7 19.2406 4.59241
  -8   1   7 105.554 8.77240
  -7   1   7 612.518 19.3531
  -6   1   7 717.591 24.3733
  -5   1   7 266.696 11.1981
  -4   1   7 2091.98 34.1358
  -3   1   7 3716.16 46.1864
  -2   1   7 144.593 2.74236
  -1   1   7 1451.56 16.0355
   0   1   7 3346.05 30.8353
   1   1   7 8.00609 0.61398
   2   1   7 774.969 8.26281
   3   1   7 1001.57 12.1852
   4   1   7 190.464 4.92688
   5   1   7 86.6247 4.70521
   6   1   7 196.343 7.07207
   7   1   7 337.195 18.4070
   8   1   7 36.3462 11.8425
 -10   2   7 24.8243 3.98922
  -9   2   7 149.677 6.24303
  -8   2   7 204.380 10.2756
  -7   2   7 74.4299 5.68253
  -6   2   7 698.609 15.8241
  -5   2   7 559.426 14.8668
  -4   2   7 301.511 4.22962
  -3   2   7 2213.72 32.3237
  -2   2   7 3145.45 38.2128
  -1   2   7 7.06548 0.67084
   0   2   7 1051.65 14.7955
   1   2   7 1773.17 21.7173
   2   2   7 583.077 7.78935
   3   2   7 58.8838 10.3616
   4   2   7 261.987 7.96253
   5   2   7 299.882 6.41976
   6   2   7 111.736 8.86784
   7   2   7 48.2694 7.53782
   8   2   7 33.3420 9.36753
 -11   3   7 62.5455 9.29594
 -10   3   7 66.4118 7.29626
  -9   3   7 76.9322 6.42111
  -8   3   7 434.975 12.1785
  -7   3   7 1031.49 26.0757
  -6   3   7 11.0397 2.69302
  -5   3   7 503.060 9.34250
  -4   3   7 2167.24 36.4024
  -3   3   7 148.516 3.13344
  -2   3   7 760.667 11.9211
  -1   3   7 1413.62 16.7843
   0   3   7 80.5741 1.67400
   1   3   7 114.797 3.69632
   2   3   7 301.611 7.88060
   3   3   7 581.172 11.3014
   4   3   7 8.53354 5.60399
   5   3   7 48.2273 5.85547
   6   3   7 257.423 13.5302
   7   3   7 66.6117 9.68988
 -11   4   7 42.6596 8.58106
 -10   4   7 61.1565 4.33327
  -9   4   7 323.098 12.2938
  -8   4   7 32.0701 3.04113
  -7   4   7 352.065 7.89349
  -6   4   7 1383.64 24.0279
  -5   4   7 60.7797 3.83540
  -4   4   7 358.413 7.19196
  -3   4   7 1023.33 15.8201
  -2   4   7 640.014 9.88400
  -1   4   7 99.4880 2.33518
   0   4   7 377.906 6.00888
   1   4   7 828.407 11.9325
   2   4   7 74.0406 3.02167
   3   4   7 71.4446 3.23046
   4   4   7 72.4199 3.12098
   5   4   7 146.229 7.75735
   6   4   7 77.8836 6.24994
   7   4   7 4.97025 6.70906
 -11   5   7 143.543 16.0683
 -10   5   7 7.38085 4.51204
  -9   5   7 167.161 6.57375
  -8   5   7 788.200 17.5060
  -7   5   7 109.834 5.44301
  -6   5   7 283.640 6.12309
  -5   5   7 949.294 19.0630
  -4   5   7 302.941 6.91528
  -3   5   7 147.612 5.54893
  -2   5   7 396.211 10.2536
  -1   5   7 622.586 10.5501
   0   5   7 61.5090 2.95521
   1   5   7 59.4215 3.42316
   2   5   7 151.697 4.60235
   3   5   7 202.491 6.66193
   4   5   7 26.7647 3.93411
   5   5   7 26.3450 4.50035
   6   5   7 170.266 10.4714
 -11   6   7 61.5225 8.31007
 -10   6   7 309.530 13.0258
  -9   6   7 47.8089 6.33044
  -8   6   7 65.8735 8.94549
  -7   6   7 518.078 12.1747
  -6   6   7 220.285 6.68628
  -5   6   7 99.8204 5.38489
  -4   6   7 267.575 7.03874
  -3   6   7 595.094 12.7748
  -2   6   7 46.0489 3.29073
  -1   6   7 89.3148 4.74862
   0   6   7 192.654 6.91314
   1   6   7 361.208 8.94650
   2   6   7 74.5176 6.16189
   3   6   7 46.5653 5.41509
   4   6   7 52.7647 5.52552
   5   6   7 24.9615 3.89327
 -11   7   7 54.2960 5.59539
 -10   7   7 65.2484 6.67315
  -9   7   7 234.375 10.6761
  -8   7   7 176.948 8.72982
  -7   7   7 54.4851 6.29348
  -6   7   7 284.193 10.3607
  -5   7   7 303.233 7.86854
  -4   7   7 13.8752 4.27179
  -3   7   7 69.7897 4.61952
  -2   7   7 150.330 5.13355
  -1   7   7 372.251 9.72160
   0   7   7 69.6019 4.91352
   1   7   7 78.6483 5.16288
   2   7   7 138.708 7.78747
   3   7   7 16.9948 6.14567
 -10   8   7 83.9154 11.0387
  -9   8   7 15.0370 5.12736
  -8   8   7 53.5413 5.73446
  -7   8   7 303.085 18.8797
  -6   8   7 74.9599 5.86877
  -5   8   7 18.7872 4.37846
  -4   8   7 72.1423 4.70476
  -3   8   7 218.238 8.32127
  -2   8   7 98.2002 7.64284
  -1   8   7 64.0846 6.72442
   0   8   7 72.9730 6.36158
   1   8   7 60.1226 9.20287
   2   8   7 0.00000 10.2384
 -10   9   7 103.024 7.98286
  -9   9   7 46.5896 5.07585
  -8   9   7 31.0470 4.19414
  -7   9   7 9.29955 3.07001
  -6   9   7 262.468 9.86621
  -5   9   7 131.855 5.82207
  -4   9   7 18.2580 3.48773
  -3   9   7 29.6341 3.84594
  -2   9   7 141.601 6.03850
  -1   9   7 35.2942 5.66226
   0   9   7 12.1070 6.42430
   1   9   7 128.964 8.47604
  -9  10   7 19.2486 6.26907
  -7  10   7 67.2332 8.78743
  -6  10   7 106.401 10.5541
  -5  10   7 6.02659 4.61789
  -4  10   7 61.3499 8.73044
  -3  10   7 16.1339 11.2083
  -2  10   7 15.5604 5.44130
  -1  10   7 154.889 13.9930
  -6  11   7 137.197 8.68977
  -5  11   7 0.00000 10.6033
   3 -11   8 73.3551 6.11954
   4 -11   8 263.356 11.6474
   5 -11   8 81.3190 9.82244
   6 -11   8 121.584 17.4211
   7 -11   8 302.919 19.1205
   8 -11   8 18.2238 8.43261
   0 -10   8 67.8010 7.80680
   1 -10   8 70.9326 9.04722
   2 -10   8 418.019 12.3138
   3 -10   8 43.0305 7.98783
   4 -10   8 380.781 15.7613
   5 -10   8 287.053 11.3919
   6 -10   8 50.4002 9.74747
   7 -10   8 261.709 17.3547
   8 -10   8 154.042 11.0588
   9 -10   8 52.7869 10.5528
  -1  -9   8 74.6438 9.05992
   0  -9   8 187.341 8.03291
   1  -9   8 68.6784 5.97975
   2  -9   8 181.260 7.36998
   3  -9   8 642.038 11.5410
   4  -9   8 43.6379 3.76357
   5  -9   8 503.474 11.9301
   6  -9   8 480.445 11.7410
   7  -9   8 87.8331 5.25484
   8  -9   8 765.689 18.8490
   9  -9   8 57.5745 5.73860
  10  -9   8 47.9169 7.12515
  -3  -8   8 66.4730 14.0687
  -2  -8   8 364.452 16.2783
  -1  -8   8 66.0653 6.42180
   0  -8   8 466.345 29.5481
   1  -8   8 814.853 16.4786
   2  -8   8 17.2256 3.29775
   3  -8   8 651.067 13.8664
   4  -8   8 391.949 9.63579
   5  -8   8 114.804 5.29958
   6  -8   8 1044.18 21.0365
   7  -8   8 334.885 12.0043
   8  -8   8 373.290 12.8750
   9  -8   8 967.017 26.5316
  10  -8   8 118.945 13.9375
  -4  -7   8 308.282 18.6270
  -3  -7   8 39.8071 4.68825
  -2  -7   8 253.039 8.93026
  -1  -7   8 747.863 15.2963
   0  -7   8 119.047 4.15110
   1  -7   8 606.930 9.69059
   2  -7   8 614.472 10.6196
   3  -7   8 337.248 9.46169
   4  -7   8 1961.65 23.1287
   5  -7   8 369.449 7.18479
   6  -7   8 209.111 5.00687
   7  -7   8 1953.85 29.2231
   8  -7   8 76.5221 4.14956
   9  -7   8 499.784 12.2947
  10  -7   8 776.656 26.7750
  11  -7   8 4.10873 6.32502
  -5  -6   8 74.6653 13.7221
  -4  -6   8 284.648 13.9902
  -3  -6   8 725.392 15.2586
  -2  -6   8 12.4024 3.09390
  -1  -6   8 615.214 11.3783
   0  -6   8 753.534 11.7818
   1  -6   8 262.479 5.89527
   2  -6   8 2242.38 30.1014
   3  -6   8 627.472 9.37181
   4  -6   8 471.454 8.38054
   5  -6   8 2355.12 33.2739
   6  -6   8 291.538 7.67420
   7  -6   8 677.476 12.9199
   8  -6   8 1061.63 18.2998
   9  -6   8 48.7641 4.15359
  10  -6   8 407.645 16.7732
  11  -6   8 485.084 23.9318
  -6  -5   8 177.506 15.9005
  -5  -5   8 334.759 19.7027
  -4  -5   8 41.2184 4.70703
  -3  -5   8 673.717 16.4913
  -2  -5   8 584.131 13.3584
  -1  -5   8 310.597 6.02128
   0  -5   8 2601.00 36.0220
   1  -5   8 697.273 10.4794
   2  -5   8 888.205 12.1341
   3  -5   8 2311.88 31.7750
   4  -5   8 17.6481 1.44434
   5  -5   8 1314.27 17.0065
   6  -5   8 2943.84 45.0494
   7  -5   8 24.9267 2.42174
   8  -5   8 639.524 11.0729
   9  -5   8 869.497 32.4483
  10  -5   8 12.1889 4.31869
  11  -5   8 226.823 12.5099
  -7  -4   8 310.910 28.6483
  -6  -4   8 111.097 13.2081
  -5  -4   8 504.678 15.9280
  -4  -4   8 410.317 11.2991
  -3  -4   8 203.683 7.42731
  -2  -4   8 2215.51 37.5340
  -1  -4   8 925.775 13.1248
   0  -4   8 210.414 3.57541
   1  -4   8 3361.78 41.6325
   2  -4   8 136.708 3.23198
   3  -4   8 2213.96 21.7316
   4  -4   8 4615.55 53.3294
   5  -4   8 39.4450 2.05295
   6  -4   8 1529.13 19.2061
   7  -4   8 1460.77 26.5661
   8  -4   8 29.2008 4.42031
   9  -4   8 769.572 23.1135
  10  -4   8 392.873 17.9856
  11  -4   8 9.64208 7.59241
  -7  -3   8 322.582 27.7527
  -6  -3   8 452.843 14.7952
  -5  -3   8 136.350 6.74382
  -4  -3   8 2103.22 43.5977
  -3  -3   8 740.547 13.5532
  -2  -3   8 999.297 21.2579
  -1  -3   8 2901.14 34.5017
   0  -3   8 24.0499 1.53699
   1  -3   8 2217.71 23.7402
   2  -3   8 5415.76 52.1824
   3  -3   8 22.6803 1.15912
   4  -3   8 3668.61 36.4023
   5  -3   8 2054.45 24.1500
   6  -3   8 152.357 5.52273
   7  -3   8 1281.43 20.8025
   8  -3   8 525.838 14.2569
   9  -3   8 43.7438 9.64333
  10  -3   8 487.279 19.3401
  -8  -2   8 153.769 9.44648
  -7  -2   8 74.2260 5.92619
  -6  -2   8 896.630 18.6355
  -5  -2   8 456.007 8.11885
  -4  -2   8 407.962 8.81758
  -3  -2   8 2510.36 35.2941
  -2  -2   8 91.6558 2.81109
  -1  -2   8 2221.08 25.5840
   0  -2   8 7650.43 87.7076
   1  -2   8 18.2665 0.81466
   2  -2   8 3457.17 31.5523
   3  -2   8 3650.32 34.8574
   4  -2   8 484.421 7.21756
   5  -2   8 3821.76 41.8729
   6  -2   8 1063.44 15.4144
   7  -2   8 51.7223 3.89732
   8  -2   8 934.068 52.6687
   9  -2   8 274.495 9.50325
  -9  -1   8 16.3502 7.26619
  -8  -1   8 640.507 26.5341
  -7  -1   8 424.167 18.7598
  -6  -1   8 248.144 11.0318
  -5  -1   8 2285.20 49.3462
  -4  -1   8 18.0186 2.03953
  -3  -1   8 1827.98 22.9144
  -2  -1   8 5100.20 60.7575
  -1  -1   8 22.3310 1.04662
   0  -1   8 8677.83 226.756
   1  -1   8 4426.56 44.2135
   2  -1   8 138.491 2.77248
   3  -1   8 4797.10 52.2131
   4  -1   8 1200.13 18.1042
   5  -1   8 222.389 5.68474
   6  -1   8 1584.36 32.1744
   7  -1   8 346.129 14.9558
   8  -1   8 46.7042 5.96047
   9  -1   8 803.516 26.4139
  10  -1   8 69.9305 13.5153
  -9   0   8 71.3179 5.44736
  -8   0   8 385.188 13.5782
  -7   0   8 2058.27 44.6429
  -6   0   8 304.582 10.7308
  -5   0   8 1314.80 44.3776
  -4   0   8 4289.59 68.0443
  -3   0   8 19.5600 1.14561
  -2   0   8 3414.92 37.2811
  -1   0   8 4464.95 46.7732
   0   0   8 2224.40 22.3090
   2   0   8 2614.41 26.0678
   3   0   8 372.140 4.74697
   4   0   8 4549.11 53.0706
   5   0   8 309.544 6.47160
   6   0   8 11.6526 1.53761
   7   0   8 1128.23 25.5325
   8   0   8 219.017 8.66092
   9   0   8 57.3301 6.57668
 -10   1   8 45.2587 7.66490
  -9   1   8 360.520 36.2177
  -8   1   8 59.2930 8.54294
  -7   1   8 549.987 20.6421
  -6   1   8 2731.22 66.7982
  -5   1   8 35.8527 3.87953
  -4   1   8 3891.98 57.7445
  -3   1   8 3864.21 51.8785
  -2   1   8 120.621 2.29711
  -1   1   8 8961.94 173.590
   0   1   8 1887.30 21.1689
   1   1   8 357.613 4.42092
   2   1   8 4022.54 39.9188
   3   1   8 524.737 7.48712
   4   1   8 34.6856 3.03214
   5   1   8 1746.35 29.7758
   6   1   8 329.754 10.8678
   8   1   8 667.648 50.3637
 -10   2   8 135.869 6.45106
  -9   2   8 452.888 11.9874
  -8   2   8 1243.45 25.7102
  -7   2   8 31.3958 4.14349
  -6   2   8 1470.43 25.4551
  -5   2   8 1974.25 27.6510
  -4   2   8 518.007 9.81752
  -3   2   8 4660.29 52.1598
  -2   2   8 2565.35 23.6842
  -1   2   8 329.560 4.89958
   0   2   8 7113.19 74.9353
   1   2   8 244.782 3.33993
   2   2   8 629.981 8.74289
   3   2   8 3112.09 36.3300
   4   2   8 263.393 5.46066
   5   2   8 62.1582 3.01720
   6   2   8 852.472 20.6592
   7   2   8 331.332 12.2364
   8   2   8 134.246 9.57155
 -10   3   8 717.685 27.5681
  -9   3   8 42.2686 4.94727
  -8   3   8 656.354 16.0711
  -7   3   8 1691.10 34.8737
  -6   3   8 209.758 5.71747
  -5   3   8 3457.49 41.3021
  -4   3   8 1138.65 17.8456
  -3   3   8 385.171 7.41984
  -2   3   8 4048.42 42.4282
  -1   3   8 216.712 3.33391
   0   3   8 10.5992 0.85781
   1   3   8 3444.43 36.9481
   2   3   8 1009.35 15.1525
   3   3   8 77.6939 4.23062
   4   3   8 1236.93 24.2502
   5   3   8 346.371 14.0485
   6   3   8 98.9339 7.11452
   7   3   8 278.880 17.3711
 -11   4   8 27.2621 10.2338
 -10   4   8 496.110 19.0140
  -9   4   8 861.900 20.0679
  -8   4   8 14.5819 3.73259
  -7   4   8 1281.44 20.7426
  -6   4   8 1141.95 18.9469
  -5   4   8 318.670 9.52326
  -4   4   8 4503.32 53.2098
  -3   4   8 726.587 13.9399
  -2   4   8 613.795 8.91222
  -1   4   8 3503.35 37.7677
   0   4   8 301.684 5.74957
   1   4   8 69.9770 3.95596
   2   4   8 2066.05 27.0363
   3   4   8 399.326 9.58669
   4   4   8 266.570 7.79777
   5   4   8 662.094 17.9476
   6   4   8 343.247 13.0751
 -11   5   8 485.302 31.7489
 -10   5   8 37.8366 5.28082
  -9   5   8 695.664 23.1852
  -8   5   8 565.636 12.9084
  -7   5   8 71.0279 5.01047
  -6   5   8 1772.29 25.2484
  -5   5   8 335.473 7.96247
  -4   5   8 0.00000 4.33772
  -3   5   8 3209.79 56.4791
  -2   5   8 945.645 14.0247
  -1   5   8 231.433 6.02392
   0   5   8 1606.17 20.1032
   1   5   8 441.578 8.84007
   2   5   8 165.517 5.98946
   3   5   8 930.073 23.3458
   4   5   8 465.956 13.4837
   5   5   8 130.914 6.63743
 -11   6   8 243.577 12.3817
 -10   6   8 339.748 13.9877
  -9   6   8 12.5960 6.31802
  -8   6   8 1000.80 32.2604
  -7   6   8 383.134 11.6544
  -6   6   8 10.4050 3.81043
  -5   6   8 1726.65 22.8080
  -4   6   8 329.345 6.92764
  -3   6   8 115.940 5.05265
  -2   6   8 2017.96 28.5247
  -1   6   8 470.818 9.20911
   0   6   8 168.980 6.22099
   1   6   8 1333.11 21.2889
   2   6   8 699.676 14.0633
   3   6   8 234.654 9.57592
   4   6   8 247.796 11.7559
 -11   7   8 0.00000 5.91326
 -10   7   8 442.380 13.6670
  -9   7   8 330.806 11.2157
  -8   7   8 55.8191 5.49952
  -7   7   8 1163.85 26.1626
  -6   7   8 324.221 8.20403
  -5   7   8 66.4341 4.18541
  -4   7   8 1434.73 21.7104
  -3   7   8 298.434 7.99275
  -2   7   8 126.431 4.39100
  -1   7   8 1223.19 21.0592
   0   7   8 900.746 18.7069
   1   7   8 236.854 7.35143
   2   7   8 339.781 12.0095
   3   7   8 365.526 14.8962
 -10   8   8 27.0478 7.63970
  -9   8   8 706.539 20.9213
  -8   8   8 251.938 12.3760
  -7   8   8 97.0661 6.99450
  -6   8   8 917.039 24.6804
  -5   8   8 381.748 13.6287
  -4   8   8 210.060 7.27013
  -3   8   8 1007.18 27.2314
  -2   8   8 841.960 29.0934
  -1   8   8 267.997 13.8840
   0   8   8 386.775 17.3615
   1   8   8 307.429 13.5854
   2   8   8 56.5831 7.60886
 -10   9   8 95.4491 14.1081
  -9   9   8 56.7220 12.3129
  -8   9   8 728.107 17.5825
  -7   9   8 335.168 11.5471
  -6   9   8 83.6489 4.57128
  -5   9   8 631.908 17.9104
  -4   9   8 430.112 13.0333
  -3   9   8 249.251 8.59582
  -2   9   8 328.910 11.0432
  -1   9   8 354.269 12.1878
   0   9   8 30.5579 6.27479
  -8  10   8 126.230 15.2230
  -7  10   8 308.863 18.9451
  -6  10   8 322.175 18.0064
  -5  10   8 127.184 8.29053
  -4  10   8 308.899 19.0579
   3 -11   9 121.974 7.74249
   4 -11   9 11.6115 4.94695
   5 -11   9 30.8329 7.34315
   6 -11   9 291.622 18.6526
   7 -11   9 2.70954 8.29368
   8 -11   9 0.00000 10.8455
   0 -10   9 54.9599 7.57586
   1 -10   9 164.310 13.6528
   2 -10   9 47.9793 5.81866
   3 -10   9 22.9612 4.81320
   4 -10   9 516.421 27.8686
   5 -10   9 64.4428 9.23164
   6 -10   9 0.00000 9.68744
   7 -10   9 267.402 18.4485
   8 -10   9 46.4430 14.9715
   9 -10   9 0.03764 3.90639
  -1  -9   9 183.557 21.1898
   0  -9   9 71.3940 5.71204
   1  -9   9 57.6968 4.78927
   2  -9   9 295.251 10.4656
   3  -9   9 38.6403 3.62627
   4  -9   9 30.0984 3.17285
   5  -9   9 586.354 11.3603
   6  -9   9 150.117 5.57824
   7  -9   9 26.4166 3.39504
   8  -9   9 394.790 11.6168
   9  -9   9 85.8475 5.83441
  10  -9   9 3.59864 3.67930
  -3  -8   9 108.637 15.8729
  -2  -8   9 42.0657 6.02529
  -1  -8   9 54.9008 6.09679
   0  -8   9 827.984 26.9913
   1  -8   9 105.036 5.64174
   2  -8   9 21.8254 3.21427
   3  -8   9 968.484 17.7508
   4  -8   9 316.245 8.41780
   5  -8   9 11.7367 3.48867
   6  -8   9 312.239 9.82294
   7  -8   9 230.591 7.80414
   8  -8   9 20.0385 4.76755
   9  -8   9 203.689 10.8412
  -4  -7   9 24.2749 8.76597
  -3  -7   9 33.7262 5.08267
  -2  -7   9 389.203 15.4324
  -1  -7   9 67.3430 13.3236
   0  -7   9 7.82699 2.38506
   1  -7   9 893.922 16.5309
   2  -7   9 416.155 7.76694
   3  -7   9 34.8324 3.32260
   4  -7   9 1331.37 26.7055
   5  -7   9 345.131 6.30038
   6  -7   9 77.5423 4.21356
   7  -7   9 201.529 9.71983
   8  -7   9 310.018 8.14151
   9  -7   9 55.6360 4.52519
  10  -7   9 52.5092 9.44438
  11  -7   9 47.4516 6.61169
  -5  -6   9 11.7782 10.6296
  -4  -6   9 404.573 16.3208
  -3  -6   9 78.2515 6.50444
  -2  -6   9 3.11410 3.79867
  -1  -6   9 1126.00 22.9129
   0  -6   9 929.282 14.5722
   1  -6   9 14.8508 2.67721
   2  -6   9 1775.67 36.8356
   3  -6   9 818.537 12.2302
   4  -6   9 99.8880 3.58399
   5  -6   9 571.805 18.5383
   6  -6   9 130.145 4.36249
   7  -6   9 117.743 5.30964
   8  -6   9 86.5723 9.38190
   9  -6   9 181.283 7.84040
  10  -6   9 15.3324 5.32146
  11  -6   9 9.54521 7.76188
  -6  -5   9 307.893 28.8801
  -5  -5   9 64.7875 5.98570
  -4  -5   9 19.8199 3.94476
  -3  -5   9 951.369 19.7569
  -2  -5   9 495.082 11.3380
  -1  -5   9 10.2149 2.32047
   0  -5   9 1942.37 23.9820
   1  -5   9 540.583 8.80827
   2  -5   9 279.878 6.12349
   3  -5   9 668.141 9.75357
   4  -5   9 1070.64 14.2194
   5  -5   9 32.5509 2.24581
   6  -5   9 142.312 4.14059
   7  -5   9 116.132 4.07367
   8  -5   9 20.5336 3.06434
   9  -5   9 6.10297 4.76092
  10  -5   9 8.12122 4.44246
  11  -5   9 0.00000 4.51261
  -6  -4   9 0.00000 4.08431
  -5  -4   9 699.322 19.0318
  -4  -4   9 316.350 8.51092
  -3  -4   9 47.9064 3.88097
  -2  -4   9 1567.71 22.5268
  -1  -4   9 638.576 9.69615
   0  -4   9 193.724 4.42683
   1  -4   9 1078.00 14.3065
   2  -4   9 1643.22 17.0465
   3  -4   9 129.520 2.67377
   4  -4   9 304.389 5.14660
   5  -4   9 658.860 10.6622
   6  -4   9 14.7780 1.61525
   7  -4   9 85.6742 3.22099
   8  -4   9 24.1757 5.14912
   9  -4   9 20.3424 4.70277
  10  -4   9 48.1493 7.07833
  -8  -3   9 12.0979 3.15974
  -7  -3   9 385.759 35.3150
  -6  -3   9 178.608 11.2621
  -5  -3   9 46.2906 7.25064
  -4  -3   9 1140.55 24.8292
  -3  -3   9 776.171 13.4693
  -2  -3   9 453.417 14.7851
  -1  -3   9 1058.47 18.5941
   0  -3   9 1437.26 16.6675
   1  -3   9 34.7458 2.40833
   2  -3   9 301.536 4.23865
   3  -3   9 184.062 2.99424
   4  -3   9 71.7607 4.52248
   5  -3   9 77.0030 4.04344
   6  -3   9 129.828 4.14876
   7  -3   9 71.2772 7.44954
   8  -3   9 0.00000 6.79118
   9  -3   9 32.6290 6.26687
  10  -3   9 13.1688 12.4532
  -8  -2   9 36.7045 8.38750
  -7  -2   9 57.7126 9.52065
  -6  -2   9 219.932 15.4368
  -5  -2   9 341.060 7.26531
  -4  -2   9 158.644 7.14245
  -3  -2   9 913.259 18.1753
  -2  -2   9 1647.99 21.5590
  -1  -2   9 195.747 11.3823
   0  -2   9 347.484 8.26696
   1  -2   9 693.263 7.58424
   2  -2   9 237.363 13.6846
   3  -2   9 89.4331 2.10769
   4  -2   9 347.312 5.85710
   5  -2   9 154.265 11.3269
   6  -2   9 85.6434 3.28284
   7  -2   9 40.4840 2.74395
   8  -2   9 82.8949 15.0196
   9  -2   9 43.2000 5.77366
  10  -2   9 11.7151 9.28005
  -9  -1   9 3.60009 4.14646
  -8  -1   9 369.359 14.3540
  -7  -1   9 267.993 15.0423
  -6  -1   9 135.204 7.41966
  -5  -1   9 625.369 21.2406
  -4  -1   9 943.310 14.6052
  -3  -1   9 108.134 2.79409
  -2  -1   9 249.733 4.14076
  -1  -1   9 630.640 7.50609
   0  -1   9 27.2627 1.40100
   1  -1   9 248.499 3.92186
   2  -1   9 170.435 2.92849
   3  -1   9 343.625 5.56928
   4  -1   9 275.987 6.20591
   5  -1   9 3.18995 2.06428
   6  -1   9 74.7547 4.24485
   7  -1   9 108.099 6.42455
   8  -1   9 4.61173 3.24031
   9  -1   9 62.1481 12.2954
  -9   0   9 104.087 6.69636
  -8   0   9 15.4619 2.97256
  -7   0   9 201.053 7.89731
  -6   0   9 138.243 6.25789
  -5   0   9 39.2288 3.66793
  -4   0   9 293.856 6.66139
  -3   0   9 182.096 3.31479
  -2   0   9 0.00000 1.22511
  -1   0   9 231.752 3.30047
   0   0   9 1095.35 12.1450
   1   0   9 480.059 6.07884
   2   0   9 7.50725 0.77397
   3   0   9 69.3293 1.84094
   4   0   9 65.9638 2.20147
   5   0   9 7.79971 1.30707
   6   0   9 40.4857 2.40254
   7   0   9 20.3794 3.11952
   8   0   9 144.449 6.85810
   9   0   9 0.66088 5.62578
 -10   1   9 0.00000 7.90153
  -9   1   9 187.980 13.3680
  -8   1   9 281.918 10.3561
  -7   1   9 58.0492 6.22258
  -6   1   9 110.116 8.11664
  -5   1   9 839.443 22.2020
  -4   1   9 60.0416 2.68534
  -3   1   9 80.9060 2.12056
  -2   1   9 192.531 4.05790
  -1   1   9 467.316 6.42538
   0   1   9 310.900 4.36230
   1   1   9 50.7065 1.58750
   2   1   9 305.711 4.33169
   3   1   9 557.787 7.41991
   4   1   9 40.6756 2.80625
   5   1   9 44.5539 3.70683
   6   1   9 201.315 7.43405
   7   1   9 8.37352 8.74396
 -10   2   9 8.36838 5.87066
  -9   2   9 51.8820 6.22426
  -8   2   9 14.4166 3.22586
  -7   2   9 140.751 6.13123
  -6   2   9 65.7679 5.04124
  -5   2   9 152.052 4.63619
  -4   2   9 419.045 9.56677
  -3   2   9 344.374 6.05703
  -2   2   9 29.8239 2.01748
  -1   2   9 48.4969 5.27323
   0   2   9 107.681 5.73402
   1   2   9 336.456 6.69690
   2   2   9 261.764 6.24325
   3   2   9 415.515 8.08116
   4   2   9 300.031 9.24096
   5   2   9 100.974 4.49603
   6   2   9 0.00000 6.30147
   7   2   9 177.724 9.99064
   8   2   9 6.15249 4.65323
 -10   3   9 33.7167 8.12976
  -9   3   9 248.525 10.2377
  -8   3   9 39.7145 5.08741
  -7   3   9 107.917 4.88941
  -6   3   9 175.357 5.43528
  -5   3   9 67.3305 4.04354
  -4   3   9 156.329 4.65842
  -3   3   9 115.092 6.29479
  -2   3   9 330.706 5.55540
  -1   3   9 192.240 4.31589
   0   3   9 112.428 3.14784
   1   3   9 263.874 6.00803
   2   3   9 922.137 16.3973
   3   3   9 190.993 7.01214
   4   3   9 1.18805 7.11530
   5   3   9 281.853 16.3813
   6   3   9 16.7805 5.15438
   7   3   9 43.3775 18.9140
 -11   4   9 93.2829 13.9581
 -10   4   9 42.4197 4.53191
  -9   4   9 4.95812 2.86057
  -8   4   9 38.5152 2.64906
  -7   4   9 39.6015 3.47372
  -6   4   9 40.8948 3.89544
  -5   4   9 25.7110 4.37984
  -4   4   9 62.5940 2.51778
  -3   4   9 834.665 20.9936
  -2   4   9 242.938 6.52651
  -1   4   9 306.386 4.78752
   0   4   9 386.844 7.27409
   1   4   9 187.769 6.63354
   2   4   9 184.293 5.79589
   3   4   9 264.066 6.10368
   4   4   9 20.4111 4.73609
   5   4   9 23.8069 5.14494
   6   4   9 116.924 8.43096
 -11   5   9 63.2388 12.1791
 -10   5   9 27.4397 4.88822
  -9   5   9 30.5189 6.26077
  -8   5   9 20.1558 3.64417
  -7   5   9 50.0544 5.01713
  -6   5   9 52.0309 3.96659
  -5   5   9 12.5693 2.49428
  -4   5   9 68.0976 5.36938
  -3   5   9 399.826 8.38178
  -2   5   9 744.128 14.1007
  -1   5   9 105.201 4.16179
   0   5   9 91.2404 3.13485
   1   5   9 388.616 9.63939
   2   5   9 57.1100 4.17757
   3   5   9 3.81952 4.22988
   4   5   9 60.4665 5.79783
   5   5   9 55.6929 5.58397
 -11   6   9 2.26019 6.41794
 -10   6   9 42.0173 8.79061
  -9   6   9 29.6095 5.17053
  -8   6   9 36.6636 5.95222
  -7   6   9 240.025 11.5806
  -6   6   9 49.3905 4.14265
  -5   6   9 21.8055 4.56492
  -4   6   9 485.201 12.4357
  -3   6   9 47.5431 3.80218
  -2   6   9 264.362 7.67254
  -1   6   9 370.241 9.72234
   0   6   9 12.7424 2.72051
   1   6   9 160.102 11.9053
   2   6   9 240.540 8.54358
   3   6   9 34.0229 5.64250
   4   6   9 43.3328 10.1920
 -10   7   9 24.3481 6.99636
  -9   7   9 89.3727 10.6594
  -8   7   9 0.00000 2.64411
  -7   7   9 35.1461 6.27770
  -6   7   9 193.050 10.3734
  -5   7   9 110.565 4.20293
  -4   7   9 64.3888 6.72292
  -3   7   9 371.625 12.0319
  -2   7   9 30.4818 2.56346
  -1   7   9 20.1047 6.82596
   0   7   9 191.739 7.69243
   1   7   9 18.8530 3.56623
   2   7   9 42.1771 7.34186
   3   7   9 32.8750 7.13956
 -10   8   9 9.01442 4.90894
  -9   8   9 36.2048 7.46502
  -8   8   9 147.216 6.91320
  -7   8   9 19.6064 4.18042
  -6   8   9 64.1793 8.20978
  -5   8   9 284.152 9.41469
  -4   8   9 59.5721 5.35491
  -3   8   9 17.7254 7.17345
  -2   8   9 206.816 8.19933
  -1   8   9 36.9218 9.73198
   0   8   9 56.8399 7.53147
   1   8   9 0.00000 10.2315
   2   8   9 37.9014 4.57686
  -8   9   9 63.3673 6.18721
  -7   9   9 175.253 7.43187
  -6   9   9 10.7707 3.42974
  -5   9   9 22.8683 7.17025
  -4   9   9 51.3714 4.29315
  -3   9   9 20.0066 4.24015
  -2   9   9 28.3902 4.71744
  -1   9   9 11.0083 4.89303
   0   9   9 36.4855 5.78487
  -8  10   9 0.01690 4.00036
  -7  10   9 37.0213 10.9577
  -6  10   9 129.349 10.9685
  -5  10   9 35.1991 5.74489
  -4  10   9 25.3204 6.42740
  -2  10   9 41.5810 9.99185
   3 -11  10 451.609 19.2259
   4 -11  10 97.6165 6.19700
   5 -11  10 75.3608 6.66282
   6 -11  10 363.296 17.5186
   7 -11  10 64.5246 10.0751
   1 -10  10 586.540 27.2038
   2 -10  10 80.9922 7.73594
   3 -10  10 308.001 15.1937
   4 -10  10 376.821 16.6874
   5 -10  10 190.046 12.0228
   6 -10  10 469.246 15.9647
   7 -10  10 239.839 13.4940
   8 -10  10 206.806 21.1027
   9 -10  10 211.983 13.5179
  -1  -9  10 634.328 35.3586
   0  -9  10 196.870 9.42094
   1  -9  10 236.455 8.92284
   2  -9  10 420.391 16.5728
   3  -9  10 214.672 6.83256
   4  -9  10 450.492 9.66874
   5  -9  10 468.925 12.5152
   6  -9  10 112.331 4.48794
   7  -9  10 412.986 10.3357
   8  -9  10 296.815 11.6079
   9  -9  10 111.801 7.27708
  10  -9  10 194.700 16.9587
  -2  -8  10 102.207 8.04219
  -1  -8  10 195.351 11.7173
   0  -8  10 570.507 22.1185
   1  -8  10 220.690 7.62099
   2  -8  10 721.461 20.0867
   3  -8  10 415.515 16.0918
   4  -8  10 503.089 12.9682
   5  -8  10 484.090 14.0669
   6  -8  10 180.175 11.7141
   7  -8  10 188.772 7.61602
   8  -8  10 117.952 8.12206
   9  -8  10 159.806 18.7492
  10  -8  10 139.902 16.7738
  -4  -7  10 90.0468 8.99601
  -3  -7  10 364.321 12.1561
  -2  -7  10 393.028 13.2172
  -1  -7  10 226.794 14.4849
   0  -7  10 540.610 10.0821
   1  -7  10 437.832 8.09378
   2  -7  10 331.964 7.75709
   3  -7  10 415.104 8.21358
   4  -7  10 291.544 6.94484
   5  -7  10 412.528 7.98659
   6  -7  10 596.809 10.7940
   7  -7  10 134.319 5.83948
   8  -7  10 184.522 7.01257
   9  -7  10 190.503 9.09756
  10  -7  10 312.688 14.0633
  -5  -6  10 59.2153 9.98518
  -4  -6  10 341.039 14.0917
  -3  -6  10 227.631 8.15206
  -2  -6  10 654.665 18.7681
  -1  -6  10 539.818 14.4472
   0  -6  10 514.414 9.55562
   1  -6  10 587.820 9.69391
   2  -6  10 242.288 6.23181
   3  -6  10 731.667 12.3515
   4  -6  10 576.059 10.1599
   5  -6  10 211.151 5.04042
   6  -6  10 601.012 11.6423
   7  -6  10 430.668 9.89589
   8  -6  10 488.352 13.1921
   9  -6  10 193.214 14.2635
  10  -6  10 166.833 10.6688
  11  -6  10 170.368 21.1793
  -6  -5  10 389.417 22.4000
  -5  -5  10 176.723 8.99912
  -4  -5  10 581.936 20.1179
  -3  -5  10 402.357 12.3973
  -2  -5  10 321.773 6.81901
  -1  -5  10 601.448 12.0961
   0  -5  10 233.851 5.78523
   1  -5  10 1267.09 16.9102
   2  -5  10 1333.66 22.9591
   3  -5  10 638.230 11.6065
   4  -5  10 810.101 10.3400
   5  -5  10 488.672 10.6509
   6  -5  10 365.469 7.87824
   7  -5  10 388.413 8.95484
   8  -5  10 528.923 17.2232
   9  -5  10 388.587 15.4814
  10  -5  10 132.405 9.68241
  -7  -4  10 84.9357 7.40087
  -6  -4  10 433.105 14.0976
  -5  -4  10 627.449 17.4870
  -4  -4  10 563.805 12.3967
  -3  -4  10 491.712 12.9911
  -2  -4  10 286.815 7.71351
  -1  -4  10 1157.23 16.0165
   0  -4  10 1153.62 24.1795
   1  -4  10 290.593 7.37607
   2  -4  10 864.029 11.5616
   3  -4  10 584.570 12.5130
   4  -4  10 546.614 7.65949
   5  -4  10 790.338 11.1808
   6  -4  10 545.245 13.0445
   7  -4  10 634.771 12.5796
   8  -4  10 252.602 9.67328
   9  -4  10 467.922 16.1761
  10  -4  10 514.970 18.6547
  -7  -3  10 226.911 10.3599
  -6  -3  10 82.5834 6.19699
  -5  -3  10 468.756 13.9228
  -4  -3  10 250.007 7.60678
  -3  -3  10 699.899 13.5625
  -2  -3  10 1260.02 18.5837
  -1  -3  10 390.466 8.79953
   0  -3  10 1570.65 19.1696
   1  -3  10 621.014 7.76511
   2  -3  10 162.721 3.91494
   3  -3  10 1258.35 13.8952
   4  -3  10 783.311 11.0276
   5  -3  10 1393.25 19.5899
   6  -3  10 666.721 11.0450
   7  -3  10 990.821 22.2306
   8  -3  10 459.851 31.3432
   9  -3  10 99.5273 8.36045
  -8  -2  10 146.674 13.2590
  -7  -2  10 418.460 15.3998
  -6  -2  10 169.932 9.89772
  -5  -2  10 373.857 7.52250
  -4  -2  10 508.347 7.95557
  -3  -2  10 511.217 7.97791
  -2  -2  10 838.772 11.9379
  -1  -2  10 633.172 7.42498
   0  -2  10 534.280 6.28126
   1  -2  10 2032.43 19.9984
   2  -2  10 2530.94 21.7341
   3  -2  10 1229.54 11.9088
   4  -2  10 586.567 7.98110
   5  -2  10 847.087 15.3410
   6  -2  10 1468.92 19.1681
   7  -2  10 201.725 6.05306
   8  -2  10 662.052 19.4923
   9  -2  10 624.749 16.5392
  10  -2  10 32.7818 4.29291
  -9  -1  10 203.185 13.0723
  -8  -1  10 247.659 13.9556
  -7  -1  10 176.080 9.96829
  -6  -1  10 650.049 17.8083
  -5  -1  10 230.897 12.3931
  -4  -1  10 987.066 19.3731
  -3  -1  10 489.780 8.56056
  -2  -1  10 126.000 3.43839
  -1  -1  10 1903.56 21.8443
   0  -1  10 640.670 9.42660
   1  -1  10 2241.71 26.6468
   2  -1  10 1537.12 16.6265
   3  -1  10 2047.16 28.2233
   4  -1  10 2310.66 33.3428
   5  -1  10 244.056 7.03889
   6  -1  10 1443.97 28.7689
   7  -1  10 623.491 17.4749
   8  -1  10 95.0856 8.66323
  -9   0  10 136.452 7.22701
  -8   0  10 111.482 5.82519
  -7   0  10 140.168 5.83682
  -6   0  10 605.154 16.1533
  -5   0  10 465.506 15.9541
  -4   0  10 550.867 11.4638
  -3   0  10 1247.44 17.4982
  -2   0  10 2523.42 27.8392
  -1   0  10 2178.11 25.2637
   0   0  10 644.500 7.76816
   1   0  10 1107.62 12.4999
   2   0  10 1471.44 16.0126
   3   0  10 299.874 4.90856
   4   0  10 2479.62 32.8057
   5   0  10 1409.36 20.0883
   6   0  10 21.5872 2.09235
   7   0  10 767.466 20.8138
   8   0  10 416.718 13.1000
   9   0  10 14.6204 4.24333
 -10   1  10 143.289 18.3511
  -9   1  10 178.334 9.36178
  -8   1  10 215.562 10.0955
  -7   1  10 391.882 17.2199
  -6   1  10 294.291 13.0893
  -5   1  10 712.037 20.3686
  -4   1  10 708.796 12.9697
  -3   1  10 1361.44 21.4428
  -2   1  10 1742.62 24.3913
  -1   1  10 1084.04 12.2447
   0   1  10 2952.58 31.7860
   1   1  10 350.514 5.58964
   2   1  10 2566.10 27.0355
   3   1  10 1713.22 22.2053
   4   1  10 123.610 7.99874
   5   1  10 1858.11 37.9494
   6   1  10 340.540 13.4481
   7   1  10 62.1004 12.7328
   8   1  10 617.255 37.8929
 -10   2  10 102.879 6.63389
  -9   2  10 176.919 5.97405
  -8   2  10 423.582 10.7157
  -7   2  10 445.983 11.8757
  -6   2  10 450.651 9.22060
  -5   2  10 1664.76 24.9111
  -4   2  10 686.531 12.9814
  -3   2  10 2044.44 26.0703
  -2   2  10 1464.83 15.7080
  -1   2  10 521.938 9.88272
   0   2  10 6066.80 60.9344
   1   2  10 2634.36 28.2928
   2   2  10 44.9819 3.87585
   3   2  10 2200.17 28.7698
   4   2  10 634.434 11.9026
   5   2  10 57.7743 4.41091
   6   2  10 1150.49 29.6712
   7   2  10 132.431 6.78770
   8   2  10 19.8291 3.42329
 -10   3  10 313.168 24.2313
  -9   3  10 182.219 8.16848
  -8   3  10 445.925 10.9705
  -7   3  10 715.444 12.5954
  -6   3  10 760.567 12.8719
  -5   3  10 850.220 13.2652
  -4   3  10 2196.95 31.2072
  -3   3  10 353.304 10.5555
  -2   3  10 2503.03 31.1338
  -1   3  10 2543.77 35.5056
   0   3  10 41.0775 2.54131
   1   3  10 3170.45 35.9476
   2   3  10 713.405 11.1857
   3   3  10 17.7662 2.36821
   4   3  10 1998.64 37.0180
   5   3  10 187.377 11.2996
   6   3  10 55.8146 7.91262
   7   3  10 700.772 46.0819
 -10   4  10 132.205 7.24407
  -9   4  10 443.282 13.1648
  -8   4  10 320.097 10.5478
  -7   4  10 976.126 22.3145
  -6   4  10 1375.13 30.3396
  -5   4  10 190.315 5.64458
  -4   4  10 2564.64 41.7444
  -3   4  10 1843.10 30.5339
  -2   4  10 41.0966 2.93302
  -1   4  10 3579.47 42.1386
   0   4  10 503.225 8.41027
   1   4  10 46.6112 3.44515
   2   4  10 2505.41 34.6250
   3   4  10 273.177 6.63156
   4   4  10 42.0029 5.83181
   5   4  10 979.698 23.1606
   6   4  10 74.4675 8.13692
 -10   5  10 103.662 6.67920
  -9   5  10 481.365 17.0565
  -8   5  10 854.607 24.3283
  -7   5  10 221.998 6.77595
  -6   5  10 1458.15 24.7859
  -5   5  10 1456.70 24.1351
  -4   5  10 162.848 5.30481
  -3   5  10 2058.90 37.7071
  -2   5  10 744.975 14.2923
  -1   5  10 46.1766 3.63145
   0   5  10 3154.53 43.2440
   1   5  10 286.981 7.59863
   2   5  10 28.8616 2.98400
   3   5  10 1342.72 29.5735
   4   5  10 48.8460 4.82815
   5   5  10 24.3483 5.62142
 -10   6  10 532.431 20.6564
  -9   6  10 120.786 6.33726
  -8   6  10 584.928 17.2854
  -7   6  10 676.751 18.1192
  -6   6  10 34.3722 3.60751
  -5   6  10 2029.86 33.1538
  -4   6  10 624.799 10.9245
  -3   6  10 9.52200 3.29773
  -2   6  10 2484.78 29.4193
  -1   6  10 218.898 5.64834
   0   6  10 24.5617 3.28681
   1   6  10 1504.48 28.9129
   2   6  10 58.7651 5.71010
   3   6  10 48.9870 5.92637
   4   6  10 936.206 32.9457
 -10   7  10 361.301 27.7921
  -9   7  10 700.079 21.1626
  -8   7  10 103.616 5.00075
  -7   7  10 809.076 20.2909
  -6   7  10 383.364 10.1633
  -5   7  10 35.3196 3.33262
  -4   7  10 2031.39 32.0001
  -3   7  10 319.720 9.05653
  -2   7  10 35.7096 3.39778
  -1   7  10 1469.06 27.8778
   0   7  10 14.9301 3.12185
   1   7  10 23.3415 3.67428
   2   7  10 1119.64 22.0540
   3   7  10 42.9033 6.86013
 -10   8  10 30.1838 10.3657
  -9   8  10 586.741 41.7008
  -8   8  10 449.015 14.5896
  -7   8  10 14.0556 4.46305
  -6   8  10 1189.08 23.2983
  -5   8  10 224.028 10.4265
  -4   8  10 34.2711 5.44809
  -3   8  10 1385.38 33.9228
  -2   8  10 28.4053 6.80798
  -1   8  10 14.1450 9.11619
   0   8  10 1085.30 29.2374
   1   8  10 76.7675 13.4600
  -9   9  10 0.00000 8.41626
  -8   9  10 612.175 19.2721
  -7   9  10 158.649 7.84849
  -6   9  10 70.8477 6.38509
  -5   9  10 1026.53 21.3211
  -4   9  10 51.0675 6.70611
  -3   9  10 1.29071 5.22227
  -2   9  10 1095.99 22.4335
  -1   9  10 4.73356 10.3520
   0   9  10 55.0800 8.60034
  -8  10  10 6.06213 6.58905
  -7  10  10 604.776 40.1750
  -6  10  10 56.7242 11.9829
  -5  10  10 23.7989 9.84248
  -4  10  10 913.261 54.9614
   4 -11  11 4.78674 4.66017
   5 -11  11 1.86964 5.26667
   6 -11  11 39.4350 8.99616
   7 -11  11 47.2646 7.20551
   1 -10  11 73.1949 9.36275
   2 -10  11 22.3904 8.02743
   3 -10  11 53.2202 5.86711
   4 -10  11 0.00000 12.0993
   5 -10  11 14.3063 4.82615
   6 -10  11 32.8716 5.72298
   7 -10  11 133.957 21.6898
  -1  -9  11 23.9655 14.2693
   0  -9  11 14.2665 3.57317
   1  -9  11 40.8456 4.48360
   2  -9  11 25.4774 4.43777
   3  -9  11 131.214 7.22681
   4  -9  11 7.81543 3.64238
   5  -9  11 41.9455 3.24577
   6  -9  11 183.301 5.66982
   7  -9  11 4.00746 3.79369
   8  -9  11 61.9898 7.29387
   9  -9  11 14.7887 4.34628
  -2  -8  11 21.0596 9.66936
  -1  -8  11 27.4994 5.97730
   0  -8  11 10.8533 5.63497
   1  -8  11 192.742 10.7941
   2  -8  11 28.3594 6.24361
   3  -8  11 44.1604 4.83710
   4  -8  11 85.9278 5.12556
   5  -8  11 15.4378 3.81386
   6  -8  11 210.402 7.40708
   7  -8  11 143.261 6.76334
   8  -8  11 20.0406 6.14583
   9  -8  11 93.0026 10.8614
  10  -8  11 72.1819 13.8676
  -3  -7  11 75.7072 7.91424
  -2  -7  11 15.8629 4.58993
  -1  -7  11 119.057 6.25642
   0  -7  11 1.79241 6.30141
   1  -7  11 118.412 4.73340
   2  -7  11 220.218 5.73778
   3  -7  11 4.02421 5.39221
   4  -7  11 260.872 6.58277
   5  -7  11 287.976 6.24864
   6  -7  11 212.754 8.87935
   7  -7  11 291.025 10.5769
   8  -7  11 138.907 7.01402
   9  -7  11 0.00000 4.20364
  10  -7  11 132.931 11.5941
  -5  -6  11 30.4393 7.45210
  -4  -6  11 25.5656 7.76154
  -3  -6  11 148.851 6.83879
  -2  -6  11 4.66120 8.83382
  -1  -6  11 106.809 5.39025
   0  -6  11 183.498 4.64093
   1  -6  11 118.614 7.60667
   2  -6  11 185.340 5.87135
   3  -6  11 524.487 11.1531
   4  -6  11 35.9589 7.81536
   5  -6  11 599.720 10.9122
   6  -6  11 428.481 9.95289
   7  -6  11 139.244 8.42269
   8  -6  11 474.183 15.5209
   9  -6  11 136.286 10.4934
  10  -6  11 148.643 11.4727
  -6  -5  11 5.46502 10.5478
  -5  -5  11 4.08220 4.14660
  -4  -5  11 15.5451 4.00836
  -3  -5  11 51.2702 4.35475
  -2  -5  11 209.109 5.59864
  -1  -5  11 59.1014 2.92906
   0  -5  11 158.484 3.95807
   1  -5  11 917.632 12.6214
   2  -5  11 11.6497 2.55200
   3  -5  11 1486.06 19.2340
   4  -5  11 789.106 11.4037
   5  -5  11 58.2779 2.85025
   6  -5  11 585.454 11.0082
   7  -5  11 461.477 9.96762
   8  -5  11 165.193 7.47809
   9  -5  11 130.628 9.97205
  10  -5  11 113.342 10.6616
  -7  -4  11 31.2048 8.96334
  -6  -4  11 26.1989 4.07656
  -5  -4  11 54.3493 4.43699
  -4  -4  11 72.3948 5.40089
  -3  -4  11 9.97604 2.41898
  -2  -4  11 239.745 5.43015
  -1  -4  11 927.407 14.4170
   0  -4  11 41.5264 2.52541
   1  -4  11 1530.31 26.1097
   2  -4  11 1097.83 13.9573
   3  -4  11 233.733 4.87023
   4  -4  11 859.625 11.0970
   5  -4  11 868.916 11.6307
   6  -4  11 267.738 6.16511
   7  -4  11 213.328 7.46543
   8  -4  11 542.189 24.3966
   9  -4  11 219.518 9.31228
  10  -4  11 53.1645 9.82532
  -7  -3  11 60.0733 6.14646
  -6  -3  11 157.629 8.79356
  -5  -3  11 55.8428 8.39336
  -4  -3  11 195.543 8.40905
  -3  -3  11 496.739 11.7357
  -2  -3  11 34.2479 6.23045
  -1  -3  11 1794.55 28.5323
   0  -3  11 1388.92 18.2731
   1  -3  11 482.287 11.4175
   2  -3  11 2407.35 34.1923
   3  -3  11 2125.23 22.9473
   4  -3  11 824.838 18.1292
   5  -3  11 829.189 15.7651
   6  -3  11 745.495 14.3264
   7  -3  11 318.039 18.4837
   8  -3  11 95.0057 11.4816
   9  -3  11 108.274 8.91226
  10  -3  11 120.140 23.5771
  -8  -2  11 18.3083 6.93640
  -7  -2  11 6.08856 4.13383
  -6  -2  11 316.604 19.1824
  -5  -2  11 271.920 6.77089
  -4  -2  11 15.3464 3.14524
  -3  -2  11 1324.19 21.0949
  -2  -2  11 1032.23 16.2966
  -1  -2  11 384.902 8.76625
   0  -2  11 1212.93 13.6846
   1  -2  11 2559.98 24.6994
   2  -2  11 1864.77 27.9813
   3  -2  11 1504.33 20.0172
   4  -2  11 1065.11 12.1752
   5  -2  11 404.821 13.4107
   6  -2  11 83.2490 4.76999
   7  -2  11 375.493 7.62477
   8  -2  11 282.800 14.4569
   9  -2  11 43.3322 4.85317
  10  -2  11 197.369 16.2718
  -9  -1  11 1.95455 2.80065
  -8  -1  11 66.3094 6.87095
  -7  -1  11 163.267 8.53738
  -6  -1  11 78.4928 6.43730
  -5  -1  11 580.498 19.2969
  -4  -1  11 722.965 16.8984
  -3  -1  11 225.325 6.43896
  -2  -1  11 2255.90 36.2132
  -1  -1  11 2856.46 33.7084
   0  -1  11 441.313 6.45797
   1  -1  11 2139.75 23.3424
   2  -1  11 3697.22 37.2315
   3  -1  11 872.624 16.1579
   4  -1  11 322.395 7.16758
   5  -1  11 1103.69 18.9953
   6  -1  11 565.105 15.1638
   7  -1  11 17.1691 6.09549
   8  -1  11 102.894 9.12078
  -9   0  11 15.1965 2.70407
  -8   0  11 27.8228 3.27547
  -7   0  11 294.629 10.1786
  -6   0  11 423.463 12.4596
  -5   0  11 54.2972 3.87859
  -4   0  11 884.233 17.1925
  -3   0  11 2152.28 31.5324
  -2   0  11 1705.18 23.4126
  -1   0  11 2108.64 23.8654
   0   0  11 802.517 10.0361
   1   0  11 911.320 10.4246
   2   0  11 31.5048 1.27595
   3   0  11 2056.77 23.1565
   4   0  11 431.434 8.68734
   5   0  11 29.2690 2.32249
   6   0  11 388.791 8.27481
   7   0  11 163.010 7.83886
   8   0  11 41.0141 3.92875
   9   0  11 25.1261 4.89315
  -9   1  11 86.3075 8.09403
  -8   1  11 106.320 7.07660
  -7   1  11 204.069 11.2639
  -6   1  11 640.544 23.3226
  -5   1  11 941.057 25.8344
  -4   1  11 412.510 10.6654
  -3   1  11 1605.72 40.3565
  -2   1  11 3436.95 50.6185
  -1   1  11 911.918 12.0637
   0   1  11 582.087 8.31004
   1   1  11 3020.01 37.1729
   2   1  11 1002.94 13.9546
   3   1  11 60.9924 2.34741
   4   1  11 567.340 17.3633
   5   1  11 341.976 11.6162
   6   1  11 117.593 8.27495
   7   1  11 35.8952 8.74577
   8   1  11 41.2099 14.7467
 -10   2  11 44.0147 4.66626
  -9   2  11 25.4749 4.01421
  -8   2  11 389.766 12.7731
  -7   2  11 459.007 11.5230
  -6   2  11 255.181 10.3957
  -5   2  11 869.314 15.3904
  -4   2  11 1053.52 16.3429
  -3   2  11 1284.63 27.5931
  -2   2  11 40.7838 1.88171
  -1   2  11 3046.64 29.7629
   0   2  11 528.701 12.2218
   1   2  11 26.9635 1.57275
   2   2  11 404.663 7.73412
   3   2  11 455.446 10.2984
   4   2  11 59.2547 3.39059
   5   2  11 122.305 6.59123
   6   2  11 170.833 12.3140
   7   2  11 57.8752 4.87785
 -10   3  11 174.894 22.4142
  -9   3  11 102.978 6.04694
  -8   3  11 150.620 8.46541
  -7   3  11 187.547 6.85926
  -6   3  11 787.111 14.3127
  -5   3  11 623.427 14.0227
  -4   3  11 454.166 11.3306
  -3   3  11 2091.73 26.8781
  -2   3  11 821.395 22.8910
  -1   3  11 87.1593 3.60385
   0   3  11 1689.84 20.4245
   1   3  11 465.413 8.51132
   2   3  11 373.186 6.69312
   3   3  11 82.8147 3.70818
   4   3  11 194.960 10.1592
   5   3  11 73.0543 13.1554
   6   3  11 73.8330 10.8649
   7   3  11 108.559 18.7132
 -10   4  11 85.9276 9.37118
  -9   4  11 159.570 6.32653
  -8   4  11 517.579 14.9282
  -7   4  11 411.553 13.4060
  -6   4  11 91.8157 4.71450
  -5   4  11 1365.22 31.3199
  -4   4  11 467.604 11.4708
  -3   4  11 146.404 5.22017
  -2   4  11 430.812 8.55272
  -1   4  11 581.240 9.61010
   0   4  11 57.2487 3.01716
   1   4  11 105.850 3.74748
   2   4  11 186.686 5.23955
   3   4  11 16.1712 2.22669
   4   4  11 4.20274 3.25307
   5   4  11 38.7757 4.23375
   6   4  11 1.48370 6.91308
 -10   5  11 160.262 11.1607
  -9   5  11 228.272 9.12750
  -8   5  11 99.8012 5.81655
  -7   5  11 418.083 10.9836
  -6   5  11 512.718 13.1209
  -5   5  11 33.0299 2.69657
  -4   5  11 545.773 11.1376
  -3   5  11 424.741 11.2721
  -2   5  11 333.457 7.89920
  -1   5  11 148.734 4.68880
   0   5  11 341.747 7.28764
   1   5  11 37.5208 3.43624
   2   5  11 108.847 4.50119
   3   5  11 40.6370 5.03109
   4   5  11 34.1245 4.58626
   5   5  11 60.1361 9.92397
 -10   6  11 87.2251 11.6638
  -9   6  11 148.744 7.70531
  -8   6  11 258.697 10.4725
  -7   6  11 30.6513 5.29712
  -6   6  11 417.929 9.28700
  -5   6  11 456.602 9.78516
  -4   6  11 57.7484 6.13014
  -3   6  11 93.0273 4.53492
  -2   6  11 178.313 4.87826
  -1   6  11 66.9516 5.03022
   0   6  11 49.3667 5.29703
   1   6  11 26.4339 4.77623
   2   6  11 36.9187 6.55806
   3   6  11 46.0964 6.65774
   4   6  11 43.4092 11.9726
  -9   7  11 19.3538 5.87549
  -8   7  11 114.331 6.22614
  -7   7  11 187.336 6.98559
  -6   7  11 101.395 7.77782
  -5   7  11 129.647 5.52315
  -4   7  11 86.1863 4.27278
  -3   7  11 48.5545 5.77426
  -2   7  11 121.037 6.74808
  -1   7  11 78.0264 4.90036
   0   7  11 70.7965 5.89920
   1   7  11 49.3961 4.79219
   2   7  11 11.3336 5.69727
  -8   8  11 34.9832 5.36668
  -7   8  11 43.0095 4.57146
  -6   8  11 181.690 7.65499
  -5   8  11 48.0436 5.25742
  -4   8  11 0.00000 5.11226
  -3   8  11 18.7592 5.13158
  -2   8  11 4.72169 5.39260
  -1   8  11 54.5085 7.58045
   0   8  11 11.6335 5.94418
   1   8  11 62.8771 8.04015
  -9   9  11 35.9622 8.47273
  -7   9  11 55.2107 5.64349
  -6   9  11 37.0208 4.17140
  -5   9  11 46.5032 4.51484
  -4   9  11 24.1372 4.60774
  -3   9  11 26.7234 4.69261
  -2   9  11 20.8241 6.08597
  -1   9  11 36.4281 7.29324
  -7  10  11 61.9477 9.28498
  -6  10  11 25.8944 8.45536
  -5  10  11 41.3265 8.44393
  -4  10  11 19.1858 8.10986
   5 -11  12 125.694 10.3632
   6 -11  12 286.208 13.9424
   1 -10  12 339.748 28.2166
   2 -10  12 88.2677 9.42442
   3 -10  12 71.9120 9.07065
   4 -10  12 503.634 33.9473
   5 -10  12 63.6480 8.44113
   6 -10  12 83.9379 10.6799
   7 -10  12 610.770 20.3257
  -1  -9  12 229.998 14.9218
   0  -9  12 103.368 7.08314
   1  -9  12 59.0559 8.01440
   2  -9  12 837.793 19.4679
   3  -9  12 12.6282 4.35750
   4  -9  12 269.588 10.2166
   5  -9  12 726.466 15.8869
   6  -9  12 68.8237 4.66838
   7  -9  12 373.291 10.2610
   8  -9  12 312.442 13.2177
   9  -9  12 34.9964 5.54441
  -2  -8  12 68.9047 11.5758
  -1  -8  12 108.282 12.8278
   0  -8  12 666.048 21.2796
   1  -8  12 56.8808 6.15601
   2  -8  12 73.4721 7.38105
   3  -8  12 1061.80 24.6155
   4  -8  12 117.468 6.64675
   5  -8  12 522.853 15.9662
   6  -8  12 1103.87 21.2315
   7  -8  12 87.5680 7.00827
   8  -8  12 670.596 37.4362
   9  -8  12 213.686 14.0629
  10  -8  12 69.9833 15.8164
  -3  -7  12 55.3137 6.55984
  -2  -7  12 823.671 18.6068
  -1  -7  12 56.5129 3.94973
   0  -7  12 254.176 11.6679
   1  -7  12 1366.78 17.9462
   2  -7  12 122.936 4.51802
   3  -7  12 1077.95 16.5016
   4  -7  12 891.292 13.9611
   5  -7  12 52.9927 3.18980
   6  -7  12 1371.11 23.4136
   7  -7  12 577.442 12.6092
   8  -7  12 175.433 10.0097
   9  -7  12 708.364 21.2584
  10  -7  12 80.3337 8.99872
  -5  -6  12 131.378 17.3185
  -4  -6  12 531.827 17.3233
  -3  -6  12 12.9601 3.88569
  -2  -6  12 112.258 7.68546
  -1  -6  12 1361.18 22.6004
   0  -6  12 142.824 4.60281
   1  -6  12 894.775 14.1569
   2  -6  12 1811.83 28.9715
   3  -6  12 227.545 5.27594
   4  -6  12 1252.03 17.5838
   5  -6  12 790.594 12.6556
   6  -6  12 74.8843 4.05124
   7  -6  12 1189.42 24.8402
   8  -6  12 217.074 10.8674
   9  -6  12 193.177 11.3873
  10  -6  12 511.778 19.8439
  -6  -5  12 311.357 12.3306
  -5  -5  12 66.2159 6.08579
  -4  -5  12 241.911 9.77912
  -3  -5  12 1152.65 26.0962
  -2  -5  12 149.276 4.85824
  -1  -5  12 961.382 16.6977
   0  -5  12 1233.08 19.6948
   1  -5  12 182.024 4.37970
   2  -5  12 1941.19 30.4787
   3  -5  12 913.760 14.2466
   4  -5  12 412.980 7.37643
   5  -5  12 2373.51 36.9996
   6  -5  12 236.023 7.04906
   7  -5  12 138.010 5.02295
   8  -5  12 725.310 30.3442
   9  -5  12 40.2462 5.72573
  10  -5  12 46.7176 13.2488
  -6  -4  12 80.3880 6.74068
  -5  -4  12 706.447 19.2237
  -4  -4  12 61.4443 7.09903
  -3  -4  12 1208.09 22.2788
  -2  -4  12 2066.92 30.3714
  -1  -4  12 244.083 6.05102
   0  -4  12 1935.17 34.7324
   1  -4  12 1565.69 27.1517
   2  -4  12 426.047 7.34181
   3  -4  12 2354.39 32.0438
   4  -4  12 250.686 6.03940
   5  -4  12 445.789 7.27456
   6  -4  12 1685.12 29.7070
   7  -4  12 89.1068 5.84463
   8  -4  12 165.334 10.5421
   9  -4  12 484.371 17.9644
  -7  -3  12 557.348 29.9474
  -6  -3  12 95.3169 6.83556
  -5  -3  12 593.139 20.9324
  -4  -3  12 995.900 20.4604
  -3  -3  12 218.909 7.01897
  -2  -3  12 1685.96 30.5529
  -1  -3  12 1484.93 22.0070
   0  -3  12 543.827 15.4824
   1  -3  12 3645.28 52.0761
   2  -3  12 313.960 6.53805
   3  -3  12 271.541 7.97484
   4  -3  12 2327.80 28.8999
   5  -3  12 22.8077 3.00810
   6  -3  12 427.293 8.90225
   7  -3  12 880.983 15.8889
   8  -3  12 11.0907 6.32836
   9  -3  12 398.990 17.3463
  10  -3  12 405.120 20.9759
  -8  -2  12 27.6497 7.55246
  -7  -2  12 361.074 12.2009
  -6  -2  12 1264.41 30.8819
  -5  -2  12 62.2311 4.66041
  -4  -2  12 1293.58 19.8544
  -3  -2  12 960.168 17.4763
  -2  -2  12 425.749 10.5043
  -1  -2  12 3375.02 46.2069
   0  -2  12 104.258 2.35701
   1  -2  12 474.618 10.7610
   2  -2  12 2538.36 26.6558
   3  -2  12 112.251 2.71155
   4  -2  12 1102.34 14.8530
   5  -2  12 1383.46 19.4831
   6  -2  12 126.259 4.23879
   7  -2  12 371.422 10.3766
   8  -2  12 654.974 16.8856
   9  -2  12 16.0327 3.82990
  -8  -1  12 377.812 18.0773
  -7  -1  12 127.775 9.90720
  -6  -1  12 1176.05 34.6468
  -5  -1  12 788.036 27.8220
  -4  -1  12 407.812 12.8943
  -3  -1  12 2544.33 40.3085
  -2  -1  12 345.696 7.06825
  -1  -1  12 384.254 8.04707
   0  -1  12 2858.63 39.0503
   1  -1  12 106.763 3.00939
   2  -1  12 1036.65 14.5680
   3  -1  12 1915.04 26.8671
   4  -1  12 164.513 3.96400
   5  -1  12 1248.19 22.5156
   6  -1  12 789.083 16.8996
   7  -1  12 79.4152 8.25487
   8  -1  12 525.500 19.5746
  -9   0  12 45.5329 3.61034
  -8   0  12 701.902 17.6119
  -7   0  12 626.348 15.5628
  -6   0  12 71.7331 3.96671
  -5   0  12 2269.11 53.5706
  -4   0  12 255.994 5.60879
  -3   0  12 216.795 4.72123
  -2   0  12 2561.24 39.7729
  -1   0  12 95.0486 2.89573
   0   0  12 3666.93 42.5850
   1   0  12 3312.59 36.9487
   2   0  12 127.374 3.07083
   3   0  12 1244.89 15.4523
   4   0  12 1019.95 16.0857
   5   0  12 63.3955 2.78363
   6   0  12 801.963 17.4434
   7   0  12 680.541 19.5448
   8   0  12 59.9808 5.16525
  -9   1  12 204.469 13.2332
  -8   1  12 148.292 8.47544
  -7   1  12 1342.68 39.8074
  -6   1  12 300.474 14.7038
  -5   1  12 425.848 11.9142
  -4   1  12 2067.73 47.9210
  -3   1  12 93.2559 5.07977
  -2   1  12 1051.49 21.2412
  -1   1  12 3393.07 48.1675
   0   1  12 65.8163 2.34150
   1   1  12 1973.37 27.1973
   2   1  12 1374.69 23.2498
   3   1  12 51.3367 2.40994
   4   1  12 1847.07 38.8308
   5   1  12 356.925 13.5920
   6   1  12 132.209 11.8297
   7   1  12 544.418 27.5853
   8   1  12 204.655 16.7842
 -10   2  12 16.1144 4.15147
  -9   2  12 704.515 18.5659
  -8   2  12 282.849 9.10243
  -7   2  12 109.537 5.32691
  -6   2  12 1469.32 22.3496
  -5   2  12 98.8267 4.70342
  -4   2  12 1043.27 15.0229
  -3   2  12 2113.97 25.8872
  -2   2  12 138.358 5.78068
  -1   2  12 1941.22 23.8122
   0   2  12 560.543 7.43408
   1   2  12 51.8022 2.13689
   2   2  12 2298.65 23.7685
   3   2  12 1350.26 18.5880
   4   2  12 65.2462 3.71320
   5   2  12 629.302 16.4593
   6   2  12 614.814 16.1794
   7   2  12 96.6175 7.95135
 -10   3  12 142.564 14.0193
  -9   3  12 187.817 7.23031
  -8   3  12 868.652 30.8981
  -7   3  12 60.5927 4.11806
  -6   3  12 386.314 8.61677
  -5   3  12 1431.91 19.0601
  -4   3  12 68.2827 4.36571
  -3   3  12 1262.10 17.3120
  -2   3  12 1360.55 18.5889
  -1   3  12 3.22992 2.26564
   0   3  12 2392.39 28.5278
   1   3  12 979.792 12.6254
   2   3  12 87.6845 3.24814
   3   3  12 1059.85 16.1839
   4   3  12 280.944 11.8995
   5   3  12 195.820 13.5334
   6   3  12 319.294 14.6864
 -10   4  12 546.154 36.0716
  -9   4  12 46.7193 4.42792
  -8   4  12 144.347 6.04990
  -7   4  12 985.627 25.3249
  -6   4  12 163.984 7.26079
  -5   4  12 1366.58 24.4667
  -4   4  12 1036.95 18.2551
  -3   4  12 0.76175 4.39451
  -2   4  12 2411.35 30.4510
  -1   4  12 974.385 16.8882
   0   4  12 195.454 7.59418
   1   4  12 1179.90 17.0891
   2   4  12 770.770 16.0487
   3   4  12 255.568 9.95205
   4   4  12 644.336 16.8949
   5   4  12 428.159 13.5875
 -10   5  12 99.8564 13.4087
  -9   5  12 412.784 12.7652
  -8   5  12 0.00000 4.18812
  -7   5  12 381.952 13.1567
  -6   5  12 716.234 15.9100
  -5   5  12 87.4493 6.81588
  -4   5  12 1728.71 28.4963
  -3   5  12 1481.53 24.8941
  -2   5  12 141.292 5.57259
  -1   5  12 1144.75 15.6387
   0   5  12 546.423 12.5514
   1   5  12 197.802 8.07534
   2   5  12 848.650 16.7409
   3   5  12 420.347 13.9877
   4   5  12 207.524 9.75699
   5   5  12 124.502 10.9175
 -10   6  12 45.8228 12.8757
  -9   6  12 357.514 11.5060
  -8   6  12 711.916 18.3646
  -7   6  12 64.7362 4.89188
  -6   6  12 859.706 32.1106
  -5   6  12 438.729 11.1231
  -4   6  12 62.7176 4.36895
  -3   6  12 1160.59 23.5279
  -2   6  12 665.046 14.2844
  -1   6  12 153.196 5.19121
   0   6  12 756.701 18.5117
   1   6  12 619.705 17.8855
   2   6  12 147.888 7.21415
   3   6  12 162.725 12.0927
 -10   7  12 338.564 18.5344
  -9   7  12 18.2723 4.25344
  -8   7  12 542.020 13.6436
  -7   7  12 717.374 15.6332
  -6   7  12 142.387 7.89665
  -5   7  12 687.677 22.4391
  -4   7  12 279.934 9.33661
  -3   7  12 126.346 6.23187
  -2   7  12 800.306 21.9807
  -1   7  12 712.568 17.8344
   0   7  12 187.285 6.80239
   1   7  12 244.246 9.46005
   2   7  12 314.623 12.1033
  -8   8  12 57.7681 8.44697
  -7   8  12 650.185 17.9075
  -6   8  12 644.049 22.1986
  -5   8  12 208.339 10.2152
  -4   8  12 713.418 21.9138
  -3   8  12 492.726 18.0383
  -2   8  12 188.448 9.43975
  -1   8  12 199.905 12.0920
   0   8  12 375.440 21.0189
   1   8  12 110.032 8.04995
  -8   9  12 135.087 12.8646
  -7   9  12 79.0953 6.67720
  -6   9  12 292.424 9.45232
  -5   9  12 422.838 13.7244
  -4   9  12 228.896 8.82193
  -3   9  12 222.246 9.73150
  -2   9  12 353.244 18.6764
  -5  10  12 86.5351 24.4660
   2 -10  13 18.8690 5.86702
   3 -10  13 111.544 21.8481
   4 -10  13 45.8742 14.9001
   5 -10  13 94.1826 12.2286
   7 -10  13 4.33421 10.0937
   1  -9  13 304.455 10.8615
   2  -9  13 44.3857 5.13541
   3  -9  13 48.2566 4.96210
   4  -9  13 357.626 10.0655
   5  -9  13 22.8547 3.28934
   6  -9  13 1.51290 3.69584
   7  -9  13 197.677 8.00850
   8  -9  13 37.2493 5.65106
   9  -9  13 8.40823 5.00352
  -1  -8  13 318.750 15.3260
   0  -8  13 53.3641 6.94999
   1  -8  13 65.5351 7.71390
   2  -8  13 409.363 17.4269
   3  -8  13 0.00000 5.01383
   4  -8  13 143.931 6.96580
   5  -8  13 484.914 12.4334
   6  -8  13 70.6138 5.42100
   7  -8  13 83.1082 9.54905
   8  -8  13 204.111 12.6205
   9  -8  13 56.2750 12.7242
  -3  -7  13 129.571 19.9446
  -2  -7  13 49.5466 6.56958
  -1  -7  13 54.9023 4.91348
   0  -7  13 474.629 16.7463
   1  -7  13 35.1733 4.82235
   2  -7  13 56.6062 2.81008
   3  -7  13 1070.42 20.6840
   4  -7  13 89.3638 3.77411
   5  -7  13 89.1065 3.95541
   6  -7  13 143.653 10.2960
   7  -7  13 90.4177 5.43579
   8  -7  13 39.2386 4.91181
   9  -7  13 49.9857 10.8604
  10  -7  13 12.4162 7.85741
  -4  -6  13 37.2140 8.85542
  -3  -6  13 52.1268 6.64795
  -2  -6  13 473.028 14.0183
  -1  -6  13 27.0160 4.87712
   0  -6  13 204.418 5.96812
   1  -6  13 1020.14 21.9834
   2  -6  13 146.969 6.88153
   3  -6  13 173.405 5.06340
   4  -6  13 481.463 15.0555
   5  -6  13 214.981 6.55790
   6  -6  13 96.0733 4.60532
   7  -6  13 104.472 9.91314
   8  -6  13 80.9325 11.3365
   9  -6  13 11.0519 5.72745
  10  -6  13 57.7394 17.7697
  -5  -5  13 92.2426 11.1498
  -4  -5  13 356.862 14.0381
  -3  -5  13 5.39280 4.51084
  -2  -5  13 58.7276 3.68591
  -1  -5  13 1024.88 17.6661
   0  -5  13 89.7489 3.75743
   1  -5  13 181.426 5.66044
   2  -5  13 479.781 10.0780
   3  -5  13 841.571 15.4082
   4  -5  13 85.8394 3.66567
   5  -5  13 286.628 7.87041
   6  -5  13 77.5515 4.96819
   7  -5  13 11.1820 3.97124
   8  -5  13 48.5303 6.87348
   9  -5  13 29.7017 5.02998
  10  -5  13 23.0968 9.74658
  -6  -4  13 212.439 14.9142
  -5  -4  13 16.9289 4.11290
  -4  -4  13 232.307 9.83825
  -3  -4  13 980.819 19.1143
  -2  -4  13 136.644 4.78970
  -1  -4  13 76.4049 6.18428
   0  -4  13 882.632 15.0627
   1  -4  13 594.629 9.54362
   2  -4  13 67.9560 4.16456
   3  -4  13 428.225 8.31921
   4  -4  13 243.119 5.04458
   5  -4  13 121.459 3.53253
   6  -4  13 117.764 4.25383
   7  -4  13 6.19530 2.97264
   8  -4  13 23.0709 5.85208
   9  -4  13 29.4686 4.54854
  10  -4  13 0.00000 5.26830
  -7  -3  13 0.00000 8.66153
  -6  -3  13 12.5888 4.72282
  -5  -3  13 461.659 19.2588
  -4  -3  13 107.428 4.18706
  -3  -3  13 209.863 6.81019
  -2  -3  13 479.361 13.6778
  -1  -3  13 701.048 12.8971
   0  -3  13 281.169 8.40053
   1  -3  13 490.504 13.2092
   2  -3  13 241.738 6.99636
   3  -3  13 159.606 11.4359
   4  -3  13 206.999 7.32073
   5  -3  13 138.481 5.02871
   6  -3  13 141.473 8.70395
   7  -3  13 21.0832 5.89456
   8  -3  13 0.29316 6.18070
   9  -3  13 27.5860 7.66271
  -8  -2  13 36.1785 13.0530
  -7  -2  13 210.987 11.5069
  -6  -2  13 33.2396 4.55514
  -5  -2  13 96.3463 4.63908
  -4  -2  13 579.211 14.9936
  -3  -2  13 738.034 12.6728
  -2  -2  13 103.221 5.88412
  -1  -2  13 410.062 9.02895
   0  -2  13 681.744 10.5511
   1  -2  13 397.636 10.2300
   2  -2  13 26.3850 2.74489
   3  -2  13 144.783 2.87215
   4  -2  13 130.907 8.89270
   5  -2  13 336.985 10.8101
   6  -2  13 16.7771 2.32039
   7  -2  13 28.5557 5.61683
   8  -2  13 92.2156 8.21807
   9  -2  13 6.26471 4.40083
  -8  -1  13 45.8209 5.90354
  -6  -1  13 141.683 12.9490
  -5  -1  13 241.634 10.4572
  -4  -1  13 74.6309 4.69908
  -3  -1  13 466.674 12.4991
  -2  -1  13 202.376 5.11041
  -1  -1  13 316.823 8.54083
   0  -1  13 709.937 12.0530
   1  -1  13 126.929 3.92520
   2  -1  13 225.736 5.62118
   3  -1  13 185.191 6.22117
   4  -1  13 22.0589 2.73612
   5  -1  13 208.960 8.66406
   6  -1  13 102.858 6.72591
   7  -1  13 139.412 11.3539
   8  -1  13 43.9715 8.23481
  -9   0  13 26.6857 3.36632
  -8   0  13 222.920 9.08974
  -7   0  13 97.1659 5.30282
  -6   0  13 99.9934 4.95127
  -5   0  13 280.005 8.39109
  -4   0  13 259.539 6.01426
  -3   0  13 99.3884 3.44038
  -2   0  13 7.97312 1.26523
  -1   0  13 120.916 3.60433
   0   0  13 26.1743 1.78776
   1   0  13 691.445 10.5903
   2   0  13 369.269 6.15002
   3   0  13 166.379 3.87974
   4   0  13 85.2816 3.42075
   5   0  13 26.5489 2.33159
   6   0  13 47.7064 3.23382
   7   0  13 152.215 7.42693
   8   0  13 10.3516 4.61335
  -9   1  13 67.2749 6.11796
  -8   1  13 45.5225 5.53254
  -7   1  13 64.1934 5.63460
  -6   1  13 60.1275 7.02368
  -5   1  13 75.6579 7.04594
  -4   1  13 196.827 8.33628
  -3   1  13 165.706 6.24358
  -2   1  13 327.707 10.5773
  -1   1  13 717.093 16.9263
   0   1  13 9.80254 1.93260
   1   1  13 278.005 5.63553
   2   1  13 407.227 9.38215
   3   1  13 168.157 5.60114
   4   1  13 188.869 7.19978
   5   1  13 132.705 6.59024
   6   1  13 69.6922 13.7731
   7   1  13 123.660 13.4489
   8   1  13 14.2305 14.3581
  -9   2  13 84.1740 5.67067
  -8   2  13 111.056 5.87088
  -7   2  13 13.1570 4.13508
  -6   2  13 146.468 5.37032
  -5   2  13 141.209 4.96109
  -4   2  13 33.6014 3.23283
  -3   2  13 189.706 5.38058
  -2   2  13 437.118 11.2916
  -1   2  13 340.098 7.94970
   0   2  13 18.6241 3.49419
   1   2  13 155.323 5.36275
   2   2  13 503.137 9.04480
   3   2  13 464.432 12.1716
   4   2  13 104.358 5.51512
   5   2  13 49.5823 5.22565
   6   2  13 254.549 12.0601
   7   2  13 19.0627 5.85549
 -10   3  13 66.3177 12.0708
  -9   3  13 62.8549 9.45799
  -8   3  13 42.0071 6.87911
  -7   3  13 15.5834 5.18390
  -6   3  13 86.4235 3.73130
  -5   3  13 233.034 5.63753
  -4   3  13 156.399 6.84608
  -3   3  13 176.709 5.17032
  -2   3  13 454.098 7.64789
  -1   3  13 167.398 8.42568
   0   3  13 112.971 5.47742
   1   3  13 543.045 10.9715
   2   3  13 239.831 8.83078
   3   3  13 341.067 9.24007
   4   3  13 184.693 17.7563
   5   3  13 54.4118 9.81439
   6   3  13 100.371 9.66585
 -10   4  13 59.2948 11.8359
  -9   4  13 37.8813 3.71359
  -8   4  13 18.2487 3.81274
  -7   4  13 34.3238 5.43472
  -6   4  13 24.7968 3.19957
  -5   4  13 134.193 5.20379
  -4   4  13 119.475 6.90232
  -3   4  13 170.629 4.91650
  -2   4  13 510.459 8.19226
  -1   4  13 411.928 9.93324
   0   4  13 281.861 6.51942
   1   4  13 436.739 8.88680
   2   4  13 341.433 9.16421
   3   4  13 0.00000 3.89575
   4   4  13 61.5300 6.82092
   5   4  13 180.071 9.55876
  -9   5  13 5.55454 3.34756
  -8   5  13 15.5293 3.48279
  -7   5  13 35.9867 4.10211
  -6   5  13 73.4748 4.66262
  -5   5  13 25.3917 3.18119
  -4   5  13 246.051 7.89188
  -3   5  13 545.698 15.1057
  -2   5  13 171.977 4.63149
  -1   5  13 411.985 8.06936
   0   5  13 172.975 6.33547
   1   5  13 31.6826 4.68543
   2   5  13 136.743 5.69737
   3   5  13 244.776 13.9597
   4   5  13 9.80734 5.06375
 -10   6  13 13.0552 7.57829
  -9   6  13 31.2941 4.80011
  -8   6  13 182.552 13.6874
  -7   6  13 118.735 7.23952
  -6   6  13 68.7024 6.40188
  -5   6  13 179.810 14.3234
  -4   6  13 134.925 6.23565
  -3   6  13 354.512 11.5426
  -2   6  13 382.245 12.6992
  -1   6  13 12.3133 3.71920
   0   6  13 254.637 9.03079
   1   6  13 417.430 12.9547
   2   6  13 11.6562 4.45427
   3   6  13 3.84240 8.33778
  -9   7  13 10.2660 13.0927
  -8   7  13 56.4675 5.25421
  -7   7  13 211.042 11.1849
  -6   7  13 123.740 7.39746
  -5   7  13 75.9226 8.48333
  -4   7  13 311.353 15.0062
  -3   7  13 0.00000 5.41761
  -2   7  13 136.434 7.27888
  -1   7  13 386.411 13.7122
   0   7  13 0.00000 5.22421
   1   7  13 63.9048 6.52911
   2   7  13 80.1582 8.04694
  -9   8  13 64.1623 14.4010
  -7   8  13 119.881 7.89775
  -6   8  13 205.399 8.65308
  -5   8  13 19.9312 4.93585
  -4   8  13 60.4063 6.16131
  -3   8  13 240.062 10.9068
  -2   8  13 0.24127 9.20954
  -1   8  13 70.1580 13.3666
   0   8  13 71.9501 9.47796
  -8   9  13 81.0734 9.39223
  -7   9  13 5.59252 5.86128
  -6   9  13 111.831 8.67460
  -5   9  13 140.502 7.33712
  -4   9  13 18.5072 4.97646
  -3   9  13 10.3312 7.66401
  -2   9  13 38.0725 9.13851
   2 -10  14 132.344 9.83230
   3 -10  14 351.530 31.5033
   4 -10  14 238.010 28.0823
   6 -10  14 258.709 24.7333
   0  -9  14 8.27694 6.62446
   1  -9  14 493.924 19.4615
   2  -9  14 215.151 8.90296
   3  -9  14 225.204 9.65539
   4  -9  14 326.566 15.0776
   5  -9  14 178.643 6.46420
   6  -9  14 215.700 7.36175
   7  -9  14 222.807 11.9292
   8  -9  14 165.018 10.1908
   9  -9  14 18.6123 14.0865
  -2  -8  14 88.8149 9.59025
  -1  -8  14 567.763 24.6460
   0  -8  14 433.368 17.2270
   1  -8  14 212.248 10.9353
   2  -8  14 321.862 15.9965
   3  -8  14 275.202 10.2074
   4  -8  14 66.2755 5.03079
   5  -8  14 283.865 14.1715
   6  -8  14 269.781 11.7647
   8  -8  14 248.808 19.5010
   9  -8  14 214.441 20.6801
  -2  -7  14 248.139 9.66318
  -1  -7  14 185.995 8.75279
   0  -7  14 372.058 12.1196
   1  -7  14 203.231 10.8589
   2  -7  14 114.149 5.29918
   3  -7  14 239.184 7.56525
   4  -7  14 472.716 8.18362
   5  -7  14 263.271 7.60716
   6  -7  14 144.554 7.24260
   7  -7  14 265.362 8.48696
   8  -7  14 108.898 7.07236
   9  -7  14 403.343 14.9254
  10  -7  14 18.9350 9.74743
  -4  -6  14 196.625 14.8521
  -3  -6  14 229.491 10.1795
  -2  -6  14 340.179 10.8647
  -1  -6  14 192.389 6.54361
   0  -6  14 35.0492 4.78042
   1  -6  14 229.708 7.02664
   2  -6  14 687.580 16.8730
   3  -6  14 202.587 6.26847
   4  -6  14 459.793 11.2808
   5  -6  14 722.059 13.7918
   6  -6  14 247.020 7.35837
   7  -6  14 370.521 12.7747
   8  -6  14 386.247 20.8768
   9  -6  14 109.855 9.33691
  10  -6  14 381.602 33.6256
  -5  -5  14 85.8399 10.1144
  -4  -5  14 351.219 15.0076
  -3  -5  14 325.500 9.20153
  -2  -5  14 142.924 8.41645
  -1  -5  14 341.484 9.50996
   0  -5  14 788.538 14.6480
   1  -5  14 501.306 13.2565
   2  -5  14 335.620 9.26835
   3  -5  14 705.459 10.7193
   4  -5  14 299.345 10.7738
   5  -5  14 571.997 12.5916
   6  -5  14 810.911 16.7860
   7  -5  14 322.144 13.9059
   8  -5  14 650.797 30.9405
   9  -5  14 159.743 14.5975
  10  -5  14 132.632 9.37858
  -6  -4  14 336.260 21.6295
  -5  -4  14 190.290 7.13071
  -4  -4  14 79.8031 5.53642
  -3  -4  14 194.564 8.83199
  -2  -4  14 658.345 12.5627
  -1  -4  14 442.726 11.5210
   0  -4  14 386.316 9.19193
   1  -4  14 1297.28 16.0616
   2  -4  14 374.605 12.1413
   3  -4  14 791.115 13.9945
   4  -4  14 1463.80 19.1630
   5  -4  14 164.318 7.26180
   6  -4  14 828.748 16.9000
   7  -4  14 677.169 18.1363
   8  -4  14 381.554 19.3204
   9  -4  14 562.735 19.6513
  -6  -3  14 205.218 9.29870
  -5  -3  14 250.864 9.61257
  -4  -3  14 511.685 15.4790
  -3  -3  14 192.623 5.92196
  -2  -3  14 384.939 9.82357
  -1  -3  14 1165.65 18.6662
   0  -3  14 437.358 10.8520
   1  -3  14 681.287 12.4348
   2  -3  14 1914.03 49.5941
   3  -3  14 825.808 14.8821
   4  -3  14 1062.73 16.6435
   5  -3  14 866.625 19.7071
   6  -3  14 212.777 7.17712
   7  -3  14 799.631 19.2628
   8  -3  14 169.526 10.9025
   9  -3  14 123.171 12.4261
  -7  -2  14 250.059 12.3548
  -6  -2  14 220.764 8.91747
  -5  -2  14 263.439 7.70832
  -4  -2  14 407.496 8.21601
  -3  -2  14 779.215 14.8150
  -2  -2  14 345.633 6.34967
  -1  -2  14 670.357 9.50459
   0  -2  14 2774.42 29.5240
   1  -2  14 605.230 9.41009
   2  -2  14 825.495 12.1710
   3  -2  14 1130.36 15.4502
   4  -2  14 277.374 6.33934
   5  -2  14 1854.40 25.6685
   6  -2  14 394.215 8.51332
   7  -2  14 239.729 8.29128
   8  -2  14 750.175 18.8192
   9  -2  14 87.8288 13.0401
  -8  -1  14 167.514 12.6518
  -7  -1  14 130.977 17.1270
  -5  -1  14 683.361 18.6434
  -4  -1  14 245.286 10.5844
  -3  -1  14 738.863 20.1072
  -2  -1  14 1961.09 38.0913
  -1  -1  14 713.183 17.3029
   0  -1  14 1637.77 32.0340
   1  -1  14 1511.38 27.4468
   2  -1  14 591.543 9.32565
   3  -1  14 1532.33 27.0913
   4  -1  14 539.448 10.6658
   5  -1  14 376.899 10.7678
   6  -1  14 974.274 26.6527
   7  -1  14 153.294 11.4082
   8  -1  14 170.429 17.3564
  -9   0  14 71.2213 4.67218
  -8   0  14 256.289 10.0836
  -7   0  14 281.436 12.9855
  -6   0  14 262.787 9.18593
  -5   0  14 542.624 9.82726
  -4   0  14 1475.43 23.1392
  -3   0  14 824.589 15.5619
  -2   0  14 814.883 13.8646
  -1   0  14 1491.40 22.2320
   0   0  14 26.0249 2.06029
   1   0  14 2149.30 26.5955
   2   0  14 1046.48 13.3546
   3   0  14 438.662 7.24484
   4   0  14 1740.19 26.2675
   5   0  14 29.9931 2.41410
   6   0  14 401.985 10.7681
   7   0  14 581.078 16.7403
   8   0  14 7.58881 5.57244
  -9   1  14 233.900 9.55904
  -8   1  14 83.6019 12.1761
  -7   1  14 299.315 14.3574
  -6   1  14 866.127 34.3117
  -5   1  14 176.599 12.3456
  -4   1  14 1137.25 31.2283
  -3   1  14 1150.53 28.7447
  -2   1  14 467.209 11.0079
  -1   1  14 2189.37 34.7839
   0   1  14 742.640 17.7464
   1   1  14 692.524 14.1030
   2   1  14 1568.43 28.0212
   3   1  14 172.502 5.82983
   4   1  14 527.178 15.3154
   5   1  14 969.769 27.7224
   6   1  14 48.5421 13.2847
   7   1  14 198.771 23.3922
  -9   2  14 371.645 11.0385
  -8   2  14 366.857 10.6531
  -7   2  14 361.154 11.0120
  -6   2  14 955.205 16.6941
  -5   2  14 952.319 16.1541
  -4   2  14 233.093 5.57428
  -3   2  14 1417.53 22.3938
  -2   2  14 1038.89 13.5476
  -1   2  14 672.790 9.11598
   0   2  14 2460.35 32.1122
   1   2  14 0.00000 5.16717
   2   2  14 490.722 8.21904
   3   2  14 1344.80 19.5643
   4   2  14 90.9650 7.67041
   5   2  14 692.005 19.2378
   6   2  14 331.986 11.1101
   7   2  14 25.1009 6.53082
  -9   3  14 88.7176 9.73021
  -8   3  14 658.559 21.5950
  -7   3  14 839.213 28.0804
  -6   3  14 205.650 6.75800
  -5   3  14 1693.59 25.0055
  -4   3  14 548.482 10.0827
  -3   3  14 417.972 7.40082
  -2   3  14 1731.76 25.1132
  -1   3  14 69.9791 5.49678
   0   3  14 934.137 15.0516
   1   3  14 1496.27 25.1603
   2   3  14 42.4344 4.23644
   3   3  14 780.636 14.8988
   4   3  14 611.284 17.2081
   5   3  14 7.28450 8.19068
   6   3  14 330.638 18.1128
 -10   4  14 407.763 37.0929
  -9   4  14 235.466 9.57956
  -8   4  14 261.076 10.7136
  -7   4  14 751.031 20.7900
  -6   4  14 397.170 10.8886
  -5   4  14 479.145 11.7867
  -4   4  14 1815.94 32.3162
  -3   4  14 204.031 4.94372
  -2   4  14 459.989 9.11785
  -1   4  14 1538.89 21.3340
   0   4  14 18.9573 2.52855
   1   4  14 1201.57 21.1890
   2   4  14 708.085 18.3918
   3   4  14 84.7893 4.48582
   4   4  14 757.412 23.2063
   5   4  14 169.901 13.0580
 -10   5  14 172.064 11.6095
  -9   5  14 611.290 24.2654
  -8   5  14 221.993 8.63200
  -7   5  14 226.206 8.42582
  -6   5  14 959.197 32.5438
  -5   5  14 23.5892 3.32793
  -4   5  14 427.751 11.4433
  -3   5  14 1333.35 26.1652
  -2   5  14 48.1103 3.51372
  -1   5  14 1279.00 21.6054
   0   5  14 693.631 12.2368
   1   5  14 45.8605 4.23555
   2   5  14 570.248 17.4431
   3   5  14 312.148 11.2815
   4   5  14 0.00000 9.02514
  -9   6  14 139.632 12.1346
  -8   6  14 841.672 24.2797
  -7   6  14 174.157 6.94776
  -6   6  14 420.878 11.6185
  -5   6  14 943.890 29.0396
  -4   6  14 29.9500 6.73541
  -3   6  14 808.200 23.2950
  -2   6  14 695.321 14.2413
  -1   6  14 41.0503 4.39497
   0   6  14 867.144 16.8999
   1   6  14 287.818 10.1254
   2   6  14 8.42050 5.44178
   3   6  14 697.875 27.9528
  -8   7  14 162.122 8.09461
  -7   7  14 667.236 16.4630
  -6   7  14 20.0951 4.53893
  -5   7  14 748.340 18.2994
  -4   7  14 710.410 25.1117
  -3   7  14 90.2456 6.67066
  -2   7  14 581.379 13.9445
  -1   7  14 278.608 8.98644
   0   7  14 1.15805 3.85524
   1   7  14 624.103 21.3259
  -8   8  14 6.14169 7.00421
  -7   8  14 201.711 12.5536
  -6   8  14 381.548 11.5380
  -5   8  14 15.9648 5.25730
  -4   8  14 682.289 17.5027
  -3   8  14 315.857 13.3127
  -2   8  14 14.1200 9.82285
  -1   8  14 844.061 49.7102
   0   8  14 74.2123 8.95677
  -7   9  14 5.06644 7.37412
  -6   9  14 219.891 19.8227
  -5   9  14 162.094 10.5171
  -4   9  14 0.00000 7.01678
  -3   9  14 717.946 27.9351
   3 -10  15 32.7435 14.3639
   4 -10  15 30.1149 15.8981
   0  -9  15 3.93102 4.78754
   1  -9  15 21.1383 6.22054
   2  -9  15 47.4601 4.90635
   3  -9  15 6.37231 4.13285
   4  -9  15 20.4429 4.57532
   5  -9  15 22.4878 4.58196
   6  -9  15 20.5672 4.74593
   7  -9  15 135.437 10.9941
   8  -9  15 8.18111 4.36577
   0  -8  15 0.00000 5.18990
   1  -8  15 4.66279 5.40566
   2  -8  15 95.9854 11.7709
   3  -8  15 23.1027 6.05451
   4  -8  15 47.7556 4.00085
   5  -8  15 178.230 8.15902
   6  -8  15 15.7936 4.25535
   7  -8  15 25.2411 8.74953
   8  -8  15 150.005 17.6368
   9  -8  15 0.00000 9.96971
  -3  -7  15 47.9687 15.6097
  -2  -7  15 39.1908 4.52956
  -1  -7  15 12.2681 5.83020
   0  -7  15 74.8764 7.66137
   1  -7  15 29.1545 5.90878
   2  -7  15 48.7090 7.16649
   3  -7  15 104.859 6.49969
   4  -7  15 13.3605 3.51027
   5  -7  15 45.2910 7.17266
   6  -7  15 360.528 11.4648
   7  -7  15 35.9030 4.99811
   8  -7  15 20.1871 7.89883
   9  -7  15 236.814 13.9195
  -3  -6  15 28.2660 7.67192
  -2  -6  15 112.612 8.64164
  -1  -6  15 36.0157 5.41548
   0  -6  15 73.5570 10.6552
   1  -6  15 151.828 6.54097
   2  -6  15 60.3946 4.30039
   3  -6  15 23.9325 6.21352
   4  -6  15 831.604 16.1200
   5  -6  15 88.1833 5.89665
   6  -6  15 25.0464 8.04232
   7  -6  15 547.529 15.4900
   8  -6  15 84.8318 15.6561
   9  -6  15 52.4303 8.56226
  -4  -5  15 24.0727 4.72044
  -3  -5  15 20.9643 4.09823
  -2  -5  15 44.1775 3.79446
  -1  -5  15 224.198 6.79177
   0  -5  15 13.3623 2.35093
   1  -5  15 85.4832 4.33539
   2  -5  15 1040.78 17.4143
   3  -5  15 64.0780 5.15005
   4  -5  15 164.083 5.80782
   5  -5  15 495.687 11.5568
   6  -5  15 252.345 7.99012
   7  -5  15 25.5821 3.67702
   8  -5  15 329.122 19.5654
   9  -5  15 157.745 10.4297
  -5  -4  15 35.9522 4.98769
  -4  -4  15 43.4063 4.75962
  -3  -4  15 85.2796 6.66399
  -2  -4  15 56.0124 3.27878
  -1  -4  15 146.456 5.44157
   0  -4  15 896.846 15.9944
   1  -4  15 210.133 4.98067
   2  -4  15 60.7682 3.82669
   3  -4  15 1496.08 23.3980
   4  -4  15 395.774 8.44098
   5  -4  15 39.4125 4.74515
   6  -4  15 470.418 10.3426
   7  -4  15 483.227 14.1638
   8  -4  15 14.3280 4.84850
   9  -4  15 168.372 11.6301
  -7  -3  15 29.8290 7.34519
  -6  -3  15 33.7959 4.58946
  -5  -3  15 240.159 13.5581
  -4  -3  15 0.00000 11.6187
  -3  -3  15 63.5717 4.94425
  -2  -3  15 1161.46 24.9758
  -1  -3  15 188.084 7.56518
   0  -3  15 156.458 6.14544
   1  -3  15 1349.56 22.2818
   2  -3  15 817.068 15.4748
   3  -3  15 41.4347 6.91118
   4  -3  15 1358.56 25.3763
   5  -3  15 339.166 10.8797
   6  -3  15 8.00283 5.14627
   7  -3  15 325.984 17.3460
   8  -3  15 298.039 14.6196
  -7  -2  15 138.674 9.38588
  -6  -2  15 1.99144 5.64381
  -5  -2  15 23.0310 4.63969
  -4  -2  15 727.387 16.4649
  -3  -2  15 53.7711 5.22375
  -2  -2  15 71.0005 3.52337
  -1  -2  15 1486.20 22.4733
   0  -2  15 481.159 8.84229
   1  -2  15 25.0712 3.60326
   2  -2  15 1536.53 26.2722
   3  -2  15 1914.99 22.8641
   4  -2  15 4.30225 3.12962
   5  -2  15 470.744 10.5329
   6  -2  15 550.403 12.4315
   7  -2  15 120.276 9.16142
   8  -2  15 41.3814 6.04251
   9  -2  15 105.370 13.2196
  -8  -1  15 6.44697 3.42602
  -7  -1  15 13.9499 10.1088
  -6  -1  15 340.884 24.1292
  -5  -1  15 83.0355 7.25400
  -4  -1  15 156.188 10.9010
  -3  -1  15 1358.39 40.5250
  -2  -1  15 942.447 29.3403
  -1  -1  15 18.3765 2.86182
   0  -1  15 2099.42 46.3467
   1  -1  15 1399.37 31.1671
   2  -1  15 42.9040 4.54046
   3  -1  15 744.110 14.7498
   4  -1  15 1114.71 18.4096
   5  -1  15 16.9237 3.93432
   6  -1  15 171.628 6.98712
   7  -1  15 289.577 14.1099
  -8   0  15 150.404 6.78843
  -7   0  15 29.4387 3.48074
  -6   0  15 4.20614 2.12468
  -5   0  15 490.659 9.15470
  -4   0  15 363.922 8.53002
  -3   0  15 7.42654 1.41216
  -2   0  15 1492.53 23.0787
  -1   0  15 1356.60 20.7035
   0   0  15 53.2833 2.32765
   1   0  15 851.372 12.8236
   2   0  15 1389.56 18.2922
   3   0  15 212.992 4.84669
   4   0  15 300.855 6.36162
   5   0  15 709.906 14.9163
   6   0  15 125.657 6.49776
   7   0  15 2.23633 2.86555
   8   0  15 66.2747 8.75035
  -9   1  15 18.9902 4.85090
  -8   1  15 20.7446 5.58913
  -7   1  15 465.167 21.6233
  -6   1  15 266.309 14.6294
  -5   1  15 74.9026 9.71707
  -4   1  15 1480.16 44.3248
  -3   1  15 1809.15 40.0405
  -2   1  15 24.9127 2.66792
  -1   1  15 904.183 21.9820
   0   1  15 1719.63 40.3329
   1   1  15 152.133 6.00446
   2   1  15 279.266 8.19261
   3   1  15 771.019 18.4218
   4   1  15 84.3400 5.14809
   5   1  15 162.323 7.40464
   6   1  15 150.026 14.2092
   7   1  15 68.7601 11.1481
  -9   2  15 189.110 8.80221
  -8   2  15 47.4166 4.13822
  -7   2  15 47.6966 5.12387
  -6   2  15 498.342 11.5350
  -5   2  15 300.930 8.59959
  -4   2  15 34.2015 4.27872
  -3   2  15 698.625 12.3225
  -2   2  15 1352.35 16.8897
  -1   2  15 155.544 6.52926
   0   2  15 907.369 12.8270
   1   2  15 1440.81 23.0941
   2   2  15 146.339 5.76581
   3   2  15 32.5168 2.77971
   4   2  15 245.101 8.58262
   5   2  15 133.223 9.87736
   6   2  15 12.1094 3.79710
  -9   3  15 50.0496 6.60212
  -8   3  15 328.968 17.2686
  -7   3  15 462.050 17.0475
  -6   3  15 0.00000 4.68599
  -5   3  15 591.001 13.9281
  -4   3  15 1154.61 17.7819
  -3   3  15 237.043 7.48484
  -2   3  15 398.225 9.06221
  -1   3  15 1404.54 22.2185
   0   3  15 54.4323 5.21772
   1   3  15 35.0508 4.03503
   2   3  15 281.344 8.84349
   3   3  15 191.967 10.8412
   4   3  15 19.6655 5.96713
   5   3  15 15.6315 7.31919
   6   3  15 104.194 22.0640
  -9   4  15 138.756 8.20233
  -8   4  15 18.9426 4.72231
  -7   4  15 245.901 8.76341
  -6   4  15 651.498 22.3896
  -5   4  15 22.0408 3.32862
  -4   4  15 306.623 7.74780
  -3   4  15 683.073 11.3582
  -2   4  15 102.291 3.70217
  -1   4  15 45.6274 2.71703
   0   4  15 496.427 10.4226
   1   4  15 265.327 9.98980
   2   4  15 6.29928 2.81983
   3   4  15 24.5953 4.74523
   4   4  15 48.9054 5.42574
   5   4  15 3.52699 3.57292
  -9   5  15 242.912 15.0390
  -8   5  15 278.940 11.8361
  -7   5  15 103.475 6.61512
  -6   5  15 229.842 7.72082
  -5   5  15 712.175 24.0186
  -4   5  15 92.9819 5.84279
  -3   5  15 28.2883 2.87654
  -2   5  15 290.343 6.21536
  -1   5  15 327.214 7.74598
   0   5  15 30.0458 2.86489
   1   5  15 18.8686 3.34709
   2   5  15 45.6889 4.40155
   3   5  15 6.90533 4.68635
   4   5  15 18.2558 17.2945
  -9   6  15 0.00000 6.25481
  -8   6  15 51.8829 8.36018
  -7   6  15 254.360 10.6066
  -6   6  15 156.940 10.2589
  -5   6  15 119.158 9.93924
  -4   6  15 296.220 14.9393
  -3   6  15 156.453 9.67262
  -2   6  15 68.9652 8.31874
  -1   6  15 26.0669 4.88516
   0   6  15 62.8135 5.18843
   1   6  15 21.7721 9.51142
   2   6  15 20.2503 10.5002
  -9   7  15 112.357 16.6980
  -8   7  15 44.9001 8.49948
  -7   7  15 16.4674 4.55264
  -6   7  15 212.413 8.13794
  -5   7  15 154.605 7.49017
  -4   7  15 67.9882 7.40966
  -3   7  15 41.8293 6.43155
  -2   7  15 80.3392 6.29163
  -1   7  15 0.00000 6.49734
   0   7  15 0.65611 4.80667
   1   7  15 34.3393 8.80490
  -8   8  15 102.403 9.60457
  -7   8  15 89.7621 10.3879
  -6   8  15 14.3317 4.86927
  -5   8  15 36.1211 5.72530
  -4   8  15 51.4592 6.72398
  -3   8  15 10.2911 4.92563
  -2   8  15 41.8607 17.4389
  -1   8  15 79.5171 14.9530
  -6   9  15 80.5495 11.0700
  -5   9  15 9.14924 7.22785
  -4   9  15 4.90125 4.84158
   4 -10  16 129.365 10.3014
   5 -10  16 39.7014 22.1849
   1  -9  16 380.183 20.6300
   2  -9  16 134.285 7.74084
   3  -9  16 83.4993 6.92698
   4  -9  16 759.226 19.2992
   5  -9  16 157.726 7.34409
   6  -9  16 36.4242 6.07745
   7  -9  16 712.370 30.1604
   8  -9  16 60.1903 8.32565
   0  -8  16 192.189 11.7152
   1  -8  16 32.7293 9.84056
   2  -8  16 1521.73 45.6510
   3  -8  16 248.532 17.0470
   4  -8  16 129.570 10.4087
   5  -8  16 950.383 23.6655
   6  -8  16 86.7177 6.36895
   7  -8  16 317.068 18.2037
   8  -8  16 346.709 29.6464
  -2  -7  16 121.476 16.7805
  -1  -7  16 72.2389 5.54572
   0  -7  16 1277.98 29.0882
   1  -7  16 364.574 13.6895
   2  -7  16 191.218 10.9747
   3  -7  16 1087.56 27.9722
   4  -7  16 130.048 5.65621
   5  -7  16 340.337 9.08431
   6  -7  16 1053.37 20.3652
   7  -7  16 26.3040 3.59717
   8  -7  16 338.167 15.8742
   9  -7  16 257.621 13.4312
  -4  -6  16 138.184 16.6912
  -3  -6  16 55.7886 6.50313
  -2  -6  16 1472.51 31.3992
  -1  -6  16 460.925 17.7456
   0  -6  16 140.480 9.28709
   1  -6  16 1391.86 32.6122
   2  -6  16 96.3081 5.33577
   3  -6  16 348.831 10.0042
   4  -6  16 1083.61 18.5799
   5  -6  16 42.7122 3.56427
   6  -6  16 406.765 12.6372
   7  -6  16 521.108 17.0816
   8  -6  16 73.5615 9.61767
   9  -6  16 197.298 23.2197
  -4  -5  16 771.981 27.9740
  -3  -5  16 185.442 8.81136
  -2  -5  16 236.588 7.95744
  -1  -5  16 1392.98 41.7084
   0  -5  16 52.9380 3.40509
   1  -5  16 400.740 9.75924
   2  -5  16 1579.22 27.7592
   3  -5  16 173.357 7.38580
   4  -5  16 534.206 15.1640
   5  -5  16 506.642 15.4394
   6  -5  16 17.5485 3.29788
   7  -5  16 471.884 14.5774
   8  -5  16 225.471 13.8218
   9  -5  16 29.2868 7.85328
  -6  -4  16 541.485 38.9197
  -5  -4  16 195.835 9.70761
  -4  -4  16 216.505 9.64844
  -3  -4  16 1277.21 27.3705
  -2  -4  16 132.151 6.43187
  -1  -4  16 300.990 9.64589
   0  -4  16 1740.65 33.4298
   1  -4  16 103.971 4.07467
   2  -4  16 575.598 11.7347
   3  -4  16 855.762 17.6166
   4  -4  16 120.392 4.90616
   5  -4  16 1062.15 21.4676
   6  -4  16 303.257 14.5064
   7  -4  16 60.7348 5.52598
   8  -4  16 305.184 13.6652
   9  -4  16 160.675 11.3574
  -6  -3  16 48.2994 6.22711
  -5  -3  16 1034.89 38.4779
  -4  -3  16 178.277 11.3850
  -3  -3  16 324.911 11.5888
  -2  -3  16 1589.54 30.2018
  -1  -3  16 114.113 8.56191
   0  -3  16 913.300 16.1162
   1  -3  16 881.116 15.0982
   2  -3  16 52.7019 7.54251
   3  -3  16 938.512 21.0162
   4  -3  16 419.103 12.0115
   5  -3  16 314.203 8.93338
   6  -3  16 872.011 20.4567
   7  -3  16 164.025 8.34699
   8  -3  16 153.394 18.3074
   9  -3  16 391.036 30.5832
  -7  -2  16 710.004 29.9352
  -6  -2  16 114.382 14.7740
  -5  -2  16 306.676 8.62914
  -4  -2  16 1126.69 21.6493
  -3  -2  16 194.413 6.02206
  -2  -2  16 497.992 7.90433
  -1  -2  16 961.541 15.2250
   0  -2  16 139.297 6.02773
   1  -2  16 1274.48 17.6441
   2  -2  16 843.794 13.5690
   3  -2  16 204.434 8.56478
   4  -2  16 899.607 13.8089
   5  -2  16 90.2029 3.04459
   6  -2  16 223.966 6.80127
   7  -2  16 536.760 17.0645
   8  -2  16 63.6857 5.95980
  -8  -1  16 68.7437 6.11583
  -7  -1  16 223.524 24.2361
  -6  -1  16 1007.43 52.4046
  -5  -1  16 51.8972 10.8875
  -4  -1  16 626.736 35.0607
  -3  -1  16 858.588 22.4411
  -2  -1  16 38.0476 3.57752
  -1  -1  16 1288.01 37.3900
   0  -1  16 211.198 16.1815
   1  -1  16 487.180 24.3183
   2  -1  16 1371.14 33.8457
   3  -1  16 139.654 5.31433
   4  -1  16 508.032 11.7038
   5  -1  16 590.580 18.4310
   6  -1  16 163.950 8.16971
   7  -1  16 275.618 19.3983
   8  -1  16 373.577 32.4585
  -8   0  16 408.815 12.3012
  -7   0  16 27.0026 3.33174
  -6   0  16 409.398 12.4528
  -5   0  16 558.971 11.9539
  -4   0  16 109.089 3.78051
  -3   0  16 950.577 18.0945
  -2   0  16 857.009 14.7595
  -1   0  16 469.156 8.96869
   0   0  16 1737.17 24.7839
   1   0  16 62.7010 2.74327
   2   0  16 382.366 6.74173
   3   0  16 1345.39 20.1553
   4   0  16 124.238 3.87820
   5   0  16 633.780 12.4189
   6   0  16 518.115 14.1024
   7   0  16 151.974 9.02001
  -8   1  16 356.514 19.7942
  -7   1  16 656.693 41.5073
  -6   1  16 22.3902 6.80908
  -5   1  16 907.707 48.7558
  -4   1  16 363.824 16.4882
  -3   1  16 165.052 5.84610
  -2   1  16 1494.18 27.0411
  -1   1  16 88.5022 4.54450
   0   1  16 1092.35 20.3199
   1   1  16 1199.61 32.0762
   2   1  16 111.699 8.62464
   3   1  16 843.462 16.4706
   4   1  16 450.087 18.1972
   5   1  16 238.253 16.2731
   6   1  16 352.301 16.8596
   7   1  16 408.640 22.2600
  -9   2  16 293.773 13.0671
  -8   2  16 63.3685 6.28908
  -7   2  16 467.376 14.2990
  -6   2  16 291.064 8.77002
  -5   2  16 297.475 7.84834
  -4   2  16 921.879 15.4497
  -3   2  16 124.878 3.88809
  -2   2  16 373.700 7.42595
  -1   2  16 1057.30 13.0516
   0   2  16 182.825 4.63445
   1   2  16 1098.06 15.3737
   2   2  16 1102.10 15.9345
   3   2  16 47.8878 3.76421
   4   2  16 565.846 14.7926
   5   2  16 345.124 10.9534
   6   2  16 124.503 8.54522
  -9   3  16 260.741 21.1944
  -8   3  16 202.720 10.0215
  -7   3  16 44.1893 7.97425
  -6   3  16 884.936 21.4344
  -5   3  16 120.345 4.21223
  -4   3  16 484.346 9.51620
  -3   3  16 1301.56 20.1840
  -2   3  16 110.690 3.97032
  -1   3  16 1083.72 17.5602
   0   3  16 236.381 6.99644
   1   3  16 120.322 4.39980
   2   3  16 623.397 16.0582
   3   3  16 477.393 15.4247
   4   3  16 389.737 20.3881
   5   3  16 238.001 13.7098
  -9   4  16 75.3695 11.5250
  -8   4  16 424.504 13.1840
  -7   4  16 135.777 9.12884
  -6   4  16 182.642 7.56690
  -5   4  16 499.158 17.3465
  -4   4  16 176.591 7.68009
  -3   4  16 900.060 15.3446
  -2   4  16 1102.90 16.3115
  -1   4  16 213.467 8.59238
   0   4  16 739.964 14.5572
   1   4  16 591.881 15.5364
   2   4  16 299.570 14.2693
   3   4  16 610.600 16.3368
   4   4  16 264.712 14.4773
  -9   5  16 244.681 22.3839
  -8   5  16 133.516 7.37657
  -7   5  16 596.139 27.1495
  -6   5  16 219.485 10.5430
  -5   5  16 646.401 19.9287
  -4   5  16 590.944 21.7479
  -3   5  16 25.4340 5.80669
  -2   5  16 588.793 12.2828
  -1   5  16 539.837 13.5430
   0   5  16 532.118 12.8566
   1   5  16 632.640 13.9257
   2   5  16 281.098 10.5162
   3   5  16 188.508 17.3911
  -9   6  16 196.182 19.3888
  -8   6  16 43.4194 8.06188
  -7   6  16 319.140 10.7013
  -6   6  16 591.014 15.2886
  -5   6  16 260.670 10.6101
  -4   6  16 566.538 14.9651
  -3   6  16 478.234 19.4721
  -2   6  16 255.344 11.7115
  -1   6  16 581.222 14.0147
   0   6  16 415.992 13.0418
   1   6  16 154.122 12.3123
   2   6  16 187.771 14.0407
  -8   7  16 393.182 19.9707
  -7   7  16 150.522 8.79330
  -6   7  16 414.819 11.3943
  -5   7  16 364.923 10.6671
  -4   7  16 357.056 10.6370
  -3   7  16 644.528 15.3022
  -2   7  16 323.484 12.3299
  -1   7  16 187.873 9.10754
   0   7  16 149.464 17.7605
  -7   8  16 359.731 16.6121
  -6   8  16 188.807 15.1619
  -5   8  16 264.531 12.3584
  -4   8  16 284.923 17.1028
  -3   8  16 210.027 17.6685
  -2   8  16 117.897 13.2551
   1  -9  17 61.3926 10.1953
   2  -9  17 55.0615 12.5746
   3  -9  17 31.6167 5.25888
   4  -9  17 37.3840 5.99626
   5  -9  17 76.6436 6.01240
   6  -9  17 4.09816 6.34761
   7  -9  17 0.00000 8.39499
  -1  -8  17 78.7326 9.08846
   0  -8  17 140.442 17.4065
   1  -8  17 58.2152 8.12648
   2  -8  17 93.1201 9.92655
   3  -8  17 82.7953 10.8929
   4  -8  17 158.700 9.07434
   5  -8  17 2.33809 5.20542
   6  -8  17 94.7176 7.61201
   7  -8  17 49.5567 10.2820
  -1  -7  17 52.7738 5.37180
   0  -7  17 5.22696 6.44520
   1  -7  17 70.7200 5.49361
   2  -7  17 169.084 13.7962
   3  -7  17 6.21042 6.06260
   4  -7  17 215.883 7.61369
   5  -7  17 82.1130 6.84783
   6  -7  17 73.6091 5.71447
   7  -7  17 61.0945 4.80344
   8  -7  17 72.1849 16.1271
  -3  -6  17 37.7247 10.8909
  -2  -6  17 80.9852 9.53827
  -1  -6  17 62.7239 6.55477
   0  -6  17 288.008 12.8888
   1  -6  17 130.893 16.5492
   2  -6  17 380.890 13.3783
   3  -6  17 160.674 7.84860
   4  -6  17 21.9720 6.16009
   5  -6  17 136.207 6.24737
   6  -6  17 34.0303 8.74293
   7  -6  17 0.00000 5.34751
   8  -6  17 10.6211 7.16028
   9  -6  17 29.4976 21.7582
  -4  -5  17 29.6539 11.0766
  -3  -5  17 119.954 8.89365
  -2  -5  17 163.933 7.09539
  -1  -5  17 28.1661 5.37483
   0  -5  17 264.784 14.9856
   1  -5  17 133.850 4.98810
   2  -5  17 58.1432 3.43227
   3  -5  17 80.4205 5.41066
   4  -5  17 260.028 10.1252
   5  -5  17 6.95041 3.38082
   6  -5  17 107.384 5.11072
   7  -5  17 19.7879 4.78869
   8  -5  17 28.9114 5.48508
   9  -5  17 12.2723 5.82258
  -5  -4  17 97.2822 10.1502
  -4  -4  17 165.852 8.43345
  -3  -4  17 73.4527 5.94485
  -2  -4  17 338.617 15.2493
  -1  -4  17 135.908 5.30049
   0  -4  17 6.22229 3.35587
   1  -4  17 157.882 7.18622
   2  -4  17 245.230 7.15611
   3  -4  17 28.5566 2.76453
   4  -4  17 75.4564 5.41280
   5  -4  17 182.644 7.58628
   6  -4  17 21.4697 3.13857
   7  -4  17 18.1068 4.46900
   8  -4  17 12.9313 3.81846
   9  -4  17 14.8053 6.59862
  -6  -3  17 80.2240 13.0951
  -5  -3  17 0.74711 5.75304
  -4  -3  17 228.268 11.3553
  -3  -3  17 131.785 11.9414
  -2  -3  17 66.8927 5.01588
  -1  -3  17 161.972 8.84393
   0  -3  17 356.281 14.1430
   1  -3  17 45.6214 4.95376
   2  -3  17 206.608 9.58178
   3  -3  17 14.9925 3.77890
   4  -3  17 71.7122 5.93983
   5  -3  17 72.1514 9.03049
   6  -3  17 77.0411 6.46808
   7  -3  17 84.6163 8.91008
  -7  -2  17 0.00000 7.91284
  -6  -2  17 74.5967 8.29396
  -5  -2  17 79.4044 6.50892
  -4  -2  17 23.0082 4.98958
  -3  -2  17 119.513 5.36938
  -2  -2  17 234.619 7.13054
  -1  -2  17 39.0346 2.57334
   0  -2  17 246.439 5.36322
   1  -2  17 116.171 5.99641
   2  -2  17 13.6005 2.27437
   3  -2  17 107.919 7.63719
   4  -2  17 103.597 7.04580
   5  -2  17 11.9687 2.02792
   6  -2  17 48.8471 5.13649
   7  -2  17 34.5994 5.17812
   8  -2  17 28.9996 7.17647
  -7  -1  17 44.4650 12.2922
  -6  -1  17 51.1453 11.9076
  -5  -1  17 132.629 14.4436
  -4  -1  17 88.5570 11.0053
  -3  -1  17 33.0383 5.38141
  -2  -1  17 181.903 7.35131
  -1  -1  17 114.086 14.5937
   2  -1  17 80.6425 6.49487
   3  -1  17 262.520 10.2171
   4  -1  17 106.136 5.07734
   5  -1  17 73.9020 6.20560
   6  -1  17 187.060 13.9765
   7  -1  17 95.7956 9.27765
   8  -1  17 17.6141 6.11098
  -8   0  17 0.71181 4.82538
  -7   0  17 66.1953 4.71908
  -6   0  17 14.6540 2.25273
  -5   0  17 5.16234 1.75787
  -4   0  17 68.8267 3.25740
  -3   0  17 4.66558 1.35419
  -2   0  17 9.33189 1.42796
  -1   0  17 60.7211 3.72786
   0   0  17 261.111 6.16886
   1   0  17 71.7232 3.11058
   2   0  17 135.968 3.46890
   3   0  17 105.621 3.69138
   4   0  17 124.515 4.48528
   5   0  17 8.98114 2.00387
   6   0  17 29.1103 3.86092
   7   0  17 72.7185 5.71618
  -8   1  17 76.3368 8.78497
  -7   1  17 25.5329 5.70722
  -6   1  17 81.9902 6.80320
  -4   1  17 69.8754 5.38055
  -3   1  17 71.0096 4.06318
  -2   1  17 88.2265 4.52096
  -1   1  17 86.3199 4.62090
   0   1  17 267.476 9.07542
   1   1  17 45.9256 3.80849
   2   1  17 511.142 18.9273
   3   1  17 269.420 9.05339
   4   1  17 81.0115 6.72451
   5   1  17 172.197 8.84708
   6   1  17 40.9473 6.00983
  -8   2  17 17.1756 4.71072
  -7   2  17 16.4527 3.39402
  -6   2  17 46.4611 7.39046
  -5   2  17 71.2840 6.75474
  -4   2  17 81.1426 3.66376
  -3   2  17 281.528 10.1647
  -2   2  17 132.555 4.11039
  -1   2  17 46.8830 3.68959
   0   2  17 277.121 9.74554
   1   2  17 53.2250 3.52812
   2   2  17 197.614 7.03863
   3   2  17 222.961 9.60964
   4   2  17 138.520 6.24930
   5   2  17 64.3552 7.85435
   6   2  17 71.1699 7.00712
  -9   3  17 105.394 13.4919
  -8   3  17 23.3753 9.89898
  -7   3  17 34.3035 5.21821
  -6   3  17 99.3277 10.2054
  -5   3  17 101.435 8.30560
  -4   3  17 96.2722 4.60240
  -3   3  17 127.786 6.93660
  -2   3  17 573.763 16.2077
  -1   3  17 142.884 5.86569
   0   3  17 135.190 6.24485
   1   3  17 361.841 11.6675
   2   3  17 634.004 13.2748
   3   3  17 75.4679 9.54402
   4   3  17 167.416 16.5470
   5   3  17 87.1623 21.8165
  -9   4  17 0.33226 3.69721
  -8   4  17 31.5817 5.39539
  -7   4  17 108.240 6.48820
  -6   4  17 47.7490 5.41687
  -5   4  17 47.3071 4.39194
  -4   4  17 117.000 7.89193
  -3   4  17 264.604 6.69709
  -2   4  17 179.256 7.15854
  -1   4  17 291.485 8.72601
   0   4  17 280.593 7.43686
   1   4  17 69.9322 5.32992
   2   4  17 82.4878 4.50817
   3   4  17 171.199 8.80492
   4   4  17 52.7953 9.74064
  -9   5  17 24.4935 9.66425
  -8   5  17 4.80315 5.87091
  -7   5  17 51.4735 6.48583
  -6   5  17 135.395 6.39498
  -5   5  17 14.1149 4.07520
  -4   5  17 127.478 10.1079
  -3   5  17 200.538 8.70524
  -2   5  17 598.357 14.8708
  -1   5  17 13.5828 3.93937
   0   5  17 113.310 5.22611
   1   5  17 340.225 11.1203
   2   5  17 138.724 8.99619
   3   5  17 10.2433 8.95502
  -8   6  17 20.0987 9.33755
  -7   6  17 83.9542 6.00164
  -6   6  17 49.4234 8.46207
  -5   6  17 249.190 11.6034
  -4   6  17 136.475 8.19814
  -3   6  17 155.667 12.4291
  -2   6  17 77.7054 7.73411
  -1   6  17 369.814 12.1001
   0   6  17 141.933 9.56407
   1   6  17 54.6472 9.74615
  -8   7  17 55.0517 16.1468
  -7   7  17 32.3219 14.1511
  -6   7  17 129.521 6.85321
  -5   7  17 42.2707 7.31988
  -4   7  17 64.9072 6.00795
  -3   7  17 175.469 7.56041
  -2   7  17 188.469 9.84089
  -1   7  17 59.6679 9.33533
   0   7  17 186.002 11.8268
  -6   8  17 76.9055 16.2779
  -5   8  17 192.807 16.2949
  -4   8  17 90.4950 9.53597
  -3   8  17 0.00000 10.1195
   2  -9  18 79.1397 13.1617
   3  -9  18 88.4407 11.7520
   4  -9  18 314.540 19.2033
   5  -9  18 69.1698 9.93297
   6  -9  18 35.1290 17.3980
   0  -8  18 17.3173 9.95647
   1  -8  18 131.031 19.4479
   2  -8  18 220.314 14.2021
   3  -8  18 89.6121 7.24267
   4  -8  18 242.426 19.5831
   5  -8  18 359.619 14.3437
   6  -8  18 157.503 11.1081
   7  -8  18 147.602 20.0192
  -1  -7  18 108.888 12.1569
   0  -7  18 262.344 9.06391
   1  -7  18 96.7343 6.47065
   2  -7  18 177.347 8.77954
   3  -7  18 649.383 22.4462
   4  -7  18 116.862 6.79027
   5  -7  18 151.384 6.97075
   6  -7  18 458.467 16.4953
   7  -7  18 139.669 9.84983
   8  -7  18 192.695 20.0620
  -3  -6  18 111.113 16.7301
  -2  -6  18 215.439 8.87335
  -1  -6  18 114.967 8.56968
   0  -6  18 338.599 15.0844
   1  -6  18 810.803 32.9071
   2  -6  18 166.059 13.4709
   3  -6  18 168.818 8.98299
   4  -6  18 747.977 15.6643
   5  -6  18 217.202 7.93417
   6  -6  18 124.318 6.96060
   7  -6  18 520.443 24.3596
   8  -6  18 52.1388 14.9717
  -4  -5  18 337.677 26.6186
  -3  -5  18 106.953 7.94858
  -2  -5  18 223.197 11.9457
  -1  -5  18 748.117 19.1621
   0  -5  18 201.222 23.3127
   1  -5  18 129.110 12.9229
   2  -5  18 736.394 16.0864
   3  -5  18 208.319 9.23031
   4  -5  18 550.482 15.3819
   5  -5  18 1001.16 28.1134
   6  -5  18 179.845 9.93853
   7  -5  18 349.465 14.5642
   8  -5  18 386.608 18.2608
  -5  -4  18 41.4264 10.8260
  -4  -4  18 199.082 10.7453
  -3  -4  18 686.101 23.8318
  -2  -4  18 175.314 6.71059
  -1  -4  18 241.745 13.7398
   0  -4  18 989.597 17.2527
   1  -4  18 226.896 8.47241
   2  -4  18 341.759 10.3205
   3  -4  18 1429.07 22.1313
   4  -4  18 127.432 9.13893
   5  -4  18 369.811 13.0622
   6  -4  18 1103.11 20.1535
   7  -4  18 209.433 11.4316
   8  -4  18 315.389 14.1935
  -6  -3  18 187.161 10.0830
  -5  -3  18 379.487 19.7537
  -4  -3  18 135.956 8.87046
  -3  -3  18 158.968 11.8703
  -2  -3  18 737.941 27.5575
  -1  -3  18 243.098 8.41779
   0  -3  18 399.980 18.7395
   1  -3  18 1944.30 50.4111
   2  -3  18 493.080 12.3865
   3  -3  18 316.432 9.68774
   4  -3  18 987.670 26.4090
   5  -3  18 28.2239 7.57343
   6  -3  18 639.879 17.0960
   7  -3  18 543.720 19.3340
   8  -3  18 67.1983 15.7044
  -6  -2  18 153.523 8.09888
  -5  -2  18 174.425 6.41952
  -4  -2  18 793.647 18.6836
  -3  -2  18 192.505 7.44851
  -2  -2  18 314.478 7.01425
  -1  -2  18 2003.20 27.5783
   0  -2  18 148.515 4.34493
   1  -2  18 425.225 7.89741
   2  -2  18 1691.06 23.2577
   3  -2  18 301.074 8.20908
   4  -2  18 873.768 17.5026
   5  -2  18 907.059 15.2136
   6  -2  18 41.3628 3.65939
   7  -2  18 401.561 11.6145
   8  -2  18 200.894 11.3809
  -6  -1  18 414.726 33.3919
  -5  -1  18 204.126 12.4182
  -4  -1  18 505.847 22.0048
  -3  -1  18 1496.93 52.1076
  -2  -1  18 567.018 17.8771
  -1  -1  18 487.031 35.9056
   0  -1  18 1831.72 86.8270
   1  -1  18 80.4562 12.3759
   2  -1  18 868.424 34.8039
   3  -1  18 1425.01 31.3888
   4  -1  18 52.4435 6.40474
   5  -1  18 898.780 28.8178
   6  -1  18 222.214 21.8941
   7  -1  18 40.8650 8.24536
  -7   0  18 134.952 7.77514
  -6   0  18 123.161 5.62562
  -5   0  18 1059.54 20.2808
  -4   0  18 109.187 5.27626
  -3   0  18 309.998 7.24913
  -2   0  18 1710.28 26.9153
  -1   0  18 80.2117 3.21055
   0   0  18 1117.76 18.1600
   1   0  18 1526.11 24.0943
   2   0  18 66.7419 2.42499
   3   0  18 752.111 13.7483
   4   0  18 243.189 6.07154
   5   0  18 54.4837 4.07046
   6   0  18 507.542 16.5890
   7   0  18 64.0594 6.23210
  -7   1  18 728.625 47.9040
  -6   1  18 279.051 10.9962
  -4   1  18 1129.08 30.0798
  -3   1  18 244.778 11.1029
  -2   1  18 757.180 17.1739
  -1   1  18 1630.24 32.2696
   0   1  18 44.1329 4.05902
   1   1  18 1093.03 34.3231
   2   1  18 708.868 22.6482
   3   1  18 52.3203 8.14549
   4   1  18 873.074 27.8708
   5   1  18 69.8561 9.02195
   6   1  18 0.00000 7.27945
  -8   2  18 98.8497 12.2242
  -7   2  18 285.060 9.38095
  -6   2  18 1161.14 22.8447
  -5   2  18 48.6975 5.41261
  -4   2  18 875.920 20.5381
  -3   2  18 1472.63 19.9942
  -2   2  18 63.7157 3.10552
  -1   2  18 778.307 17.4058
   0   2  18 234.025 6.82142
   1   2  18 111.166 4.38097
   2   2  18 893.657 16.6589
   3   2  18 182.398 6.46697
   4   2  18 137.444 5.81832
   5   2  18 537.685 20.9497
  -8   3  18 474.910 30.7794
  -7   3  18 176.717 8.95503
  -6   3  18 590.061 21.5191
  -5   3  18 878.585 25.9204
  -4   3  18 55.2436 7.46815
  -3   3  18 780.612 18.0545
  -2   3  18 643.848 10.5399
  -1   3  18 92.1336 4.69582
   0   3  18 1498.93 28.0011
   1   3  18 87.3517 5.44231
   2   3  18 69.5520 5.52979
   3   3  18 570.559 19.1182
   4   3  18 4.11761 6.33103
  -8   4  18 401.279 29.9203
  -7   4  18 710.145 19.4393
  -6   4  18 57.5598 5.46305
  -5   4  18 876.716 20.4122
  -4   4  18 245.329 9.09182
  -3   4  18 40.8700 6.67928
  -2   4  18 929.144 18.2560
  -1   4  18 76.0511 4.53917
   0   4  18 219.901 6.54887
   1   4  18 600.300 16.5329
   2   4  18 0.00000 3.26313
   3   4  18 235.521 17.0383
  -8   5  18 30.7747 10.1720
  -7   5  18 526.198 20.0843
  -6   5  18 209.708 9.17569
  -5   5  18 64.3511 5.29172
  -4   5  18 902.507 23.5838
  -3   5  18 216.780 9.92686
  -2   5  18 64.7766 6.20859
  -1   5  18 516.844 15.7058
   0   5  18 8.43917 4.12510
   1   5  18 222.809 12.0025
   2   5  18 670.905 41.1626
  -8   6  18 214.522 12.8353
  -7   6  18 24.4762 10.9442
  -6   6  18 495.919 13.7541
  -5   6  18 77.9064 5.94111
  -4   6  18 139.015 7.13084
  -3   6  18 661.934 16.8995
  -2   6  18 0.00000 4.68605
  -1   6  18 310.485 12.2404
   0   6  18 521.650 20.6649
   1   6  18 36.1716 11.9691
  -7   7  18 53.5782 7.48665
  -6   7  18 52.6257 7.91671
  -5   7  18 507.758 15.3917
  -4   7  18 16.8543 4.67460
  -3   7  18 196.130 8.45203
  -2   7  18 629.289 20.6555
  -1   7  18 4.98008 5.08846
   3  -9  19 0.00000 7.08002
   4  -9  19 12.0391 5.31181
   5  -9  19 30.0667 6.45253
   1  -8  19 13.7225 11.5928
   2  -8  19 24.7021 10.2838
   3  -8  19 39.7104 6.73835
   4  -8  19 41.2271 6.06479
   5  -8  19 39.3272 6.74950
   6  -8  19 38.1824 9.41006
   7  -8  19 87.0582 11.8122
  -1  -7  19 17.4566 9.92028
   0  -7  19 19.4900 4.73937
   1  -7  19 63.1093 6.31867
   2  -7  19 41.4401 6.51699
   3  -7  19 71.0215 8.30064
   4  -7  19 45.5205 9.91632
   5  -7  19 115.107 7.69140
   6  -7  19 0.00000 4.67958
   7  -7  19 12.7974 10.3316
  -3  -6  19 11.6664 11.6595
  -2  -6  19 3.97922 6.51236
  -1  -6  19 16.5096 5.84508
   0  -6  19 104.271 10.7766
   1  -6  19 90.6816 9.22163
   2  -6  19 46.3211 12.1687
   3  -6  19 203.439 11.3737
   4  -6  19 33.3529 5.77657
   5  -6  19 131.134 8.48692
   6  -6  19 237.285 12.5872
   7  -6  19 26.6885 12.0822
   8  -6  19 87.5975 18.1042
  -4  -5  19 14.7463 5.68216
  -3  -5  19 33.1358 13.1144
  -2  -5  19 20.2543 3.97565
  -1  -5  19 104.919 7.06566
   0  -5  19 38.4343 5.55569
   1  -5  19 123.907 15.1607
   2  -5  19 4.70420 7.06141
   3  -5  19 206.574 9.39180
   4  -5  19 395.086 11.4838
   5  -5  19 7.84550 4.31568
   6  -5  19 59.6040 7.54424
   7  -5  19 182.724 16.4531
   8  -5  19 64.8426 11.2128
  -5  -4  19 35.8833 6.41674
  -4  -4  19 33.8973 5.92434
  -3  -4  19 51.5769 6.84460
  -2  -4  19 59.5163 5.37958
  -1  -4  19 215.661 11.0833
   0  -4  19 17.7674 5.12587
   1  -4  19 273.043 9.28111
   2  -4  19 550.232 11.8882
   3  -4  19 11.6301 4.46279
   4  -4  19 233.067 8.94205
   5  -4  19 290.727 10.7969
   6  -4  19 51.7252 4.80549
   7  -4  19 55.6166 6.19274
   8  -4  19 183.558 11.5993
  -4  -3  19 69.0283 6.96139
  -3  -3  19 204.960 24.0986
  -2  -3  19 24.5338 7.38009
  -1  -3  19 280.064 22.2436
   0  -3  19 404.191 22.2829
   1  -3  19 3.02163 6.92161
   2  -3  19 101.075 10.2151
   3  -3  19 777.897 30.0511
   4  -3  19 206.200 11.2563
   5  -3  19 207.967 9.10377
   6  -3  19 250.893 10.4927
   7  -3  19 96.4139 14.4930
   8  -3  19 15.3786 5.27739
  -6  -2  19 17.3036 5.86052
  -5  -2  19 164.258 7.46034
  -4  -2  19 29.2699 7.39020
  -3  -2  19 198.006 7.16338
  -2  -2  19 567.508 13.2628
  -1  -2  19 0.00000 5.54309
   0  -2  19 131.260 4.11542
   1  -2  19 885.212 14.8563
   2  -2  19 411.029 9.23171
   3  -2  19 120.566 5.50486
   4  -2  19 514.745 15.4514
   5  -2  19 187.102 6.08179
   6  -2  19 14.9248 4.01653
   7  -2  19 88.5370 8.13766
  -7  -1  19 117.895 14.4662
  -6  -1  19 0.00000 9.45481
  -5  -1  19 119.437 16.1286
  -4  -1  19 344.567 17.7744
  -3  -1  19 23.4254 6.21213
  -2  -1  19 83.1064 8.40740
   1  -1  19 355.411 24.8638
   2  -1  19 717.488 20.0473
   3  -1  19 447.116 14.9926
   4  -1  19 109.523 8.49293
   5  -1  19 363.695 14.5283
   6  -1  19 244.550 15.4511
   7  -1  19 12.6429 5.02546
  -7   0  19 6.53474 4.16627
  -6   0  19 225.317 8.59059
  -5   0  19 2.35000 1.58748
  -4   0  19 220.149 7.80728
  -3   0  19 712.822 15.9315
  -2   0  19 398.733 9.24540
  -1   0  19 339.482 8.39265
   0   0  19 458.025 9.79522
   1   0  19 456.876 9.86552
   2   0  19 11.1278 1.71777
   3   0  19 212.936 6.97859
   4   0  19 335.069 9.27411
   5   0  19 1.57006 1.74589
   6   0  19 96.6274 6.89203
  -6   1  19 70.5396 5.13542
  -5   1  19 450.666 18.8580
  -4   1  19 156.313 16.6156
  -3   1  19 127.504 6.16054
  -2   1  19 678.557 14.5691
  -1   1  19 381.789 25.8179
   0   1  19 189.698 7.32145
   1   1  19 543.419 21.8289
   2   1  19 590.532 22.1862
   3   1  19 12.3497 3.14674
   4   1  19 363.759 16.9857
   5   1  19 110.707 12.1359
   6   1  19 0.97210 6.43905
  -8   2  19 121.703 15.6922
  -7   2  19 153.689 8.94045
  -6   2  19 37.3883 4.80982
  -5   2  19 230.957 8.27447
  -4   2  19 503.440 12.9975
  -3   2  19 385.910 14.2003
  -2   2  19 21.6228 3.26000
  -1   2  19 441.827 11.7804
   0   2  19 632.877 14.8006
   1   2  19 47.0172 4.14730
   2   2  19 85.3091 5.31653
   3   2  19 76.3557 4.84424
   4   2  19 42.1500 5.62292
   5   2  19 40.1113 7.81007
  -8   3  19 35.0684 12.0175
  -7   3  19 66.7690 8.16493
  -6   3  19 221.827 11.8286
  -5   3  19 213.767 7.94405
  -4   3  19 109.235 5.58136
  -3   3  19 221.241 16.7165
  -2   3  19 585.827 15.4971
  -1   3  19 15.6372 3.84559
   0   3  19 642.526 17.5803
   1   3  19 214.485 8.43546
   2   3  19 87.0562 6.13350
   3   3  19 95.5888 9.89445
  -8   4  19 182.868 10.4730
  -7   4  19 99.7964 8.86353
  -6   4  19 21.7205 3.89678
  -5   4  19 432.152 12.2261
  -4   4  19 365.688 10.9504
  -3   4  19 9.02109 3.10905
  -2   4  19 72.1984 5.32095
  -1   4  19 198.354 8.56221
   0   4  19 75.6529 4.35177
   1   4  19 96.7156 6.04602
   2   4  19 4.15865 3.93308
   3   4  19 30.2762 7.78367
  -7   5  19 104.097 10.8054
  -6   5  19 240.833 9.93005
  -5   5  19 0.00000 3.58245
  -4   5  19 293.915 10.0623
  -3   5  19 68.1916 5.73847
  -2   5  19 77.9516 6.12726
  -1   5  19 120.470 6.27962
   0   5  19 79.3552 7.77278
   1   5  19 74.6425 12.5848
   2   5  19 67.2437 7.54560
  -7   6  19 10.7715 5.09479
  -6   6  19 113.486 13.3593
  -5   6  19 142.821 8.45864
  -4   6  19 69.3032 5.64117
  -3   6  19 131.540 9.72340
  -2   6  19 11.1922 5.75805
  -1   6  19 105.036 9.67041
   0   6  19 110.609 10.1059
  -6   7  19 14.0968 6.81311
  -5   7  19 102.067 10.6309
  -4   7  19 68.8693 8.54028
  -3   7  19 35.3787 5.62046
  -2   7  19 23.8385 7.32495
   1  -8  20 568.365 28.8884
   2  -8  20 303.218 28.7254
   3  -8  20 9.90957 6.78105
   4  -8  20 443.207 16.1929
   5  -8  20 186.046 12.4808
   6  -8  20 60.0755 11.6779
  -1  -7  20 586.365 35.3973
   0  -7  20 432.629 21.1695
   1  -7  20 38.3815 4.47174
   2  -7  20 803.346 23.3803
   3  -7  20 306.342 11.7638
   4  -7  20 70.5462 8.17639
   5  -7  20 693.718 18.2557
   6  -7  20 92.5176 9.39656
   7  -7  20 105.710 17.1883
  -2  -6  20 293.404 17.1984
  -1  -6  20 19.9198 6.41209
   0  -6  20 710.669 24.2201
   1  -6  20 347.190 15.9655
   2  -6  20 111.827 8.19070
   3  -6  20 940.111 35.9250
   4  -6  20 244.832 10.9114
   5  -6  20 78.7209 9.89678
   6  -6  20 659.544 24.8075
  -3  -5  20 7.60622 6.88618
  -2  -5  20 808.561 21.1545
  -1  -5  20 406.277 15.0526
   0  -5  20 58.4226 5.78898
   1  -5  20 1119.11 43.8057
   2  -5  20 239.275 11.7106
   3  -5  20 47.0606 5.99005
   4  -5  20 503.419 16.4447
   5  -5  20 95.7432 8.26002
   6  -5  20 227.490 12.2268
  -4  -4  20 508.279 24.0871
  -3  -4  20 260.264 18.1476
  -2  -4  20 95.1557 5.89392
  -1  -4  20 1242.55 33.5754
   0  -4  20 200.430 21.7069
   1  -4  20 45.4242 6.34548
   2  -4  20 794.172 18.0362
   3  -4  20 151.701 5.75978
   4  -4  20 183.055 9.05183
   5  -4  20 366.688 12.8285
   6  -4  20 56.9538 5.65016
   7  -4  20 182.028 14.3283
  -4  -3  20 64.3554 7.78257
  -3  -3  20 1001.80 53.3460
  -2  -3  20 239.792 12.5050
  -1  -3  20 41.4632 8.40538
   1  -3  20 140.520 12.9574
   2  -3  20 246.006 14.4833
   3  -3  20 881.947 25.7903
   4  -3  20 187.841 11.6288
   5  -3  20 359.218 12.3609
   6  -3  20 232.774 11.0277
  -6  -2  20 16.2019 10.3040
  -5  -2  20 734.297 18.7936
  -4  -2  20 235.868 7.90327
  -3  -2  20 48.9490 4.40833
  -2  -2  20 817.186 17.9034
  -1  -2  20 123.728 6.48148
   0  -2  20 302.731 7.31089
   1  -2  20 738.664 16.2175
   2  -2  20 112.478 7.16996
   3  -2  20 263.647 7.81343
   4  -2  20 321.492 9.04692
   5  -2  20 307.629 7.30033
   6  -2  20 363.252 13.4006
   7  -2  20 197.491 8.03432
  -4  -1  20 471.541 16.8781
  -3  -1  20 145.302 10.6772
   1  -1  20 412.714 17.7961
   2  -1  20 437.092 22.3424
   3  -1  20 244.597 10.9122
   4  -1  20 559.865 19.0894
   5  -1  20 326.693 16.2325
   6  -1  20 247.183 23.6652
  -7   0  20 95.4969 9.73185
  -6   0  20 704.635 19.7528
  -5   0  20 81.3589 5.30111
  -4   0  20 168.323 6.40500
  -3   0  20 905.080 18.0181
  -2   0  20 95.6942 4.51740
  -1   0  20 414.777 9.17821
   0   0  20 218.826 5.89551
   1   0  20 434.205 11.0002
   2   0  20 856.375 18.0034
   3   0  20 324.967 8.83552
   4   0  20 542.459 12.5600
   5   0  20 231.473 9.93448
   6   0  20 225.228 9.02340
  -6   1  20 187.312 9.96788
  -5   1  20 407.005 14.8740
  -4   1  20 222.711 12.1448
  -3   1  20 314.460 16.4011
  -2   1  20 425.349 13.7775
  -1   1  20 460.472 14.5027
   0   1  20 705.846 19.7926
   1   1  20 507.352 25.1912
   2   1  20 511.676 24.9116
   3   1  20 605.411 18.5002
   4   1  20 280.017 15.9857
   5   1  20 404.695 29.9376
  -7   2  20 359.578 25.9945
  -6   2  20 65.4754 4.75492
  -5   2  20 338.999 9.73538
  -4   2  20 311.820 7.74112
  -3   2  20 227.245 6.75120
  -2   2  20 813.446 23.3368
  -1   2  20 376.530 14.7922
   0   2  20 998.702 19.1934
   1   2  20 363.809 9.12014
   2   2  20 161.351 6.18160
   3   2  20 462.404 11.7419
   4   2  20 176.224 10.8643
  -7   3  20 239.133 21.2573
  -6   3  20 223.262 9.78512
  -5   3  20 292.730 9.20635
  -4   3  20 488.737 11.4595
  -3   3  20 382.589 11.0506
  -2   3  20 495.575 14.6283
  -1   3  20 389.845 12.1774
   0   3  20 310.749 10.6084
   1   3  20 546.031 19.5506
   2   3  20 387.591 12.5574
   3   3  20 168.484 13.2964
  -7   4  20 50.5781 12.9390
  -6   4  20 376.817 12.4692
  -5   4  20 474.606 16.8962
  -4   4  20 616.568 16.5926
  -3   4  20 674.445 15.1378
  -2   4  20 218.176 11.3951
  -1   4  20 574.101 15.5831
   0   4  20 222.630 12.3313
   1   4  20 275.196 13.8763
   2   4  20 348.756 19.5608
  -7   5  20 239.326 14.6949
  -6   5  20 296.683 17.5878
  -5   5  20 259.185 10.6604
  -4   5  20 253.988 11.6636
  -3   5  20 483.813 14.6858
  -2   5  20 397.022 13.8413
  -1   5  20 323.822 13.4360
   0   5  20 282.661 18.1997
   1   5  20 83.7627 9.95228
  -6   6  20 234.464 10.5845
  -5   6  20 420.219 29.9228
  -4   6  20 166.238 18.7136
  -3   6  20 222.773 12.0289
  -2   6  20 360.830 14.6790
  -1   6  20 87.8421 7.88219
   2  -8  21 33.3856 11.6258
   3  -8  21 2.74552 8.24968
   4  -8  21 7.26796 6.62905
   5  -8  21 28.5133 9.00194
   0  -7  21 3.89029 4.38876
   1  -7  21 13.3291 5.76851
   2  -7  21 52.6815 11.6249
   3  -7  21 97.7323 7.17015
   4  -7  21 34.7479 7.47183
   5  -7  21 0.00000 11.2407
   6  -7  21 42.2628 6.17472
  -2  -6  21 10.3664 8.66700
  -1  -6  21 9.42926 10.5771
   0  -6  21 29.7507 8.43265
   1  -6  21 89.9834 10.0080
   2  -6  21 11.6645 5.91492
   3  -6  21 19.0799 6.80493
   4  -6  21 64.7257 9.00941
   5  -6  21 10.1506 6.95958
   7  -6  21 22.1470 9.37393
  -2  -5  21 9.47720 7.28814
  -1  -5  21 114.387 8.38732
   0  -5  21 9.78944 3.84543
   1  -5  21 74.2751 9.61746
   2  -5  21 61.0695 6.25926
   3  -5  21 25.2725 6.91045
   4  -5  21 7.09037 7.25089
   5  -5  21 15.6141 6.07305
   6  -5  21 0.00000 10.3127
   7  -5  21 47.3986 7.84669
  -4  -4  21 62.4084 7.21164
  -3  -4  21 120.199 11.1992
  -2  -4  21 14.6912 6.05293
  -1  -4  21 22.6663 6.37694
   0  -4  21 50.4309 6.96678
   1  -4  21 12.2645 4.04785
   2  -4  21 9.18604 5.25603
   3  -4  21 42.7901 6.04271
   4  -4  21 52.8542 7.07330
   5  -4  21 79.5322 7.09649
   6  -4  21 15.2188 4.24346
   7  -4  21 0.00000 5.58624
  -5  -3  21 47.7376 4.92632
  -4  -3  21 4.70268 8.09716
  -3  -3  21 24.2703 9.10835
  -2  -3  21 94.2533 11.0487
  -1  -3  21 33.2115 7.52728
   1  -3  21 88.0573 11.3004
   2  -3  21 42.1226 9.29777
   3  -3  21 89.0350 11.3955
   4  -3  21 14.2007 10.8057
   5  -3  21 9.55693 5.15941
   6  -3  21 72.1062 13.6483
   7  -3  21 0.05230 4.18504
  -5  -2  21 30.3955 8.34974
  -4  -2  21 77.9395 5.02327
  -3  -2  21 30.9956 5.46531
  -2  -2  21 10.9307 3.32435
  -1  -2  21 80.8529 4.71793
   0  -2  21 68.6490 10.2927
   1  -2  21 46.4704 7.05265
   2  -2  21 39.5424 7.08726
   3  -2  21 26.1424 5.03174
   4  -2  21 34.3036 4.41325
   5  -2  21 15.5937 4.78187
   6  -2  21 12.1075 5.53606
  -6  -1  21 12.1700 10.1797
  -4  -1  21 23.4143 13.5570
   2  -1  21 217.174 10.5295
   3  -1  21 5.42335 3.53890
   4  -1  21 10.6633 4.67023
   5  -1  21 136.774 18.0099
   6  -1  21 22.4270 7.51140
  -6   0  21 25.4801 8.79197
  -5   0  21 9.41831 2.56699
  -4   0  21 48.6037 4.25172
  -3   0  21 59.1696 3.55579
  -2   0  21 8.60868 2.04141
  -1   0  21 32.3439 4.40361
   0   0  21 25.9376 2.76850
   1   0  21 26.2961 3.55950
   2   0  21 0.25382 1.61675
   3   0  21 237.222 8.00391
   4   0  21 5.60661 2.35953
   5   0  21 11.8929 3.92280
  -7   1  21 24.6894 10.9770
  -5   1  21 63.8432 6.66656
  -4   1  21 4.46271 5.18782
  -3   1  21 42.2128 5.29176
  -2   1  21 210.166 10.4087
  -1   1  21 23.1097 6.62947
   0   1  21 23.0650 6.90381
   1   1  21 274.830 25.8676
   2   1  21 142.575 9.68774
   3   1  21 13.4856 3.41379
   4   1  21 110.372 14.6503
  -7   2  21 80.3267 10.6525
  -6   2  21 7.50098 4.61364
  -5   2  21 43.8426 4.35398
  -4   2  21 71.2264 7.17107
  -3   2  21 0.00000 3.27432
  -2   2  21 8.35916 2.63605
  -1   2  21 253.022 14.0930
   0   2  21 31.6343 4.57949
   1   2  21 15.7110 3.42736
   2   2  21 223.080 9.37024
   3   2  21 210.916 8.32680
   4   2  21 8.40893 7.20926
  -7   3  21 44.3037 8.00340
  -6   3  21 114.587 14.7301
  -5   3  21 43.0183 6.11759
  -4   3  21 14.3270 4.55051
  -3   3  21 289.841 12.2199
  -2   3  21 157.889 7.08573
  -1   3  21 13.0315 4.46039
   0   3  21 182.625 24.1307
   1   3  21 154.924 17.1399
   2   3  21 4.85053 5.71207
  -6   4  21 27.6194 9.63324
  -5   4  21 97.1069 6.49950
  -4   4  21 10.1444 3.63103
  -3   4  21 23.5951 3.27382
  -2   4  21 182.299 7.50767
  -1   4  21 156.948 7.83978
   0   4  21 46.5940 4.61285
   1   4  21 184.765 9.27788
   2   4  21 170.596 20.6421
  -6   5  21 21.3937 9.83479
  -5   5  21 0.00000 8.14889
  -4   5  21 140.128 7.86476
  -3   5  21 217.578 9.56572
  -2   5  21 4.97179 4.60432
  -1   5  21 223.993 10.3700
   0   5  21 191.887 9.50927
  -5   6  21 55.6822 6.72918
  -4   6  21 12.2365 8.09436
  -3   6  21 156.002 11.9419
  -2   6  21 194.260 15.2855
   1  -7  22 72.4319 7.35514
   2  -7  22 334.793 29.3929
   3  -7  22 130.038 12.0954
   4  -7  22 89.7157 8.27438
   5  -7  22 376.996 16.9277
  -1  -6  22 86.7382 9.36646
   0  -6  22 346.424 28.9497
   1  -6  22 153.948 12.5242
   2  -6  22 50.5243 6.81145
   3  -6  22 618.310 17.3679
   4  -6  22 222.548 9.32395
   5  -6  22 110.553 11.0240
  -2  -5  22 330.453 17.4357
  -1  -5  22 148.178 13.2722
   0  -5  22 102.673 8.09221
   1  -5  22 836.231 24.2514
   2  -5  22 387.124 14.7612
   3  -5  22 209.541 10.9660
   4  -5  22 837.085 33.9915
   5  -5  22 158.827 23.8840
  -3  -4  22 128.736 12.3197
  -2  -4  22 83.5506 11.7334
  -1  -4  22 773.878 26.1162
   0  -4  22 462.771 16.1051
   1  -4  22 185.520 10.7964
   2  -4  22 1088.68 30.6103
   4  -4  22 131.157 13.4398
   5  -4  22 969.339 40.8238
   6  -4  22 79.2902 16.8870
  -4  -3  22 89.2466 11.7542
  -3  -3  22 695.993 41.1319
  -2  -3  22 405.437 14.7369
  -1  -3  22 203.436 9.53327
   0  -3  22 1231.87 56.1419
   1  -3  22 301.495 15.8381
   3  -3  22 976.290 58.0690
   5  -3  22 145.041 13.7487
   6  -3  22 538.667 25.7238
  -5  -2  22 382.589 19.1842
  -4  -2  22 224.022 11.7791
  -3  -2  22 194.372 7.29404
  -2  -2  22 1092.81 24.1941
  -1  -2  22 286.705 10.6058
   0  -2  22 78.0387 4.48401
   1  -2  22 1412.82 38.6359
   2  -2  22 341.239 11.8413
   3  -2  22 128.299 6.36222
   4  -2  22 757.748 19.2283
   5  -2  22 26.1403 5.21772
   6  -2  22 141.700 7.88504
   1  -1  22 210.801 17.5175
   2  -1  22 1113.70 57.0817
   3  -1  22 25.8284 5.57412
   4  -1  22 259.653 18.7814
  -6   0  22 433.964 23.7544
  -5   0  22 217.160 8.54600
  -4   0  22 116.040 5.94432
  -3   0  22 1005.75 22.0571
  -2   0  22 347.828 12.4970
  -1   0  22 207.245 8.48231
   0   0  22 1299.74 34.9510
   1   0  22 7.00177 2.14551
   2   0  22 56.9192 4.26432
   3   0  22 737.272 17.6482
   4   0  22 9.89458 2.64855
   5   0  22 292.641 11.9844
  -5   1  22 910.770 32.5691
  -4   1  22 128.105 13.9522
  -3   1  22 163.069 11.5512
  -2   1  22 1279.04 31.2746
  -1   1  22 7.72830 7.29077
   1   1  22 671.136 46.6870
   2   1  22 13.6139 7.03255
   3   1  22 291.020 16.7357
   4   1  22 254.954 25.8625
  -6   2  22 78.9937 12.9307
  -5   2  22 139.657 6.90733
  -4   2  22 869.604 17.3814
  -3   2  22 27.4527 3.73995
  -2   2  22 57.0538 4.09140
  -1   2  22 479.833 16.3173
   0   2  22 49.5586 4.48320
   1   2  22 511.480 13.8845
   2   2  22 566.065 15.1808
   3   2  22 9.22221 5.56129
  -5   3  22 15.5569 6.24437
  -4   3  22 211.949 9.62103
  -3   3  22 758.703 16.0264
  -2   3  22 23.3267 4.27580
  -1   3  22 589.908 21.2821
   0   3  22 280.957 12.5342
   1   3  22 39.5355 13.9559
   2   3  22 371.787 27.0303
  -6   4  22 173.951 17.2576
  -4   4  22 4.98995 4.36491
  -3   4  22 323.466 11.6460
  -2   4  22 583.294 14.3883
  -1   4  22 28.9436 6.36032
   0   4  22 455.772 15.0566
   1   4  22 172.222 8.73674
  -5   5  22 367.889 19.7093
  -4   5  22 253.956 26.3582
  -3   5  22 9.99043 8.93444
  -2   5  22 408.435 16.1919
  -1   5  22 198.563 10.1049
   2  -7  23 54.1106 14.0103
   3  -7  23 4.83390 3.37116
   0  -6  23 152.186 21.1207
   1  -6  23 62.9463 17.6910
   2  -6  23 0.35255 6.85072
   3  -6  23 144.152 8.66136
   4  -6  23 90.7663 8.50045
   5  -6  23 27.1878 9.97468
  -2  -5  23 90.6555 9.93081
  -1  -5  23 18.2864 8.67671
   0  -5  23 11.1816 8.81676
   1  -5  23 63.1182 7.51952
   2  -5  23 48.4776 7.25732
   3  -5  23 47.8296 8.08213
   4  -5  23 59.6056 8.17512
   5  -5  23 91.0647 16.3081
  -2  -4  23 10.2583 10.0817
  -1  -4  23 87.8671 8.06391
   0  -4  23 90.5121 7.30887
   1  -4  23 38.2989 4.59912
   2  -4  23 45.6224 5.91663
   3  -4  23 265.096 13.5963
   4  -4  23 25.5001 7.38010
   5  -4  23 20.9804 7.59661
   6  -4  23 100.178 14.7843
  -4  -3  23 18.0573 7.25369
  -2  -3  23 11.9766 11.6567
  -1  -3  23 43.5809 7.22671
   0  -3  23 91.4107 13.3688
   1  -3  23 210.890 10.9661
   2  -3  23 90.4604 19.5317
   4  -3  23 241.028 14.6148
   5  -3  23 73.3943 14.3006
  -4  -2  23 62.4328 8.30003
  -3  -2  23 35.8270 4.71022
  -2  -2  23 48.8194 7.46692
  -1  -2  23 213.457 8.42490
   0  -2  23 30.8611 4.04092
   1  -2  23 61.8845 8.57537
   2  -2  23 170.368 9.85860
   3  -2  23 265.144 14.8393
   4  -2  23 16.3394 8.11126
  -5  -1  23 9.76554 3.68497
   1  -1  23 200.912 24.4709
   3  -1  23 113.295 14.2614
   4  -1  23 202.331 26.8657
   5  -1  23 4.59057 5.65959
  -5   0  23 125.318 6.83306
  -4   0  23 35.3495 3.66830
  -3   0  23 14.7601 3.09160
  -2   0  23 169.443 6.30751
  -1   0  23 190.561 6.93877
   0   0  23 7.59889 1.96870
   1   0  23 147.925 6.62659
   2   0  23 80.1239 5.63990
   3   0  23 57.1892 4.11898
   4   0  23 16.3071 4.14823
  -5   1  23 4.63415 8.17934
  -4   1  23 330.365 19.6986
  -3   1  23 257.669 24.5518
  -2   1  23 37.8981 8.13238
  -1   1  23 182.883 16.4071
   0   1  23 381.868 19.8307
   1   1  23 62.0451 11.9455
   2   1  23 7.98370 9.70372
  -6   2  23 169.190 17.6389
  -5   2  23 52.1760 12.9163
  -4   2  23 28.0775 5.46219
  -3   2  23 116.439 6.08991
  -2   2  23 107.002 7.27074
  -1   2  23 68.8622 5.83209
   0   2  23 65.7319 4.66170
   1   2  23 245.960 11.5852
   2   2  23 15.8659 5.62913
   3   2  23 35.9346 5.77429
  -4   3  23 224.098 24.3208
  -3   3  23 52.1346 6.81545
  -2   3  23 19.9648 4.76016
  -1   3  23 346.914 23.3867
   0   3  23 45.5600 7.75563
   1   3  23 1.96124 8.11267
  -5   4  23 0.00000 6.11694
  -2   4  23 10.1022 7.20575
  -1   4  23 3.72082 5.22899
   0   4  23 93.4316 7.52257
   3  -6  24 256.882 15.3714
   4  -6  24 0.00000 9.27282
  -1  -5  24 13.7235 3.68784
   2  -5  24 10.7244 5.59585
   3  -5  24 277.407 14.8719
   4  -5  24 251.527 13.4017
  -2  -4  24 360.884 28.7950
   0  -4  24 12.7114 4.34176
   1  -4  24 425.434 15.0310
   2  -4  24 288.216 16.1240
   3  -4  24 53.4947 6.63757
   4  -4  24 342.685 22.1032
   5  -4  24 206.100 21.0197
  -3  -3  24 244.174 14.8084
  -1  -3  24 410.969 20.6629
   0  -3  24 362.223 28.9379
   1  -3  24 74.4167 11.8480
   2  -3  24 598.961 42.4321
   3  -3  24 251.151 21.6682
   4  -3  24 151.737 10.3821
   5  -3  24 258.022 16.4407
  -4  -2  24 38.8349 10.3458
  -3  -2  24 242.428 21.7841
  -2  -2  24 299.841 11.7308
  -1  -2  24 79.5515 7.71474
   0  -2  24 411.687 12.7929
   1  -2  24 254.984 9.71533
   2  -2  24 108.677 7.26560
   3  -2  24 527.338 16.3511
   4  -2  24 343.052 25.7332
   0  -1  24 219.506 25.4645
   2  -1  24 279.967 25.3341
   3  -1  24 270.189 29.4562
   4  -1  24 219.639 23.3698
  -5   0  24 46.2432 8.36622
  -4   0  24 344.706 16.1771
  -3   0  24 229.151 8.36446
  -2   0  24 103.220 5.30761
  -1   0  24 303.835 14.1344
   0   0  24 696.143 17.0949
   1   0  24 416.834 12.1843
   2   0  24 305.640 9.98624
   3   0  24 162.485 12.1161
  -5   1  24 215.620 19.8096
  -2   1  24 369.657 26.6334
  -1   1  24 445.735 21.5420
   0   1  24 413.104 21.2321
   1   1  24 407.249 30.7964
   2   1  24 320.369 19.5915
   3   1  24 189.335 25.8409
  -5   2  24 315.491 25.3493
  -4   2  24 327.275 16.4492
  -3   2  24 275.736 12.9204
  -2   2  24 306.794 9.90674
  -1   2  24 391.662 11.5871
   0   2  24 60.5737 5.04951
   1   2  24 99.2476 8.15654
   2   2  24 392.418 17.9125
  -2   3  24 310.989 19.0122
  -1   3  24 172.544 17.9785
   0   3  24 474.793 16.6088
  -3   4  24 213.357 10.9784
  -2   4  24 424.776 18.6060
   1  -5  25 8.91419 3.04331
   3  -5  25 3.11550 4.48417
  -1  -4  25 13.0935 5.46421
   1  -4  25 39.5349 14.3052
   2  -4  25 0.00000 5.40850
   3  -4  25 13.4572 4.84396
   4  -4  25 49.2461 8.76061
  -2  -3  25 7.48304 2.55797
   1  -3  25 51.4034 9.85107
   2  -3  25 59.8820 13.1860
   3  -3  25 11.9493 13.7578
   4  -3  25 0.78446 2.77767
  -3  -2  25 22.1168 11.7253
  -2  -2  25 29.6075 12.3121
  -1  -2  25 22.8535 8.39418
   0  -2  25 26.9276 5.14200
   1  -2  25 19.4063 5.93624
   2  -2  25 28.2872 4.94285
   3  -2  25 36.8591 6.67870
   4  -2  25 8.76331 12.5532
  -1  -1  25 40.3052 11.0029
   1  -1  25 12.5273 4.81611
   2  -1  25 0.00000 8.97164
   3  -1  25 0.00000 15.3649
  -4   0  25 14.5805 3.93861
  -3   0  25 44.4706 4.17923
  -2   0  25 31.9970 3.89780
  -1   0  25 16.5567 2.56030
   0   0  25 12.6563 2.41528
   1   0  25 1.90443 1.91642
   2   0  25 91.7518 7.22371
   3   0  25 0.53540 3.46781
  -1   1  25 17.4510 11.1219
   0   1  25 69.9830 7.82275
   1   1  25 10.5015 9.01834
   2   1  25 112.546 14.3957
  -4   2  25 80.7036 9.64291
  -3   2  25 21.6869 4.26867
  -2   2  25 105.159 18.2305
  -1   2  25 37.8412 7.65020
   0   2  25 72.5616 6.10047
   1   2  25 113.876 8.51230
  -3   3  25 0.00000 11.2440
  -2   3  25 49.8250 11.3301
  -1   3  25 26.1815 15.3159
   1  -4  26 486.872 33.2231
  -1  -3  26 442.577 22.8848
   0  -3  26 232.573 18.2234
  -1  -2  26 22.9087 4.22380
   0  -2  26 623.346 26.0226
   1  -2  26 260.908 15.3003
   2  -2  26 3.68019 3.89474
  -2  -1  26 547.558 36.9573
   2  -1  26 114.222 12.7847
  -2   0  26 15.1437 2.80987
  -1   0  26 390.504 19.9880
   0   0  26 74.8091 5.71311
   1   0  26 21.3944 5.10131
   0   0   0    0.00    0.00   0
;
_shelx_hkl_checksum              48516
_shelx_shelxl_version_number     2014/7
_olex2_submission_special_instructions 'No special instructions were received'
loop_
_space_group_symop_operation_xyz
'x, y, z'
'-x, -y, -z'
loop_
_atom_site_label
_atom_site_type_symbol
_atom_site_fract_x
_atom_site_fract_y
_atom_site_fract_z
_atom_site_U_iso_or_equiv
_atom_site_adp_type
_atom_site_occupancy
_atom_site_site_symmetry_order
_atom_site_calc_flag
_atom_site_refinement_flags_posn
_atom_site_refinement_flags_adp
_atom_site_refinement_flags_occupancy
Tm1 Tm 0.5000 0.0000 0.0000 0.00764(8) Uani 1 2 d S T P
Tm2 Tm 0.5000 1.0000 0.5000 0.01276(9) Uani 1 2 d S T P
Cs1 Cs -0.15516(16) 0.68397(8) 1.05117(3) 0.01776(10) Uani 1 1 d . . .
Cs2 Cs 1.12759(19) 1.26664(11) 0.68148(4) 0.02518(13) Uani 1 1 d . . .
Cs3 Cs 1.1851(3) 1.35631(13) 0.41766(5) 0.03755(17) Uani 1 1 d . . .
Si1 Si 0.4487(6) 0.9048(3) 0.71422(11) 0.0076(3) Uani 1 1 d . . .
Si2 Si -0.3746(4) 0.7083(4) 0.83420(15) 0.0077(4) Uani 1 1 d . . .
Si3 Si -0.2932(3) 0.3348(4) 0.82857(15) 0.0076(4) Uani 1 1 d . . .
Si4 Si 0.0780(4) 0.7900(4) 0.82702(16) 0.0083(4) Uani 1 1 d . . .
O1 O -0.1176(10) 0.8479(11) 0.8151(4) 0.0137(12) Uiso 1 1 d . . .
O2 O 0.2196(11) 0.8815(12) 0.7457(5) 0.0171(13) Uani 1 1 d . . .
O3 O -0.4429(11) 0.4490(11) 0.8188(5) 0.0133(12) Uani 1 1 d . . .
O4 O -0.3556(11) 0.1506(11) 0.7493(4) 0.0127(11) Uani 1 1 d . . .
O5 O -0.4248(13) 0.7700(12) 0.9253(5) 0.0164(12) Uani 1 1 d . . .
O6 O 0.443(2) 0.8530(12) 0.6172(4) 0.0240(17) Uani 1 1 d . . .
O7 O -0.0424(11) 0.5207(11) 0.8130(4) 0.0105(11) Uani 1 1 d . . .
O8 O 0.2041(13) 0.8871(13) 0.9154(5) 0.0200(14) Uani 1 1 d . . .
O9 O -0.3043(13) 0.2519(12) 0.9160(5) 0.0189(13) Uani 1 1 d . . .
O10 O 0.4859(12) 0.7299(11) 0.7596(4) 0.0150(12) Uani 1 1 d . . .
F1 F 0.393(2) 1.2269(18) 0.5504(7) 0.032(2) Uani 1 1 d . . .
F2 F 0.8376(16) 1.2343(19) 0.5434(8) 0.032(2) Uani 1 1 d . . .
loop_
_atom_site_aniso_label
_atom_site_aniso_U_11
_atom_site_aniso_U_22
_atom_site_aniso_U_33
_atom_site_aniso_U_23
_atom_site_aniso_U_13
_atom_site_aniso_U_12
Tm1 0.0098(3) 0.00740(15) 0.00686(15) 0.00047(11) 0.0013(3) 0.0052(3)
Tm2 0.0143(4) 0.01648(19) 0.00909(16) 0.00194(13) 0.0022(3) 0.0088(3)
Cs1 0.0178(4) 0.0191(2) 0.0181(2) 0.00300(15) 0.0016(4) 0.0104(4)
Cs2 0.0234(4) 0.0258(2) 0.0234(2) -0.00518(18) -0.0001(4) 0.0114(4)
Cs3 0.0433(6) 0.0298(3) 0.0355(3) 0.0002(2) -0.0024(6) 0.0159(6)
Si1 0.0085(12) 0.0066(6) 0.0073(7) 0.0003(5) 0.0004(11) 0.0036(11)
Si2 0.0081(9) 0.0068(8) 0.0088(9) -0.0006(7) -0.0003(7) 0.0045(8)
Si3 0.0067(9) 0.0064(8) 0.0100(8) 0.0015(6) 0.0005(6) 0.0034(6)
Si4 0.0060(8) 0.0053(8) 0.0129(10) 0.0021(7) -0.0002(7) 0.0022(7)
O2 0.007(2) 0.019(3) 0.026(4) 0.011(3) 0.005(2) 0.006(2)
O3 0.008(2) 0.007(3) 0.028(4) 0.001(2) 0.005(2) 0.006(2)
O4 0.010(2) 0.010(2) 0.014(3) -0.003(2) -0.001(2) 0.003(2)
O5 0.021(3) 0.019(3) 0.014(3) 0.003(2) 0.010(2) 0.013(3)
O6 0.039(6) 0.020(3) 0.009(2) 0.0015(19) 0.002(4) 0.012(4)
O7 0.008(3) 0.007(2) 0.015(3) -0.001(2) 0.000(2) 0.002(2)
O8 0.019(3) 0.024(4) 0.017(3) -0.006(3) -0.012(3) 0.012(3)
O9 0.020(3) 0.015(3) 0.017(3) 0.010(2) 0.005(2) 0.004(3)
O10 0.016(3) 0.013(3) 0.016(3) -0.001(2) -0.008(2) 0.008(2)
F1 0.047(6) 0.034(5) 0.029(5) -0.010(4) 0.000(4) 0.033(5)
F2 0.019(4) 0.043(5) 0.036(6) 0.014(4) -0.004(4) 0.015(4)
loop_
_atom_type_symbol
_atom_type_description
_atom_type_scat_dispersion_real
_atom_type_scat_dispersion_imag
_atom_type_scat_source
O O 0.0106 0.0060 'International Tables Vol C Tables 4.2.6.8 and 6.1.1.4'
F F 0.0171 0.0103 'International Tables Vol C Tables 4.2.6.8 and 6.1.1.4'
Si Si 0.0817 0.0704 'International Tables Vol C Tables 4.2.6.8 and 6.1.1.4'
Cs Cs -0.3680 2.1192 'International Tables Vol C Tables 4.2.6.8 and 6.1.1.4'
Tm Tm -0.3139 5.2483 'International Tables Vol C Tables 4.2.6.8 and 6.1.1.4'
loop_
_geom_angle_atom_site_label_1
_geom_angle_atom_site_label_2
_geom_angle_atom_site_label_3
_geom_angle
_geom_angle_site_symmetry_1
_geom_angle_site_symmetry_3
Cs1 Tm1 Cs1 180.00(2) 2_666 1_544
Cs1 Tm1 Cs1 64.08(2) 2_566 1_654
Cs1 Tm1 Cs1 115.92(2) 2_566 2_556
Cs1 Tm1 Cs1 116.157(13) 2_666 2_566
Cs1 Tm1 Cs1 116.72(2) 2_666 2_556
Cs1 Tm1 Cs1 63.843(13) 1_544 2_566
Cs1 Tm1 Cs1 116.72(2) 1_544 1_654
Cs1 Tm1 Cs1 63.843(13) 2_666 1_644
Cs1 Tm1 Cs1 115.92(2) 1_644 1_654
Cs1 Tm1 Cs1 180.000(17) 1_654 2_556
Cs1 Tm1 Cs1 63.28(2) 1_544 2_556
Cs1 Tm1 Cs1 180.000(14) 2_566 1_644
Cs1 Tm1 Cs1 64.08(2) 1_644 2_556
Cs1 Tm1 Cs1 63.28(2) 2_666 1_654
Cs1 Tm1 Cs1 116.157(13) 1_544 1_644
O5 Tm1 Cs1 134.1(2) 1_644 2_566
O5 Tm1 Cs1 109.7(2) 2_566 2_666
O5 Tm1 Cs1 45.9(2) 1_644 1_644
O5 Tm1 Cs1 70.3(2) 1_644 2_666
O5 Tm1 Cs1 132.10(19) 1_644 1_654
O5 Tm1 Cs1 70.3(2) 2_566 1_544
O5 Tm1 Cs1 109.7(2) 1_644 1_544
O5 Tm1 Cs1 134.1(2) 2_566 1_644
O5 Tm1 Cs1 45.9(2) 2_566 2_566
O5 Tm1 Cs1 132.10(19) 2_566 2_556
O5 Tm1 Cs1 47.90(19) 1_644 2_556
O5 Tm1 Cs1 47.9(2) 2_566 1_654
O5 Tm1 O5 180.0(4) 2_566 1_644
O5 Tm1 O8 90.3(3) 2_566 1_544
O5 Tm1 O8 89.7(3) 2_566 2_666
O5 Tm1 O8 90.3(3) 1_644 2_666
O5 Tm1 O8 89.7(3) 1_644 1_544
O5 Tm1 O9 90.9(3) 1_644 2_556
O5 Tm1 O9 89.1(3) 1_644 1_654
O5 Tm1 O9 90.9(3) 2_566 1_654
O5 Tm1 O9 89.1(3) 2_566 2_556
O8 Tm1 Cs1 49.8(2) 2_666 1_644
O8 Tm1 Cs1 50.0(2) 2_666 2_666
O8 Tm1 Cs1 111.0(2) 2_666 2_556
O8 Tm1 Cs1 111.0(2) 1_544 1_654
O8 Tm1 Cs1 130.0(2) 1_544 2_666
O8 Tm1 Cs1 130.2(2) 1_544 1_644
O8 Tm1 Cs1 130.2(2) 2_666 2_566
O8 Tm1 Cs1 69.0(2) 1_544 2_556
O8 Tm1 Cs1 49.8(2) 1_544 2_566
O8 Tm1 Cs1 130.0(2) 2_666 1_544
O8 Tm1 Cs1 50.0(2) 1_544 1_544
O8 Tm1 Cs1 69.0(2) 2_666 1_654
O8 Tm1 O8 180.0(3) 2_666 1_544
O9 Tm1 Cs1 46.8(2) 2_556 1_544
O9 Tm1 Cs1 107.7(2) 2_556 2_566
O9 Tm1 Cs1 129.6(2) 2_556 1_654
O9 Tm1 Cs1 72.3(2) 2_556 1_644
O9 Tm1 Cs1 50.4(2) 2_556 2_556
O9 Tm1 Cs1 72.3(2) 1_654 2_566
O9 Tm1 Cs1 129.6(2) 1_654 2_556
O9 Tm1 Cs1 133.2(2) 1_654 1_544
O9 Tm1 Cs1 50.4(2) 1_654 1_654
O9 Tm1 Cs1 46.8(2) 1_654 2_666
O9 Tm1 Cs1 107.7(2) 1_654 1_644
O9 Tm1 Cs1 133.2(2) 2_556 2_666
O9 Tm1 O8 89.3(3) 2_556 2_666
O9 Tm1 O8 90.7(3) 2_556 1_544
O9 Tm1 O8 90.7(3) 1_654 2_666
O9 Tm1 O8 89.3(3) 1_654 1_544
O9 Tm1 O9 180.0(3) 2_556 1_654
Cs3 Tm2 Cs3 113.00(3) 2_786 2_676
Cs3 Tm2 Cs3 105.358(18) 2_776 2_676
Cs3 Tm2 Cs3 114.62(4) 1_445 1_455
Cs3 Tm2 Cs3 74.643(18) 2_776 .
Cs3 Tm2 Cs3 67.00(3) 2_786 .
Cs3 Tm2 Cs3 180.0 2_776 1_455
Cs3 Tm2 Cs3 180.0 2_786 1_445
Cs3 Tm2 Cs3 67.00(3) 1_445 2_676
Cs3 Tm2 Cs3 105.357(18) 1_455 .
Cs3 Tm2 Cs3 74.642(18) 1_455 2_676
Cs3 Tm2 Cs3 65.38(4) 1_445 2_776
Cs3 Tm2 Cs3 113.00(3) 1_445 .
Cs3 Tm2 Cs3 180.0 2_676 .
Cs3 Tm2 Cs3 65.38(4) 2_786 1_455
Cs3 Tm2 Cs3 114.62(4) 2_786 2_776
O6 Tm2 Cs3 102.03(18) . 2_786
O6 Tm2 Cs3 118.7(4) 2_676 2_676
O6 Tm2 Cs3 124.8(4) 2_676 2_776
O6 Tm2 Cs3 102.03(18) 2_676 1_445
O6 Tm2 Cs3 118.7(4) . .
O6 Tm2 Cs3 77.97(18) . 1_445
O6 Tm2 Cs3 55.2(4) . 2_776
O6 Tm2 Cs3 77.97(18) 2_676 2_786
O6 Tm2 Cs3 61.3(4) . 2_676
O6 Tm2 Cs3 61.3(4) 2_676 .
O6 Tm2 Cs3 124.8(4) . 1_455
O6 Tm2 Cs3 55.2(4) 2_676 1_455
O6 Tm2 O6 180.0 2_676 .
F1 Tm2 Cs3 133.8(3) 2_676 2_786
F1 Tm2 Cs3 140.6(3) . 2_776
F1 Tm2 Cs3 39.4(3) 2_676 2_776
F1 Tm2 Cs3 68.6(3) 2_676 .
F1 Tm2 Cs3 39.4(3) . 1_455
F1 Tm2 Cs3 46.2(3) . 2_786
F1 Tm2 Cs3 140.6(3) 2_676 1_455
F1 Tm2 Cs3 111.4(3) . .
F1 Tm2 Cs3 46.2(3) 2_676 1_445
F1 Tm2 Cs3 133.8(3) . 1_445
F1 Tm2 Cs3 111.4(3) 2_676 2_676
F1 Tm2 Cs3 68.6(3) . 2_676
F1 Tm2 O6 88.4(5) . 2_676
F1 Tm2 O6 91.6(5) 2_676 2_676
F1 Tm2 O6 88.4(5) 2_676 .
F1 Tm2 O6 91.6(5) . .
F1 Tm2 F1 180.0 . 2_676
F2 Tm2 Cs3 36.4(3) . .
F2 Tm2 Cs3 109.1(3) . 1_455
F2 Tm2 Cs3 46.8(3) . 2_786
F2 Tm2 Cs3 143.6(3) 2_676 .
F2 Tm2 Cs3 109.1(3) 2_676 2_776
F2 Tm2 Cs3 133.2(3) . 1_445
F2 Tm2 Cs3 36.4(3) 2_676 2_676
F2 Tm2 Cs3 46.8(3) 2_676 1_445
F2 Tm2 Cs3 70.9(3) 2_676 1_455
F2 Tm2 Cs3 143.6(3) . 2_676
F2 Tm2 Cs3 70.9(3) . 2_776
F2 Tm2 Cs3 133.2(3) 2_676 2_786
F2 Tm2 O6 90.7(4) . .
F2 Tm2 O6 89.3(5) . 2_676
F2 Tm2 O6 90.7(4) 2_676 2_676
F2 Tm2 O6 89.3(5) 2_676 .
F2 Tm2 F1 88.9(3) 2_676 .
F2 Tm2 F1 91.1(3) . .
F2 Tm2 F1 91.1(3) 2_676 2_676
F2 Tm2 F1 88.9(3) . 2_676
F2 Tm2 F2 180.0 . 2_676
Si2 Cs1 Si3 97.54(5) 2_467 2_567
Si2 Cs1 Si4 97.34(5) 2_467 2_577
Si3 Cs1 Si4 96.12(5) 2_567 2_577
O1 Cs1 Si2 106.20(12) 2_577 2_467
O1 Cs1 Si3 71.45(11) 2_577 2_567
O1 Cs1 Si4 25.46(11) 2_577 2_577
O3 Cs1 Si2 26.04(12) 2_467 2_467
O3 Cs1 Si3 105.32(14) 2_467 2_567
O3 Cs1 Si4 71.91(13) 2_467 2_577
O3 Cs1 O1 85.03(17) 2_467 2_577
O3 Cs1 O7 84.44(18) 2_467 2_567
O5 Cs1 Si2 97.03(15) . 2_467
O5 Cs1 Si2 24.62(13) 2_467 2_467
O5 Cs1 Si3 165.33(14) . 2_567
O5 Cs1 Si3 103.14(15) 2_467 2_567
O5 Cs1 Si4 119.87(13) 2_467 2_577
O5 Cs1 Si4 83.67(14) . 2_577
O5 Cs1 O1 105.93(18) . 2_577
O5 Cs1 O1 130.80(17) 2_467 2_577
O5 Cs1 O3 88.60(19) . 2_467
O5 Cs1 O3 48.19(17) 2_467 2_467
O5 Cs1 O5 89.5(2) . 2_467
O5 Cs1 O7 167.42(19) . 2_567
O5 Cs1 O7 78.04(19) 2_467 2_567
O5 Cs1 O8 81.35(19) . .
O5 Cs1 O8 59.73(18) . 2_577
O5 Cs1 O8 138.13(19) 2_467 .
O5 Cs1 O8 116.6(2) 2_467 2_577
O5 Cs1 O9 58.69(18) 2_467 .
O5 Cs1 O9 141.77(19) . 2_567
O5 Cs1 O9 81.74(19) . .
O7 Cs1 Si2 72.33(12) 2_567 2_467
O7 Cs1 Si3 25.73(12) 2_567 2_567
O7 Cs1 Si4 104.00(12) 2_567 2_577
O7 Cs1 O1 83.94(16) 2_567 2_577
O8 Cs1 Si2 162.57(14) . 2_467
O8 Cs1 Si2 100.54(17) 2_577 2_467
O8 Cs1 Si3 118.81(13) 2_577 2_567
O8 Cs1 Si3 84.25(14) . 2_567
O8 Cs1 Si4 99.71(15) . 2_577
O8 Cs1 Si4 23.97(13) 2_577 2_577
O8 Cs1 O1 47.40(17) 2_577 2_577
O8 Cs1 O1 90.84(18) . 2_577
O8 Cs1 O3 167.66(19) . 2_467
O8 Cs1 O3 75.0(2) 2_577 2_467
O8 Cs1 O7 106.72(18) . 2_567
O8 Cs1 O7 127.76(17) 2_577 2_567
O8 Cs1 O8 93.6(2) . 2_577
O8 Cs1 O9 79.52(18) . .
O8 Cs1 O9 141.47(19) 2_577 .
O9 Cs1 Si2 120.00(14) 2_567 2_467
O9 Cs1 Si2 83.07(13) . 2_467
O9 Cs1 Si3 23.74(14) 2_567 2_567
O9 Cs1 Si3 98.36(15) . 2_567
O9 Cs1 Si4 99.48(16) 2_567 2_577
O9 Cs1 Si4 165.33(15) . 2_577
O9 Cs1 O1 74.38(19) 2_567 2_577
O9 Cs1 O1 166.78(18) . 2_577
O9 Cs1 O3 128.83(19) 2_567 2_467
O9 Cs1 O3 106.21(19) . 2_467
O9 Cs1 O5 119.9(2) 2_567 2_467
O9 Cs1 O7 47.75(17) 2_567 2_567
O9 Cs1 O7 90.14(18) . 2_567
O9 Cs1 O8 60.50(18) 2_567 .
O9 Cs1 O8 116.8(2) 2_567 2_577
O9 Cs1 O9 92.9(2) 2_567 .
Cs3 Cs2 Si3 105.40(5) 2_776 1_665
Si1 Cs2 Cs3 164.26(3) 1_665 2_776
Si1 Cs2 Si2 46.11(6) 1_665 1_765
Si1 Cs2 Si3 83.61(6) 1_665 1_665
Si2 Cs2 Cs3 144.05(5) 1_765 2_776
Si2 Cs2 Si3 90.79(5) 1_765 1_665
O1 Cs2 Cs3 60.50(11) 1_655 2_776
O1 Cs2 Si1 135.18(11) 1_655 1_665
O1 Cs2 Si2 98.95(12) 1_655 1_765
O1 Cs2 Si3 67.48(11) 1_655 1_665
O2 Cs2 Cs3 56.10(14) 1_655 2_776
O2 Cs2 Si1 133.76(14) 1_655 1_665
O2 Cs2 Si2 88.44(14) 1_655 1_765
O2 Cs2 Si3 109.22(13) 1_655 1_665
O2 Cs2 O1 43.03(16) 1_655 1_655
O3 Cs2 Cs3 119.88(12) 1_765 2_776
O3 Cs2 Si1 69.75(13) 1_765 1_665
O3 Cs2 Si2 24.21(12) 1_765 1_765
O3 Cs2 Si3 100.38(13) 1_765 1_665
O3 Cs2 O1 82.21(17) 1_765 1_655
O3 Cs2 O2 64.33(18) 1_765 1_655
O4 Cs2 Cs3 83.91(12) 1_665 2_776
O4 Cs2 Si1 102.28(13) 1_665 1_665
O4 Cs2 Si2 113.86(12) 1_665 1_765
O4 Cs2 Si3 23.36(12) 1_665 1_665
O4 Cs2 O1 62.28(16) 1_665 1_655
O4 Cs2 O2 104.74(17) 1_665 1_655
O4 Cs2 O3 119.96(17) 1_665 1_765
O7 Cs2 Cs3 128.89(13) 1_665 2_776
O7 Cs2 Si1 60.92(13) 1_665 1_665
O7 Cs2 Si2 70.86(13) 1_665 1_765
O7 Cs2 Si3 23.50(13) 1_665 1_665
O7 Cs2 O1 83.63(16) 1_665 1_655
O7 Cs2 O2 119.33(19) 1_665 1_655
O7 Cs2 O3 86.16(16) 1_665 1_765
O7 Cs2 O4 45.90(16) 1_665 1_665
O10 Cs2 Cs3 163.37(14) 1_665 2_776
O10 Cs2 Si1 23.53(13) 1_665 1_665
O10 Cs2 Si2 22.61(13) 1_665 1_765
O10 Cs2 Si3 87.97(15) 1_665 1_665
O10 Cs2 O1 118.22(17) 1_665 1_655
O10 Cs2 O2 110.54(19) 1_665 1_655
O10 Cs2 O3 46.29(17) 1_665 1_765
O10 Cs2 O4 110.63(18) 1_665 1_665
O10 Cs2 O7 64.77(19) 1_665 1_665
F1 Cs2 Cs3 73.5(2) 1_655 2_776
F1 Cs2 Si1 95.3(2) 1_655 1_665
F1 Cs2 Si2 95.7(2) 1_655 1_765
F1 Cs2 Si3 169.8(2) 1_655 1_665
F1 Cs2 O1 118.9(2) 1_655 1_655
F1 Cs2 O2 78.8(3) 1_655 1_655
F1 Cs2 O3 88.7(3) 1_655 1_765
F1 Cs2 O4 150.1(3) 1_655 1_665
F1 Cs2 O7 156.0(3) 1_655 1_665
F1 Cs2 O10 95.1(3) 1_655 1_665
F1 Cs2 F2 85.2(2) 1_655 .
F2 Cs2 Cs3 73.6(2) . 2_776
F2 Cs2 Si1 94.8(2) . 1_665
F2 Cs2 Si2 140.9(2) . 1_765
F2 Cs2 Si3 84.8(3) . 1_665
F2 Cs2 O1 114.8(2) . 1_655
F2 Cs2 O2 129.7(3) . 1_655
F2 Cs2 O3 162.8(3) . 1_765
F2 Cs2 O4 69.6(3) . 1_665
F2 Cs2 O7 93.0(3) . 1_665
F2 Cs2 O10 118.2(3) . 1_665
Tm2 Cs3 Tm2 113.00(3) 1_665 .
Tm2 Cs3 Tm2 114.62(3) 1_665 1_655
Tm2 Cs3 Tm2 105.357(18) 1_655 .
Tm2 Cs3 Cs2 84.929(17) 1_665 .
Tm2 Cs3 Si4 113.80(4) 1_665 2_676
Cs2 Cs3 Tm2 68.34(3) 2_776 1_655
Cs2 Cs3 Tm2 68.50(3) 2_776 .
Cs2 Cs3 Tm2 64.67(2) . .
Cs2 Cs3 Tm2 175.53(3) 2_776 1_665
Cs2 Cs3 Tm2 66.30(2) . 1_655
Cs2 Cs3 Cs2 99.45(2) 2_776 .
Cs2 Cs3 Si4 61.81(4) 2_776 2_676
Si4 Cs3 Tm2 118.65(4) 2_676 1_655
Si4 Cs3 Tm2 87.81(5) 2_676 .
Si4 Cs3 Cs2 151.63(5) 2_676 .
O2 Cs3 Tm2 65.37(12) 2_676 .
O2 Cs3 Tm2 123.35(13) 2_676 1_665
O2 Cs3 Tm2 120.18(13) 2_676 1_655
O2 Cs3 Cs2 52.98(12) 2_676 2_776
O2 Cs3 Cs2 129.18(12) 2_676 .
O2 Cs3 Si4 22.57(12) 2_676 2_676
O2 Cs3 O6 108.08(18) 2_676 2_776
O6 Cs3 Tm2 29.65(10) 2_776 1_655
O6 Cs3 Tm2 112.32(15) 2_776 1_665
O6 Cs3 Tm2 127.63(14) 2_776 .
O6 Cs3 Cs2 68.40(14) 2_776 2_776
O6 Cs3 Cs2 94.98(11) 2_776 .
O6 Cs3 Si4 96.88(12) 2_776 2_676
F1 Cs3 Tm2 96.0(2) 1_655 1_665
F1 Cs3 Tm2 96.9(2) 1_655 .
F1 Cs3 Tm2 89.8(2) 2_786 1_655
F1 Cs3 Tm2 142.99(19) 2_786 .
F1 Cs3 Tm2 32.04(17) 2_786 1_665
F1 Cs3 Tm2 27.08(17) 1_655 1_655
F1 Cs3 Cs2 41.9(2) 1_655 .
F1 Cs3 Cs2 87.9(2) 1_655 2_776
F1 Cs3 Cs2 147.55(18) 2_786 2_776
F1 Cs3 Cs2 92.7(2) 2_786 .
F1 Cs3 Si4 114.5(2) 2_786 2_676
F1 Cs3 Si4 145.21(18) 1_655 2_676
F1 Cs3 O2 140.3(2) 1_655 2_676
F1 Cs3 O2 134.5(3) 2_786 2_676
F1 Cs3 O6 80.7(2) 2_786 2_776
F1 Cs3 O6 53.4(2) 1_655 2_776
F1 Cs3 F1 81.3(3) 2_786 1_655
F1 Cs3 F2 63.04(18) 2_786 2_786
F1 Cs3 F2 120.2(4) 2_786 .
F2 Cs3 Tm2 32.08(19) 2_786 1_665
F2 Cs3 Tm2 99.0(2) . 1_655
F2 Cs3 Tm2 143.0(2) 2_786 1_655
F2 Cs3 Tm2 94.9(2) . 1_665
F2 Cs3 Tm2 86.5(2) 2_786 .
F2 Cs3 Tm2 25.4(2) . .
F2 Cs3 Cs2 146.3(2) 2_786 2_776
F2 Cs3 Cs2 89.1(2) 2_786 .
F2 Cs3 Cs2 42.4(2) . .
F2 Cs3 Cs2 87.8(2) . 2_776
F2 Cs3 Si4 96.3(2) 2_786 2_676
F2 Cs3 Si4 112.0(2) . 2_676
F2 Cs3 O2 90.0(3) . 2_676
F2 Cs3 O2 96.7(2) 2_786 2_676
F2 Cs3 O6 127.9(2) . 2_776
F2 Cs3 O6 143.7(3) 2_786 2_776
F2 Cs3 F1 81.28(19) . 1_655
F2 Cs3 F1 118.4(3) 2_786 1_655
F2 Cs3 F2 76.7(3) 2_786 .
Cs2 Si1 Cs2 121.57(9) 1_445 .
Cs2 Si1 Cs2 120.92(9) 1_445 1_455
Cs2 Si1 Cs2 112.73(4) . 1_455
O2 Si1 Cs2 47.1(3) . 1_455
O2 Si1 Cs2 152.8(3) . .
O2 Si1 Cs2 85.1(3) . 1_445
O2 Si1 O4 107.5(4) . 1_665
O4 Si1 Cs2 45.7(3) 1_665 .
O4 Si1 Cs2 80.1(3) 1_665 1_455
O4 Si1 Cs2 157.6(3) 1_665 1_445
O6 Si1 Cs2 77.3(3) . 1_445
O6 Si1 Cs2 81.4(5) . .
O6 Si1 Cs2 90.0(5) . 1_455
O6 Si1 O2 112.3(7) . .
O6 Si1 O4 112.9(4) . 1_665
O6 Si1 O10 109.3(5) . .
O10 Si1 Cs2 152.8(3) . 1_455
O10 Si1 Cs2 89.6(3) . .
O10 Si1 Cs2 49.8(3) . 1_445
O10 Si1 O2 106.4(4) . .
O10 Si1 O4 108.1(4) . 1_665
Cs1 Si2 Cs1 124.27(6) 2_467 2_577
Cs1 Si2 Cs1 65.10(4) . 2_577
Cs1 Si2 Cs1 71.36(5) 2_467 .
Cs1 Si2 Cs2 132.13(7) . 1_345
Cs1 Si2 Cs2 67.24(5) 2_467 1_345
Cs2 Si2 Cs1 162.37(7) 1_345 2_577
O1 Si2 Cs1 154.1(3) . 2_467
O1 Si2 Cs1 47.4(2) . 2_577
O1 Si2 Cs1 84.5(2) . .
O1 Si2 Cs2 128.7(3) . 1_345
O1 Si2 O3 106.5(3) . .
O3 Si2 Cs1 62.6(3) . 2_467
O3 Si2 Cs1 138.7(3) . 2_577
O3 Si2 Cs1 83.4(3) . .
O3 Si2 Cs2 56.8(3) . 1_345
O5 Si2 Cs1 49.2(3) . .
O5 Si2 Cs1 57.0(3) . 2_467
O5 Si2 Cs1 68.4(3) . 2_577
O5 Si2 Cs2 118.0(3) . 1_345
O5 Si2 O1 113.3(4) . .
O5 Si2 O3 111.1(4) . .
O5 Si2 O10 114.7(4) . 1_455
O10 Si2 Cs1 114.8(3) 1_455 2_577
O10 Si2 Cs1 163.7(3) 1_455 .
O10 Si2 Cs1 97.9(3) 1_455 2_467
O10 Si2 Cs2 47.7(3) 1_455 1_345
O10 Si2 O1 107.6(4) 1_455 .
O10 Si2 O3 102.9(4) 1_455 .
Cs1 Si3 Cs1 68.86(4) 2_567 .
Cs1 Si3 Cs1 121.93(6) 2_567 2_467
Cs1 Si3 Cs1 64.93(4) . 2_467
Cs1 Si3 Cs2 126.66(6) . 1_445
Cs1 Si3 Cs2 66.76(4) 2_567 1_445
Cs2 Si3 Cs1 168.39(6) 1_445 2_467
O3 Si3 Cs1 148.5(3) . 2_567
O3 Si3 Cs1 80.5(3) . .
O3 Si3 Cs1 44.1(3) . 2_467
O3 Si3 Cs2 132.8(3) . 1_445
O3 Si3 O7 106.1(4) . .
O4 Si3 Cs1 167.6(3) . .
O4 Si3 Cs1 103.4(3) . 2_567
O4 Si3 Cs1 114.6(3) . 2_467
O4 Si3 Cs2 54.0(2) . 1_445
O4 Si3 O3 108.1(4) . .
O4 Si3 O7 103.3(4) . .
O7 Si3 Cs1 137.0(2) . 2_467
O7 Si3 Cs1 82.3(3) . .
O7 Si3 Cs1 63.8(3) . 2_567
O7 Si3 Cs2 52.2(2) . 1_445
O9 Si3 Cs1 52.5(3) . 2_567
O9 Si3 Cs1 53.0(3) . .
O9 Si3 Cs1 71.9(3) . 2_467
O9 Si3 Cs2 113.6(3) . 1_445
O9 Si3 O3 113.4(4) . .
O9 Si3 O4 114.7(4) . .
O9 Si3 O7 110.6(4) . .
Cs1 Si4 Cs1 69.03(4) 2_577 .
Cs1 Si4 Cs2 127.59(7) . 1_455
Cs1 Si4 Cs2 64.39(4) 2_577 1_455
Cs1 Si4 Cs3 135.99(7) . 2_676
Cs1 Si4 Cs3 116.87(7) 2_577 2_676
Cs3 Si4 Cs2 57.06(4) 2_676 1_455
O1 Si4 Cs1 81.7(2) . .
O1 Si4 Cs1 62.9(2) . 2_577
O1 Si4 Cs2 56.7(2) . 1_455
O1 Si4 Cs3 66.6(2) . 2_676
O1 Si4 O7 105.7(4) . .
O2 Si4 Cs1 167.3(3) . .
O2 Si4 Cs1 101.6(3) . 2_577
O2 Si4 Cs2 49.6(3) . 1_455
O2 Si4 Cs3 55.4(3) . 2_676
O2 Si4 O1 102.0(4) . .
O2 Si4 O7 107.6(4) . .
O7 Si4 Cs1 150.5(3) . 2_577
O7 Si4 Cs1 82.7(3) . .
O7 Si4 Cs2 134.7(3) . 1_455
O7 Si4 Cs3 77.7(3) . 2_676
O8 Si4 Cs1 51.3(3) . .
O8 Si4 Cs1 56.4(3) . 2_577
O8 Si4 Cs2 113.4(3) . 1_455
O8 Si4 Cs3 169.9(4) . 2_676
O8 Si4 O1 112.1(4) . .
O8 Si4 O2 116.6(5) . .
O8 Si4 O7 111.9(4) . .
Cs1 O1 Cs2 75.77(13) 2_577 1_455
Si2 O1 Cs1 112.0(3) . 2_577
Si2 O1 Cs2 127.6(3) . 1_455
Si2 O1 Si4 129.5(4) . .
Si4 O1 Cs1 91.6(3) . 2_577
Si4 O1 Cs2 100.6(3) . 1_455
Cs2 O2 Cs3 70.92(15) 1_455 2_676
Si1 O2 Cs2 112.1(3) . 1_455
Si1 O2 Cs3 110.8(4) . 2_676
Si1 O2 Si4 133.8(5) . .
Si4 O2 Cs2 108.7(3) . 1_455
Si4 O2 Cs3 102.0(3) . 2_676
Cs1 O3 Cs2 79.48(15) 2_467 1_345
Si2 O3 Cs1 91.4(3) . 2_467
Si2 O3 Cs2 99.0(3) . 1_345
Si3 O3 Cs1 115.8(4) . 2_467
Si3 O3 Cs2 125.7(4) . 1_345
Si3 O3 Si2 129.8(5) . .
Si1 O4 Cs2 113.6(3) 1_445 1_445
Si3 O4 Cs2 102.6(3) . 1_445
Si3 O4 Si1 140.0(5) . 1_445
Tm1 O5 Cs1 103.2(3) 1_466 .
Tm1 O5 Cs1 101.1(2) 1_466 2_467
Cs1 O5 Cs1 90.50(19) . 2_467
Si2 O5 Tm1 142.8(5) . 1_466
Si2 O5 Cs1 98.4(3) . 2_467
Si2 O5 Cs1 107.9(4) . .
Tm2 O6 Cs3 95.2(4) . 2_776
Si1 O6 Tm2 143.1(5) . .
Si1 O6 Cs3 105.3(6) . 2_776
Cs2 O7 Cs1 80.11(15) 1_445 2_567
Si3 O7 Cs1 90.4(3) . 2_567
Si3 O7 Cs2 104.3(3) . 1_445
Si3 O7 Si4 130.3(4) . .
Si4 O7 Cs1 113.2(3) . 2_567
Si4 O7 Cs2 121.9(3) . 1_445
Tm1 O8 Cs1 97.7(3) 1_566 .
Tm1 O8 Cs1 98.3(3) 1_566 2_577
Cs1 O8 Cs1 86.4(2) . 2_577
Si4 O8 Tm1 150.8(5) . 1_566
Si4 O8 Cs1 99.7(3) . 2_577
Si4 O8 Cs1 106.2(4) . .
Tm1 O9 Cs1 101.4(3) 1_456 2_567
Tm1 O9 Cs1 97.9(3) 1_456 .
Cs1 O9 Cs1 87.1(2) 2_567 .
Si3 O9 Tm1 146.8(5) . 1_456
Si3 O9 Cs1 103.8(3) . 2_567
Si3 O9 Cs1 104.6(3) . .
Si1 O10 Cs2 106.7(3) . 1_445
Si2 O10 Cs2 109.7(3) 1_655 1_445
Si2 O10 Si1 143.4(5) 1_655 .
Tm2 F1 Cs2 139.4(5) . 1_455
Tm2 F1 Cs3 113.5(4) . 1_455
Tm2 F1 Cs3 101.8(4) . 2_786
Cs2 F1 Cs3 93.6(3) 1_455 1_455
Cs2 F1 Cs3 103.3(3) 1_455 2_786
Cs3 F1 Cs3 98.7(3) 2_786 1_455
Tm2 F2 Cs2 134.2(5) . .
Tm2 F2 Cs3 118.2(5) . .
Tm2 F2 Cs3 101.2(4) . 2_786
Cs2 F2 Cs3 93.7(3) . .
Cs2 F2 Cs3 102.4(4) . 2_786
Cs3 F2 Cs3 103.3(3) 2_786 .
loop_
_geom_bond_atom_site_label_1
_geom_bond_atom_site_label_2
_geom_bond_distance
_geom_bond_site_symmetry_2
Tm1 Cs1 4.1536(10) 2_666
Tm1 Cs1 4.2065(6) 2_556
Tm1 Cs1 4.1855(10) 1_644
Tm1 Cs1 4.1536(10) 1_544
Tm1 Cs1 4.1855(10) 2_566
Tm1 Cs1 4.2065(6) 1_654
Tm1 O5 2.208(7) 2_566
Tm1 O5 2.208(7) 1_644
Tm1 O8 2.235(7) 2_666
Tm1 O8 2.235(7) 1_544
Tm1 O9 2.232(7) 2_556
Tm1 O9 2.232(7) 1_654
Tm2 Cs3 4.4905(17) 2_676
Tm2 Cs3 4.4905(17) .
Tm2 Cs3 4.4097(16) 2_776
Tm2 Cs3 4.4097(16) 1_455
Tm2 Cs3 4.0397(9) 1_445
Tm2 Cs3 4.0397(9) 2_786
Tm2 O6 2.190(7) .
Tm2 O6 2.190(7) 2_676
Tm2 F1 2.189(9) 2_676
Tm2 F1 2.189(9) .
Tm2 F2 2.187(11) 2_676
Tm2 F2 2.187(11) .
Cs1 Si2 3.754(3) 2_467
Cs1 Si3 3.783(2) 2_567
Cs1 Si4 3.825(3) 2_577
Cs1 O1 3.407(7) 2_577
Cs1 O3 3.332(7) 2_467
Cs1 O5 3.087(8) .
Cs1 O5 3.181(8) 2_467
Cs1 O7 3.395(7) 2_567
Cs1 O8 3.231(8) 2_577
Cs1 O8 3.213(9) .
Cs1 O9 3.273(8) .
Cs1 O9 3.089(8) 2_567
Cs2 Cs3 3.9879(10) 2_776
Cs2 Si1 3.913(2) 1_665
Cs2 Si2 3.970(3) 1_765
Cs2 Si3 3.991(2) 1_665
Cs2 O1 3.560(7) 1_655
Cs2 O2 3.369(7) 1_655
Cs2 O3 3.364(8) 1_765
Cs2 O4 3.309(7) 1_665
Cs2 O7 3.254(7) 1_665
Cs2 O10 3.119(7) 1_665
Cs2 F1 2.910(11) 1_655
Cs2 F2 2.938(11) .
Cs3 Tm2 4.0397(9) 1_665
Cs3 Tm2 4.4097(16) 1_655
Cs3 Cs2 3.9879(10) 2_776
Cs3 Si4 4.161(3) 2_676
Cs3 O2 3.502(8) 2_676
Cs3 O6 3.635(15) 2_776
Cs3 F1 2.977(12) 2_786
Cs3 F1 3.053(12) 1_655
Cs3 F2 3.023(12) .
Cs3 F2 3.000(12) 2_786
Si1 Cs2 3.9129(19) 1_445
Si1 Cs2 4.261(4) 1_455
Si1 O2 1.632(8) .
Si1 O4 1.639(7) 1_665
Si1 O6 1.564(7) .
Si1 O10 1.631(7) .
Si2 Cs1 4.293(3) 2_577
Si2 Cs1 3.753(3) 2_467
Si2 Cs2 3.970(3) 1_345
Si2 O1 1.630(7) .
Si2 O3 1.648(7) .
Si2 O5 1.581(7) .
Si2 O10 1.622(7) 1_455
Si3 Cs1 4.307(2) 2_467
Si3 Cs1 3.783(2) 2_567
Si3 Cs2 3.991(2) 1_445
Si3 O3 1.639(7) .
Si3 O4 1.621(7) .
Si3 O7 1.642(7) .
Si3 O9 1.569(8) .
Si4 Cs1 3.825(3) 2_577
Si4 Cs2 4.188(3) 1_455
Si4 Cs3 4.161(3) 2_676
Si4 O1 1.645(7) .
Si4 O2 1.633(8) .
Si4 O7 1.654(7) .
Si4 O8 1.577(8) .
O1 Cs1 3.407(7) 2_577
O1 Cs2 3.560(7) 1_455
O2 Cs2 3.369(7) 1_455
O2 Cs3 3.502(8) 2_676
O3 Cs1 3.332(7) 2_467
O3 Cs2 3.363(8) 1_345
O4 Cs2 3.309(7) 1_445
O4 Si1 1.639(7) 1_445
O5 Tm1 2.208(7) 1_466
O5 Cs1 3.181(8) 2_467
O6 Cs3 3.635(15) 2_776
O7 Cs1 3.395(7) 2_567
O7 Cs2 3.254(7) 1_445
O8 Tm1 2.235(7) 1_566
O8 Cs1 3.231(8) 2_577
O9 Tm1 2.232(7) 1_456
O9 Cs1 3.089(8) 2_567
O10 Cs2 3.119(7) 1_445
O10 Si2 1.622(7) 1_655
F1 Cs2 2.910(11) 1_455
F1 Cs3 2.977(12) 2_786
F1 Cs3 3.053(12) 1_455
F2 Cs3 3.000(12) 2_786
loop_
_twin_individual_id
_twin_individual_mass_fraction_refined
1 0.576(2)
2 0.424(2)
