#------------------------------------------------------------------------------
#$Date: 2017-07-07 19:22:03 +0300 (Fri, 07 Jul 2017) $
#$Revision: 198549 $
#$URL: file:///home/coder/svn-repositories/cod/cif/4/12/62/4126264.cif $
#------------------------------------------------------------------------------
#
# This file is available in the Crystallography Open Database (COD),
# http://www.crystallography.net/
#
# All data on this site have been placed in the public domain by the
# contributors.
#
data_4126264
loop_
_publ_author_name
'Cheng, Biao'
'Lu, Peng'
'Zhang, Heyi'
'Cheng, Xinpeng'
'Lu, Zhan'
_publ_section_title
;
 Highly Enantioselective Cobalt-Catalyzed Hydrosilylation of Alkenes.
;
_journal_name_full               'Journal of the American Chemical Society'
_journal_paper_doi               10.1021/jacs.7b04137
_journal_year                    2017
_chemical_absolute_configuration rmad
_chemical_formula_moiety         'C18 H18 Si'
_chemical_formula_sum            'C18 H18 Si'
_chemical_formula_weight         262.41
_space_group_crystal_system      monoclinic
_space_group_IT_number           4
_space_group_name_Hall           'P 2yb'
_space_group_name_H-M_alt        'P 1 21 1'
_symmetry_space_group_name_Hall  'P 2yb'
_symmetry_space_group_name_H-M   'P 1 21 1'
_atom_sites_solution_hydrogens   mixed
_atom_sites_solution_primary     direct
_audit_creation_date             2017-04-06
_audit_creation_method
;
Olex2 1.2
(compiled 2017.03.28 svn.r3405 for OlexSys, GUI svn.r5324)
;
_cell_angle_alpha                90
_cell_angle_beta                 112.265(5)
_cell_angle_gamma                90
_cell_formula_units_Z            2
_cell_length_a                   11.3968(5)
_cell_length_b                   5.98855(18)
_cell_length_c                   11.9533(6)
_cell_measurement_reflns_used    3305
_cell_measurement_temperature    293(2)
_cell_measurement_theta_max      66.7706
_cell_measurement_theta_min      3.9929
_cell_volume                     754.99(6)
_computing_cell_refinement
;
CrysAlisPro, Agilent Technologies,
Version 1.171.35.11 (release 16-05-2011 CrysAlis171 .NET)
(compiled May 16 2011,17:55:39)
;
_computing_data_collection
;
CrysAlisPro, Agilent Technologies,
Version 1.171.35.11 (release 16-05-2011 CrysAlis171 .NET)
(compiled May 16 2011,17:55:39)
;
_computing_data_reduction
;
CrysAlisPro, Agilent Technologies,
Version 1.171.35.11 (release 16-05-2011 CrysAlis171 .NET)
(compiled May 16 2011,17:55:39)
;
_computing_molecular_graphics    'Olex2 (Dolomanov et al., 2009)'
_computing_publication_material  'Olex2 (Dolomanov et al., 2009)'
_computing_structure_refinement  'ShelXL (Sheldrick, 2015)'
_computing_structure_solution    'ShelXS (Sheldrick, 2008)'
_diffrn_ambient_temperature      293.15
_diffrn_detector_area_resol_mean 5.1796
_diffrn_measured_fraction_theta_full 0.986
_diffrn_measured_fraction_theta_max 0.986
_diffrn_measurement_details
;
#__ type_ start__ end____ width___ exp.time_
  1 omega   15.00   94.00   1.0000    2.0000
omega____ theta____ kappa____ phi______ frames
    -       41.1938   38.0000  -90.0000 79

#__ type_ start__ end____ width___ exp.time_
  2 omega  -32.00   68.00   1.0000    2.0000
omega____ theta____ kappa____ phi______ frames
    -       41.1938  -38.0000   90.0000 100

#__ type_ start__ end____ width___ exp.time_
  3 omega   16.00   86.00   1.0000    2.0000
omega____ theta____ kappa____ phi______ frames
    -       41.1938 -125.0000   30.0000 70

#__ type_ start__ end____ width___ exp.time_
  4 omega -116.00  -89.00   1.0000    8.0000
omega____ theta____ kappa____ phi______ frames
    -      -83.0000  125.0000 -150.0000 27

#__ type_ start__ end____ width___ exp.time_
  5 omega   14.00   80.00   1.0000    8.0000
omega____ theta____ kappa____ phi______ frames
    -       93.5000  -15.0000  150.0000 66

#__ type_ start__ end____ width___ exp.time_
  6 omega   27.00   72.00   1.0000    8.0000
omega____ theta____ kappa____ phi______ frames
    -       93.5000  -45.0000   30.0000 45

#__ type_ start__ end____ width___ exp.time_
  7 omega   69.00  111.00   1.0000    8.0000
omega____ theta____ kappa____ phi______ frames
    -       93.5000   45.0000   60.0000 42

#__ type_ start__ end____ width___ exp.time_
  8 omega   67.00  168.00   1.0000    8.0000
omega____ theta____ kappa____ phi______ frames
    -       93.5000   45.0000  150.0000 101

#__ type_ start__ end____ width___ exp.time_
  9 omega   38.00   70.00   1.0000    8.0000
omega____ theta____ kappa____ phi______ frames
    -       93.5000  -45.0000  120.0000 32

#__ type_ start__ end____ width___ exp.time_
 10 omega   54.00  106.00   1.0000    8.0000
omega____ theta____ kappa____ phi______ frames
    -       93.5000  -77.0000  120.0000 52

#__ type_ start__ end____ width___ exp.time_
 11 omega   42.00   69.00   1.0000    8.0000
omega____ theta____ kappa____ phi______ frames
    -       93.5000  -45.0000  -90.0000 27

#__ type_ start__ end____ width___ exp.time_
 12 omega  108.00  150.00   1.0000    8.0000
omega____ theta____ kappa____ phi______ frames
    -       93.5000  -15.0000  150.0000 42

#__ type_ start__ end____ width___ exp.time_
 13 omega  126.00  159.00   1.0000    8.0000
omega____ theta____ kappa____ phi______ frames
    -       93.5000   45.0000   60.0000 33

#__ type_ start__ end____ width___ exp.time_
 14 omega   12.00  128.00   1.0000    8.0000
omega____ theta____ kappa____ phi______ frames
    -       93.5000  -93.0000   12.0000 116

#__ type_ start__ end____ width___ exp.time_
 15 omega   19.00   60.00   1.0000    8.0000
omega____ theta____ kappa____ phi______ frames
    -       93.5000  -45.0000 -120.0000 41

#__ type_ start__ end____ width___ exp.time_
 16 omega   33.00  123.00   1.0000    8.0000
omega____ theta____ kappa____ phi______ frames
    -       93.5000  -78.0000 -153.0000 90
;
_diffrn_measurement_device_type  'Xcalibur, Atlas, Gemini ultra'
_diffrn_measurement_method       '\w scans'
_diffrn_orient_matrix_UB_11      -0.0207433000
_diffrn_orient_matrix_UB_12      -0.2104245000
_diffrn_orient_matrix_UB_13      -0.0793729000
_diffrn_orient_matrix_UB_21      -0.1440887000
_diffrn_orient_matrix_UB_22      0.0172962000
_diffrn_orient_matrix_UB_23      -0.0323208000
_diffrn_orient_matrix_UB_31      -0.0129539000
_diffrn_orient_matrix_UB_32      0.1467109000
_diffrn_orient_matrix_UB_33      -0.1098213000
_diffrn_radiation_monochromator  mirror
_diffrn_radiation_type           CuK\a
_diffrn_radiation_wavelength     1.54184
_diffrn_reflns_av_R_equivalents  0.0527
_diffrn_reflns_av_unetI/netI     0.0480
_diffrn_reflns_Laue_measured_fraction_full 0.986
_diffrn_reflns_Laue_measured_fraction_max 0.986
_diffrn_reflns_limit_h_max       13
_diffrn_reflns_limit_h_min       -11
_diffrn_reflns_limit_k_max       7
_diffrn_reflns_limit_k_min       -6
_diffrn_reflns_limit_l_max       13
_diffrn_reflns_limit_l_min       -14
_diffrn_reflns_number            4415
_diffrn_reflns_point_group_measured_fraction_full 0.895
_diffrn_reflns_point_group_measured_fraction_max 0.895
_diffrn_reflns_theta_full        66.882
_diffrn_reflns_theta_max         66.882
_diffrn_reflns_theta_min         3.996
_diffrn_source                   'Enhance Ultra (Cu) X-ray Source'
_exptl_absorpt_coefficient_mu    1.219
_exptl_absorpt_correction_T_max  1.00000
_exptl_absorpt_correction_T_min  0.63301
_exptl_absorpt_correction_type   multi-scan
_exptl_absorpt_process_details
;
CrysAlisPro, Agilent Technologies,
Version 1.171.35.11 (release 16-05-2011 CrysAlis171 .NET)
(compiled May 16 2011,17:55:39)
Empirical absorption correction using spherical harmonics,
 implemented in SCALE3 ABSPACK scaling algorithm.
;
_exptl_crystal_colour            colourless
_exptl_crystal_colour_primary    colourless
_exptl_crystal_density_diffrn    1.154
_exptl_crystal_description       block
_exptl_crystal_F_000             280
_exptl_crystal_size_max          0.38
_exptl_crystal_size_mid          0.36
_exptl_crystal_size_min          0.3
_refine_diff_density_max         0.410
_refine_diff_density_min         -0.234
_refine_diff_density_rms         0.060
_refine_ls_abs_structure_details
;
 Classical Flack method preferred over Parsons because s.u. lower.
;
_refine_ls_abs_structure_Flack   0.07(6)
_refine_ls_extinction_method     none
_refine_ls_goodness_of_fit_ref   1.053
_refine_ls_hydrogen_treatment    mixed
_refine_ls_matrix_type           full
_refine_ls_number_parameters     179
_refine_ls_number_reflns         2404
_refine_ls_number_restraints     1
_refine_ls_restrained_S_all      1.052
_refine_ls_R_factor_all          0.0631
_refine_ls_R_factor_gt           0.0615
_refine_ls_shift/su_max          0.001
_refine_ls_shift/su_mean         0.000
_refine_ls_structure_factor_coef Fsqd
_refine_ls_weighting_details
'w=1/[\s^2^(Fo^2^)+(0.1225P)^2^+0.0161P] where P=(Fo^2^+2Fc^2^)/3'
_refine_ls_weighting_scheme      calc
_refine_ls_wR_factor_gt          0.1604
_refine_ls_wR_factor_ref         0.1652
_reflns_Friedel_coverage         0.642
_reflns_Friedel_fraction_full    0.783
_reflns_Friedel_fraction_max     0.782
_reflns_number_gt                2295
_reflns_number_total             2404
_reflns_threshold_expression     'I > 2\s(I)'
_cod_data_source_file            ja7b04137_si_003.cif
_cod_data_source_block           170401_cb9100_cu
_cod_database_code               4126264
_shelx_shelxl_version_number     2016/6
_chemical_oxdiff_formula         'c10 h10 n2 o8 Si1'
_shelx_space_group_comment
;
The symmetry employed for this shelxl refinement is uniquely defined
by the following loop, which should always be used as a source of
symmetry information in preference to the above space-group names.
They are only intended as comments.
;
_shelx_estimated_absorpt_t_max   0.711
_shelx_estimated_absorpt_t_min   0.655
_reflns_odcompleteness_completeness 99.72
_reflns_odcompleteness_iscentric 1
_reflns_odcompleteness_theta     64.99
_olex2_refinement_description
;
1. Fixed Uiso
 At 1.2 times of:
  All C(H) groups, All Si(H,H) groups
 At 1.5 times of:
  All C(H,H,H) groups
2.a Ternary CH refined with riding coordinates:
 C11(H11)
2.b Aromatic/amide H refined with riding coordinates:
 C1(H1), C2(H2), C3(H3), C4(H4), C7(H7), C9(H9), C10(H10), C14(H14), C15(H15),
 C16(H16), C17(H17), C18(H18)
2.c Idealised Me refined as rotating group:
 C12(H12A,H12B,H12C)
;
_shelx_res_file
;
TITL 170401_CB9100_Cu in P21 #4
    170401_cb9100_cu.res
    created by SHELXL-2016/6 at 13:11:24 on 06-Apr-2017
REM reset to P21 #4
CELL 1.54184 11.39681 5.98855 11.95332 90 112.2646 90
ZERR 2 0.00049 0.00018 0.00055 0 0.0052 0
LATT -1
SYMM -X,0.5+Y,-Z
SFAC C H Si
UNIT 36 36 2

L.S. 4
PLAN  20
SIZE 0.38 0.36 0.3
TEMP 20
BOND $H
HTAB
fmap 2
acta
REM <olex2.extras>
REM <HklSrc "%.\\170401_CB9100_Cu.hkl">
REM </olex2.extras>

WGHT    0.122500    0.016100
FVAR      13.58989
SI1   3    0.244834   -0.086367    0.796638    11.00000    0.07216    0.04451 =
         0.06220   -0.00345    0.03658   -0.00274
H1A   2    0.145578   -0.198482    0.770904    11.00000   -1.20000
H1B   2    0.358457   -0.179291    0.848671    11.00000   -1.20000
C1    1    0.662437    0.048266    0.604330    11.00000    0.06559    0.05339 =
         0.05184    0.00299    0.02858    0.00795
AFIX  43
H1    2    0.646601   -0.090542    0.566643    11.00000   -1.20000
AFIX   0
C2    1    0.774443    0.155375    0.623278    11.00000    0.06067    0.07712 =
         0.06272    0.00990    0.02655    0.00865
AFIX  43
H2    2    0.833938    0.088630    0.598088    11.00000   -1.20000
AFIX   0
C3    1    0.800573    0.364116    0.680093    11.00000    0.05990    0.08833 =
         0.06305    0.01991    0.01922   -0.00942
AFIX  43
H3    2    0.877164    0.434824    0.692555    11.00000   -1.20000
AFIX   0
C4    1    0.713645    0.464554    0.717393    11.00000    0.07239    0.04941 =
         0.05727    0.00609    0.01786   -0.00994
AFIX  43
H4    2    0.731746    0.603138    0.755199    11.00000   -1.20000
AFIX   0
C5    1    0.597184    0.359954    0.699030    11.00000    0.06551    0.04289 =
         0.03966    0.00385    0.01808   -0.00184
C6    1    0.570492    0.147428    0.641739    11.00000    0.05706    0.04394 =
         0.03590    0.00381    0.01859    0.00469
C7    1    0.454143    0.041797    0.624562    11.00000    0.06411    0.03783 =
         0.03981   -0.00213    0.02090    0.00031
AFIX  43
H7    2    0.437045   -0.097085    0.587011    11.00000   -1.20000
AFIX   0
C8    1    0.365579    0.137561    0.661510    11.00000    0.06182    0.04030 =
         0.04113   -0.00111    0.02328    0.00112
C9    1    0.392899    0.352268    0.716359    11.00000    0.07126    0.04419 =
         0.05576   -0.00695    0.03173    0.00397
AFIX  43
H9    2    0.332880    0.421520    0.739897    11.00000   -1.20000
AFIX   0
C10   1    0.503244    0.458479    0.735265    11.00000    0.08015    0.03649 =
         0.05257   -0.00493    0.02892   -0.00257
AFIX  43
H10   2    0.518208    0.597784    0.772422    11.00000   -1.20000
AFIX   0
C11   1    0.243095    0.021050    0.646548    11.00000    0.06302    0.05332 =
         0.05407   -0.01307    0.02882   -0.00799
AFIX  13
H11   2    0.238056   -0.110830    0.596391    11.00000   -1.20000
AFIX   0
C12   1    0.125859    0.158410    0.580217    11.00000    0.06457    0.09293 =
         0.06862    0.00338    0.02154    0.00069
AFIX 137
H12A  2    0.051742    0.074348    0.573432    11.00000   -1.50000
H12B  2    0.122876    0.194359    0.500917    11.00000   -1.50000
H12C  2    0.128549    0.293704    0.624201    11.00000   -1.50000
AFIX   0
C13   1    0.228340    0.139285    0.897519    11.00000    0.05896    0.04985 =
         0.04548    0.00430    0.02452    0.00291
C14   1    0.331385    0.259290    0.972596    11.00000    0.05440    0.07587 =
         0.04964   -0.00270    0.02127    0.00042
AFIX  43
H14   2    0.411715    0.222779    0.975258    11.00000   -1.20000
AFIX   0
C15   1    0.318982    0.432701    1.044249    11.00000    0.07002    0.06784 =
         0.04811   -0.00812    0.01688   -0.00509
AFIX  43
H15   2    0.389957    0.511724    1.093635    11.00000   -1.20000
AFIX   0
C16   1    0.200415    0.486630    1.041481    11.00000    0.08528    0.06416 =
         0.05508   -0.00784    0.03199    0.00422
AFIX  43
H16   2    0.191143    0.601589    1.089797    11.00000   -1.20000
AFIX   0
C17   1    0.095514    0.370258    0.967124    11.00000    0.07042    0.08242 =
         0.07424   -0.01384    0.03880    0.01025
AFIX  43
H17   2    0.015350    0.408063    0.964458    11.00000   -1.20000
AFIX   0
C18   1    0.109383    0.197851    0.896705    11.00000    0.05538    0.07263 =
         0.05955   -0.01034    0.02724   -0.00392
AFIX  43
H18   2    0.038148    0.118993    0.847699    11.00000   -1.20000
AFIX   0
HKLF 4




REM  170401_CB9100_Cu in P21 #4
REM R1 =  0.0615 for    2295 Fo > 4sig(Fo)  and  0.0631 for all    2404 data
REM    179 parameters refined using      1 restraints

END

WGHT      0.1238      0.0151

REM No hydrogen bonds found for HTAB generation

REM Highest difference peak  0.410,  deepest hole -0.234,  1-sigma level  0.060
Q1    1   0.2607 -0.0938  0.7154  11.00000  0.05    0.41
Q2    1   0.2462 -0.1295  0.8941  11.00000  0.05    0.26
Q3    1   0.1317  0.1903  0.8483  11.00000  0.05    0.22
Q4    1   0.7010  0.3957  0.7854  11.00000  0.05    0.22
Q5    1   0.1522 -0.0941  0.7439  11.00000  0.05    0.21
Q6    1   0.2521  0.4260  1.0281  11.00000  0.05    0.18
Q7    1   0.4814 -0.1256  0.9186  11.00000  0.05    0.18
Q8    1   0.3666  0.1362  0.5804  11.00000  0.05    0.17
Q9    1   0.3584  0.3068  0.8822  11.00000  0.05    0.16
Q10   1   0.0760  0.2782  0.7749  11.00000  0.05    0.16
Q11   1   0.3517 -0.1028  0.8821  11.00000  0.05    0.15
Q12   1   0.0661  0.1814  0.7226  11.00000  0.05    0.15
Q13   1   0.0035 -0.0708  0.6789  11.00000  0.05    0.15
Q14   1   0.4964  0.3846  0.8201  11.00000  0.05    0.15
Q15   1   0.0139  0.1462  0.5780  11.00000  0.05    0.14
Q16   1   0.7882  0.4029  0.5756  11.00000  0.05    0.14
Q17   1   0.8831  0.1646  0.6614  11.00000  0.05    0.14
Q18   1   0.4081  0.2023  0.5212  11.00000  0.05    0.14
Q19   1   0.9160  0.3815  0.7602  11.00000  0.05    0.14
Q20   1   0.3580  0.3865  0.8045  11.00000  0.05    0.13
;
_shelx_res_checksum              21109
_shelx_hkl_file
;
   0  -6  -4 3178.04 321.373   8
   0  -6  -5 3805.79 334.189   8
   0  -6  -6 108.919 55.8888   8
   0  -5  -2 2772.81 333.422   8
   0  -5   2 3536.85 759.066   1
   0  -5  -3 5079.08 471.776   8
   0  -5  -4 10690.0 708.074   8
   0  -5  -5 456.790 148.054   8
   0  -5  -6 2275.72 331.055   8
   0  -5  -7 3345.65 381.914   8
   0  -5  -8 2876.89 335.829   8
   0  -5  -9 1411.67 210.312   8
   0  -4  -1 10588.9 566.375   8
   0  -4  -2 25745.7 932.926   8
   0  -4  -3 6928.01 513.593   8
   0  -4  -4 9577.98 1165.51   1
   0  -4  -4 8343.49 598.339   8
   0  -4  -5 273.877 115.453   8
   0  -4  -5 162.193 127.341   1
   0  -4  -6 1936.18 329.543   8
   0  -4  -7 4403.50 501.958   8
   0  -4  -7 4385.77 461.397  14
   0  -4  -8 7285.42 586.041  14
   0  -4  -8 6647.11 604.066   8
   0  -4  -9 2666.23 334.099  14
   0  -4  -9 3231.94 396.716   8
   0  -4 -10 2550.77 316.150   8
   0  -3  -4 40614.0 1152.50   8
   0  -3  -5 16124.9 790.043   8
   0  -3  -5 12150.0 1116.44   1
   0  -3  -6 28518.7 1142.53   8
   0  -3  -7 28118.4 1225.44   8
   0  -3  -7 27174.0 1158.22  14
   0  -3  -8 13266.2 870.757   8
   0  -3  -8 12556.5 834.776  14
   0  -3  -9 1976.98 332.901  14
   0  -3  -9 1950.84 341.933   8
   0  -3 -10 4412.80 483.480   8
   0  -3 -10 3987.65 447.842  14
   0  -3 -11 1433.78 233.833  14
   0  -2  -5 15206.7 951.353   1
   0  -2  -6 5975.07 472.844   8
   0  -2  -6 7448.72 1016.95   3
   0  -2  -7 13193.5 770.583   8
   0  -2  -7 13105.3 780.150  14
   0  -2  -7 12343.5 1402.43   3
   0  -2  -8 41845.5 1468.46   8
   0  -2  -8 41007.0 1488.13  14
   0  -2  -9 9822.67 781.549  14
   0  -2  -9 10377.5 777.005   8
   0  -2 -10 3683.40 488.799  14
   0  -2 -10 3771.36 478.838   8
   0  -2 -11 2360.25 364.999  14
   0  -2 -12 5840.37 496.243  14
   0  -1   4 221703. 1500.29   1
   0  -1  -4 240027. 2670.80   1
   0  -1  -5 54978.3 2268.57   3
   0  -1  -6 259490. 5638.43   3
   0  -1  -6 281809. 2705.99  11
   0  -1  -7 2049.63 540.473   3
   0  -1  -7 1755.99 256.103   8
   0  -1  -7 2719.84 350.230  14
   0  -1  -8 22020.2 998.905   8
   0  -1  -8 22316.6 1885.38   3
   0  -1  -9 3143.72 408.647   8
   0  -1  -9 2724.83 705.745   3
   0  -1  -9 3435.81 471.370  14
   0  -1 -10 602.616 226.476  14
   0  -1 -11 1654.70 337.930  14
   0  -1 -12 2604.05 383.550  14
   0   0  -1 789.108 102.613   3
   0   0  -2 97258.2 1707.98   3
   0   0  -3 874341. 6539.66   3
   0   0  -4 24034.3 1256.77   3
   0   0  -5 18468.4 1256.83   3
   0   0  -6 671.079 104.828   4
   0   0  -6 417.570 201.062   3
   0   0  -7 14520.6 787.426  14
   0   0  -7 14164.6 1414.29   3
   0   0  -7 14702.9 531.227   4
   0   0  -8 196.145 85.5992  14
   0   0  -8 129.612 179.204   3
   0   0  -9 487.432 319.320   3
   0   0  -9 808.850 236.921  14
   0   0 -10 4790.17 594.371  14
   0   0 -11 1010.22 272.145  14
   0   0 -12 11086.0 842.659  14
   0   0 -13 3720.37 399.864  14
   0   1   0-18.0174 30.8944   2
   0   1   1 756198. 4903.23   2
   0   1  -1 885879. 5148.93   2
   0   1  -2 280313. 3829.89   3
   0   1   2 273903. 3136.30   2
   0   1  -3 772254. 6770.79   3
   0   1   3 820978. 5370.13   2
   0   1  -4 308018. 4906.41   3
   0   1  -4 271428. 2864.48   2
   0   1  -5 51205.3 2251.43   3
   0   1  -6 268670. 3114.94  14
   0   1  -6 269486. 2445.10   4
   0   1  -7 1548.75 271.257  14
   0   1  -7 2353.98 255.967   4
   0   1  -7 2005.92 563.180   3
   0   1  -8 30200.9 961.476   4
   0   1  -8 33143.9 1389.36  14
   0   1  -9 939.241 366.350   3
   0   1  -9 2758.43 452.095  14
   0   1 -10 726.933 262.904  14
   0   1 -11 2194.80 411.241  14
   0   1 -12 3260.41 458.118  14
   0   1 -13 967.761 192.573  14
   0   2   0 216366. 3805.61   2
   0   2  -1 152978. 3184.38   2
   0   2   1 138332. 3032.93   2
   0   2   2 185602. 3626.83   2
   0   2  -2 202678. 3682.34   2
   0   2   3 9407.83 825.256   2
   0   2  -3 7377.66 707.341   2
   0   2   4 367502. 5053.65   2
   0   2  -4 344427. 4845.63   2
   0   2  -5 16712.6 1606.29   3
   0   2  -6 7649.07 1193.86   3
   0   2  -6 6709.68 444.154   4
   0   2  -6 5713.38 522.580  14
   0   2  -7 15574.1 734.245   4
   0   2  -7 14943.1 927.912  14
   0   2  -7 15846.3 1823.63   3
   0   2  -8 45506.7 1760.51  14
   0   2  -8 42168.5 1286.85   4
   0   2  -9 10112.4 883.541  14
   0   2  -9 11136.1 669.049   4
   0   2 -10 3524.48 542.260  14
   0   2 -11 2912.64 446.143  14
   0   2 -12 6505.38 591.847  14
   0   2  12 7054.21 415.942   7
   0   3   0-139.982 94.3275   2
   0   3  -1 19463.2 1463.09   2
   0   3   1 18419.2 1465.38   2
   0   3  -2 179321. 4517.44   2
   0   3   2 178223. 4670.24   2
   0   3   3 9450.61 1042.36   2
   0   3  -3 9429.55 1020.52   2
   0   3   4 57809.9 2556.30   2
   0   3  -4 68890.4 2748.87   2
   0   3  -5 12025.9 767.917  14
   0   3  -5 14446.3 656.320   4
   0   3  -6 30453.7 1065.56   4
   0   3  -6 28483.3 1242.70  14
   0   3  -7 29766.7 1126.69   4
   0   3  -7 26961.7 1301.73  14
   0   3  -8 11559.9 890.783  14
   0   3  -8 13400.8 768.040   4
   0   3  -9 2276.76 406.843  14
   0   3  -9 2149.57 320.138   4
   0   3 -10 4804.02 589.273  14
   0   3 -11 2301.25 366.802  14
   0   4   0 120135. 4569.61   2
   0   4  -1 23254.1 2009.86   2
   0   4  -1 13505.5 734.570  14
   0   4   1 21628.5 1908.19   2
   0   4   2 28865.5 2182.03   2
   0   4  -2 33979.8 2403.33   2
   0   4  -3 6057.52 533.300  14
   0   4  -3 7706.35 445.645   4
   0   4  -3 8034.76 1169.00   2
   0   4   4 8896.11 523.808   9
   0   4  -4 9433.78 547.494   4
   0   4  -5 2547.93 388.547  14
   0   4  -5 556.343 146.149   4
   0   4  -6 1962.84 291.002   4
   0   4  -6 1867.41 361.662  14
   0   4  -6 2273.25 357.303  10
   0   4  -7 5249.24 609.771  14
   0   4  -7 4812.58 501.395  10
   0   4  -7 4596.67 446.667   4
   0   4  -8 7303.34 550.994   4
   0   4  -8 7844.66 596.019  10
   0   4  -8 6756.40 690.811  14
   0   4   9 3624.12 303.128   5
   0   4  -9 3581.72 478.142  14
   0   4  10 1780.72 198.272   7
   0   4 -10 2530.32 355.284  14
   0   5   0 67.5862 55.8186   9
   0   5   0-4.63268 44.7763  10
   0   5   0-169.364 290.333   2
   0   5  -1 16187.1 874.136   9
   0   5  -1 13508.8 807.298  10
   0   5   1 15770.8 1786.45   2
   0   5  -1 11811.9 1544.36   2
   0   5   1 13868.1 788.350   9
   0   5   1 13015.4 687.844  10
   0   5  -2 3685.83 419.796   9
   0   5  -2 3104.68 400.413  10
   0   5   2 3046.27 365.138   9
   0   5  -2 3902.68 864.951   2
   0   5  -3 6257.47 588.959  10
   0   5  -3 5224.08 489.698   9
   0   5   3 5504.72 481.383   9
   0   5   4 10736.9 647.101   9
   0   5  -4 14458.4 923.492  10
   0   5  -4 14245.8 778.732   9
   0   5  -4 8884.34 693.884  14
   0   5  -5 837.840 228.992  10
   0   5   5 399.556 110.728   9
   0   5  -5 490.819 168.459  14
   0   5  -5 360.459 112.647   4
   0   5  -6 1741.11 309.086  14
   0   5  -6 1957.56 258.315   4
   0   5  -7 4112.16 457.419  14
   0   5  -7 5492.00 522.251  10
   0   5  -8 2150.11 310.407  14
   0   5  -8 2892.12 326.423  10
   0   5  -9 2033.70 262.162  14
   0   6   0 51.3844 52.3634  10
   0   6   0 120.531 87.2084   9
   0   6  -1 4273.04 453.593   9
   0   6   1 4336.62 452.848   9
   0   6  -1 3814.04 405.521  10
   0   6  -2 698.904 190.536  10
   0   6  -2 613.239 203.397   9
   0   6   2 629.151 163.665   9
   0   6   3 10472.8 641.922   9
   0   6  -3 10613.9 733.448  10
   0   6  -3 11781.5 706.965   9
   0   6   4 3885.82 355.182   9
   0   6  -4 3408.60 343.464   9
   0   6  -5 8639.38 628.134  10
   0   6  -6 291.230 103.007  10
   0   6   6 224.073 75.4773   5
   0   6   7 1026.62 141.102   5
   0   7   0 52.8389 41.0282   9
   0   7  -1 5377.03 379.033   9
   0   7   1 6656.34 419.442   9
   0   7   2 1833.69 208.495   9
   1  -6  -7 695.025 131.309   8
   1  -6  -6 2217.99 256.623   8
   1  -6  -5 1696.87 243.069   8
   1  -6  -4 2625.66 306.933   8
   1  -6  -3 4018.13 376.468   8
   1  -5  -9 1354.02 215.543   8
   1  -5  -8 2449.89 314.946   8
   1  -5  -8 2405.00 293.943  14
   1  -5  -7 2727.18 363.803   8
   1  -5  -6 485.625 162.052   8
   1  -5  -5 4682.68 485.273   8
   1  -5  -4 688.352 184.914   8
   1  -5  -3 9534.65 670.320   8
  -1  -5   2 10913.3 1371.92   1
   1  -5  -2 9275.00 632.883   8
  -1  -5   1 882.698 351.798   1
   1  -5  -1 691.621 169.878   8
   1  -5   0 9263.60 584.800   8
  -1  -5   0 8655.12 1244.59   1
  -1  -5  -1 2729.63 706.982   1
  -1  -5  -3 9319.59 628.594   8
  -1  -5  -4 6495.19 542.670   8
  -1  -5  -5 7383.55 579.505   8
  -1  -5  -6 4488.06 444.096   8
  -1  -5  -7 3449.77 378.731   8
  -1  -5  -8 1744.73 244.153   8
   1  -4 -10-9.93736 44.2912   8
   1  -4 -10 70.0194 78.5750  14
   1  -4  -9 6986.86 597.065   8
   1  -4  -9 6618.77 577.636  14
   1  -4  -8 6598.42 609.583   8
   1  -4  -8 6578.54 595.107  14
   1  -4  -7 166.704 116.268   8
   1  -4  -6 6390.09 592.572   8
   1  -4  -5 654.265 185.040   8
   1  -4  -4 14308.3 795.581   8
  -1  -4   3 413.490 160.192   1
   1  -4  -3 590.270 153.758   8
   1  -4  -2 5424.76 436.810   8
   1  -4  -1 7535.77 491.895   8
   1  -4   0 1594.52 213.913   8
   1  -4   1 16421.1 664.683   8
  -1  -4  -2 30940.4 1015.91   8
  -1  -4  -2 53793.9 2803.89   1
  -1  -4  -3 5714.51 462.216   8
  -1  -4  -3 5740.56 903.116   1
  -1  -4  -4 38189.2 1282.16   8
  -1  -4  -4 27827.7 1978.43   1
  -1  -4  -5 13919.8 830.267   8
  -1  -4  -6 250.933 122.526   8
  -1  -4  -7 192.186 109.874   8
  -1  -4  -8 3790.54 443.302   8
  -1  -4  -9 8358.14 618.349   8
   1  -3 -12 562.126 135.249  14
   1  -3 -11 118.147 79.5004   8
   1  -3 -11 79.5142 45.7463  14
   1  -3 -10 5010.54 536.387  14
   1  -3 -10 5028.09 521.977   8
   1  -3  -9 374.356 161.295  14
   1  -3  -9 679.226 205.521   8
   1  -3  -8 6597.28 621.120  14
   1  -3  -8 6603.09 607.524   8
   1  -3  -8 5605.47 1048.41   3
   1  -3  -7 13230.5 1613.82   3
   1  -3  -7 15795.6 891.487   8
   1  -3  -6 8085.38 603.166   8
   1  -3  -5 4366.26 349.974  11
   1  -3  -5 4916.00 432.207   8
  -1  -3   4 14978.6 1179.64   1
   1  -3  -4 14250.2 679.736   8
  -1  -3  -3 14151.7 1215.71   1
  -1  -3  -3 9007.63 507.117   8
  -1  -3  -4 1618.91 411.043   1
  -1  -3  -4 1594.59 235.624   8
  -1  -3  -5 35060.3 1918.71   1
  -1  -3  -5 38481.6 1266.78   8
  -1  -3  -6 1995.25 288.850  14
  -1  -3  -6 2023.40 315.509   8
  -1  -3  -7 4581.40 460.248  14
  -1  -3  -7 4723.10 506.150   8
  -1  -3  -8 9043.50 677.412  14
  -1  -3  -8 10886.2 799.002   8
  -1  -3  -9 11461.1 799.017   8
  -1  -3  -9 9442.02 677.635  14
  -1  -3 -10 12678.6 714.513  14
   1  -2 -12 141.548 75.6994  14
   1  -2 -11 4527.89 536.913  14
   1  -2 -10 226.983 111.737  14
   1  -2 -10 214.683 112.654   8
   1  -2  -9 3983.14 870.854   3
   1  -2  -9 5547.75 596.536  14
   1  -2  -9 4880.10 525.333   8
   1  -2  -8 14551.0 1679.08   3
   1  -2  -8 14796.0 840.084   8
   1  -2  -8 15402.7 931.029  14
   1  -2  -7 18952.5 825.441  11
   1  -2  -7 19819.8 1824.74   3
   1  -2  -7 20474.9 934.882   8
   1  -2  -6 14994.4 711.458   8
   1  -2  -6 14324.2 643.290  11
  -1  -2   4 138759. 2637.39   1
  -1  -2  -3 26781.4 1336.02   1
  -1  -2  -4 150407. 3185.12   1
  -1  -2  -5 58631.0 1403.76   8
  -1  -2  -5 60030.0 2592.24   3
  -1  -2  -6 132510. 2257.51   8
  -1  -2  -6 121305. 3873.02   3
  -1  -2  -7 21689.3 995.685  14
  -1  -2  -7 22885.0 1032.28   8
  -1  -2  -8 40922.9 1490.92   8
  -1  -2  -8 37043.4 1410.67  14
  -1  -2  -9 776.602 229.882  14
  -1  -2  -9 665.924 217.363   8
  -1  -2 -10 6958.51 621.088  14
  -1  -2 -11 3785.27 415.513  14
   1  -1 -13 418.692 136.811  14
   1  -1 -12 741.860 213.097  14
   1  -1 -11 3411.28 502.831  14
   1  -1 -10 9581.20 826.239  14
   1  -1  -9 4713.62 943.783   3
   1  -1  -9 6108.15 531.432   8
   1  -1  -8 1919.45 232.736  16
   1  -1  -8 2652.13 375.567  14
   1  -1  -8 1412.50 241.386   8
   1  -1  -8 2518.95 310.784  11
   1  -1  -8 2007.81 593.387   3
   1  -1  -7 12666.4 554.073  16
   1  -1  -7 15450.0 805.933  14
   1  -1  -7 15102.6 676.189  11
   1  -1  -7 12170.2 623.876   8
   1  -1  -6 28226.8 1872.75   3
   1  -1  -5 15296.1 1253.56   3
  -1  -1   4 9681.70 365.425   1
  -1  -1   3 373593. 2766.55   1
  -1  -1  -2 612757. 4483.37   1
  -1  -1  -3 34974.1 1164.34   1
  -1  -1  -4 27911.9 1387.08   3
  -1  -1  -4 22313.8 986.459   1
  -1  -1  -5 78817.8 2710.12   3
  -1  -1  -6 54102.8 1370.81  14
  -1  -1  -6 55889.9 1372.51   8
  -1  -1  -7 13587.5 778.796  14
  -1  -1  -7 13453.5 749.556   8
  -1  -1  -8 13115.8 856.611  14
  -1  -1  -8 13891.8 840.794   8
  -1  -1  -9 28537.5 1343.42  14
  -1  -1 -10 11381.5 852.904  14
  -1  -1 -11 1647.15 313.819  14
  -1  -1 -12 920.729 193.237  14
   1   0 -13 333.756 132.814  14
   1   0 -12 5401.24 626.275  14
   1   0 -11 8882.96 822.889  14
   1   0 -10 1467.20 336.924  14
   1   0  -9 21720.2 2103.04   3
   1   0  -9 26949.7 1307.42  14
   1   0  -8 20909.8 847.327   8
   1   0  -8 20582.3 1887.44   3
   1   0  -8 17584.3 764.758  11
   1   0  -8 24272.8 1128.18  14
   1   0  -8 21942.9 733.385  16
   1   0  -7 183.950 148.313   3
   1   0  -7 58.0445 40.0421   4
   1   0  -7 8.20469 43.3191  11
   1   0  -7 87.5715 83.3406  14
   1   0  -6 23645.3 1621.84   3
   1   0  -5 10687.8 988.000   3
   1   0  -4 93103.1 2556.33   3
   1   0  -3 201945. 3078.86   3
   1   0  -2 1925.30 239.132   3
  -1   0   1 7213.03 317.396   1
  -1   0   0 216593. 1861.99   1
  -1   0  -1 294728. 2092.41   3
  -1   0  -1 294235. 2373.56   1
  -1   0  -2 560234. 3539.08   1
  -1   0  -2 612127. 4239.30   3
  -1   0  -3 141106. 2506.17   3
  -1   0  -3 122607. 1706.19   1
  -1   0  -4 83797.7 2336.47   3
  -1   0  -5 105.296 124.681   3
  -1   0  -6 2609.08 540.521   3
  -1   0  -6 2871.26 318.854  14
  -1   0  -6 2977.53 307.667   8
  -1   0  -7-13.6146 35.2981  14
  -1   0  -7 44.3443 155.471   3
  -1   0  -8 57497.9 1810.03  14
  -1   0  -8 40055.2 2526.74   3
  -1   0  -9 665.962 224.062  14
  -1   0 -10 6752.40 697.976  14
   1   0  11 200.072 72.4170   7
  -1   0 -11 149.663 93.2375  14
  -1   0 -12 11806.4 783.061  14
  -1   1  13 405.575 90.4299   7
   1   1 -13 342.804 134.584  14
   1   1 -12 502.973 193.003  14
   1   1 -11 3381.23 533.627  14
   1   1 -10 10481.9 899.526  14
   1   1  -9 5617.45 1133.86   3
   1   1  -9 6672.74 463.515   4
   1   1  -8 2043.05 245.414   4
   1   1  -8 1730.75 504.936   3
   1   1  -8 1994.55 335.200  14
   1   1  -7 14158.4 776.264  14
   1   1  -7 17043.3 629.471   4
   1   1  -7 17242.5 1617.52   3
   1   1  -6 24847.5 1751.95   3
   1   1  -5 15100.4 1215.05   3
  -1   1   4 15295.5 711.328   2
   1   1  -4 15696.1 1104.09   3
   1   1  -3 415858. 4858.52   3
  -1   1   3 416511. 3779.61   2
  -1   1   2 843924. 5405.73   2
   1   1  -2 889605. 6209.52   3
   1   1  -1 69701.1 1456.14   2
  -1   1   1 59591.9 1458.70   2
  -1   1   0 194104. 2603.75   2
   1   1   0 196694. 2489.67   2
  -1   1  -1 389839. 3818.20   2
   1   1   1 365848. 3567.26   2
  -1   1  -2 691101. 6563.24   3
  -1   1  -2 695085. 5455.46   2
  -1   1  -3 39801.3 1360.30   2
  -1   1  -3 52669.2 1977.58   3
  -1   1  -4 24561.2 1107.67   2
  -1   1  -4 30750.4 1644.03   3
  -1   1  -5 76067.5 2929.22   3
  -1   1  -5 59545.1 1127.65   4
  -1   1  -6 73826.7 1762.14  14
  -1   1  -6 73663.8 3201.96   3
  -1   1  -6 78258.1 1389.13   4
  -1   1  -7 11512.5 1422.86   3
  -1   1  -7 12410.2 806.803  14
  -1   1  -7 12457.3 603.395   4
  -1   1  -8 9960.23 1455.83   3
  -1   1  -8 14021.7 961.522  14
  -1   1  -9 33803.5 1585.57  14
  -1   1 -10 12625.0 997.977  14
  -1   1 -11 1999.74 373.710  14
   1   1  11 2049.50 249.613   7
  -1   1 -12 990.172 224.140  14
   1   1  12 820.825 132.484   7
   1   2 -12-103.790 106.371  14
   1   2 -11 4239.96 570.414  14
   1   2 -10 205.119 106.757   4
   1   2 -10 11.5342 85.3924  14
   1   2  -9 6218.86 501.837   4
   1   2  -9 6526.03 690.668  14
   1   2  -8 15491.3 990.224  14
   1   2  -8 14958.4 1906.35   3
   1   2  -8 15480.0 767.877   4
   1   2  -7 20249.4 2062.24   3
   1   2  -7 17586.7 738.064   4
   1   2  -6 12173.2 714.042  14
   1   2  -6 17199.2 1739.20   3
   1   2  -5 70283.0 3209.19   3
  -1   2   5 70821.6 2226.99   2
  -1   2   4 157030. 3464.70   2
   1   2  -4 155821. 4348.97   3
  -1   2   3 160323. 3379.95   2
   1   2  -3 149023. 3035.53   2
   1   2  -2 56308.6 1898.12   2
  -1   2   2 50047.4 1898.44   2
   1   2  -1 35103.5 1529.46   2
  -1   2   1 31080.0 1501.41   2
   1   2   0 64382.2 2142.12   2
  -1   2   0 60120.5 2093.16   2
   1   2   1 12504.4 936.471   2
  -1   2  -1 12770.9 975.443   2
   1   2   2 20070.7 1201.20   2
  -1   2  -2 23896.3 1379.18   2
  -1   2  -3 26779.7 1512.10   2
  -1   2  -4 219757. 4318.83   2
  -1   2  -4 182243. 1994.86   4
  -1   2  -5 63934.0 1313.27   4
  -1   2  -5 65806.7 1676.85  14
  -1   2  -6 142668. 2164.55   4
  -1   2  -6 143037. 2766.06  14
  -1   2  -7 24575.4 1244.97  14
  -1   2  -7 22762.0 912.769   4
  -1   2  -8 42686.0 1751.78  14
  -1   2  -8 41407.9 1282.92   4
  -1   2  -9 867.245 276.438  14
  -1   2 -10 7719.20 758.221  14
   1   2  11 4097.29 345.795   7
  -1   2 -11 4179.04 505.007  14
   1   2  12 144.145 54.5315   7
  -1   2 -12 123.011 97.9479  14
   1   3 -12 594.298 170.757  14
   1   3 -11-30.7708 80.4937  14
   1   3 -10 5437.66 477.040   4
   1   3 -10 4716.96 585.369  14
   1   3  -9 834.771 191.613   4
   1   3  -9 540.792 203.293  14
   1   3  -8 6098.05 524.280   4
   1   3  -8 5515.40 610.428  14
   1   3  -7 13931.6 736.642   4
   1   3  -7 11578.4 679.503  10
   1   3  -7 13155.2 870.457  14
   1   3  -6 6155.28 549.583  14
   1   3  -6 7670.92 549.813  10
  -1   3   5 7121.53 894.003   2
   1   3  -5 4252.24 430.001  14
   1   3  -4 18673.2 1421.55   2
  -1   3   4 15765.9 1377.70   2
  -1   3   3 28278.5 1825.01   2
   1   3  -3 34566.6 1985.98   2
   1   3  -2 154379. 4210.38   2
  -1   3   2 133720. 3940.07   2
   1   3  -1 53073.0 2495.47   2
  -1   3   1 48912.9 2372.54   2
  -1   3   0 71695.2 2919.60   2
   1   3   0 72202.3 2850.82   2
   1   3   1 40312.0 2138.44   2
  -1   3  -1 42546.5 2251.50   2
   1   3   2 11783.9 1154.30   2
  -1   3  -2 13027.1 1272.97   2
  -1   3  -3 9912.45 648.150  14
  -1   3  -3 11637.6 517.018   4
  -1   3  -4 1892.04 228.869   4
  -1   3  -4 1997.51 251.331   6
  -1   3  -4 1156.07 249.980  14
  -1   3  -4 1661.95 462.585   2
  -1   3  -5 44465.3 1544.90  14
  -1   3  -5 41265.2 1189.72   4
  -1   3  -6 2693.74 411.174  14
  -1   3  -6 2218.81 299.317   4
  -1   3  -7 6601.07 688.646  14
  -1   3  -7 6322.92 514.851   4
  -1   3  -8 10699.9 915.673  14
  -1   3  -9 11352.1 935.271  14
  -1   3 -10 20192.5 1154.27  14
  -1   3 -11 7423.16 614.661  14
   1   3  11 7874.24 424.273   7
  -1   4  11 1378.89 152.358   7
   1   4 -10-43.2351 57.0261  14
   1   4  -9 7183.61 672.072  14
   1   4  -9 7375.43 551.662   4
   1   4  -8 5682.63 611.616  14
   1   4  -8 6852.40 550.423   4
   1   4  -7 198.308 130.456  14
   1   4  -7 126.999 78.8083  10
   1   4  -7 152.546 75.8760   4
   1   4  -6 5049.82 546.155  14
   1   4  -6 6732.25 526.377   4
   1   4  -5 725.157 196.251  14
  -1   4   5 525.607 122.710   9
   1   4  -5 455.079 118.629   4
   1   4  -5 878.443 206.096  10
  -1   4   4 14794.5 1517.19   2
   1   4  -4 10195.7 682.300  14
   1   4  -4 11931.8 644.712   9
   1   4  -4 17396.0 1613.18   2
   1   4  -4 11642.8 585.501  16
   1   4  -4 16883.3 903.984  10
   1   4  -3 649.360 163.028  14
   1   4  -3 818.420 353.600   2
   1   4  -3 856.649 199.760  10
  -1   4   3 900.139 382.663   2
   1   4  -3 796.838 173.218   9
   1   4  -2 6504.38 1009.82   2
  -1   4   2 6404.37 1038.18   2
   1   4  -2 5053.64 434.547  14
   1   4  -2 5563.54 464.670  10
   1   4  -1 11677.8 634.199  10
  -1   4   1 14334.9 1564.05   2
   1   4  -1 13838.3 1495.90   2
   1   4   0 2810.13 668.571   2
  -1   4   0 2492.00 634.986   2
   1   4   0 2235.01 265.332  10
  -1   4   0 1863.42 295.059  14
   1   4   1 17189.4 752.998   9
  -1   4  -1 20823.2 1877.90   2
   1   4   1 13930.8 622.452  10
   1   4   1 20895.8 1829.77   2
  -1   4  -1 15043.0 828.402  14
  -1   4  -2 59930.8 3231.53   2
   1   4   2 56698.4 2990.07   2
  -1   4  -2 41247.4 1431.07  14
   1   4   2 46648.0 1241.81   9
   1   4   3 5316.37 418.351   9
  -1   4  -3 4726.60 892.685   2
  -1   4  -3 5834.18 556.179  14
  -1   4  -3 5235.59 385.127   4
   1   4   4 41691.5 1156.61   9
  -1   4  -4 40828.0 1169.20   4
  -1   4  -5 15551.3 1021.13  14
  -1   4  -5 13479.7 708.235   4
  -1   4  -6 805.979 256.829  14
  -1   4  -6 611.121 160.746   4
  -1   4  -7 434.979 185.501  14
  -1   4  -7 218.432 122.021  10
   1   4   8 4454.93 371.357   5
  -1   4  -8 4812.15 579.460  14
   1   4   9 9717.41 498.504   7
  -1   4  -9 10721.5 791.908  14
   1   4  10 3631.05 257.993   7
  -1   4 -10 4788.91 456.167  14
  -1   5   9 1017.64 143.040   5
   1   5  -8 2465.36 285.756   4
   1   5  -8 2341.32 315.144  10
   1   5  -7 2506.29 290.272   4
   1   5  -7 2044.70 317.601  14
   1   5  -6 409.492 116.327   4
   1   5  -6 565.529 167.529  10
   1   5  -6 522.825 161.693  14
   1   5  -5 4124.06 450.718  14
   1   5  -5 4317.88 380.140   4
  -1   5   5 4960.22 416.547   9
   1   5  -4 464.324 165.169  14
   1   5  -4 751.113 194.032  10
   1   5  -4 609.235 158.577   9
  -1   5   4 631.857 154.349   9
   1   5  -3 11144.3 770.702  10
   1   5  -3 12467.7 772.127   9
   1   5  -2 11087.8 1457.51   2
   1   5  -2 10325.3 719.620  10
   1   5  -2 11923.2 760.025   9
   1   5  -1 831.442 199.020   9
   1   5  -1 53.3045 174.905   2
   1   5  -1 577.970 173.654  10
  -1   5   1 489.022 226.923   2
  -1   5   1 484.014 136.959  10
   1   5   0 9170.37 612.977  10
  -1   5   0 9566.36 652.832  10
   1   5   0 10029.0 1380.52   2
  -1   5   0 10834.0 1507.97   2
   1   5   0 10552.3 707.504   9
  -1   5  -1 2743.28 774.456   2
   1   5   1 3020.13 323.408  10
  -1   5  -1 2938.58 386.521  10
   1   5   1 2981.98 365.219   9
  -1   5  -2 9970.98 746.214  14
   1   5   2 9568.38 653.466   9
   1   5   3 12086.1 714.513   9
  -1   5  -3 14315.7 911.877  10
  -1   5  -3 13085.0 873.247  14
  -1   5  -4 9370.81 757.953  14
   1   5   4 8007.68 551.497   9
  -1   5  -4 10960.6 832.992  10
  -1   5  -4 10110.6 642.402   9
  -1   5  -5 9326.48 751.356  10
  -1   5  -5 8064.06 700.812  14
  -1   5  -6 6696.94 600.581  10
  -1   5  -6 5492.15 569.728  14
  -1   5  -7 3872.70 456.477  14
  -1   5  -7 4068.86 433.913  10
   1   5   7 3967.44 347.932   5
  -1   5  -8 2435.92 326.091  14
  -1   5  -8 2739.33 290.798  10
   1   5   8 2293.46 226.823   5
   1   6  -7 1192.12 195.007  10
   1   6  -6 3476.70 384.303  10
  -1   6   5 1282.21 186.647   9
   1   6  -5 2272.56 327.405  10
  -1   6   4 2797.75 311.413   9
   1   6  -4 2612.62 310.528   9
   1   6  -3 5418.00 520.992  10
  -1   6   3 4868.00 444.454   9
   1   6  -3 5776.55 510.155   9
   1   6  -2 7391.71 589.284  10
   1   6  -2 7599.54 604.442   9
  -1   6   2 6746.65 540.651   9
   1   6  -1 7857.91 586.145  10
   1   6  -1 8625.55 648.886   9
  -1   6   1 7527.39 591.359   9
   1   6   0 397.133 134.105   9
   1   6   0 346.434 102.183  10
  -1   6   0 305.663 109.458  10
  -1   6   0 206.287 90.5556   9
  -1   6  -1 2057.74 299.621  10
   1   6   1 2409.60 331.878   9
  -1   6  -1 2117.56 315.966   9
   1   6   2 104.189 69.8270   9
  -1   6  -2 64.0542 53.4973  10
  -1   6  -2 64.2521 66.4563   9
   1   6   3 846.515 173.100   9
  -1   6  -3 819.680 181.864   9
  -1   6  -3 978.931 211.059  10
   1   6   4 3882.29 349.357   5
  -1   6  -4 4207.06 446.603  10
   1   6   4 3261.45 310.121   9
  -1   6  -5 83.5497 33.6320  10
   1   6   5 49.2842 28.8138   5
   1   6   6 4201.45 311.716   5
  -1   6  -6 4951.37 409.948  10
  -1   7   2 833.773 142.800   9
   1   7  -1 363.843 101.459   9
  -1   7   1 535.811 120.279   9
  -1   7   0 678.335 137.186   9
   1   7   0 935.241 160.251   9
  -1   7  -1 1031.44 161.268   9
   2  -6  -7 413.763 104.838   8
   2  -6  -6 360.288 109.604   8
   2  -6  -5 4130.50 388.096   8
   2  -6  -4 2049.59 279.478   8
   2  -6  -3 3790.69 379.217   8
   2  -6  -2 3210.00 343.718   8
   2  -5 -10 58.9287 49.7811   8
   2  -5  -9 1326.81 214.866   8
   2  -5  -9 943.970 175.269  14
   2  -5  -8 1985.46 293.044  14
   2  -5  -8 1754.95 275.141   8
   2  -5  -7 441.408 156.757   8
   2  -5  -6 3218.40 414.099   8
   2  -5  -5 86.3416 43.3467   8
   2  -5  -4 11571.2 768.350   8
   2  -5  -3 2479.41 340.532   8
   2  -5  -2 7191.10 573.301   8
   2  -5  -1 7098.18 545.146   8
   2  -5   0 725.557 171.923   8
   2  -5   1 14729.1 739.103   8
  -2  -5  -4 2364.73 312.470   8
  -2  -5  -5 2009.29 290.558   8
  -2  -5  -6 2100.42 292.903   8
  -2  -5  -7 567.181 136.197   8
   2  -4 -11 924.890 175.516   8
   2  -4 -11 795.058 167.442  14
   2  -4 -10 8095.92 606.093   8
   2  -4 -10 8750.91 644.162  14
   2  -4  -9 2870.46 378.391   8
   2  -4  -9 3604.98 455.803  14
   2  -4  -8 3834.50 478.524   8
   2  -4  -7 6671.79 616.038   8
   2  -4  -6 1052.13 244.236   8
   2  -4  -5 20972.6 1023.01   8
   2  -4  -4 5086.35 486.298   8
  -2  -4   4 3360.37 686.456   1
  -2  -4   3 3918.16 726.152   1
   2  -4  -3 3917.54 400.186   8
  -2  -4   2 1897.25 512.401   1
   2  -4  -2 2152.31 280.687   8
  -2  -4   1 14317.5 1463.03   1
   2  -4  -1 12397.2 643.595   8
  -2  -4   0 23986.7 1877.85   1
   2  -4   0 21234.3 808.750   8
  -2  -4  -1 651.388 329.212   1
   2  -4   1 932.043 161.455   8
  -2  -4  -2 18441.7 783.740   8
   2  -4   2 18292.8 736.947   8
  -2  -4  -3 28723.4 1069.43   8
   2  -4   3 27836.4 919.874   8
  -2  -4  -4 270.472 188.825   1
  -2  -4  -4 827.221 195.163   8
  -2  -4  -5 1371.37 258.877   8
  -2  -4  -6 5361.64 529.653   8
  -2  -4  -7 4252.17 470.717   8
  -2  -4  -8 1929.86 302.443   8
   2  -3 -12 44.1588 33.0779  14
   2  -3 -11 1960.51 328.095  14
   2  -3 -11 1678.96 280.035   8
   2  -3 -10 1339.32 291.292  14
   2  -3 -10 1171.89 250.797   8
   2  -3  -9 3182.86 422.946   8
   2  -3  -9 4017.11 510.418  14
   2  -3  -8 683.103 205.262   8
   2  -3  -8 304.350 232.889   3
   2  -3  -7 21089.1 904.448  11
   2  -3  -7 22881.0 1074.14   8
   2  -3  -6 41381.9 1347.17   8
   2  -3  -6 36948.2 1086.22  11
   2  -3  -5 24147.6 796.233  11
   2  -3  -5 22407.4 934.351   8
  -2  -3   4 6996.78 813.780   1
   2  -3  -4 7516.32 444.243  12
   2  -3  -4 7544.04 497.722   8
  -2  -3   3 5944.17 752.512   1
   2  -3  -3 6533.83 430.488   8
   2  -3  -3 6689.89 400.984  12
  -2  -3   2 44584.0 2137.35   1
  -2  -3   1 46341.4 2201.78   1
  -2  -3   0 10467.9 1052.45   1
  -2  -3  -1 20066.2 1450.47   1
  -2  -3  -2 3070.02 571.912   1
  -2  -3  -3 16215.7 1338.23   1
  -2  -3  -3 11257.4 587.630   8
  -2  -3  -4 13096.9 1237.81   1
  -2  -3  -4 16740.2 789.022   8
  -2  -3  -5 1571.74 256.845   8
  -2  -3  -6 26899.5 1158.24   8
  -2  -3  -7 2283.02 370.925   8
  -2  -3  -8 873.314 225.561   8
   2  -2 -13 781.210 184.111  14
   2  -2 -12 6455.14 616.387  14
   2  -2 -11 387.953 143.100   8
   2  -2 -11 517.724 210.841  14
   2  -2 -10 2567.19 379.654   8
   2  -2 -10 3847.06 522.352  14
   2  -2  -9 6112.11 545.294  11
   2  -2  -9 6143.91 554.666   8
   2  -2  -9 7289.96 695.356  14
   2  -2  -8 14370.0 825.533   8
   2  -2  -8 16312.1 817.133  11
   2  -2  -8 18568.3 1012.32  14
   2  -2  -8 16205.6 1822.59   3
   2  -2  -7 243.649 274.126   3
   2  -2  -7 527.044 143.568   8
   2  -2  -7 125.826 78.1964  11
   2  -2  -6 40975.5 1153.85   8
   2  -2  -6 38109.7 1007.00  11
  -2  -2   4 48569.7 1673.05   1
  -2  -2   3 30285.5 1327.65   1
  -2  -2   2 32812.9 1413.02   1
  -2  -2   1 8783.41 761.696   1
  -2  -2   0 69008.2 2156.58   1
  -2  -2  -1 7605.96 704.867   1
  -2  -2  -2 35284.4 1578.95   1
  -2  -2  -3 2846.18 460.118   1
  -2  -2  -4 122.785 61.0646   8
  -2  -2  -4 90.8708 107.863   3
  -2  -2  -4 124.205 65.5823   1
  -2  -2  -5 10590.6 617.436   8
  -2  -2  -6 488.164 151.368  14
  -2  -2  -6 547.219 158.403   8
  -2  -2  -7 33597.3 1232.51  14
  -2  -2  -7 38446.4 1430.21   8
  -2  -2  -8 19791.2 1086.36   8
  -2  -2  -8 16753.4 916.776  14
  -2  -2  -9-29.2607 96.5954  14
  -2  -2 -10-152.932 118.045  14
   2  -1 -13 1374.19 276.277  14
   2  -1 -12 575.963 204.559  14
   2  -1 -11 3642.46 526.928  14
   2  -1 -10 1519.58 342.009  14
   2  -1 -10 1265.05 251.875   8
   2  -1  -9 1127.42 191.387  16
   2  -1  -9 1870.10 759.610   3
   2  -1  -9 1082.91 228.652   8
   2  -1  -9 1622.26 329.111  14
   2  -1  -9 1468.38 255.842  11
   2  -1  -8 2672.73 380.522  14
   2  -1  -8 1483.39 237.236   8
   2  -1  -8 1897.72 236.984  16
   2  -1  -8 2503.47 679.726   3
   2  -1  -8 2596.97 302.653  11
   2  -1  -7 8795.81 479.932  16
   2  -1  -7 12726.2 722.533  14
   2  -1  -7 11541.9 1357.56   3
   2  -1  -7 9922.94 532.782  11
   2  -1  -7 11439.0 592.089   8
   2  -1  -6 151993. 4438.11   3
  -2  -1   4 121757. 1891.85   1
  -2  -1   3 163509. 2383.15   1
  -2  -1   2 110589. 1977.88   1
  -2  -1   1 245821. 3023.67   1
  -2  -1   0 19717.4 886.586   1
  -2  -1  -1 95014.3 2066.79   1
  -2  -1  -2 55071.5 1688.43   1
  -2  -1  -3 2237.16 359.673   1
  -2  -1  -3 2655.22 359.475   3
  -2  -1  -4 9860.99 796.684   3
  -2  -1  -4 8476.07 728.838   1
  -2  -1  -5 17559.0 1179.41   3
  -2  -1  -5 20791.9 798.864   8
  -2  -1  -6 21072.3 885.388  14
  -2  -1  -6 25511.2 992.527   8
  -2  -1  -7 2546.25 352.194   8
  -2  -1  -7 2371.86 337.047  14
  -2  -1  -8 1291.45 270.186  14
  -2  -1  -9 740.291 216.714  14
  -2  -1 -10 2763.21 399.818  14
  -2  -1 -11 577.724 171.980  14
   2   0 -13 3294.09 449.757  14
   2   0 -12 5029.98 607.876  14
   2   0 -11 11.0802 85.8774  14
   2   0 -10 8026.27 502.379  16
   2   0 -10 9276.85 1467.64   3
   2   0  -9 34.1722 93.3658  14
   2   0  -9 38.2020 31.0103  16
   2   0  -9 21.7863 223.611   3
   2   0  -8 15446.0 880.565  14
   2   0  -8 12424.0 583.556  16
   2   0  -8 13601.9 1539.61   3
   2   0  -8 12526.7 621.660  11
   2   0  -7 112238. 1640.80  11
   2   0  -7 105718. 2004.92  14
   2   0  -7 103519. 3809.94   3
   2   0  -6 2580.78 550.746   3
   2   0  -5 108036. 3183.22   3
   2   0  -4 36936.2 1598.33   3
  -2   0   3 143779. 1568.81   2
   2   0  -3 158081. 2741.93   3
  -2   0   2 908.206 161.953   1
  -2   0   1 146239. 2189.07   1
  -2   0   0 649637. 4781.89   1
  -2   0  -1 3741.94 388.833   1
  -2   0  -1 3244.26 264.743   3
  -2   0  -2 22350.6 959.807   1
  -2   0  -2 18516.9 773.041   3
  -2   0  -3 39011.1 1395.33   3
  -2   0  -3 37505.3 1300.56   1
  -2   0  -4 3912.79 517.641   3
  -2   0  -5 2209.03 435.745   3
  -2   0  -6 2537.71 534.233   3
  -2   0  -6 1829.41 272.053  14
  -2   0  -7 1418.91 278.749  14
  -2   0  -8 10782.8 805.543  14
  -2   0  -9 9286.79 795.146  14
  -2   0 -10 3119.07 460.914  14
   2   0  10 3582.77 316.852   7
  -2   0 -11 1708.72 316.467  14
  -2   0 -12 669.390 154.698  14
   2   1 -13 1524.37 295.617  14
   2   1 -12 803.296 248.909  14
   2   1 -11 3990.49 565.608  14
   2   1 -10 1592.97 354.240  14
   2   1 -10 1285.40 201.126   4
   2   1  -9 988.186 175.403   4
   2   1  -9 1206.32 191.242  16
   2   1  -9 1613.66 325.601  14
   2   1  -9 785.107 394.647   3
   2   1  -8 2554.63 359.489  14
   2   1  -8 1696.45 212.474  16
   2   1  -8 2440.05 665.535   3
   2   1  -7 10081.5 451.703  16
   2   1  -7 8020.30 560.305  14
   2   1  -7 9837.83 1225.06   3
   2   1  -6 147090. 4244.41   3
   2   1  -5 18891.0 1339.64   3
  -2   1   5 16281.1 707.286   2
   2   1  -4 125776. 3024.89   3
  -2   1   4 127016. 2198.90   2
  -2   1   3 168686. 2656.23   2
   2   1  -3 167748. 3030.23   3
   2   1  -2 115886. 2116.70   3
  -2   1   2 113534. 2140.50   2
  -2   1   1 258660. 3444.75   2
  -2   1   0 21906.5 1057.62   2
  -2   1  -1 121575. 2687.01   2
  -2   1  -2 69756.8 2175.23   2
  -2   1  -3 3374.99 543.295   3
  -2   1  -3 3561.58 508.304   2
  -2   1  -4 14400.5 535.016   4
  -2   1  -4 13549.5 1190.16   3
  -2   1  -4 11502.0 940.882   2
  -2   1  -5 20003.7 1613.13   3
  -2   1  -5 19773.3 859.189  14
  -2   1  -5 20846.6 716.879   4
  -2   1  -6 31109.7 1220.43  14
  -2   1  -6 30027.1 2171.12   3
  -2   1  -7 2488.69 390.379  14
  -2   1  -7 2069.75 616.465   3
  -2   1  -8 1416.10 267.522   6
  -2   1  -8 1482.83 338.214  14
  -2   1  -9 579.592 230.468  14
   2   1  10 4711.59 392.122   7
  -2   1 -10 3136.83 489.390  14
   2   1  11 564.593 119.849   7
  -2   1 -11 498.192 152.976  14
  -2   1 -12 481.667 131.640  14
   2   2 -13 515.799 151.944  14
   2   2 -12 6717.96 656.099  14
   2   2 -11 294.696 96.9012   4
   2   2 -11 447.005 187.235  14
   2   2 -10 3836.45 401.136   4
   2   2 -10 3713.21 536.177  14
   2   2  -9 6695.23 686.004  14
   2   2  -9 6646.18 513.218   4
   2   2  -9 5760.87 1260.61   3
   2   2  -8 17195.9 2026.57   3
   2   2  -8 12272.7 851.942  14
   2   2  -7 479.200 303.119   3
   2   2  -7 522.622 114.511  16
   2   2  -7 99.3139 82.0598  14
   2   2  -6 50527.1 1364.28  14
   2   2  -6 52255.7 2941.28   3
   2   2  -5 54242.7 2731.48   3
  -2   2   5 58356.1 2133.20   2
   2   2  -4 56970.2 2566.45   3
  -2   2   4 54202.5 2031.73   2
  -2   2   3 31467.8 1573.22   2
   2   2  -3 32207.0 1366.71   2
  -2   2   2 34871.2 1651.06   2
   2   2  -2 38373.9 1559.22   2
  -2   2   1 10621.0 929.293   2
   2   2  -1 10693.8 841.414   2
  -2   2   0 74317.3 2511.80   2
   2   2   0 72405.7 2238.08   2
  -2   2  -1 8818.59 876.842   2
  -2   2  -2 38587.7 1891.98   2
  -2   2  -3 2212.09 218.084   4
  -2   2  -3 3189.49 565.276   2
  -2   2  -4 126.221 175.318   2
  -2   2  -4 197.826 93.5783  14
  -2   2  -4 297.003 89.7926   4
  -2   2  -5 10480.2 720.624  14
  -2   2  -5 10663.4 631.262   6
  -2   2  -6 741.923 221.151  14
  -2   2  -6 639.460 169.960   6
  -2   2  -6 885.499 184.814   4
  -2   2  -7 39540.6 1629.66  14
  -2   2  -8 19933.0 1228.94  14
  -2   2  -9-20.7640 127.754  14
  -2   2 -10-0.53428 66.6751  14
   2   2  10 69.3961 63.3440   7
   2   2  11 534.818 114.900   7
  -2   2 -11 531.947 162.356  14
   2   3 -12 247.242 95.2593  14
   2   3 -11 1636.85 313.542  14
   2   3 -11 1667.55 243.560   4
   2   3 -10 1298.46 250.721   4
   2   3 -10 1094.66 241.352  14
   2   3  -9 2067.36 363.114  14
   2   3  -9 3664.67 410.518   4
   2   3  -8 684.451 175.612   4
   2   3  -8 239.867 113.387  14
   2   3  -7 20480.5 901.854  10
   2   3  -7 14269.0 860.363  14
   2   3  -6 28051.4 877.921  16
   2   3  -6 23451.1 999.933  14
   2   3  -5 20472.8 730.639  16
   2   3  -5 22072.1 889.068  10
  -2   3   4 6478.84 874.824   2
   2   3  -4 5481.70 411.151  10
   2   3  -4 6041.66 383.862  16
   2   3  -3 7872.99 469.564  10
   2   3  -3 8420.67 923.452   2
  -2   3   3 7628.55 972.553   2
  -2   3   2 44869.5 2344.78   2
   2   3  -2 44133.6 2168.98   2
   2   3  -1 43645.0 2176.33   2
  -2   3   1 49207.9 2513.09   2
  -2   3   0 11608.6 1239.54   2
   2   3   0 10063.0 1039.09   2
  -2   3  -1 21760.4 1753.53   2
  -2   3  -2 2713.49 609.508   2
  -2   3  -2 1812.50 196.051   4
  -2   3  -2 2440.51 281.797   6
  -2   3  -2 3076.98 361.942  14
  -2   3  -3 14440.9 833.583  14
  -2   3  -3 15921.4 640.284   4
  -2   3  -3 13829.5 718.600   6
   2   3   3 15755.7 610.499   9
  -2   3  -4 14153.2 766.348   6
  -2   3  -4 15386.3 1507.05   2
  -2   3  -4 17306.5 731.674   4
  -2   3  -5 1336.38 251.901   6
  -2   3  -5 1830.45 346.295  14
  -2   3  -5 1739.05 253.561   4
  -2   3  -6 32258.5 1234.03   6
  -2   3  -6 32150.7 1150.04   4
  -2   3  -7 2435.73 439.368  14
   2   3   7 2271.61 268.055   5
  -2   3  -8 1591.98 362.088  14
  -2   3  -9 1909.17 379.533  14
   2   3   9 1716.28 241.183   7
   2   3  10 638.535 129.131   7
  -2   3 -10 657.137 196.967  14
  -2   3 -11 4056.40 395.828  14
   2   3  11 4389.45 275.975   7
   2   4 -10 5116.78 495.393  14
   2   4 -10 8695.75 562.723   4
   2   4  -9 1987.13 337.085  14
   2   4  -9 2934.26 363.043   4
   2   4  -8 3612.78 466.162  14
   2   4  -8 4337.42 473.144  10
   2   4  -8 4032.38 426.995   4
   2   4  -7 6171.17 513.126   4
   2   4  -7 6743.48 619.826  14
   2   4  -7 7649.66 641.983  10
   2   4  -6 1122.18 240.795  10
   2   4  -6 1002.55 188.682  16
   2   4  -6 914.531 231.517  14
   2   4  -5 18131.1 788.090  16
  -2   4   5 14174.6 1498.30   2
  -2   4   4 4508.35 863.187   2
   2   4  -4 4358.19 386.266  16
   2   4  -4 5187.05 490.945  10
   2   4  -4 4005.89 388.031   9
   2   4  -3 2430.06 597.121   2
  -2   4   3 2955.65 703.028   2
   2   4  -3 3113.85 371.600  10
   2   4  -3 2751.89 317.065   9
   2   4  -2 1887.09 276.319  10
  -2   4   2 2344.47 630.556   2
   2   4  -2 2324.91 572.457   2
   2   4  -2 2208.83 281.187   9
  -2   4   1 16390.6 1712.29   2
   2   4  -1 15342.0 1555.12   2
   2   4  -1 14651.2 724.047   9
   2   4  -1 13102.1 670.240  10
  -2   4   0 27869.8 1165.58  14
  -2   4   0 28902.7 2303.82   2
   2   4   0 22830.5 854.615  10
   2   4   0 24159.0 924.682   9
   2   4   1 416.311 105.918  10
  -2   4  -1 316.393 320.847   2
   2   4   1 696.302 152.952   9
  -2   4  -1 461.868 162.103  14
   2   4   2 21743.4 876.254   9
  -2   4  -2 24007.0 1142.10  14
  -2   4  -3 29079.4 944.596   4
  -2   4  -3 28758.6 2323.01   2
   2   4   3 31647.9 1049.43   9
  -2   4  -4 1312.30 304.660  14
  -2   4  -4 1055.00 198.753   4
   2   4   4 1092.21 193.621   9
   2   4   5 2196.01 257.344   7
  -2   4  -5 2521.21 426.822  14
  -2   4  -6 7404.24 732.974  14
   2   4   6 6669.85 450.535   7
   2   4   7 3700.08 337.925   7
  -2   4  -7 5199.83 608.468  14
  -2   4  -7 3813.54 437.811  10
   2   4   7 4988.70 408.475   5
  -2   4  -8 2214.11 384.943  14
   2   4   8 2034.12 236.851   7
   2   4   8 2277.43 247.708   5
  -2   4  -9 87.5324 55.6413  14
   2   4   9 72.6274 42.2367   7
   2   5  -9 1224.13 186.151   4
   2   5  -8 2401.99 319.035  10
   2   5  -8 1967.83 254.678   4
   2   5  -7 349.233 107.907   4
   2   5  -7 460.503 150.040  10
   2   5  -6 4224.43 496.069  10
   2   5  -6 3202.74 337.631   4
   2   5  -5 39.2549 41.8261   4
   2   5  -5 100.432 47.6698  10
  -2   5   5 90.6919 48.0107   9
   2   5  -4 13131.2 872.611  10
   2   5  -4 11021.3 666.057  16
   2   5  -4 11511.9 735.674   9
   2   5  -3 2303.38 359.317  10
   2   5  -3 2879.56 375.207   9
   2   5  -2 8060.05 636.892   9
   2   5  -2 7105.65 597.390  10
   2   5  -1 7087.54 561.875  10
   2   5  -1 8167.80 633.257   9
   2   5   0 725.963 165.707  10
   2   5   0 793.436 197.096   9
   2   5   1 16611.5 879.529   9
  -2   5  -2 15026.4 956.324  14
   2   5   2 13638.6 783.712   9
   2   5   3 1506.97 250.364   9
  -2   5  -3 1772.24 337.427  14
   2   5   4 2871.66 327.661   9
  -2   5  -4 3339.90 459.434  14
  -2   5  -5 2441.92 388.008  14
  -2   5  -5 3838.92 483.097  10
  -2   5  -6 3262.05 429.691  14
   2   5   6 3198.95 335.369   5
  -2   5  -6 3673.33 427.968  10
   2   5   7 691.434 134.247   5
  -2   5  -7 758.045 194.140  14
  -2   5  -7 486.998 135.834  10
  -2   5  -8 609.839 145.994  14
   2   5   8 1051.08 142.793   5
   2   6  -7 571.027 142.596  10
   2   6  -6 627.898 164.387  10
  -2   6   5 4347.67 350.999   9
   2   6  -5 6006.61 531.387  10
   2   6  -4 2537.06 343.465  10
  -2   6   4 2635.00 303.399   9
   2   6  -4 2240.80 296.794   9
   2   6  -3 6044.59 516.444   9
   2   6  -3 5836.76 533.085  10
  -2   6   3 4453.28 424.457   9
   2   6  -3 4017.92 372.889  16
   2   6  -2 3623.37 415.553   9
  -2   6   2 3466.49 385.993   9
   2   6  -2 3357.12 389.583  10
   2   6  -2 3738.34 378.897  16
  -2   6   1 1268.17 204.908  10
   2   6  -1 1085.06 206.532  10
  -2   6   1 1343.50 244.856   9
   2   6  -1 1508.87 281.003   9
   2   6   0 3784.41 358.145  10
  -2   6   0 3088.70 342.524  10
   2   6   0 3529.47 403.330   9
  -2   6   0 3401.29 393.781   9
  -2   6  -1 860.785 185.195  10
   2   6   1 638.195 142.289   5
   2   6   1 794.639 185.100   9
  -2   6  -1 981.188 204.614   9
   2   6   2 4360.75 381.989   5
  -2   6  -2 4027.22 425.434  10
   2   6   2 4342.36 419.735   9
  -2   6  -2 3833.03 395.235   9
  -2   6  -3 1546.63 266.485  10
  -2   6  -3 1114.07 193.585   9
   2   6   3 1608.42 230.404   5
   2   6   4 959.741 165.020   5
  -2   6  -4 975.110 206.189  10
  -2   6  -5 2157.55 286.381  10
   2   6   5 2163.67 233.871   5
   2   6   6 51.6489 28.3766   5
  -2   7   2 71.2213 39.0353   9
  -2   7   1 249.201 76.4473   9
  -2   7   0 691.024 134.221   9
   3  -6  -7 2042.82 244.849   8
   3  -6  -6 3617.23 350.839   8
   3  -6  -5 1994.97 270.379   8
   3  -6  -4 4895.50 436.347   8
   3  -6  -3 3532.92 373.587   8
   3  -6  -2 8116.46 556.880   8
   3  -6  -1 5610.49 446.636   8
   3  -5 -10 3974.77 331.394   8
   3  -5  -9 156.486 83.1046  14
   3  -5  -9 17.0189 40.4664   8
   3  -5  -8 2045.43 309.020   8
   3  -5  -7 7383.01 603.428   8
   3  -5  -6 648.598 198.300   8
   3  -5  -5 4203.10 481.306   8
   3  -5  -4 1779.61 295.734   8
   3  -5  -3 12431.3 786.943   8
   3  -5  -2 2596.06 350.872   8
   3  -5  -1 2387.63 333.774   8
   3  -5   0 11328.3 690.807   8
   3  -5   1 6203.96 497.303   8
   3  -5   2 4031.89 385.556   8
  -3  -5  -5 2188.62 308.660   8
   3  -4 -11 4814.37 441.824  14
   3  -4 -11 4246.39 383.630   8
   3  -4 -10 3121.27 374.271   8
   3  -4 -10 3330.26 423.627  14
   3  -4  -9 3776.22 453.542   8
   3  -4  -9 3711.35 470.500  14
   3  -4  -8 7073.60 635.093   8
   3  -4  -7 706.679 201.572   8
   3  -4  -6 32923.4 1329.39   8
   3  -4  -5 822.608 197.613   8
   3  -4  -4 15039.3 733.454  12
   3  -4  -4 16178.3 873.220   8
   3  -4  -3 4611.25 401.048  12
  -3  -4   3 4707.33 863.061   1
   3  -4  -3 4142.42 422.151   8
   3  -4  -2 8511.61 571.974   8
   3  -4  -2 8783.84 538.813  12
  -3  -4   2 8811.37 1177.44   1
  -3  -4   1 11673.1 1372.07   1
   3  -4  -1 11566.4 596.151  12
   3  -4  -1 11318.1 629.822   8
   3  -4   0 3254.29 333.192   8
  -3  -4   0 3535.34 749.496   1
  -3  -4  -1 10787.8 1327.34   1
   3  -4   1 8362.05 530.288   8
  -3  -4  -2 14842.0 1572.32   1
   3  -4   2 13564.3 681.483   8
  -3  -4  -3 6300.02 1027.66   1
  -3  -4  -3 7803.89 540.398   8
  -3  -4  -4 6485.03 530.286   8
  -3  -4  -5 565.270 163.706   8
  -3  -4  -6 456.892 153.213   8
  -3  -4  -7 650.688 185.006   8
   3  -3 -12 4371.89 453.322  14
   3  -3 -11 1894.35 337.061  14
   3  -3 -11 1663.20 277.611   8
   3  -3 -10 4976.99 513.760   8
   3  -3 -10 5692.62 614.387  14
   3  -3  -9 4456.31 473.396  11
   3  -3  -9 5097.44 588.178  14
   3  -3  -9 4490.86 515.324   8
   3  -3  -8 18143.9 882.571  11
   3  -3  -8 17006.2 2002.62   3
   3  -3  -8 20334.9 1046.85   8
   3  -3  -7 31774.8 1255.58   8
   3  -3  -7 28034.2 1016.86  11
   3  -3  -6 1326.07 239.890   8
   3  -3  -6 1123.53 183.211  11
   3  -3  -6 1242.86 199.755  12
   3  -3  -5 18687.9 779.228  12
   3  -3  -5 20580.9 889.801   8
   3  -3  -4 600.998 146.162   8
  -3  -3   4 699.227 281.078   1
   3  -3  -4 509.269 116.484  12
   3  -3  -3 17628.0 688.050  12
  -3  -3   3 17447.5 1392.50   1
   3  -3  -3 17451.6 717.621   8
  -3  -3   2 45092.0 2221.18   1
   3  -3  -2 43229.3 1055.36   8
  -3  -3   1 20684.6 1530.69   1
  -3  -3   0 30558.5 1865.43   1
  -3  -3  -1 5926.25 842.733   1
  -3  -3  -2 9943.89 522.423   8
  -3  -3  -2 12634.0 1251.12   1
  -3  -3  -3 2002.15 519.144   1
  -3  -3  -3 1231.59 203.176   8
  -3  -3  -4 15793.9 1473.99   1
  -3  -3  -4 18976.5 861.286   8
  -3  -3  -5 24762.7 1087.37   8
  -3  -3  -6 3298.01 423.154   8
  -3  -3  -7 1103.30 252.176   8
   3  -2 -13 556.757 167.980  14
   3  -2 -12 6854.25 662.882  14
   3  -2 -11 7756.22 746.198  14
   3  -2 -11 6759.93 569.008   8
   3  -2 -10 5201.71 516.500   8
   3  -2 -10 6827.53 599.182  11
   3  -2  -9 22233.6 2313.71   3
   3  -2  -9 25574.3 1131.89   8
   3  -2  -8 19784.7 875.807  11
   3  -2  -8 20823.0 2107.75   3
   3  -2  -7 2803.50 295.447  16
   3  -2  -7 1946.23 274.080   8
   3  -2  -7 1764.09 213.740  12
   3  -2  -7 2720.14 300.955  11
   3  -2  -7 2768.38 741.894   3
   3  -2  -6 1378.13 215.683   8
   3  -2  -6 1379.03 182.274  12
   3  -2  -6 2007.17 233.496  16
  -3  -2   5 9837.72 804.359   1
  -3  -2   4 163398. 3466.99   1
  -3  -2   3 26840.7 1405.08   1
  -3  -2   2 13171.9 994.734   1
  -3  -2   1 53357.9 2025.33   1
  -3  -2   0 8693.70 836.648   1
  -3  -2  -1 50910.6 2063.95   1
  -3  -2  -2 12920.6 1088.65   1
  -3  -2  -3 5139.65 728.756   1
  -3  -2  -4 24763.4 1592.05   1
  -3  -2  -4 21597.8 857.498   8
  -3  -2  -5 877.995 193.501   8
  -3  -2  -6 20095.0 996.864   8
   3  -1 -13 10199.6 769.217  14
   3  -1 -12 668.853 234.865  14
   3  -1 -11 11804.8 950.390  14
   3  -1 -10 8539.61 564.301  16
   3  -1 -10 8945.94 654.189  11
   3  -1 -10 9208.90 811.130  14
   3  -1  -9 6414.92 628.407  14
   3  -1  -9 5717.28 497.293  11
   3  -1  -9 5741.55 455.294  16
   3  -1  -9 5160.61 1060.06   3
   3  -1  -8 4405.26 391.087   8
   3  -1  -8 4814.00 489.771  14
   3  -1  -8 5002.75 398.087  16
   3  -1  -8 4849.23 989.952   3
   3  -1  -8 4950.28 409.866  11
   3  -1  -7 28070.7 2133.43   3
   3  -1  -7 21100.9 761.497  16
   3  -1  -6 7230.14 1014.60   3
  -3  -1   5 40133.1 1268.05   1
  -3  -1   4 12756.3 801.748   1
  -3  -1   3 32820.4 1282.44   1
  -3  -1   2 67866.0 1920.75   1
  -3  -1   1 11055.9 803.177   1
  -3  -1   0 243932. 3840.03   1
  -3  -1  -1 5431.19 202.849   3
  -3  -1  -1 11126.9 848.529   1
  -3  -1  -2 80842.0 2333.23   1
  -3  -1  -2 56612.9 1112.34   3
  -3  -1  -3 16621.2 1147.15   1
  -3  -1  -4 6725.83 743.866   1
  -3  -1  -5 5020.62 432.643   8
  -3  -1  -6 794.572 176.034  14
  -3  -1  -7 4965.47 478.296  14
  -3  -1  -8 1820.50 314.047  14
  -3  -1  -9 1769.59 306.637  14
   3   0 -14 392.029 139.724  14
   3   0 -13 1500.33 301.082  14
   3   0 -12 786.821 246.986  14
   3   0 -11 137.217 148.338  14
   3   0 -11 60.5995 68.1488  16
   3   0 -10 304.676 100.334  16
   3   0 -10 165.351 99.3305  14
   3   0 -10 70.0206 62.0198  11
   3   0  -9 26105.1 2360.66   3
   3   0  -9 23260.9 929.916  11
   3   0  -9 24008.2 900.366  16
   3   0  -8 93858.9 2102.42  14
   3   0  -8 90280.5 1637.39  16
   3   0  -8 90669.2 1645.14  11
   3   0  -7 21124.6 1742.89   3
   3   0  -7 19977.8 850.037  14
   3   0  -7 18926.7 627.504  15
   3   0  -6 46314.7 2369.21   3
   3   0  -5 39316.5 1930.96   3
  -3   0   4 20995.0 745.342   2
   3   0  -4 25044.3 1313.06   3
  -3   0   3 38308.2 1351.90   1
   3   0  -3 44475.2 1489.24   3
  -3   0   2 82635.7 1992.50   1
  -3   0   1 19306.6 991.322   1
  -3   0   0 14312.9 893.314   1
  -3   0  -1 7333.42 669.831   1
  -3   0  -2 5312.55 469.314   3
  -3   0  -2 5344.88 593.122   1
  -3   0  -3 71293.2 2018.53   3
  -3   0  -3 68486.4 2169.24   1
  -3   0  -4 67895.4 2236.22   3
  -3   0  -5 12961.2 672.819  14
  -3   0  -6 87.7316 87.0805  14
   3   0   7 141.720 64.2389   7
  -3   0  -7 234.705 135.178  14
  -3   0  -8 11275.7 843.462  14
   3   0   8 11668.6 602.976   7
  -3   0  -9 855.559 244.812  14
   3   0   9 892.856 163.377   7
  -3   0 -10 92.1751 78.7616  14
   3   0  10 111.038 53.7104   7
  -3   0 -11 1130.53 205.895  14
   3   1 -13 10001.5 766.974  14
   3   1 -12 906.130 272.741  14
   3   1 -11 10799.9 914.175  14
   3   1 -10 7327.18 487.138   4
   3   1 -10 7961.75 736.514  14
   3   1  -9 4624.27 522.791  14
   3   1  -9 4023.23 941.487   3
   3   1  -9 4003.65 364.709  16
   3   1  -8 3224.86 292.038  16
   3   1  -8 3648.57 820.576   3
   3   1  -8 3707.50 420.151  14
   3   1  -7 22458.9 735.914  16
   3   1  -7 27178.9 983.762  14
   3   1  -7 26968.4 2022.66   3
   3   1  -6 6193.43 863.437   3
   3   1  -5 42154.8 1988.64   3
  -3   1   5 44982.1 1354.37   2
  -3   1   4 14967.8 857.667   2
   3   1  -4 14743.9 1016.55   3
  -3   1   3 31230.0 1257.43   2
   3   1  -3 31912.0 1285.65   3
  -3   1   2 74035.7 2042.97   2
   3   1  -2 58035.5 1464.59   3
  -3   1   1 13532.0 969.245   2
  -3   1   0 281012. 4613.83   2
  -3   1  -1 14059.9 1099.49   2
  -3   1  -2 103937. 3174.75   2
  -3   1  -3 29484.7 1751.38   2
  -3   1  -4 4338.84 686.298   2
  -3   1  -5 4998.84 470.025  14
  -3   1  -6 1622.44 295.732  14
  -3   1  -7 5488.84 587.028  14
  -3   1  -8 2157.38 404.594  14
   3   1   8 2324.68 284.702   7
  -3   1  -8 1556.02 311.606   6
  -3   1  -9 2383.34 406.724  14
   3   1   9 2331.01 284.848   7
  -3   1 -10 2074.22 348.114  14
   3   1  10 2177.16 252.921   7
   3   1  11 192.435 63.5145   7
  -3   1 -11 217.216 120.656  14
   3   2 -13 300.421 138.332  14
   3   2 -12 7132.53 670.293  14
   3   2 -11 6839.45 699.792  14
   3   2 -11 5970.38 477.207   4
   3   2 -10 5112.19 600.355  14
   3   2 -10 7817.90 565.250   4
   3   2  -9 22721.9 1198.26  14
   3   2  -9 20097.6 784.135  16
   3   2  -8 14111.8 864.286  14
   3   2  -8 15820.3 707.250  16
   3   2  -7 1343.49 236.048  14
   3   2  -7 1639.89 213.164  16
   3   2  -6 1309.17 468.345   3
   3   2  -6 875.622 142.736  16
   3   2  -5 11570.9 1238.06   3
  -3   2   5 11237.1 948.349   2
  -3   2   4 178844. 3929.02   2
   3   2  -4 176013. 4362.21   3
  -3   2   3 27423.1 1569.68   2
  -3   2   2 13213.9 1094.84   2
  -3   2   1 52788.5 2199.20   2
  -3   2   0 10238.9 981.335   2
  -3   2  -1 60843.7 2486.38   2
  -3   2  -2 14387.9 1270.80   2
  -3   2  -3 4295.75 719.081   2
  -3   2  -4 23056.7 1019.90  14
  -3   2  -4 26435.2 1033.08   6
  -3   2  -4 27177.3 1881.62   2
  -3   2  -5 479.195 164.296   6
   3   2   5 639.301 126.573   5
  -3   2  -5 675.796 196.469  14
  -3   2  -6 18381.7 977.818   6
   3   2   6 20003.0 719.939   5
  -3   2  -7 125.832 121.005  14
  -3   2  -7 429.054 173.301   6
   3   2   8 4160.27 392.768   7
  -3   2  -8 4815.43 516.666   6
  -3   2  -9 1936.74 362.470  14
   3   2   9 2346.58 282.409   7
  -3   2 -10-80.0459 66.2242  14
   3   2  10 62.5867 36.5191   7
  -3   2 -11 189.259 72.2088  14
   3   2  11 157.493 50.6770   7
   3   3 -12 3947.78 416.409  14
   3   3 -11 1349.75 281.590  14
   3   3 -11 1786.08 266.044   4
   3   3 -10 7288.17 575.722   4
   3   3 -10 4654.56 535.228  14
   3   3  -9 4879.35 463.059   4
   3   3  -9 3857.66 481.677  14
   3   3  -8 11646.8 773.738  14
   3   3  -8 15243.7 728.093  16
   3   3  -7 21366.1 848.440  16
   3   3  -7 24309.4 986.959  10
   3   3  -6 1240.55 220.129  10
   3   3  -6 1183.50 199.149  16
   3   3  -5 17809.9 723.464  16
   3   3  -5 18279.5 806.619  10
   3   3  -4 518.617 131.737  10
  -3   3   4 948.203 341.155   2
   3   3  -4 760.217 137.974   9
  -3   3   3 19600.0 1605.29   2
   3   3  -3 18702.5 739.313  10
   3   3  -3 19621.2 712.437   9
  -3   3   2 50866.4 2647.00   2
   3   3  -2 48589.0 1114.93   9
  -3   3   1 22800.7 1774.37   2
   3   3  -1 21251.1 735.442   9
  -3   3   1 21383.3 921.055  14
  -3   3   0 34442.6 1190.69  14
  -3   3   0 34932.9 1082.52   6
   3   3   0 30288.7 879.093   9
  -3   3   0 35210.5 2266.59   2
  -3   3  -1 5698.86 496.934  14
  -3   3  -1 4818.86 420.224   6
   3   3   1 4621.90 344.972   9
  -3   3  -2 11538.3 746.894  14
  -3   3  -2 11677.1 691.026   6
   3   3   2 10181.0 514.214   9
   3   3   3 1522.24 201.946   7
  -3   3  -3 1455.01 256.577   6
   3   3   3 1333.05 189.716   9
  -3   3  -3 2073.57 576.705   2
  -3   3  -3 1833.30 332.316  14
  -3   3  -4 19170.4 1770.82   2
  -3   3  -4 17430.6 914.862   6
  -3   3  -5 29579.7 1413.27  14
   3   3   5 28965.3 961.499   5
  -3   3  -6 3538.73 516.997  14
   3   3   6 3788.64 369.034   7
   3   3   6 3116.37 319.929   5
  -3   3  -6 2495.60 370.310   6
  -3   3  -7 1668.59 355.274  14
   3   3   7 2460.76 296.593   7
  -3   3  -7 2558.16 369.361   6
   3   3   7 1869.45 238.831   5
  -3   3  -8 550.332 211.791  14
   3   3   8 550.143 140.512   7
  -3   3  -9 1531.08 312.337  14
   3   3   9 1430.26 201.912   7
  -3   3 -10 759.626 186.769  14
   3   3  10 941.482 141.119   7
   3   4 -11 5585.59 411.455   4
   3   4 -10 3403.30 365.734   4
   3   4  -9 3217.75 381.669   4
   3   4  -8 6935.13 547.957   4
   3   4  -8 6692.12 583.712  10
   3   4  -7 731.558 201.650  10
   3   4  -7 496.610 146.513  16
   3   4  -6 36153.8 1372.49  10
   3   4  -6 24862.1 985.936  16
  -3   4   5 1018.74 363.276   2
   3   4  -5 940.865 224.477  10
   3   4  -5 1080.47 198.977   9
   3   4  -5 890.958 199.789  16
   3   4  -4 19023.4 867.879  16
  -3   4   4 17929.6 1758.40   2
   3   4  -4 18589.8 935.719  10
   3   4  -3 4269.34 442.222  10
   3   4  -3 4113.19 406.432   9
  -3   4   3 4769.07 907.039   2
  -3   4   2 10046.9 1367.63   2
   3   4  -2 8542.25 588.160  10
   3   4  -2 11114.6 657.022   9
  -3   4   1 12713.6 1580.44   2
   3   4  -1 11711.6 675.694  10
   3   4  -1 13685.0 725.929   9
  -3   4   0 4320.24 493.540  14
   3   4   0 3649.54 374.730   9
  -3   4   0 3948.01 873.476   2
   3   4   0 3437.78 345.234  10
  -3   4  -1 10024.9 1400.72   2
   3   4   1 9254.69 534.824  10
   3   4   1 9470.96 603.049   9
  -3   4  -1 10527.9 785.642  14
  -3   4  -2 17152.1 1021.95  14
   3   4   2 13375.6 713.417   9
  -3   4  -2 17688.6 1895.35   2
   3   4   3 10672.6 626.706   9
  -3   4  -3 12582.3 891.290  14
  -3   4  -4 9838.57 818.970  14
  -3   4  -5 804.420 243.292  14
   3   4   5 785.665 154.180   7
   3   4   5 630.985 147.385   5
   3   4   6 699.410 154.400   5
   3   4   6 419.499 117.953   7
  -3   4  -6 952.967 263.224  14
  -3   4  -7 884.517 232.129  14
   3   4   7 552.607 127.014   7
   3   4   7 863.298 160.831   5
  -3   4  -7 785.434 190.160  10
   3   4   8 466.707 102.946   7
  -3   4  -8 922.692 244.251  14
  -3   4  -9 132.814 93.2879  14
   3   4   9 217.595 58.2997   7
   3   5  -9 41.8875 38.5970   4
   3   5  -9 108.297 48.9297  10
   3   5  -8 2170.11 316.842  10
   3   5  -8 1727.86 245.352   4
   3   5  -7 6575.80 491.185   4
   3   5  -7 9355.95 706.212  10
   3   5  -6 918.943 182.604  16
   3   5  -6 687.254 152.601   4
   3   5  -6 1101.76 253.736  10
  -3   5   6 698.544 148.400   9
   3   5  -5 4912.94 544.324  10
   3   5  -5 4365.05 433.196   9
   3   5  -5 3166.56 364.944  16
   3   5  -4 2466.86 330.773  16
   3   5  -4 2206.53 353.764  10
   3   5  -4 2064.01 313.658   9
   3   5  -3 12832.3 840.951  10
   3   5  -3 14475.7 855.226   9
   3   5  -2 2813.76 367.683  10
   3   5  -2 3375.82 413.309   9
   3   5  -1 2263.28 320.216  10
   3   5  -1 2884.44 391.480   9
   3   5  -1 2850.65 310.145   5
   3   5   0 10472.5 631.957   5
   3   5   0 12537.1 793.470   9
   3   5   0 11697.6 683.035  10
   3   5   1 6797.89 567.439   9
   3   5   1 7151.76 532.322   5
  -3   5  -2 5680.45 601.068  14
   3   5   2 5372.55 465.261   5
   3   5   2 4498.54 445.180   9
   3   5   3 7474.07 550.867   5
  -3   5  -3 7462.56 691.652  14
  -3   5  -4 2945.41 425.437  14
   3   5   4 2989.70 337.788   5
   3   5   5 3310.91 342.797   5
  -3   5  -5 3110.10 430.492  14
  -3   5  -6 194.260 95.6173  14
  -3   5  -6 210.621 108.997  10
   3   5   6 208.027 72.6755   5
   3   5   7 305.021 77.1443   5
  -3   5  -7 366.839 109.453  14
  -3   5  -7 445.861 109.679  10
   3   6  -7 2349.57 283.394  10
   3   6  -6 5898.92 497.112  10
  -3   6   5 2082.56 241.831   9
   3   6  -5 1755.50 221.835  16
   3   6  -4 4046.17 369.201  16
  -3   6   4 5073.81 419.643   9
   3   6  -3 4005.05 425.933  10
  -3   6   3 3362.12 363.806   9
   3   6  -3 3962.32 389.821  16
   3   6  -2 10528.7 650.362  16
   3   6  -2 9480.89 642.297  10
   3   6  -2 10622.1 698.445   9
   3   6  -1 7183.13 579.546   9
   3   6  -1 6381.05 484.926  10
   3   6   0 356.503 112.499   5
  -3   6   0 414.310 125.706  10
   3   6   0 550.841 161.774   9
   3   6   1 995.853 177.579   5
  -3   6  -1 1089.57 216.771  10
  -3   6  -1 1047.25 206.600   9
   3   6   2 118.741 51.2664   5
  -3   6  -2 174.299 85.8660  10
  -3   6  -2 194.554 93.1212   9
  -3   6  -3 3444.02 383.342  10
   3   6   3 3309.52 316.043   5
   3   6   4 2006.35 231.500   5
  -3   6  -4 2125.03 284.350  10
   3   6   5 194.792 66.1742   5
  -3   6  -5 204.287 75.8932  10
   4  -6  -7 3924.92 336.560   8
   4  -6  -6 11950.8 629.985   8
   4  -6  -5 932.984 185.238   8
   4  -6  -4 4851.11 428.355   8
   4  -6  -3 1223.98 207.231   8
   4  -6  -2 8337.09 565.532   8
   4  -6  -1 658.611 149.460   8
   4  -6   0 4779.68 395.235   8
   4  -5 -10 626.142 128.148   8
   4  -5 -10 656.679 130.464  14
   4  -5  -9 5530.30 449.395   8
   4  -5  -9 5505.36 469.563  14
   4  -5  -8 369.945 123.286   8
   4  -5  -7 1666.10 286.669   8
   4  -5  -6 9775.16 727.761   8
   4  -5  -5 2152.87 335.492   8
   4  -5  -4 37464.1 1400.72   8
   4  -5  -3 18180.3 972.591   8
   4  -5  -2 10612.8 729.184   8
   4  -5  -1 21699.9 1001.90   8
   4  -5   0 7506.21 577.037   8
   4  -5   1 10500.4 660.870   8
   4  -5   2 13509.9 717.962   8
   4  -5   3 1626.39 234.740   8
   4  -4 -11-39.9987 53.2068   8
   4  -4 -11 12.0117 38.4996  14
   4  -4 -10 19686.9 927.842   8
   4  -4 -10 23564.0 1126.64  14
   4  -4  -9 3365.00 425.705   8
   4  -4  -8 630.431 187.132   8
   4  -4  -7 8561.11 699.832   8
   4  -4  -6 4917.32 517.783   8
   4  -4  -5 50618.3 1422.98  12
   4  -4  -5 56384.5 1691.42   8
   4  -4  -4 20620.8 992.771   8
   4  -4  -4 19634.0 875.535  12
  -4  -4   3 36311.7 2557.31   1
   4  -4  -3 36027.2 1170.01  12
   4  -4  -3 35169.0 1251.43   8
   4  -4  -2 25624.2 1013.47   8
  -4  -4   2 26078.9 2149.53   1
   4  -4  -2 26045.3 967.311  12
   4  -4  -1 373.787 120.432   8
   4  -4  -1 232.533 87.2078  12
  -4  -4   1 280.118 253.806   1
   4  -4   0 12843.4 691.606   8
  -4  -4   0 13395.9 1567.16   1
   4  -4   1 18946.2 848.963   8
  -4  -4  -1 14566.0 1648.00   1
  -4  -4  -2 31300.9 2394.99   1
  -4  -4  -4 2653.44 343.070   8
  -4  -4  -5 227.303 95.4830   8
   4  -3 -12 312.027 129.860  14
   4  -3 -11 14051.5 784.384   8
   4  -3 -11 23397.5 1198.93  14
   4  -3 -10 10807.0 742.318   8
   4  -3 -10 10911.8 715.304  11
   4  -3 -10 12946.8 950.039  14
   4  -3  -9 22305.9 1115.39   8
   4  -3  -9 19823.8 954.668  11
   4  -3  -8 37691.9 1252.65  11
   4  -3  -8 41925.9 1488.47   8
   4  -3  -8 38701.5 3113.65   3
   4  -3  -7 31491.1 1054.56  12
   4  -3  -7 33392.7 1289.55   8
   4  -3  -6 20121.1 838.900  12
   4  -3  -6 22098.8 990.191   8
   4  -3  -5 41596.2 1165.04  12
   4  -3  -5 42366.5 1331.26   8
   4  -3  -4 48414.2 1300.35   8
   4  -3  -4 44637.3 1185.66  12
   4  -3  -3 20512.3 806.751   8
   4  -3  -3 20589.1 769.550  12
   4  -3  -2 4937.44 378.456   8
  -4  -3   2 5006.10 825.897   1
   4  -3  -2 4339.05 343.234  12
   4  -3  -1 14174.0 642.824   8
   4  -3  -1 12893.7 570.324  12
  -4  -3   1 14570.3 1394.83   1
  -4  -3   0 105.841 170.315   1
  -4  -3  -1 37891.1 2357.49   1
  -4  -3  -2 2885.42 660.530   1
  -4  -3  -3 12558.5 681.309   8
  -4  -3  -3 12258.1 1364.35   1
  -4  -3  -4 16200.2 1553.87   1
  -4  -3  -4 14372.1 785.260   8
  -4  -3  -5 163.394 80.8904   8
   4  -2 -13 10632.3 723.798  14
   4  -2 -12 4018.41 513.508  14
   4  -2 -11 10766.2 881.208  14
   4  -2 -11 10512.8 726.085  11
   4  -2 -10 262.668 104.611   8
   4  -2 -10 92.7270 82.7778  14
   4  -2 -10 210.591 109.404  11
   4  -2  -9 16512.4 891.792   8
   4  -2  -9 19618.4 2204.14   3
   4  -2  -9 20573.9 964.581  11
   4  -2  -8 20491.0 864.250  16
   4  -2  -8 14370.3 634.409  12
   4  -2  -8 19922.2 876.111  11
   4  -2  -8 19506.2 2064.77   3
   4  -2  -8 14981.8 803.061   8
   4  -2  -7 18169.8 720.126  12
   4  -2  -7 18240.9 844.519   8
   4  -2  -6 13273.2 592.614  12
   4  -2  -6 12760.9 587.906  16
   4  -2  -6 13546.1 677.935   8
  -4  -2   5 31919.3 1660.63   1
   4  -2  -5 35884.4 913.605  12
  -4  -2   4 16188.0 1216.56   1
  -4  -2   3 48721.1 2161.34   1
  -4  -2   2 110007. 3279.90   1
  -4  -2   1 41905.6 2055.74   1
  -4  -2   0 150832. 3965.54   1
  -4  -2  -1 17522.1 1380.33   1
  -4  -2  -2 8541.40 976.175   1
  -4  -2  -3 10012.1 1116.60   1
  -4  -2  -3 7658.85 497.034   8
  -4  -2  -4 1743.32 453.568   1
  -4  -2  -4 2117.33 288.396   8
  -4  -2  -5 10873.0 721.956   8
   4  -1 -14 2228.17 297.113  14
   4  -1 -13 9030.22 719.011  14
   4  -1 -12 3821.14 517.890  14
   4  -1 -11 32030.5 1531.41  14
   4  -1 -11 33493.7 1295.23  11
   4  -1 -11 30282.2 1093.85  16
   4  -1 -10 14176.2 994.477  14
   4  -1 -10 12921.2 708.506  16
   4  -1 -10 13604.3 815.277  11
   4  -1  -9 17723.8 1041.59  14
   4  -1  -9 18313.3 865.261  11
   4  -1  -9 17602.0 813.349  16
   4  -1  -8 10597.4 727.836  14
   4  -1  -8 8835.04 1345.82   3
   4  -1  -8 10624.4 592.647  16
   4  -1  -7 40776.2 1074.22  16
   4  -1  -7 37042.8 952.689  15
   4  -1  -6 64819.3 3088.76   3
  -4  -1   5 29356.5 1367.00   1
  -4  -1   4 26.4621 35.5313   1
  -4  -1   3 70755.9 2287.07   1
  -4  -1   2 11070.6 915.814   1
  -4  -1   1 74961.7 2404.45   1
  -4  -1   0 123103. 3215.14   1
  -4  -1  -1 84126.8 2728.72   1
  -4  -1  -2 15071.9 1201.55   1
  -4  -1  -3 12936.7 1146.73   1
   4  -1   4 5943.68 323.199   7
   4  -1   5 2637.52 233.501   7
  -4  -1 -10 416.420 132.238   6
   4   0 -14 72.8185 67.6712  14
   4   0 -13 1961.59 360.444  14
   4   0 -12 9575.64 825.307  14
   4   0 -12 6034.45 453.584  16
   4   0 -11 13121.5 981.937  14
   4   0 -11 11139.6 703.654  11
   4   0 -11 12871.7 713.684  16
   4   0 -10 2143.48 372.939  14
   4   0 -10 2295.31 309.558  16
   4   0 -10 1974.35 292.910  11
   4   0 -10 1755.37 633.313   3
   4   0  -9 2553.85 390.698  14
   4   0  -9 3359.11 352.030  16
   4   0  -9 2227.94 286.703  11
   4   0  -9 2605.47 737.088   3
   4   0  -8 2516.41 284.814  16
   4   0  -8 2353.49 334.049  14
   4   0  -8 2645.30 697.360   3
   4   0  -8 2460.20 260.130  15
   4   0  -7 199547. 5396.69   3
   4   0  -7 188276. 2046.22  16
   4   0  -6 1068.53 363.797   3
  -4   0   5 46542.2 1252.10   2
   4   0  -5 75035.6 2702.35   3
   4   0  -4 39897.1 1676.88   3
  -4   0   3 82613.6 2351.10   1
   4   0  -3 69939.9 1873.75   3
   4   0  -2 108226. 1884.27   3
  -4   0   2 127883. 2949.82   1
   4   0  -1 79.9373 33.6124   3
  -4   0   1 180.928 124.987   1
  -4   0   0 2450.62 439.313   1
  -4   0  -1 8538.11 831.994   1
  -4   0  -2 82648.8 2706.00   1
  -4   0  -3 12633.7 1096.32   1
   4   0   4 17458.3 605.899   7
  -4   0  -5 3716.76 389.501  14
   4   0   5 4722.98 344.050   7
  -4   0  -6 96.7627 92.4942  14
   4   0   6 168.278 64.4036   7
  -4   0  -7 575.697 192.897  14
   4   0   7 655.491 139.753   7
  -4   0  -8-24.6826 39.8556  14
   4   0   8 20.0368 20.8776   7
   4   0   9 920.840 157.251   7
  -4   0  -9 889.666 211.806  14
  -4   0  -9 792.212 214.086   6
  -4   0 -10 2589.49 320.983   6
   4   1 -13 7873.42 669.518  14
   4   1 -12 3991.42 524.074  14
   4   1 -12 2377.39 275.830  16
   4   1 -11 25810.9 1347.69  14
   4   1 -11 23919.3 967.552  16
   4   1 -10 10977.0 583.452   4
   4   1 -10 10005.5 633.455  16
   4   1 -10 9051.33 754.284  14
   4   1  -9 13683.4 677.288  16
   4   1  -9 10708.5 754.107  14
   4   1  -9 12270.1 1617.01   3
   4   1  -8 7403.11 570.626  14
   4   1  -8 9122.95 1285.35   3
   4   1  -8 9118.87 465.315  15
   4   1  -8 10376.6 555.163  16
   4   1  -7 42524.4 916.376  15
   4   1  -7 43350.6 2539.98   3
   4   1  -6 55638.1 2570.01   3
  -4   1   5 34686.3 1427.78   2
   4   1  -5 32736.0 1722.23   3
   4   1  -4 321.025 169.683   3
  -4   1   4 857.852 234.796   2
  -4   1   3 69747.0 2219.33   2
   4   1  -3 50114.2 1540.62   3
   4   1  -2 9774.78 574.061   3
  -4   1   2 14280.2 1099.43   2
  -4   1   1 85005.2 2790.33   2
  -4   1   0 147447. 3862.63   2
  -4   1  -1 94366.0 3211.09   2
  -4   1  -2 18899.9 1520.79   2
   4   1   3 20835.5 667.847   7
  -4   1  -3 21762.6 1730.30   2
   4   1   4 5723.85 379.009   7
  -4   1  -4 5931.19 913.399   2
   4   1   4 6928.19 380.389   5
  -4   1  -4 4671.21 439.288  14
  -4   1  -5 2690.48 382.231  14
   4   1   5 3108.16 305.900   7
  -4   1  -6 16951.2 985.546  14
   4   1   6 18862.7 781.459   7
  -4   1  -7 1760.22 333.762  14
   4   1   7 1932.71 262.878   7
  -4   1  -7 1943.86 352.275   6
  -4   1  -8 2669.81 403.748  14
   4   1   8 3390.59 347.997   7
  -4   1  -8 2723.69 412.765   6
  -4   1  -9 547.458 182.543  14
   4   1   9 772.165 155.281   7
  -4   1  -9 399.308 144.989   6
  -4   1 -10 96.1982 44.1643  14
   4   1  10 488.223 106.856   7
   4   2 -12 2652.63 386.845  14
   4   2 -12 4393.32 358.019   4
   4   2 -11 7958.61 720.968  14
   4   2 -11 9112.56 572.842  16
   4   2 -11 7899.17 552.919   4
   4   2 -10 241.651 165.078  14
   4   2 -10 277.584 107.866  16
   4   2  -9 13207.0 857.073  14
   4   2  -9 13584.1 1864.51   3
   4   2  -9 15518.1 752.631  16
   4   2  -8 16553.5 1924.90   3
   4   2  -8 15290.9 737.804  16
   4   2  -7 23148.3 2085.19   3
   4   2  -7 24446.3 839.632  10
   4   2  -6 16144.0 1579.48   3
   4   2  -6 18331.5 701.995  10
   4   2  -5 30193.7 1967.08   3
   4   2  -5 31911.9 870.425  16
  -4   2   5 30496.8 1711.26   2
  -4   2   4 18925.1 1378.34   2
  -4   2   3 43921.9 2111.96   2
  -4   2   2 115736. 3472.08   2
  -4   2   1 43675.4 2174.79   2
  -4   2   0 163165. 4294.55   2
  -4   2  -1 17246.0 1452.68   2
   4   2   2 9390.71 452.833   7
  -4   2  -2 8025.63 1027.92   2
  -4   2  -2 9689.85 593.728   6
   4   2   2 8244.27 424.639   5
  -4   2  -3 8451.11 644.022  14
   4   2   3 10131.7 511.945   7
  -4   2  -3 10971.6 684.364   6
   4   2   3 8651.98 454.115   5
  -4   2  -4 2252.90 339.578  14
  -4   2  -4 2511.58 364.299   6
   4   2   4 2645.63 279.525   7
   4   2   4 1929.14 223.985   5
  -4   2  -4 1601.05 513.492   2
  -4   2  -5 11618.8 831.037  14
   4   2   5 14107.6 687.463   7
  -4   2  -5 14053.1 883.879   6
   4   2   5 12100.7 579.825   5
  -4   2  -6 1913.42 353.606  14
   4   2   6 2506.56 306.916   7
  -4   2  -6 2476.85 387.050   6
   4   2   6 2412.97 267.592   5
  -4   2  -7 2507.11 416.549  14
  -4   2  -7 2738.24 410.839   6
   4   2   7 3207.02 346.545   7
  -4   2  -8 492.219 167.534  14
   4   2   8 975.777 181.042   7
  -4   2  -8 684.399 194.418   6
  -4   2  -9 606.006 175.949  14
   4   2   9 248.202 77.8645   7
   4   2  10 374.165 90.0415   7
  -4   2 -10 413.410 117.058  14
   4   3 -12 215.368 74.6926   4
   4   3 -11 23088.2 972.937   4
   4   3 -10 11928.7 730.631   4
   4   3 -10 9087.30 545.267  16
   4   3  -9 15717.3 790.066  16
   4   3  -8 34828.4 1203.62  10
   4   3  -8 33173.0 1147.81  16
   4   3  -7 33640.0 1128.51  16
   4   3  -7 28028.0 1102.26  10
   4   3  -6 18065.8 860.159  10
   4   3  -6 22872.4 897.575  16
  -4   3   5 40604.7 2346.29   2
   4   3  -5 40476.2 1155.69  16
   4   3  -4 46254.4 1277.39  10
   4   3  -4 42906.8 1116.78   9
   4   3  -4 46570.2 1202.24  16
   4   3  -3 19120.8 795.741  10
   4   3  -3 19539.3 750.562   9
  -4   3   2 5366.56 904.571   2
   4   3  -2 3738.13 336.281  10
   4   3  -2 4034.70 337.639   9
   4   3  -2 4918.02 324.913   5
  -4   3   1 13880.1 787.973  14
  -4   3   1 16504.5 1633.93   2
   4   3  -1 12179.9 590.627  10
   4   3  -1 17454.8 703.399   9
   4   3  -1 12862.7 548.237   5
  -4   3   0 67.2802 31.6895   6
   4   3   0 188.140 72.5623  10
  -4   3   0 267.324 208.251   2
   4   3   0 129.766 63.1156   9
  -4   3   0 97.2897 42.6009  14
   4   3   0 155.626 63.6646   5
  -4   3  -1 37944.8 1355.49  14
  -4   3  -1 38022.7 2570.05   2
  -4   3  -1 29941.2 1155.56   6
   4   3   1 33229.1 952.458  10
   4   3   1 30621.4 919.710   5
   4   3   1 33515.8 997.099   9
  -4   3  -2 2590.74 374.793  14
   4   3   2 1922.03 224.147   7
  -4   3  -2 2988.50 380.061   6
   4   3   2 2405.29 275.574   5
  -4   3  -2 2854.21 751.122   2
  -4   3  -3 15759.0 965.640  14
  -4   3  -3 12506.0 1537.29   2
   4   3   3 12053.1 606.503   7
  -4   3  -3 16575.8 926.784   6
   4   3   3 14815.7 681.256   5
  -4   3  -4 19842.4 1176.92  14
   4   3   4 18605.5 798.173   5
  -4   3  -4 21606.7 1098.14   6
  -4   3  -5-57.2095 82.2054  14
   4   3   5 117.196 72.9571   7
  -4   3  -5 66.9991 75.2367   6
   4   3   5 206.471 98.8896   5
  -4   3  -6 10157.1 856.826  14
   4   3   6 10950.7 634.856   7
   4   3   6 10154.6 589.785   5
  -4   3  -7 1784.84 351.127  14
   4   3   7 1989.67 266.888   7
  -4   3  -7 1411.25 274.081   6
   4   3   7 2093.47 251.595   5
  -4   3  -8 4512.34 533.403  14
   4   3   8 4440.26 368.573   7
  -4   3  -9 1512.13 264.586  14
   4   3   9 1817.79 211.038   7
   4   4 -11 30.3530 39.1749   4
   4   4 -10 24422.0 993.550   4
   4   4  -9 3828.32 365.523  16
   4   4  -9 4445.11 427.685  10
   4   4  -8 981.798 225.836  10
   4   4  -8 830.910 180.545  16
   4   4  -7 6213.21 513.237  16
   4   4  -7 8450.35 683.809  10
   4   4  -6 5306.23 536.950  10
   4   4  -6 4390.91 440.157  16
   4   4  -5 55040.4 1548.52  16
   4   4  -5 57762.1 1751.07  10
  -4   4   4 19970.0 1906.06   2
   4   4  -4 22967.9 1001.54  16
   4   4  -4 22224.1 1044.68  10
   4   4  -3 34425.3 1245.45  10
   4   4  -3 38514.5 1257.76   9
  -4   4   3 36759.1 2668.78   2
   4   4  -2 27705.7 1078.40  10
   4   4  -2 30510.1 1119.44   9
  -4   4   2 30056.2 2427.37   2
   4   4  -1 188.333 68.9059   5
   4   4  -1 211.963 98.2427  10
  -4   4   1 400.807 327.936   2
   4   4  -1 180.662 98.1352   9
  -4   4   0 16409.7 1870.03   2
  -4   4   0 16841.7 992.345  14
   4   4   0 15289.0 746.646  10
   4   4   0 15415.9 800.471   9
   4   4   0 17493.1 775.011   5
  -4   4  -1 23967.5 2280.12   2
  -4   4  -1 22430.0 1171.24  14
   4   4   1 23048.2 916.975   5
   4   4   1 20821.2 921.286   9
  -4   4  -2 49606.6 1808.04  14
   4   4   2 49491.8 1378.12   5
  -4   4  -3 18638.8 1120.19  14
   4   4   3 18359.1 866.172   5
  -4   4  -4 4218.33 546.956  14
   4   4   4 4191.18 403.508   5
   4   4   5 136.764 70.9106   5
   4   4   5 196.566 82.6653   7
  -4   4  -5 156.667 117.202  14
  -4   4  -6 429.121 174.991  14
   4   4   6 339.848 93.5996   7
   4   4   6 470.380 124.077   5
  -4   4  -7 2386.12 373.812  14
   4   4   7 1829.52 215.510   7
   4   4   7 2746.71 275.955   5
   4   4   8 397.583 85.2075   7
  -4   4  -8 422.310 142.962  14
   4   5  -9 4405.69 364.986   4
   4   5  -9 6200.15 451.245  10
   4   5  -8 363.107 104.096   4
   4   5  -8 531.390 150.297  10
   4   5  -7 1057.34 188.415   4
   4   5  -7 1010.30 189.011  16
   4   5  -7 1391.18 273.818  10
   4   5  -6 11344.1 697.431  16
   4   5  -6 13463.5 866.034  10
   4   5  -5 2794.67 408.967  10
   4   5  -5 2800.84 360.847  16
   4   5  -4 47261.3 1518.42  16
   4   5  -4 44130.1 1579.49  10
   4   5  -3 18371.3 986.689  10
   4   5  -3 21365.6 1047.66   9
   4   5  -2 11119.4 739.777  10
   4   5  -2 13789.9 842.226   9
   4   5  -1 22182.5 995.394  10
   4   5  -1 25646.0 1151.30   9
   4   5  -1 23937.4 939.754   5
   4   5   0 7391.00 537.378  10
   4   5   0 8331.65 654.603   9
   4   5   1 13051.3 726.539   5
  -4   5  -2 16564.2 1037.58  14
   4   5   2 16468.0 818.629   5
  -4   5  -3 1982.63 359.284  14
   4   5   3 1796.89 265.104   5
   4   5   4 1263.07 212.425   5
  -4   5  -4 1228.73 269.700  14
  -4   5  -5 274.145 158.279  14
   4   5   5 200.835 83.5027   5
   4   5   6 428.965 105.258   5
  -4   5  -6 377.557 131.088  14
  -4   5  -6 341.133 114.132  10
  -4   5  -7-79.2423 41.2515  14
   4   6  -7 5297.39 417.772  10
   4   6  -6 15470.6 782.244  10
   4   6  -6 11215.8 520.055  16
   4   6  -5 687.864 149.106  16
   4   6  -5 966.780 200.510  10
  -4   6   5 805.457 155.240   9
   4   6  -4 5550.00 493.222  10
  -4   6   4 4555.83 388.440   9
   4   6  -4 5276.18 430.937  16
   4   6  -3 1887.02 282.458  10
   4   6  -3 1946.36 273.667  16
   4   6  -2 10092.5 631.218  16
   4   6  -2 9897.66 615.614  10
   4   6  -1 1076.18 193.988  10
  -4   6   1 749.458 170.665  10
  -4   6   0 5159.28 441.815  10
   4   6   0 4312.19 362.818   5
  -4   6  -1 1103.02 208.027  10
   4   6   1 1342.34 209.268   5
  -4   6  -2 5501.64 470.652  10
   4   6   2 6411.94 444.366   5
  -4   6  -3 2895.17 331.449  10
   4   6   3 3292.79 305.070   5
   4   6   4 427.803 99.3961   5
  -4   6  -4 288.236 90.4317  10
   5  -6  -7 2437.93 250.122   8
   5  -6  -6 5303.09 403.777   8
   5  -6  -5 192.814 75.0411   8
   5  -6  -4 6828.90 495.770   8
   5  -6  -3 476.878 133.441   8
   5  -6  -2 194.575 83.5154   8
   5  -6  -1 7364.04 494.610   8
   5  -6   0 2077.35 252.365   8
   5  -6   1 3006.64 278.958   8
   5  -5 -10 4275.48 357.255  14
   5  -5  -9 458.678 136.204  14
   5  -5  -9 328.353 105.735   8
   5  -5  -8 8664.74 603.933   8
   5  -5  -7 3567.70 410.628   8
   5  -5  -6 3622.24 424.281   8
   5  -5  -5 2808.38 382.143   8
   5  -5  -4 33029.2 1319.04   8
   5  -5  -3 22226.0 1076.18   8
   5  -5  -2 4259.80 462.554   8
   5  -5  -1 54136.3 1597.14   8
   5  -5   0 3608.74 403.213   8
   5  -5   1 2121.49 297.983   8
   5  -5   2 5479.50 455.219   8
   5  -5   3 5411.32 427.574   8
   5  -4 -11 2016.88 289.846  14
   5  -4 -11 1019.87 175.207   8
   5  -4 -10 2396.87 362.329  14
   5  -4 -10 2150.41 302.451   8
   5  -4  -9 11567.8 763.428   8
   5  -4  -8 2537.36 373.369   8
   5  -4  -8 2192.10 271.867  11
   5  -4  -7 24744.4 1174.49   8
   5  -4  -6 148.190 104.021   8
   5  -4  -6 254.094 129.099  12
   5  -4  -5 37856.2 1280.95  12
   5  -4  -5 42022.1 1516.19   8
   5  -4  -4 3316.20 416.133   8
   5  -4  -4 2863.15 347.474  12
   5  -4  -3 20232.2 969.852   8
   5  -4  -3 19905.5 894.079  12
   5  -4  -2 97951.8 2059.71   8
   5  -4  -2 103009. 1951.57  12
   5  -4  -1 2584.26 329.230   8
  -5  -4   1 2663.75 737.941   1
   5  -4  -1 2639.01 302.980  12
   5  -4   0 16580.2 838.592   8
  -5  -4   0 17488.4 1862.38   1
   5  -4   1 2705.14 336.812   8
  -5  -4  -1 2271.98 673.668   1
   5  -3 -12 1088.77 226.255  14
   5  -3 -11 769.512 171.165   8
   5  -3 -11 1148.92 263.719  14
   5  -3 -10 5662.80 607.326  14
   5  -3 -10 4810.64 456.840  11
   5  -3  -9 8307.03 611.845  11
   5  -3  -9 7207.35 621.943   8
   5  -3  -8 29616.9 1054.44  12
   5  -3  -8 31417.9 1280.39   8
   5  -3  -7 16282.0 806.998  12
   5  -3  -7 14454.0 716.664  11
   5  -3  -7 17397.9 939.678   8
   5  -3  -6 18384.4 833.472  12
   5  -3  -6 18573.9 939.009   8
   5  -3  -5 45632.5 1398.11   8
   5  -3  -5 45829.1 1284.53  12
   5  -3  -4 3010.49 339.103   8
   5  -3  -4 2753.38 306.042  12
  -5  -3   4 2211.72 573.094   1
   5  -3  -3 30029.1 1016.41   8
   5  -3  -3 32118.0 1002.89  12
  -5  -3   3 31266.5 2194.07   1
   5  -3  -2 31088.4 947.720  12
  -5  -3   2 31955.9 2264.44   1
  -5  -3   1 1117.60 418.771   1
   5  -3  -1 902.312 156.224  12
   5  -3   0 29611.8 873.688  12
  -5  -3   0 31697.5 2296.96   1
  -5  -3  -1 44890.6 2720.06   1
  -5  -3  -2 10668.3 1336.92   1
  -5  -3  -3 20878.7 1887.19   1
   5  -2 -13 5767.85 525.442  14
   5  -2 -12 1745.38 328.368  14
   5  -2 -11 10179.6 848.760  14
   5  -2 -11 10188.1 702.182  11
   5  -2 -10 2471.38 413.067  14
   5  -2 -10 2522.11 355.424  11
   5  -2  -9 5025.59 452.403  16
   5  -2  -9 5006.84 473.797   8
   5  -2  -9 4947.62 1110.47   3
   5  -2  -9 5110.97 477.880  11
   5  -2  -8-4.57059 56.8074   8
   5  -2  -8 46.5999 32.2165  12
   5  -2  -8 76.9577 138.410   3
   5  -2  -8 103.928 74.8415  16
   5  -2  -7 3684.36 342.910  12
   5  -2  -7 4181.15 949.183   3
   5  -2  -7 4033.12 363.474  16
   5  -2  -7 3519.62 373.505   8
   5  -2  -6 66974.9 1537.37   8
   5  -2  -6 67141.5 1418.82  12
   5  -2  -6 77674.7 1458.96  16
   5  -2  -6 75895.9 1369.82  15
   5  -2  -5 16248.0 709.960   8
   5  -2  -5 14156.0 564.205  15
   5  -2  -5 16083.9 646.690  12
   5  -2  -5 14446.1 577.164  16
   5  -2  -4 26694.2 802.120  12
  -5  -2   4 24014.0 1680.57   1
  -5  -2   3 45025.8 2277.69   1
  -5  -2   2 86757.8 3221.44   1
  -5  -2   1 74454.0 3017.27   1
  -5  -2   0 1309.26 404.816   1
  -5  -2  -1 72629.8 3127.87   1
  -5  -2  -2 12137.3 1323.68   1
  -5  -2  -3 3348.66 687.670   1
   5  -1 -13 863.658 224.428  14
   5  -1 -12 812.704 223.517  14
   5  -1 -12 833.176 204.159  11
   5  -1 -11 606.998 267.241  14
   5  -1 -11 272.628 125.730  11
   5  -1 -11 386.158 127.360  16
   5  -1 -10 11345.8 878.181  14
   5  -1 -10 10770.6 669.929  16
   5  -1 -10 11339.0 745.599  11
   5  -1  -9 7174.72 654.085  14
   5  -1  -9 6175.01 1199.86   3
   5  -1  -9 8682.40 582.129  16
   5  -1  -8 1418.39 272.914  14
   5  -1  -8 1567.70 579.142   3
   5  -1  -8 1385.48 223.448  16
   5  -1  -8 1513.73 217.971  15
   5  -1  -7 30007.5 835.686  12
   5  -1  -7 30264.0 2261.75   3
   5  -1  -7 27109.9 877.737  15
   5  -1  -6 18125.1 634.266  15
   5  -1  -6 15722.8 620.456  16
  -5  -1   5 118228. 3229.04   1
  -5  -1   4 13164.2 1118.49   1
  -5  -1   3 43459.5 2079.59   1
  -5  -1   2 23357.4 1536.71   1
  -5  -1   1 45100.7 2188.84   1
  -5  -1   0 191443. 4604.95   1
  -5  -1  -1 10896.8 1129.63   1
  -5  -1  -2 40969.7 2245.93   1
   5  -1   3 370.300 85.2540   7
  -5  -1  -3 141.240 99.8528   1
   5  -1   4 7711.78 413.695   7
   5  -1   5 4062.85 312.811   7
   5   0 -13 4462.66 503.013  14
   5   0 -12 535.567 181.353  14
   5   0 -12 369.656 124.778  11
   5   0 -12 419.712 124.452  16
   5   0 -11 12602.6 736.511  16
   5   0 -11 10757.8 699.734  11
   5   0 -10 2108.59 357.155  14
   5   0 -10 2920.58 357.063  11
   5   0 -10 2243.26 764.962   3
   5   0 -10 3188.41 372.345  16
   5   0  -9 29987.7 2516.77   3
   5   0  -9 35817.0 1170.39  16
   5   0  -8 192.571 75.2054  15
   5   0  -8 108.920 53.1255  14
   5   0  -8 46.6948 194.142   3
   5   0  -8 256.123 89.3106  16
   5   0  -7 5556.41 373.241  15
   5   0  -7 5080.39 352.796  16
   5   0  -6 1258.98 163.181  16
   5   0  -6 1435.91 174.885  15
   5   0  -6 1282.31 397.155   3
   5   0  -5 9102.62 939.415   3
  -5   0   5 8510.11 737.210   2
   5   0  -4 2746.93 438.614   3
  -5   0   4 2816.07 506.098   1
   5   0  -3 3346.05 397.433   3
  -5   0   3 4370.26 644.671   1
  -5   0   2 102359. 3099.68   1
   5   0  -2 74148.2 1429.90   3
  -5   0   1 74296.0 2686.17   1
  -5   0   0 3370.60 583.892   1
  -5   0  -1 25.0347 78.3784   1
  -5   0  -2 739.157 308.499   1
   5   0   3 5106.08 339.811   7
   5   0   4 45487.2 1075.52   7
   5   0   5 3177.91 302.999   7
   5   0   6 31053.5 978.678   7
   5   0   7 3043.85 316.372   7
   5   0   8 4098.65 343.835   7
   5   0   9 85.4738 33.2883   7
  -5   0  -9 321.445 126.443   6
   5   1 -13 613.720 182.560  14
   5   1 -13 491.157 114.149  16
   5   1 -12 582.312 197.770  14
   5   1 -12 753.609 170.490  16
   5   1 -11 155.684 102.809  14
   5   1 -11 319.839 113.221  16
   5   1 -10 8251.55 690.501  14
   5   1 -10 10393.3 664.001  16
   5   1  -9 6601.08 1158.01   3
   5   1  -9 7668.46 513.765  16
   5   1  -9 6353.74 459.573  11
   5   1  -9 5804.90 414.590  15
   5   1  -8 968.364 384.625   3
   5   1  -8 1170.00 187.015  15
   5   1  -8 1618.60 236.188  16
   5   1  -7 26041.5 1951.72   3
   5   1  -7 24336.8 851.051  16
   5   1  -6 16263.7 1372.99   3
   5   1  -6 17562.2 652.495  16
   5   1  -6 17185.4 580.802  15
  -5   1   5 121999. 3006.15   2
   5   1  -5 96167.6 2903.05   3
   5   1  -4 11318.9 850.743   3
  -5   1   4 14715.6 1117.02   2
   5   1  -3 37702.7 1290.49   3
  -5   1   3 49404.0 2201.18   2
  -5   1   2 27403.1 1741.18   2
  -5   1   1 53854.3 2532.42   2
  -5   1   0 220721. 5366.07   2
  -5   1  -1 12539.3 1320.31   2
   5   1   2 49445.9 1067.48   7
  -5   1  -2 47000.0 2684.19   2
   5   1   3 264.610 78.6961   5
   5   1   3 368.540 96.2980   7
  -5   1  -4 6041.88 516.169  14
  -5   1  -4 7073.58 1081.34   2
   5   1   4 7606.29 441.362   5
  -5   1  -5 3626.74 423.281  14
   5   1   5 4548.51 386.708   7
  -5   1  -6 2447.90 357.739  14
   5   1   6 3070.36 335.548   7
  -5   1  -6 3403.24 477.830   6
  -5   1  -7 670.092 197.453  14
   5   1   7 1202.77 204.170   7
  -5   1  -7 610.773 196.981   6
  -5   1  -8 1018.82 235.205  14
   5   1   8 1432.42 220.625   7
  -5   1  -8 1629.82 306.292   6
   5   1   9 2543.85 255.912   7
  -5   1  -9 1480.76 253.341   6
   5   2 -12 1915.66 241.521   4
   5   2 -12 1232.52 203.300  16
   5   2 -11 7407.96 528.032   4
   5   2 -11 7457.66 552.928  16
   5   2 -10 2632.43 311.275  16
   5   2  -9 2439.14 769.212   3
   5   2  -9 5227.73 465.790  16
   5   2  -8 323.277 278.020   3
   5   2  -8 30.6738 61.0710  16
   5   2  -7 3459.41 801.681   3
   5   2  -7 5209.69 421.493  16
   5   2  -7 3551.00 335.723  10
   5   2  -6 64636.3 1406.36  10
   5   2  -6 68245.8 1444.11  16
  -5   2   5 20219.4 1507.45   2
   5   2  -5 17848.1 1450.56   3
   5   2  -5 19620.2 717.047  16
  -5   2   4 23274.8 1639.78   2
   5   2  -4 26734.8 858.646  10
   5   2  -4 23918.6 766.134  16
  -5   2   3 43196.5 2260.48   2
  -5   2   2 85076.5 3238.91   2
  -5   2   1 74379.9 3085.90   2
  -5   2   0 1381.35 224.998   6
   5   2   0 1425.52 184.840   5
  -5   2   0 1055.52 400.194   2
  -5   2  -1 81806.6 1846.15  14
  -5   2  -1 83431.3 3521.30   2
  -5   2  -1 82417.8 1781.48   6
   5   2   1 81382.6 1407.92   5
   5   2   2 11086.0 551.361   7
  -5   2  -2 11767.6 1366.34   2
  -5   2  -2 10572.9 692.789   6
   5   2   2 12119.8 575.549   5
  -5   2  -3 4027.90 477.277  14
   5   2   3 4862.42 389.445   7
  -5   2  -3 4178.03 842.561   2
  -5   2  -3 5000.74 507.417   6
   5   2   3 4340.30 360.465   5
  -5   2  -4 4474.82 511.887  14
   5   2   4 4985.46 410.886   7
   5   2   4 4658.31 388.865   5
  -5   2  -4 4927.15 535.299   6
  -5   2  -4 3300.75 752.046   2
  -5   2  -5 1988.41 362.764  14
   5   2   5 2675.13 313.623   7
  -5   2  -5 2729.41 413.338   6
   5   2   5 2666.79 296.113   5
   5   2   6 23046.1 931.087   7
  -5   2  -6 24025.7 1233.54   6
  -5   2  -7 8918.13 746.561  14
   5   2   7 11291.6 636.092   7
  -5   2  -7 11061.8 815.876   6
  -5   2  -8 6066.51 566.499  14
  -5   2  -8 4891.55 493.080   6
  -5   2  -9 1571.57 243.905  14
   5   2   9 2069.06 226.101   7
   5   3 -12 953.082 169.768   4
   5   3 -11 1171.16 203.282   4
   5   3 -11 780.645 162.212  16
   5   3 -10 2604.32 316.740  16
   5   3  -9 9831.32 663.825  16
   5   3  -8 22443.4 989.976  10
   5   3  -8 27730.4 1095.02  16
   5   3  -7 13675.6 786.474  10
   5   3  -7 17674.5 855.784  16
   5   3  -6 16661.3 813.509  16
   5   3  -6 16576.3 853.429  10
   5   3  -5 49109.3 1334.33  16
   5   3  -5 48179.6 1399.34  10
   5   3  -4 2539.97 298.181  16
   5   3  -4 2596.12 323.805  10
  -5   3   4 2032.35 575.922   2
  -5   3   3 31367.7 2265.21   2
   5   3  -3 31544.4 1070.99  10
   5   3  -3 35987.3 979.226   5
  -5   3   2 35065.9 2474.25   2
   5   3  -2 32010.5 1045.88  10
  -5   3   1 1242.63 254.253  14
  -5   3   1 892.818 210.433   6
   5   3  -1 885.071 180.615  10
  -5   3   1 1057.00 440.481   2
   5   3  -1 755.600 144.730   5
  -5   3   0 38856.6 1429.66  14
  -5   3   0 37014.2 2644.89   2
  -5   3   0 36759.8 1326.45   6
   5   3   0 38188.2 1089.41   5
   5   3   0 34652.0 1073.93  10
  -5   3  -1 53072.4 1683.60  14
  -5   3  -1 53108.3 3248.35   2
  -5   3  -1 55665.9 1683.14   6
   5   3   1 52065.7 1288.93   5
  -5   3  -2 12877.7 870.765  14
  -5   3  -2 13096.0 1661.32   2
   5   3   2 11300.4 603.891   7
   5   3   2 12815.0 668.224   5
  -5   3  -2 14364.7 892.806   6
  -5   3  -3 30918.5 1400.53  14
  -5   3  -3 33607.0 1401.35   6
   5   3   3 30248.1 1038.71   5
  -5   3  -4 30071.7 1422.69  14
   5   3   4 34509.3 1124.53   7
  -5   3  -4 34132.5 1454.03   6
   5   3   4 30294.2 1074.82   5
   5   3   5 207.473 104.740   5
  -5   3  -5 267.990 143.813  14
   5   3   5 193.527 88.7288   7
  -5   3  -5 316.699 149.173   6
  -5   3  -6 8495.34 738.953  14
   5   3   6 9721.18 596.630   7
  -5   3  -6 9923.46 765.409   6
   5   3   6 9559.03 565.287   5
  -5   3  -7 2167.09 349.370  14
   5   3   7 2474.29 284.777   7
  -5   3  -7 1815.94 298.652   6
  -5   3  -8 3153.32 368.104  14
   5   3   8 3487.63 296.471   7
   5   4 -11 2508.48 280.144   4
   5   4 -10 2129.50 280.879   4
   5   4 -10 1215.73 188.425  16
   5   4  -9 9639.49 641.331  10
   5   4  -9 9164.97 612.397  16
   5   4  -8 2535.48 332.530  16
   5   4  -8 2283.33 347.424  10
   5   4  -7 28537.7 1246.67  10
   5   4  -7 24934.3 1083.32  16
   5   4  -6 101.399 82.4437  16
   5   4  -6 148.422 91.9194  10
   5   4  -5 42340.9 1518.67  10
   5   4  -5 45692.8 1466.39  16
   5   4  -4 2533.86 362.609  10
  -5   4   4 1893.95 630.984   2
   5   4  -4 2684.69 367.990  16
  -5   4   3 14622.9 1706.62   2
   5   4  -3 18987.1 976.484  10
  -5   4   2 77894.0 4056.47   2
   5   4  -2 88796.1 1797.77   5
   5   4  -1 2388.95 317.578  10
  -5   4   1 1921.98 650.399   2
   5   4  -1 1944.41 276.413   5
   5   4   0 17711.5 839.498  10
   5   4   0 18891.0 867.038   5
  -5   4   0 18946.8 1078.93  14
  -5   4  -1 4037.73 517.745  14
  -5   4  -1 3314.85 898.052   2
   5   4   1 3997.54 407.133   5
  -5   4  -2 28271.0 1378.83  14
   5   4   2 29176.6 1092.77   5
  -5   4  -3 9643.62 799.783  14
   5   4   3 9370.09 622.962   5
  -5   4  -4 8093.13 737.667  14
   5   4   4 7571.76 479.531   7
   5   4   4 8277.36 579.864   5
  -5   4  -5 9145.75 746.023  14
   5   4   5 10242.4 614.370   5
  -5   4  -6 1255.21 268.864  14
   5   4   6 797.990 143.524   7
   5   4   6 1305.42 198.474   5
   5   4   7 679.430 112.712   7
  -5   4  -7 919.066 195.060  14
   5   4   7 917.036 136.798   5
   5   5  -9 238.265 77.0658   4
   5   5  -8 7688.57 495.277   4
   5   5  -8 6505.60 464.096  16
   5   5  -7 3974.59 454.200  10
   5   5  -7 3105.13 349.397  16
   5   5  -6 4022.35 473.489  10
   5   5  -6 3503.81 400.710  16
   5   5  -5 2250.27 362.326  10
   5   5  -5 2363.26 332.763  16
   5   5  -4 36766.4 1348.75  16
   5   5  -4 36347.0 1403.19  10
   5   5  -3 24196.9 1128.49  10
   5   5  -3 27471.9 1162.40  16
   5   5  -2 5125.92 502.381  10
   5   5  -1 55637.5 1583.20  10
   5   5  -1 47914.2 1395.82   5
   5   5   0 4093.28 418.031   5
   5   5   1 2592.67 341.230   5
   5   5   2 6612.89 526.826   5
  -5   5  -3 7036.67 629.912  14
   5   5   3 7188.35 526.729   5
  -5   5  -4 3317.33 404.070  14
   5   5   4 3952.29 367.917   5
  -5   5  -5 1341.36 234.132  14
   5   5   5 1525.66 204.315   5
   5   6  -6 6904.34 500.453  10
   5   6  -6 4475.85 337.738  16
   5   6  -5 455.214 138.565  10
  -5   6   5 259.384 78.7606   9
   5   6  -5 356.341 115.964  16
   5   6  -4 7087.54 495.934  16
   5   6  -4 7758.49 553.841  10
   5   6  -3 681.218 164.829  10
   5   6  -3 540.049 141.460  16
   5   6  -2 305.688 105.082  16
  -5   6   1 5003.40 386.038  10
   5   6  -1 8565.40 555.456  16
  -5   6   0 1601.86 234.220  10
   5   6   0 1488.53 201.497   5
  -5   6  -1 3004.19 324.982  10
   5   6   1 2761.92 277.809   5
  -5   6  -2 9911.05 568.555  10
   5   6   2 10619.2 521.746   5
  -5   6  -3 3892.85 332.407  10
   5   6   3 4456.61 312.613   5
   6  -6  -6 744.195 137.347   8
   6  -6  -5 1963.11 243.129   8
   6  -6  -4 129.503 64.2283   8
   6  -6  -3 2971.62 308.315   8
   6  -6  -2 1055.06 181.546   8
   6  -6  -1 1010.30 167.146   8
   6  -6   0 687.042 133.714   8
   6  -5  -9 2399.94 274.302   8
   6  -5  -8 776.382 172.687   8
   6  -5  -7 881.327 207.906   8
   6  -5  -6 3495.64 404.353   8
   6  -5  -5 504.693 170.698   8
   6  -5  -4 10009.4 709.224   8
   6  -5  -3 5123.98 502.411   8
   6  -5  -2 2224.80 326.530   8
   6  -5  -1 5726.40 515.592   8
   6  -5   0 5460.08 482.030   8
   6  -5   1 5396.02 458.855   8
   6  -5   2 783.660 168.639   8
   6  -5   3 192.327 74.7679   8
   6  -5   4 3074.86 264.101   8
   6  -4 -11 332.178 123.450  14
   6  -4 -10 8995.46 677.717  14
   6  -4 -10 6013.68 478.716   8
   6  -4  -9 2600.73 279.030  11
   6  -4  -9 2253.18 320.735   8
   6  -4  -8 4871.66 501.708   8
   6  -4  -7 3135.24 362.015  12
   6  -4  -7 3422.17 429.983   8
   6  -4  -6 2415.87 327.634  12
   6  -4  -6 2721.65 381.975   8
   6  -4  -5 6417.34 534.858  12
   6  -4  -5 7430.83 630.209   8
   6  -4  -4 6397.37 573.921   8
   6  -4  -4 5351.33 479.531  12
   6  -4  -3 13615.4 809.359   8
   6  -4  -3 12509.2 722.314  12
  -6  -4   3 10977.5 1489.36   1
   6  -4  -2 3462.59 407.825   8
   6  -4  -2 4149.13 405.386  12
   6  -4  -1 5863.46 515.506   8
   6  -4  -1 5736.26 455.777  12
   6  -4   0 21473.8 988.140   8
   6  -4   1 867.668 190.131   8
   6  -4   6 776.289 135.736   8
   6  -3 -12 588.941 158.776  14
   6  -3 -11 3690.40 460.609  14
   6  -3 -11 3911.36 386.968  11
   6  -3 -10 553.265 168.163   8
   6  -3 -10 708.891 207.311  14
   6  -3 -10 777.866 175.999  11
   6  -3  -9 5688.39 531.687   8
   6  -3  -9 7415.53 568.985  11
   6  -3  -8 6248.36 506.039  12
   6  -3  -8 5564.98 473.274  11
   6  -3  -8 4740.71 497.424   8
   6  -3  -7 144.651 97.7542   8
   6  -3  -7 106.417 70.5488  12
   6  -3  -6 3053.37 358.186  12
   6  -3  -6 3363.40 400.693   8
   6  -3  -5 10628.2 647.602  12
   6  -3  -5 10266.5 681.708   8
   6  -3  -4 49374.4 1411.51   8
   6  -3  -4 45360.9 1298.52  12
  -6  -3   4 45341.8 2841.43   1
   6  -3  -3 14385.6 742.675   8
   6  -3  -3 13404.7 680.168  12
   6  -3  -2 5254.34 449.346   8
   6  -3  -2 4689.38 388.794  12
  -6  -3   2 4542.18 904.769   1
   6  -3  -1 9699.66 550.251  12
  -6  -3   1 9711.51 1353.87   1
   6  -3   0 4674.58 367.558  12
  -6  -3   0 5895.36 1055.22   1
  -6  -3  -1 5685.07 1048.28   1
  -6  -3  -2 1012.62 474.284   1
   6  -2 -13 1310.98 240.416  14
   6  -2 -12 2825.78 403.388  14
   6  -2 -12 2745.67 341.689  11
   6  -2 -11 36.7724 85.6521  14
   6  -2 -11 93.6378 62.3055  11
   6  -2 -10 5044.86 576.152  14
   6  -2 -10 3969.58 446.739  11
   6  -2  -9 1248.06 206.172  12
   6  -2  -9 1139.79 216.794  16
   6  -2  -8 5853.08 457.532  12
   6  -2  -8 6524.48 487.834  16
   6  -2  -7 12672.1 668.270  12
   6  -2  -7 15124.3 1785.78   3
   6  -2  -7 14115.2 669.166  16
   6  -2  -7 12634.4 706.128   8
   6  -2  -7 14113.9 658.346  15
   6  -2  -6 7297.45 483.422  12
   6  -2  -6 6215.59 415.059  16
   6  -2  -6 6646.08 430.494  15
   6  -2  -5 39945.3 1147.54   8
  -6  -2   5 46190.3 2542.64   1
   6  -2  -5 39954.8 1089.34  12
   6  -2  -5 41756.7 984.526  15
   6  -2  -5 45002.8 1023.94  16
   6  -2  -4 816.914 125.111  15
   6  -2  -4 632.811 142.922   8
  -6  -2   4 855.420 352.693   1
   6  -2  -3 9170.99 520.649   8
   6  -2  -3 9607.31 413.096  13
  -6  -2   3 10876.3 1269.63   1
   6  -2  -2 12942.6 467.876  13
  -6  -2   2 15898.4 1556.17   1
  -6  -2   1 4552.00 842.816   1
  -6  -2   0 5475.61 936.153   1
  -6  -2  -1 786.505 370.755   1
  -6  -2  -2 10732.0 1361.32   1
  -6  -2  -3 1580.11 523.770   1
   6  -1 -13 301.540 108.412  14
   6  -1 -12 1994.77 346.805  14
   6  -1 -12 2477.12 337.840  11
   6  -1 -11 4795.14 488.048  11
   6  -1 -11 4223.14 419.371  16
   6  -1 -10 307.728 128.648  14
   6  -1 -10 249.719 130.806  11
   6  -1 -10 357.501 140.712  16
   6  -1  -9 16587.7 969.897  14
   6  -1  -9 19936.0 892.292  16
   6  -1  -8 14830.1 837.166  14
   6  -1  -8 17110.9 1875.75   3
   6  -1  -8 17948.6 798.598  16
   6  -1  -8 19441.7 813.730  15
   6  -1  -7 5550.65 410.486  15
   6  -1  -7 5827.99 425.978  16
   6  -1  -7 3875.92 329.470  12
   6  -1  -7 5342.00 950.674   3
   6  -1  -6 11917.7 540.653  15
   6  -1  -6 16319.9 1536.78   3
   6  -1  -6 12495.2 570.695  16
  -6  -1   6 15514.2 1305.42   1
   6  -1  -5 3216.57 257.820  15
  -6  -1   5 4526.87 722.373   1
   6  -1  -5 3968.77 287.783  13
   6  -1  -5 3737.08 676.486   3
  -6  -1   4 28816.5 1848.30   1
   6  -1  -4 27853.8 723.981  13
  -6  -1   3 16182.8 1427.70   1
  -6  -1   2 3890.15 708.384   1
  -6  -1   1 13225.3 1352.14   1
  -6  -1   0 9542.91 1157.15   1
   6  -1   0 9186.54 422.841   5
  -6  -1  -1 30051.2 2087.60   1
   6  -1   1 30233.8 768.597   5
  -6  -1  -2 4399.38 811.794   1
   6  -1   2 3251.13 269.623   7
  -6  -1  -3 5417.47 917.348   1
   6  -1   3 8710.12 456.240   7
   6  -1   4 15319.7 624.135   7
   6  -1   5 6851.20 422.117   7
  -6  -1  -9 1470.42 230.238   6
   6   0 -13 1076.76 229.316  14
   6   0 -13 2005.42 253.298  16
   6   0 -12 1049.56 249.245  14
   6   0 -12 1381.17 240.402  11
   6   0 -12 1815.55 271.905  16
   6   0 -11 3235.69 437.727  14
   6   0 -11 4702.69 458.368  11
   6   0 -11 4102.40 432.181  16
   6   0 -10 13105.6 758.892  11
   6   0 -10 11986.5 744.258  16
   6   0  -9 10719.0 656.794  16
   6   0  -9 10680.0 621.445  15
   6   0  -8 13703.2 659.979  15
   6   0  -8 10691.4 1358.53   3
   6   0  -8 12151.9 630.909  16
   6   0  -7 17320.9 698.601  15
   6   0  -7 19707.0 721.351  16
   6   0  -7 15863.0 1498.54   3
   6   0  -6 122.276 60.2377  15
   6   0  -6 199.899 147.020   3
   6   0  -6 46.7226 37.1210  16
   6   0  -5 188.600 60.1788  15
   6   0  -5 252.038 74.2179  13
   6   0  -5 156.034 133.164   3
  -6   0   5 104.756 149.520   2
   6   0  -4 6958.37 664.898   3
  -6   0   3 92531.6 3341.49   1
  -6   0   2 17242.8 1462.06   1
  -6   0   1 40.2255 63.2139   1
   6   0   0 55960.6 1092.53   7
  -6   0   0 53432.5 2665.28   1
   6   0   1 1246.78 170.886   7
  -6   0  -1 1623.26 474.854   1
   6   0   1 1343.70 177.202   5
   6   0   2 49010.3 1113.17   7
   6   0   2 34327.8 911.617   5
   6   0   3 6946.29 444.972   7
   6   0   3 7058.25 414.841   5
   6   0   4 6171.18 438.112   7
   6   0   5 42.9310 44.0604   7
   6   0   6 3732.61 355.762   7
   6   0   7 5319.10 395.246   7
  -6   0  -7 6261.07 643.535   6
   6   0   8 210.411 66.8071   7
  -6   0  -8 372.353 160.910   6
  -6   0  -9 147.048 66.3079   6
   6   1 -13 556.994 130.372  16
   6   1 -12 2495.48 325.533  16
   6   1 -11 4354.57 451.579  16
   6   1 -10 297.335 103.635  11
   6   1 -10 423.792 147.817  16
   6   1  -9 20631.2 875.912  16
   6   1  -9 18015.7 791.834  15
   6   1  -8 14716.7 665.536  15
   6   1  -8 10288.9 1315.09   3
   6   1  -7 4022.35 339.855  15
   6   1  -7 5278.60 416.373  16
   6   1  -6 11489.3 528.781  15
   6   1  -6 10653.8 483.321  13
   6   1  -6 11027.6 544.154  16
   6   1  -5 4542.16 310.336  13
  -6   1   5 4005.68 621.207   2
   6   1  -5 3478.29 281.414  16
  -6   1   4 29819.9 1792.50   2
  -6   1   3 18317.8 1516.31   2
  -6   1   2 5093.64 848.921   2
  -6   1   1 16312.6 1584.07   2
   6   1  -1 17373.9 633.677   5
   6   1   0 11924.9 537.994   7
  -6   1   0 10988.7 1320.25   2
   6   1   0 10892.3 518.290   5
  -6   1  -1 27880.5 1076.20   6
   6   1   1 28424.6 861.474   5
   6   1   2 6055.86 424.682   7
  -6   1  -2 5048.29 497.594   6
  -6   1  -2 6027.54 1069.49   2
   6   1   2 5257.15 382.237   5
   6   1   3 10115.2 579.537   7
  -6   1  -3 9330.40 1377.30   2
  -6   1  -3 8964.08 706.225   6
   6   1   3 9647.02 529.020   5
   6   1   4 17899.6 799.497   7
  -6   1  -4 18178.1 1066.06   6
   6   1   4 16261.2 692.366   5
   6   1   5 7307.57 527.949   7
  -6   1  -5 7869.11 747.720   6
   6   1   6 10141.7 608.763   7
  -6   1  -6 10332.2 842.529   6
   6   1   7 3231.76 332.175   7
  -6   1  -7 3484.73 467.614   6
   6   1   8 8599.33 479.259   7
  -6   1  -8 8495.70 644.783   6
   6   1   9 1219.97 144.751   7
   6   2 -13 1505.65 188.197  16
   6   2 -12 2485.84 266.916   4
   6   2 -12 2201.64 281.579  16
   6   2 -11 129.458 84.7344  16
   6   2 -10 3806.15 401.219  16
   6   2  -9 1525.95 266.461  16
   6   2  -8 6534.02 1142.30   3
   6   2  -8 7849.40 566.959  16
   6   2  -7 10655.9 539.289  15
   6   2  -7 13079.8 691.721  10
   6   2  -6 4980.97 360.522  15
   6   2  -6 5879.59 461.747  10
  -6   2   5 47894.5 2503.46   2
   6   2  -5 48843.1 1202.56  16
   6   2  -4 826.429 168.159  10
   6   2  -4 987.131 158.438   5
  -6   2   4 541.129 269.422   2
   6   2  -4 782.253 144.768  16
  -6   2   3 12860.9 1336.10   2
  -6   2   3 13192.8 658.240   6
   6   2  -3 8876.85 470.597  16
   6   2  -3 10556.7 591.624  10
   6   2  -3 10552.3 521.013   5
  -6   2   2 14739.3 1466.08   2
  -6   2   2 12234.8 668.023   6
   6   2  -2 11157.3 497.483  16
   6   2  -2 14214.4 621.865   5
  -6   2   1 6004.77 485.914  14
   6   2  -1 4372.87 338.408   7
  -6   2   1 5315.76 918.995   2
  -6   2   1 4153.67 404.168   6
   6   2  -1 5277.10 386.184   5
  -6   2   0 5372.02 470.296  14
   6   2   0 4272.98 353.450   7
  -6   2   0 4329.68 861.479   2
  -6   2   0 4841.82 463.018   6
   6   2   0 4628.46 377.546   5
   6   2   1 665.612 147.339   7
  -6   2  -1 639.410 185.344  14
  -6   2  -1 928.955 227.088   6
   6   2   1 846.010 166.827   5
  -6   2  -1 568.469 317.881   2
  -6   2  -2 11849.2 768.094  14
  -6   2  -2 11623.7 1455.98   2
  -6   2  -2 12284.8 805.197   6
   6   2   2 13974.0 688.662   5
  -6   2  -3 3540.07 440.747  14
   6   2   3 4460.42 408.918   7
  -6   2  -3 4122.00 496.288   6
   6   2   3 3996.45 375.188   5
  -6   2  -4 16562.6 984.065  14
  -6   2  -4 19294.3 1114.79   6
   6   2   4 18042.9 799.895   5
  -6   2  -5 954.556 261.751  14
   6   2   5 956.079 213.752   7
  -6   2  -5 1043.35 277.220   6
   6   2   5 867.010 173.420   5
  -6   2  -6 5557.31 553.881  14
   6   2   6 6868.32 508.374   7
  -6   2  -6 6643.99 654.141   6
  -6   2  -7 2376.35 325.462  14
   6   2   7 3375.32 334.620   7
  -6   2  -7 3042.78 409.759   6
   6   2   8 6973.15 414.160   7
  -6   2  -8 4541.90 423.578   6
   6   3 -12 237.491 73.0372  16
   6   3 -11 2540.80 305.014   4
   6   3 -11 3545.01 357.065  16
   6   3 -10 748.357 171.146  16
   6   3  -9 8261.01 631.205  16
   6   3  -8 4890.09 477.673  10
   6   3  -8 6127.63 530.285  16
   6   3  -7 197.143 100.968  10
   6   3  -7 306.609 128.621  16
   6   3  -6 3388.30 379.104  16
   6   3  -6 3443.59 402.029  10
  -6   3   5 8463.71 1177.93   2
   6   3  -5 9912.81 667.519  10
   6   3  -5 9466.67 615.032  16
  -6   3   4 45681.0 2827.89   2
   6   3  -4 49949.1 1455.65  10
   6   3  -4 47086.3 1335.33  16
  -6   3   3 14133.4 1614.86   2
   6   3  -3 13415.5 744.996  10
   6   3  -3 11475.2 610.085   5
   6   3  -3 13763.4 688.310  16
  -6   3   2 4374.19 939.171   2
   6   3  -2 4426.51 431.523  10
   6   3  -2 4005.25 375.320   5
  -6   3   1 10071.4 1424.25   2
  -6   3   1 11458.4 765.116   6
   6   3  -1 13055.4 689.161   5
  -6   3   0 6711.15 626.350  14
   6   3   0 4495.60 366.304   7
  -6   3   0 5449.19 1059.36   2
   6   3   0 6634.82 511.973   5
  -6   3   0 6018.89 588.933   6
  -6   3  -1 7474.19 671.903  14
   6   3   1 5707.59 429.214   7
  -6   3  -1 7692.31 1284.85   2
  -6   3  -1 7150.22 653.601   6
   6   3   1 8369.69 569.497   5
   6   3   2 1069.37 199.991   7
  -6   3  -2 1414.84 290.414  14
  -6   3  -2 1435.94 301.736   6
  -6   3  -2 1403.08 505.997   2
   6   3   2 1202.87 223.724   5
   6   3   3 28028.8 1021.42   7
  -6   3  -3 27946.2 1335.92   6
   6   3   3 25264.2 1026.90   5
  -6   3  -4 9567.96 756.705  14
   6   3   4 11793.0 676.634   7
  -6   3  -4 11043.8 851.563   6
   6   3   4 10760.9 659.060   5
  -6   3  -5 2063.68 345.534  14
   6   3   5 2831.39 324.034   7
  -6   3  -5 2617.70 405.739   6
   6   3   5 3092.67 330.707   5
  -6   3  -6 3787.86 439.222  14
   6   3   6 4346.04 375.739   7
  -6   3  -6 4245.47 480.546   6
   6   3   6 3848.55 326.835   5
  -6   3  -7 1092.23 208.177  14
  -6   3  -7 1327.21 231.637   6
   6   3   8 1674.98 173.283   7
   6   4 -10 6115.36 467.388   4
   6   4 -10 7011.08 471.777  16
   6   4  -9 3228.77 378.214  16
   6   4  -8 5703.27 535.509  10
   6   4  -8 5007.95 477.688  16
   6   4  -7 3933.80 459.021  10
   6   4  -7 3486.96 411.335  16
   6   4  -6 2600.06 386.390  10
   6   4  -6 2470.64 345.896  16
   6   4  -5 7708.74 649.711  10
   6   4  -5 7686.89 615.965  16
   6   4  -4 5423.14 527.483  10
   6   4  -4 5783.75 525.048  16
  -6   4   3 13742.3 1721.73   2
   6   4  -3 13718.8 823.262  10
   6   4  -3 15495.0 758.113   5
   6   4  -3 14335.7 816.210  16
   6   4  -2 4056.46 445.463  10
   6   4  -2 4173.27 413.552   5
   6   4  -1 6814.38 544.703   5
   6   4   0 25383.8 1061.25   5
  -6   4  -1 1277.61 281.699  14
   6   4   1 1802.00 293.887   5
  -6   4  -2 1609.42 319.547  14
   6   4   2 1706.13 269.774   5
  -6   4  -3 1019.24 253.569  14
   6   4   3 1213.97 225.652   5
  -6   4  -4 1815.46 325.796  14
   6   4   4 1270.77 189.271   7
   6   4   4 1882.84 280.156   5
  -6   4  -5 4220.74 454.099  14
   6   4   5 4560.45 377.305   5
   6   4   6 642.501 110.463   7
  -6   4  -6 724.296 164.352  14
   6   4   6 625.152 119.433   5
   6   5  -9 2099.43 231.101  16
   6   5  -8 415.613 111.247   4
   6   5  -8 847.456 167.537  16
   6   5  -7 782.732 181.428  16
   6   5  -7 1067.73 231.459  10
   6   5  -6 3697.80 440.134  10
   6   5  -6 3536.50 396.952  16
   6   5  -5 507.511 162.058  10
   6   5  -5 365.794 126.498  16
   6   5  -4 9233.79 693.263  10
   6   5  -4 9101.08 671.622  16
   6   5  -3 5161.11 507.150  10
   6   5  -3 5352.12 505.963  16
   6   5  -2 2755.73 318.451   5
   6   5  -2 3011.19 361.834  16
   6   5  -1 5507.06 470.257   5
   6   5   0 6808.21 540.100   5
   6   5   1 8035.51 568.878   5
   6   5   2 1097.03 208.411   5
   6   5   3 303.543 109.111   5
   6   5   4 5134.19 373.332   5
   6   6  -6 497.582 109.102  16
   6   6  -5 3090.99 294.629  16
   6   6  -4 274.228 97.4910  16
   6   6  -3 3421.30 326.841  16
   6   6  -2 1072.37 183.800  16
  -6   6   1 967.473 156.210  10
   6   6  -1 1340.40 198.123  16
  -6   6   0 573.132 125.329  10
   6   6   0 890.643 141.831   5
   6   6   0 1023.98 163.451  16
  -6   6  -1 1900.73 224.115  10
   6   6   1 2360.57 222.719  16
   7  -6  -5 213.380 76.9263   8
   7  -6  -4 3334.66 293.040   8
   7  -6  -3 206.942 71.5239   8
   7  -6  -2 810.134 140.727   8
   7  -5  -9 59.5908 22.6175   8
   7  -5  -9 24.5860 30.6697  14
   7  -5  -8 3640.75 345.174   8
   7  -5  -7 1786.22 258.270   8
   7  -5  -6 69.0492 59.6527   8
   7  -5  -5 2779.08 361.290   8
   7  -5  -4 2192.37 320.597   8
   7  -5  -3 3629.71 409.497   8
   7  -5  -2 2739.17 345.967   8
   7  -5  -1 2237.77 307.666   8
   7  -5   0 4506.09 417.918   8
   7  -5   1 356.719 112.454   8
   7  -5   2 1850.43 236.936   8
   7  -5   3 242.002 75.8792   8
   7  -4 -11 1717.66 235.275  14
   7  -4 -10 359.010 108.460   8
   7  -4 -10 663.192 174.654  14
   7  -4  -9 5084.24 368.201  11
   7  -4  -9 5551.47 475.712   8
   7  -4  -8 2623.92 353.958   8
   7  -4  -7 6084.72 501.105  12
   7  -4  -7 5818.73 548.373   8
   7  -4  -6 7586.83 578.193  12
   7  -4  -6 8034.68 656.236   8
   7  -4  -5 4053.18 421.810  12
   7  -4  -5 4798.51 510.624   8
   7  -4  -4 2484.27 357.888   8
   7  -4  -4 1981.72 293.237  12
   7  -4  -3 600.336 180.078   8
   7  -4  -3 474.768 152.722  12
   7  -4  -2 15752.6 867.461   8
   7  -4  -2 14071.1 741.760  12
   7  -4  -1 5234.10 487.329   8
   7  -4  -1 4659.46 401.705  12
   7  -4   0 363.887 125.853   8
   7  -4   1 6186.32 530.779   8
   7  -4   2 983.042 205.073   8
   7  -4   3 63.9838 37.5313   8
   7  -4   4 654.201 152.396   8
   7  -4   5 113.980 60.3251   8
   7  -3 -12 1843.69 267.810  14
   7  -3 -11 1269.10 253.977  14
   7  -3 -11 1107.11 197.772  11
   7  -3 -10 3896.38 472.486  14
   7  -3 -10 3684.54 388.872  11
   7  -3  -9 1169.97 227.875   8
   7  -3  -9 1262.85 222.781  12
   7  -3  -9 1293.97 229.386  11
   7  -3  -8 6599.42 532.240  12
   7  -3  -8 5227.17 507.162   8
   7  -3  -7 7509.28 572.456  12
   7  -3  -7 6169.61 557.964   8
   7  -3  -6 7156.42 558.401  12
   7  -3  -6 5651.36 529.820   8
   7  -3  -5 14072.7 819.125   8
   7  -3  -5 12331.1 725.224  12
   7  -3  -4 1887.77 286.802   8
  -7  -3   4 1396.94 521.436   1
   7  -3  -4 1712.24 262.937  12
   7  -3  -3 24722.8 1013.70   8
   7  -3  -3 21531.8 897.863  12
   7  -3  -2 6783.98 537.635   8
   7  -3  -2 5502.41 445.338  12
   7  -3  -1 812.788 169.242  12
  -7  -3   1 591.468 384.134   1
  -7  -3   0 5640.55 1094.33   1
   7  -3   0 5353.36 408.145  12
   7  -2 -13 1451.79 223.407  14
   7  -2 -12 303.219 142.846  14
   7  -2 -12 422.044 117.461  11
   7  -2 -11 4393.81 504.200  14
   7  -2 -11 7714.39 591.385  11
   7  -2 -10 2034.15 343.667  14
   7  -2 -10 2947.27 370.693  11
   7  -2  -9 258.257 140.727  14
   7  -2  -9 312.924 114.478  12
   7  -2  -9 141.702 49.6205  16
   7  -2  -8 1206.89 215.942  12
   7  -2  -8 1014.57 456.678   3
   7  -2  -8 1093.69 196.902  16
   7  -2  -7 23198.3 856.155  16
   7  -2  -7 23772.5 874.840  15
   7  -2  -6 44837.8 1319.41   8
   7  -2  -6 46178.4 1127.27  16
   7  -2  -5 198.359 71.1625  15
  -7  -2   5 165.920 217.066   1
   7  -2  -5 226.223 96.6642   8
   7  -2  -5 226.941 75.7629  12
   7  -2  -4 10153.4 463.666  15
   7  -2  -4 12207.7 654.351   8
  -7  -2   4 13573.2 1556.03   1
   7  -2  -4 12480.4 539.315  13
   7  -2  -3 5984.78 457.932   8
  -7  -2   3 6307.34 1067.71   1
   7  -2  -3 5766.40 351.710  13
   7  -2  -2 2110.99 207.840  13
  -7  -2   2 3679.77 836.112   1
  -7  -2   1 9782.72 1353.21   1
   7  -2  -1 6160.74 354.668  13
  -7  -2   0 1252.07 479.787   1
  -7  -2  -1 5514.21 1019.12   1
  -7  -2  -2 829.723 375.005   1
   7  -1 -13 5334.18 432.357  11
   7  -1 -12 6827.55 548.931  11
   7  -1 -12 6166.96 477.740  16
   7  -1 -11 739.689 200.088  14
   7  -1 -11 926.162 218.391  11
   7  -1 -11 873.457 194.711  16
   7  -1 -10 5254.30 544.198  14
   7  -1 -10 4744.25 451.611  16
   7  -1  -9 2800.16 339.493  16
   7  -1  -9 3322.97 362.536  15
   7  -1  -8 12432.2 677.244  16
   7  -1  -8 13765.1 729.665  15
   7  -1  -7 13856.1 653.911  15
   7  -1  -7 14002.5 672.161  16
   7  -1  -6 4023.63 338.670  15
   7  -1  -6 2728.73 570.943   3
   7  -1  -6 4299.23 339.676  16
  -7  -1   6 4025.77 731.965   1
  -7  -1   5 30042.8 2087.07   1
   7  -1  -5 30275.3 852.340  15
   7  -1  -5 31271.3 894.850  13
   7  -1  -5 32115.8 848.968  16
   7  -1  -4 356.516 85.4346  15
   7  -1  -4 245.126 80.2880  13
  -7  -1   4 484.370 278.186   1
  -7  -1   3 3293.24 705.044   1
   7  -1  -3 2469.15 237.759  13
  -7  -1   2 2974.24 665.642   1
   7  -1  -2 2254.36 227.095  13
  -7  -1   1 9089.83 1230.47   1
  -7  -1   0 27381.6 2134.31   1
  -7  -1  -1 1253.46 471.853   1
  -7  -1  -2 1051.77 459.914   1
   7  -1   3 1484.91 204.443   7
   7  -1   4 6781.93 436.397   7
  -7  -1  -8 1010.19 202.185   6
   7   0 -13 278.465 93.5899  16
   7   0 -12 3718.22 386.845  16
   7   0 -12 3918.37 400.276  11
   7   0 -11 8249.13 617.541  11
   7   0 -11 7299.45 583.412  16
   7   0 -10 2881.12 364.153  16
   7   0  -9 18361.3 870.256  16
   7   0  -9 20964.7 934.020  15
   7   0  -8 7694.23 519.905  15
   7   0  -8 6879.49 491.013  16
   7   0  -7 10005.4 1141.53   3
   7   0  -7 11067.0 559.394  16
   7   0  -6 11266.4 544.040  15
   7   0  -6 10703.5 536.163  13
   7   0  -6 9554.64 486.993  16
   7   0  -5 1466.12 194.492  15
   7   0  -5 1428.61 177.097  16
   7   0  -5 1653.93 205.444  13
   7   0  -4 219.402 71.7194  13
   7   0  -4 107.121 49.5340   5
   7   0  -3 184.082 73.8116  13
   7   0  -3 20.3866 14.7756   5
   7   0  -2 7249.20 423.946   5
  -7   0   2 8661.21 1159.36   1
   7   0  -1 20684.9 726.351   5
  -7   0   1 25090.0 2008.90   1
   7   0   0 17718.1 704.388   7
   7   0   0 16811.5 669.413   5
   7   0   1 64080.7 1377.56   7
   7   0   1 63745.6 1328.62   5
   7   0   2 5269.22 405.677   7
   7   0   2 4851.28 367.861   5
   7   0   3 1894.46 248.201   7
   7   0   4 221.564 94.8027   7
   7   0   5 849.738 166.697   7
   7   0   6 2040.22 249.158   7
  -7   0  -6 2567.39 429.804   6
   7   0   7 47.8169 33.8223   7
  -7   0  -7 110.790 108.781   6
  -7   0  -8 433.999 132.211   6
   7   1 -13 4344.86 368.050  16
   7   1 -12 5996.53 504.404  16
   7   1 -11 957.391 212.524  16
   7   1 -10 6129.13 522.830  16
   7   1 -10 4864.57 424.974  15
   7   1  -9 2974.03 350.344  16
   7   1  -9 2636.31 319.420  15
   7   1  -8 14061.1 697.425  15
   7   1  -8 12411.8 693.962  16
   7   1  -7 14642.3 678.148  15
   7   1  -7 13865.0 692.540  16
   7   1  -6 4383.36 358.419  15
   7   1  -6 3214.17 298.995  13
   7   1  -6 4091.58 345.564  16
   7   1  -5 23832.3 778.518  13
  -7   1   5 28672.9 1847.57   2
   7   1  -5 23295.1 760.121   5
   7   1  -5 27195.6 826.141  16
   7   1  -4 317.941 92.4209  13
  -7   1   4 473.695 258.732   2
   7   1  -4 319.979 87.0575   5
   7   1  -4 357.996 88.5988  16
  -7   1   3 3126.66 707.944   2
   7   1  -3 2684.37 271.845   5
  -7   1   2 3184.78 754.320   2
   7   1  -2 2590.00 271.231   5
  -7   1   1 7752.09 547.904   6
   7   1  -1 9589.90 529.724   5
   7   1   0 36828.0 1069.44   7
  -7   1   0 31592.2 1191.50   6
  -7   1   0 33054.2 2567.23   2
   7   1   0 32684.9 1016.62   5
   7   1   1 2078.00 265.900   7
  -7   1  -1 1663.24 301.928   6
   7   1   1 1681.38 232.000   5
  -7   1  -1 1994.02 659.495   2
   7   1   2 2437.02 293.124   7
  -7   1  -2 2209.82 362.382   6
   7   1   2 2214.51 269.807   5
  -7   1  -2 1737.27 616.433   2
   7   1   3 1791.03 258.216   7
  -7   1  -3 1906.41 346.896   6
   7   1   3 1792.77 245.348   5
   7   1   4 7378.08 526.267   7
  -7   1  -4 8120.97 751.758   6
   7   1   4 7639.15 492.676   5
   7   1   5 4302.30 397.954   7
  -7   1  -5 5372.12 617.656   6
   7   1   6 889.836 171.206   7
  -7   1  -6 1116.97 269.108   6
   7   1   7 1224.29 184.274   7
  -7   1  -7 1656.10 308.762   6
   7   1   8 800.571 120.475   7
  -7   1  -8 777.665 165.179   6
   7   2 -13 1347.39 185.443  16
   7   2 -12 459.001 129.634  16
   7   2 -11 6991.57 560.137  16
   7   2 -10 2475.77 327.635  16
   7   2  -9 188.972 108.627  16
   7   2  -8 1136.54 188.409  15
   7   2  -8 1398.23 246.795  16
   7   2  -7 20125.9 791.303  15
   7   2  -7 26356.7 1020.77  16
   7   2  -6 52699.3 1365.15  16
   7   2  -5 312.228 98.4793  13
  -7   2   5 283.713 179.266   2
   7   2  -5 271.697 87.3617   5
   7   2  -5 219.627 97.8781  16
  -7   2   4 13049.5 1427.96   2
   7   2  -4 10149.1 510.837  13
   7   2  -4 13471.7 630.678  16
   7   2  -4 12228.4 619.032   5
  -7   2   3 5935.95 991.893   2
  -7   2   3 5074.16 445.389   6
   7   2  -3 6626.04 459.779   5
   7   2  -3 6469.83 413.999  16
  -7   2   2 2826.60 698.930   2
  -7   2   2 3941.61 412.566   6
   7   2  -2 4253.73 378.850   5
   7   2  -2 2290.15 237.735  16
  -7   2   1 12729.7 772.618   6
   7   2  -1 13145.5 677.305   5
   7   2   0 861.916 176.068   7
  -7   2   0 915.789 216.071   6
   7   2   0 1062.84 195.102   5
  -7   2   0 979.932 453.820   2
   7   2   1 7232.48 513.179   7
  -7   2  -1 5594.33 1046.50   2
  -7   2  -1 6096.05 581.040   6
   7   2   1 6353.27 495.741   5
   7   2   2 1452.48 230.829   7
  -7   2  -2 1109.80 264.108   6
   7   2   2 1274.50 220.377   5
  -7   2  -2 1282.91 522.578   2
   7   2   3 5512.28 468.171   7
  -7   2  -3 5363.65 596.313   6
   7   2   3 4843.02 428.547   5
   7   2   4 50.7494 40.3097   7
  -7   2  -4 39.9372 69.2094   6
   7   2   4 59.4009 54.9955   5
   7   2   5 4313.21 399.801   7
  -7   2  -5 4748.50 549.515   6
   7   2   5 4121.67 350.918   5
   7   2   6 5899.69 437.894   7
  -7   2  -6 6193.16 588.195   6
   7   2   7 1617.51 202.682   7
  -7   2  -7 1723.37 272.600   6
   7   3 -12 2161.26 249.338  16
   7   3 -11 1150.16 204.935  16
   7   3 -10 3866.53 403.629  16
   7   3  -9 1296.79 255.823  16
   7   3  -8 6470.74 553.406  16
   7   3  -7 6818.91 572.829  16
   7   3  -6 7028.55 566.486  16
  -7   3   5 12696.3 1510.14   2
   7   3  -5 13136.5 734.605  16
   7   3  -4 1432.35 222.856   5
   7   3  -4 1827.64 268.221  16
   7   3  -3 19823.2 866.351   5
   7   3  -3 21094.3 885.101  16
  -7   3   2 4969.55 1020.45   2
   7   3  -2 6035.77 447.530  16
  -7   3   1 783.438 219.038   6
  -7   3   1 643.712 404.816   2
   7   3  -1 1046.79 209.589   5
  -7   3   0 6587.38 616.132  14
  -7   3   0 5209.60 1082.53   2
  -7   3   0 6359.76 622.505   6
   7   3   0 7355.51 559.658   5
  -7   3  -1 834.562 209.910  14
   7   3   1 654.385 150.315   7
  -7   3  -1 739.953 219.045   6
   7   3   1 719.024 185.725   5
  -7   3  -2 4983.25 528.322  14
   7   3   2 4353.02 402.197   7
  -7   3  -2 5199.54 584.414   6
   7   3   2 5335.11 477.419   5
  -7   3  -3 1946.96 322.830  14
   7   3   3 2126.47 282.668   7
  -7   3  -3 2071.28 377.236   6
   7   3   3 2318.20 307.376   5
  -7   3  -4 1108.46 272.061  14
   7   3   4 1030.62 187.317   7
  -7   3  -4 862.365 236.202   6
   7   3   4 1078.76 196.288   5
  -7   3  -5 395.100 136.062  14
   7   3   5 571.994 136.618   7
  -7   3  -5 505.938 172.346   6
   7   3   5 501.054 119.771   5
   7   3   6 119.890 57.3468   7
  -7   3  -6-14.6774 57.2476   6
   7   3   7 1933.18 183.998   7
   7   4 -11 2126.67 228.981  16
   7   4 -10 468.014 117.935  16
   7   4  -9 5827.50 499.161  16
   7   4  -8 2630.72 351.300  16
   7   4  -7 6937.44 573.699  16
   7   4  -6 9041.69 708.070  10
   7   4  -6 8493.75 645.269  16
   7   4  -5 4928.82 528.074  10
   7   4  -5 4393.59 456.189  16
   7   4  -4 2507.82 340.005  16
   7   4  -3 663.360 186.271  16
   7   4  -3 550.187 153.813   5
   7   4  -2 13876.4 777.996   5
   7   4  -2 14736.1 781.774  16
   7   4  -1 6301.26 531.732   5
   7   4  -1 5043.74 447.860  16
   7   4   0 557.790 167.927   5
   7   4   1 7549.84 584.288   5
   7   4   2 2262.85 298.874   5
  -7   4  -3-24.3709 92.0405  14
   7   4   3 195.355 82.8453   5
  -7   4  -4 494.725 147.838  14
   7   4   4 531.962 128.196   5
   7   4   5 168.331 57.5288   5
   7   5  -9 95.5546 52.6905  16
   7   5  -8 4544.40 386.879  16
   7   5  -7 1928.77 269.607  16
   7   5  -6 71.7521 65.1701  16
   7   5  -5 2675.79 337.844  16
   7   5  -4 1779.38 277.806  16
   7   5  -3 3433.20 378.171  16
   7   5  -2 1764.93 246.889   5
   7   5  -2 2540.92 316.516  16
   7   5  -1 2705.31 310.919   5
   7   5  -1 2649.78 304.773  16
   7   5   0 5608.97 453.220   5
   7   5   0 5093.93 395.094  16
   7   5   1 455.221 109.953  16
   7   5   1 433.381 126.283   5
   7   5   2 2462.73 276.173   5
   7   5   3 384.157 101.774   5
   7   6  -5 319.239 80.4763  16
   7   6  -4 3721.94 302.233  16
   7   6  -3 214.611 69.9299  16
   7   6  -2 928.434 141.820  16
   8  -5  -8 151.741 55.8317   8
   8  -5  -7 884.121 164.373   8
   8  -5  -6 1498.41 231.318   8
   8  -5  -5-27.7194 54.7953   8
   8  -5  -4 3441.21 368.915   8
   8  -5  -3 2023.03 283.822   8
   8  -5  -2 1356.57 225.150   8
   8  -5  -1 1376.69 220.366   8
   8  -5   0 113.649 61.8146   8
   8  -5   1 672.812 137.741   8
   8  -4 -10 5064.98 416.951  14
   8  -4  -9 196.218 78.6621   8
   8  -4  -8 4239.43 376.907  12
   8  -4  -8 4132.48 403.398   8
   8  -4  -7 2805.42 329.311  12
   8  -4  -7 3056.27 375.328   8
   8  -4  -6 1766.48 268.121  12
   8  -4  -6 1616.55 278.983   8
   8  -4  -5 6866.41 531.984  12
   8  -4  -5 7369.06 613.057   8
   8  -4  -4 1145.94 241.853   8
   8  -4  -4 1325.60 237.149  12
   8  -4  -3 4075.33 440.884   8
   8  -4  -3 3499.82 372.064  12
   8  -4  -2 957.200 218.528   8
   8  -4  -2 868.134 178.142  12
   8  -4  -1 1582.59 263.307   8
   8  -4   0 6640.17 527.867   8
   8  -4   1 873.690 208.576   8
   8  -4   2 2216.09 286.142   8
   8  -4   3 801.525 162.479   8
   8  -4   4 67.9039 32.9983   8
   8  -3 -11 3400.95 363.176  14
   8  -3 -11 6116.31 435.228  11
   8  -3 -10 931.709 210.320  14
   8  -3 -10 1631.76 241.493  11
   8  -3  -9 10386.8 617.933  12
   8  -3  -9 10388.0 620.107  11
   8  -3  -8 5271.14 475.997  12
   8  -3  -8 5409.40 486.109   8
   8  -3  -7 121.730 77.5792   8
   8  -3  -7 261.131 111.720  12
   8  -3  -6 8233.29 613.624  12
   8  -3  -6 6620.21 568.221   8
   8  -3  -5 14991.3 843.953   8
   8  -3  -5 14749.5 810.328  12
   8  -3  -4 19248.8 933.054   8
   8  -3  -4 16774.1 835.900  12
   8  -3  -3 4568.16 454.115   8
   8  -3  -3 4249.12 412.225  12
   8  -3  -2 2109.78 311.861   8
   8  -3  -2 1907.40 270.444  12
   8  -3  -1 2935.67 323.873  12
   8  -2 -12 12608.2 672.511  11
   8  -2 -11 9759.79 648.778  11
   8  -2 -10 6783.35 583.889  14
   8  -2 -10 8743.94 630.532  11
   8  -2  -9 1489.48 241.078  12
   8  -2  -8 4870.64 455.581  12
   8  -2  -8 3561.33 342.473  16
   8  -2  -7 3197.36 305.853  16
   8  -2  -7 3680.26 356.052  15
   8  -2  -6 8606.19 589.960  12
   8  -2  -6 7182.31 477.067  15
   8  -2  -5 17898.9 687.111  15
   8  -2  -5 16713.6 810.436   8
  -8  -2   5 12360.8 1531.44   1
   8  -2  -5 22308.8 942.521  12
   8  -2  -4 645.092 126.634  15
   8  -2  -4 550.571 141.807   8
   8  -2  -4 499.806 114.348  13
  -8  -2   4 760.992 416.544   1
   8  -2  -3 15811.0 776.026   8
  -8  -2   3 14810.4 1734.30   1
   8  -2  -3 13644.7 587.400  13
  -8  -2   2 19004.1 1982.84   1
   8  -2  -2 21230.2 715.464  13
  -8  -2   1-578.331 343.806   1
   8  -2  -1 150.401 57.6393  13
   8  -2   0 865.433 140.236  13
  -8  -2   0 175.927 91.1127   1
   8  -1 -13 2738.58 294.747  11
   8  -1 -12 79.6082 70.5500  11
   8  -1 -12 47.6769 52.9919  16
   8  -1 -11 2386.36 339.772  11
   8  -1 -11 1803.46 261.235  16
   8  -1 -10 1983.00 289.920  16
   8  -1  -9 35553.0 1183.10  16
   8  -1  -9 37404.5 1249.16  15
   8  -1  -8 25768.0 966.134  16
   8  -1  -8 27806.0 1049.56  15
   8  -1  -7 17357.4 768.204  15
   8  -1  -7 17018.2 740.003  16
   8  -1  -6 11989.1 608.324  15
   8  -1  -6 11987.8 571.102  16
   8  -1  -5 6983.30 439.157  15
   8  -1  -5 7483.93 475.048  13
  -8  -1   5 7245.07 1134.97   1
   8  -1  -4 5602.70 372.749  15
   8  -1  -4 5952.25 409.139  13
  -8  -1   4 6453.01 1089.65   1
   8  -1  -3 875.328 156.808  13
  -8  -1   3 621.370 325.217   1
  -8  -1   2 10065.2 1398.68   1
   8  -1  -2 10029.9 521.975  13
  -8  -1   1 12897.3 1591.04   1
  -8  -1   0 3408.80 825.812   1
  -8  -1  -1 3697.95 876.034   1
  -8  -1  -6 937.244 228.304   6
  -8  -1  -7 515.034 133.582   6
   8   0 -13 2717.98 277.861  11
   8   0 -13 3452.62 319.684  16
   8   0 -12 7368.40 537.164  11
   8   0 -12 6258.32 494.913  16
   8   0 -11 14278.8 800.707  11
   8   0 -11 12017.7 722.079  16
   8   0 -10 21126.2 972.033  16
   8   0 -10 23360.6 988.736  15
   8   0  -9 9919.28 641.477  16
   8   0  -9 12084.0 721.002  15
   8   0  -8 13534.1 721.301  15
   8   0  -8 11111.6 636.742  16
   8   0  -7 863.042 175.154  15
   8   0  -7 712.606 145.817  16
   8   0  -6 1294.58 200.755  15
   8   0  -6 1717.64 240.220  13
   8   0  -6 1295.98 178.445  16
   8   0  -5 489.229 122.618  15
   8   0  -5 669.049 146.206  13
  -8   0   5 702.435 297.835   2
   8   0  -4 6773.65 451.355  13
  -8   0   4 6649.79 1074.87   2
   8   0  -3 17029.7 711.081  13
   8   0  -3 16291.6 695.939   5
   8   0  -2 8357.48 505.613   5
   8   0  -1 3286.55 316.346   5
  -8   0   0 15612.5 872.128   6
   8   0   0 14895.2 683.474   5
   8   0   1 6347.16 446.939   5
   8   0   2 22655.6 905.123   7
   8   0   2 20636.3 789.828   5
   8   0   3 6797.73 495.061   7
  -8   0  -3 6913.02 675.228   6
   8   0   4 1565.26 229.428   7
  -8   0  -4 1831.38 350.465   6
   8   0   5 110.047 55.2904   7
  -8   0  -5-4.17498 67.1971   6
  -8   0  -6 102.028 78.5582   6
  -8   0  -7 73.5604 32.6004   6
   8   1 -13 2220.76 257.980  16
   8   1 -12 116.763 46.9831  16
   8   1 -11 1673.50 270.122  16
   8   1 -10 2065.65 305.927  16
   8   1 -10 2072.76 286.459  15
   8   1  -9 43014.8 1297.83  15
   8   1  -9 34937.4 1178.23  16
   8   1  -8 30660.8 1079.78  15
   8   1  -8 25682.8 995.254  16
   8   1  -7 19703.3 826.483  15
   8   1  -7 18010.5 815.205  16
   8   1  -6 12724.3 658.878  15
   8   1  -6 11181.7 599.233  16
   8   1  -5 6367.23 447.390  13
  -8   1   5 7280.64 1026.03   2
   8   1  -5 6714.33 451.911   5
   8   1  -5 7606.37 454.384  16
   8   1  -4 6422.27 450.308  13
  -8   1   4 5456.71 949.126   2
   8   1  -4 6346.24 444.067   5
   8   1  -4 4924.22 338.328  16
   8   1  -3 598.458 146.186  13
  -8   1   3 271.189 171.988   2
   8   1  -3 793.792 162.198   5
  -8   1   2 10874.8 1478.38   2
   8   1  -2 12611.5 663.263   5
  -8   1   1 15394.2 832.880   6
  -8   1   1 15082.7 1811.17   2
   8   1  -1 15787.7 760.466   5
  -8   1   0 4503.68 489.129   6
   8   1   0 4663.61 417.960   5
  -8   1   0 3169.55 850.770   2
   8   1   1 7627.75 541.557   7
  -8   1  -1 6304.06 601.215   6
   8   1   1 6949.06 520.378   5
   8   1   2 1530.94 246.159   7
  -8   1  -2 1206.70 284.047   6
   8   1   2 1302.42 218.942   5
   8   1   3 7477.54 538.944   7
  -8   1  -3 7599.22 722.377   6
   8   1   3 6685.76 474.123   5
   8   1   4 6463.53 489.040   7
  -8   1  -4 6879.08 676.573   6
   8   1   5 1406.81 211.581   7
  -8   1  -5 1652.43 312.590   6
   8   1   6 862.551 151.182   7
  -8   1  -6 864.436 207.144   6
  -8   1  -7 220.609 88.9214   6
   8   2 -13 3396.77 291.489  16
   8   2 -12 12263.3 675.833  16
   8   2 -11 9121.00 631.622  16
   8   2 -10 6892.32 538.771  16
   8   2  -9 2075.12 263.335  15
   8   2  -9 2475.22 336.694  16
   8   2  -8 4094.76 385.882  15
   8   2  -8 4628.77 461.958  16
   8   2  -7 3477.74 349.441  15
   8   2  -7 4385.34 421.807  16
   8   2  -6 8290.80 487.421  13
   8   2  -6 8110.23 543.545  16
  -8   2   5 13303.8 1490.26   2
   8   2  -5 14125.7 648.664  13
   8   2  -5 15522.7 709.767   5
   8   2  -4 353.603 106.716  13
  -8   2   4 681.062 369.492   2
   8   2  -4 786.615 160.636  16
   8   2  -4 673.916 157.058   5
  -8   2   3 16152.8 1732.26   2
   8   2  -3 14834.4 700.755  13
  -8   2   3 16732.5 844.675   6
   8   2  -3 15334.7 648.659  16
  -8   2   2 29015.4 1189.61   6
   8   2  -2 32991.1 1136.50   5
  -8   2   1 286.052 135.186   6
  -8   2   1 199.811 85.7177   2
  -8   2   0 1134.12 260.587   6
   8   2   0 934.538 198.162   5
  -8   2   0 462.274 236.691   2
   8   2   1 234.886 102.288   7
  -8   2  -1 190.074 111.327   6
   8   2   1 216.820 89.3834   5
   8   2   2 5132.34 456.026   7
  -8   2  -2 4205.10 514.420   6
   8   2   2 4522.30 425.135   5
   8   2   3 1466.54 239.398   7
  -8   2  -3 1376.38 307.264   6
   8   2   3 1388.60 228.824   5
   8   2   4 4311.59 393.282   7
  -8   2  -4 3884.98 496.184   6
   8   2   4 3813.87 348.709   5
   8   2   5 1691.48 228.666   7
  -8   2  -5 1499.84 287.365   6
   8   2   6 628.469 120.503   7
  -8   2  -6 744.795 178.527   6
   8   3 -12 452.239 105.111  16
   8   3 -11 6019.78 462.198  16
   8   3 -10 1546.18 248.690  16
   8   3  -9 11609.4 741.150  16
   8   3  -8 5943.02 531.277  16
   8   3  -7 331.970 110.632  16
   8   3  -6 6945.07 483.827  15
   8   3  -6 6809.32 550.810  16
   8   3  -5 14781.1 791.369  16
   8   3  -4 15742.9 794.200   5
   8   3  -4 16895.0 809.523  16
   8   3  -3 5735.62 491.224   5
   8   3  -3 4354.64 390.128  16
   8   3  -2 2140.98 310.385   5
   8   3  -2 1645.26 232.328  16
  -8   3   1 3004.07 423.172   6
   8   3  -1 3120.93 388.162   5
  -8   3   0 631.343 206.616   6
   8   3   0 743.539 185.341   5
  -8   3  -1 4835.87 555.949   6
   8   3   1 5058.86 472.477   5
  -8   3  -2 423.161 175.983   6
   8   3   2 326.104 114.682   5
   8   3   3 2556.33 294.038   7
  -8   3  -3 2665.76 397.351   6
   8   3   3 2551.82 306.558   5
   8   3   4 2178.39 254.986   7
  -8   3  -4 2464.45 359.660   6
   8   3   4 2201.74 253.538   5
  -8   3  -5 134.714 80.9711   6
   8   3   5 99.8064 40.1971   5
   8   4 -10 8838.81 505.028  16
   8   4  -9 417.850 143.962  16
   8   4  -8 4119.01 418.543  16
   8   4  -7 3146.15 372.764  16
   8   4  -6 1759.27 276.976  16
   8   4  -5 7309.12 569.598  16
   8   4  -4 1155.59 220.521  16
   8   4  -3 3503.68 374.500   5
   8   4  -3 4252.77 406.648  16
   8   4  -2 1026.33 204.034   5
   8   4  -2 1128.39 197.965  16
   8   4  -1 1706.30 270.854   5
   8   4  -1 1329.87 205.808  16
   8   4   0 8603.96 601.837   5
   8   4   1 1003.42 202.295   5
   8   4   2 2736.56 313.768   5
   8   4   3 1011.01 170.693   5
   8   4   4 88.8052 31.6501   5
   8   5  -8 65.7212 42.8826  16
   8   5  -7 875.157 164.086  16
   8   5  -6 1405.62 209.863  16
   8   5  -5-52.7907 81.6916  16
   8   5  -4 3482.91 347.384  16
   8   5  -3 1691.73 231.326  16
   8   5  -2 870.459 160.886   5
   8   5  -2 1073.06 175.678  16
   8   5  -1 1288.66 197.745   5
   8   5  -1 1148.06 166.692  16
   8   5   0 147.341 64.2080   5
   8   5   1 1045.37 167.191   5
   8   5   2-2.70973 21.2159   5
   9  -5  -6 106.679 54.4184   8
   9  -5  -5 1306.99 194.083   8
   9  -5  -4 68.7714 38.8937   8
   9  -5  -3 2278.76 266.017   8
   9  -5  -2 220.729 82.9449   8
   9  -5  -1 114.091 60.3992   8
   9  -4  -8 3062.59 303.509  12
   9  -4  -8 2164.11 258.350   8
   9  -4  -7 4007.51 368.430  12
   9  -4  -7 2714.22 318.693   8
   9  -4  -6 3598.05 363.775  12
   9  -4  -6 3334.40 371.019   8
   9  -4  -5 2183.96 285.509  12
   9  -4  -5 2599.71 337.696   8
   9  -4  -4 1047.84 220.104   8
   9  -4  -4 932.475 185.589  12
   9  -4  -3 83.4570 28.5936   8
   9  -4  -3 74.1793 35.9123  12
   9  -4  -2 408.490 127.764   8
   9  -4  -2 447.619 113.775  12
   9  -4  -1 2027.17 282.053   8
   9  -4   0 341.619 113.948   8
   9  -4   1 4119.45 361.117   8
   9  -4   2 370.054 101.789   8
   9  -3 -11 872.770 148.034  11
   9  -3 -10 3380.89 323.262  11
   9  -3  -9 891.484 182.452  12
   9  -3  -9 611.702 139.021  11
   9  -3  -8 2446.19 319.833  12
   9  -3  -7 885.183 194.234   8
   9  -3  -7 1019.81 208.110  12
   9  -3  -6 4453.33 444.103  12
   9  -3  -6 3707.37 410.375   8
   9  -3  -5 15143.6 833.678   8
   9  -3  -5 18845.0 902.593  12
   9  -3  -4 4601.42 455.914   8
   9  -3  -4 4394.13 427.120  12
   9  -3  -3 12848.5 756.677   8
   9  -3  -3 11721.3 681.535  12
   9  -3  -2 469.008 147.018   8
   9  -3  -2 439.397 134.761  12
   9  -3  -1 4359.57 440.378   8
   9  -3  -1 3547.89 344.044  12
   9  -2 -12 3408.52 323.223  11
   9  -2 -11 23298.8 935.600  11
   9  -2 -10 1791.24 239.451  12
   9  -2  -9 13898.5 734.418  12
   9  -2  -8 2235.22 308.082  12
   9  -2  -8 1888.91 259.591  15
   9  -2  -7 13905.4 767.037  12
   9  -2  -7 11307.3 623.588  15
   9  -2  -6 3915.20 410.742  12
   9  -2  -6 2947.66 311.172  15
   9  -2  -5 1784.90 218.261  15
   9  -2  -5 2585.92 328.171  12
   9  -2  -4 16319.5 794.216   8
   9  -2  -4 16506.0 695.769  13
   9  -2  -3 1971.97 281.907   8
   9  -2  -3 2038.10 238.084  13
   9  -2  -2 1643.27 210.317  13
   9  -2  -1 4247.34 325.850  13
  -9  -2  -5 1067.64 198.970   6
   9  -1 -13 8807.10 488.813  11
   9  -1 -12 8263.96 547.333  11
   9  -1 -11 6155.68 522.975  11
   9  -1 -11 4754.38 399.572  16
   9  -1 -10 4739.42 415.837  16
   9  -1  -9 5228.78 435.495  12
   9  -1  -9 4594.69 405.957  16
   9  -1  -9 5373.52 472.176  15
   9  -1  -8 14.3850 53.7633  15
   9  -1  -8 52.9847 85.3349  12
   9  -1  -8 83.1515 57.1285  16
   9  -1  -7 37824.7 1171.14  15
   9  -1  -7 36131.3 1034.90  16
   9  -1  -6 8138.88 523.666  15
   9  -1  -5 21165.3 803.802  15
   9  -1  -5 21760.5 858.869  13
   9  -1  -4 2942.78 281.523  15
   9  -1  -4 3065.34 320.576  13
  -9  -1   4 3079.63 842.390   1
   9  -1  -3 35562.9 960.212  15
   9  -1  -3 38524.7 1104.92  13
   9  -1  -2 5001.16 398.477  13
  -9  -1   2 4325.36 982.660   1
   9  -1  -1 26982.1 918.401  13
  -9  -1   1 22459.4 2228.07   1
   9  -1   0 14409.8 669.826  13
  -9  -1  -4 1893.76 327.327   6
  -9  -1  -5 1528.47 263.330   6
  -9  -1  -6 191.847 84.2334   6
   9   0 -13 830.950 148.307  16
   9   0 -12 6509.93 480.744  11
   9   0 -12 5592.92 431.879  16
   9   0 -11 1975.17 279.233  16
   9   0 -10 109.168 77.6832  15
   9   0 -10 91.2514 73.4173  16
   9   0  -9 10472.1 672.654  15
   9   0  -9 8738.17 593.005  16
   9   0  -8 27037.7 1056.78  15
   9   0  -8 22957.0 920.116  16
   9   0  -7 44282.8 1294.34  15
   9   0  -7 40447.3 1139.62  16
   9   0  -6 12852.6 662.058  15
   9   0  -6 14627.4 732.448  13
   9   0  -5 38683.5 1139.95  15
   9   0  -5 42341.3 1213.38  13
   9   0  -4 21742.2 876.411  13
  -9   0   4 14353.8 1697.80   2
   9   0  -3 2522.62 305.490  13
  -9   0   3 2458.90 684.925   2
   9   0  -2 28394.2 995.605  13
   9   0  -2 27126.2 973.374   5
   9   0  -1 19994.9 839.567   5
  -9   0   0 21039.1 1054.19   6
   9   0   0 20709.5 844.274   5
  -9   0  -1 31550.4 1367.87   6
   9   0   1 29021.4 974.887   5
  -9   0  -2 2861.20 423.412   6
  -9   0  -3 348.898 142.081   6
  -9   0  -4 3591.78 454.239   6
  -9   0  -5 1071.34 236.397   6
  -9   0  -6 641.388 151.999   6
   9   1 -13 11275.7 541.291  16
   9   1 -12 7127.44 503.030  16
   9   1 -11 6091.63 504.005  16
   9   1 -10 4617.14 443.138  16
   9   1 -10 5440.42 478.748  15
   9   1  -9 5820.64 488.847  15
   9   1  -9 5056.66 442.089  16
   9   1  -8 271.754 130.808  15
   9   1  -8 139.511 73.4938  16
   9   1  -7 44740.8 1306.90  15
   9   1  -7 38887.0 1169.53  16
   9   1  -6 10873.3 643.141  15
   9   1  -6 11003.5 632.647  13
   9   1  -6 9164.30 546.646  16
   9   1  -5 26277.5 968.531  13
  -9   1   5 18470.2 1742.53   2
   9   1  -5 24536.1 920.900   5
   9   1  -5 20838.8 774.766  16
   9   1  -4 3394.98 359.766  13
   9   1  -4 3425.85 355.980   5
   9   1  -3 43824.2 1276.89  13
   9   1  -3 43331.0 1276.70   5
   9   1  -2 6396.62 500.941   5
  -9   1   2 3070.92 798.436   2
  -9   1   1 28863.7 1203.64   6
  -9   1   1 27106.3 2466.92   2
   9   1  -1 31168.5 1100.79   5
  -9   1   0 15895.5 936.166   6
   9   1   0 17515.0 825.439   5
  -9   1  -1 11798.4 832.881   6
   9   1   1 11989.6 665.549   5
  -9   1  -2 1056.44 253.551   6
   9   1   2 992.662 180.988   5
  -9   1  -3 1379.96 290.069   6
   9   1   3 1253.31 188.369   5
  -9   1  -4 1765.54 316.100   6
  -9   1  -5 1542.68 266.639   6
  -9   1  -6 117.037 71.6565   6
   9   2 -12 4192.87 385.009  16
   9   2 -11 21912.2 927.800  16
   9   2 -10 2457.43 305.165  16
   9   2 -10 1935.10 249.148  15
   9   2  -9 11927.0 653.996  15
   9   2  -9 15544.7 811.277  16
   9   2  -8 1854.56 263.345  15
   9   2  -8 1968.43 300.613  16
   9   2  -7 13108.0 703.381  15
   9   2  -7 12165.9 703.158  16
   9   2  -6 4376.67 375.996  13
   9   2  -6 3800.50 373.127  16
   9   2  -5 1769.96 244.717  13
   9   2  -5 1771.65 256.027   5
   9   2  -5 2114.46 265.191  16
   9   2  -4 15967.6 756.263  13
   9   2  -4 16618.9 701.129  16
   9   2  -3 1766.90 262.332  13
   9   2  -3 2720.77 340.078   5
  -9   2   2 2094.66 316.147   6
   9   2  -2 3019.11 369.839   5
  -9   2   1 6432.23 598.062   6
   9   2  -1 8004.02 604.213   5
  -9   2   0 6313.43 610.915   6
   9   2   0 6867.35 550.877   5
  -9   2  -1 6217.42 619.500   6
   9   2   1 6586.05 522.475   5
  -9   2  -2 3511.86 457.660   6
   9   2   2 3726.44 372.929   5
  -9   2  -3 5311.33 553.929   6
   9   2   3 4455.24 364.545   5
  -9   2  -4 743.034 199.240   6
   9   2   4 659.646 115.740   5
  -9   2  -5 1206.23 215.495   6
   9   3 -11 1018.91 177.739  16
   9   3 -10 2987.93 317.391  16
   9   3  -9 909.951 186.463  16
   9   3  -8 2164.26 307.659  16
   9   3  -7 593.927 142.174  15
   9   3  -7 754.998 176.859  16
   9   3  -6 3075.28 331.406  15
   9   3  -6 4311.67 419.662  16
   9   3  -5 17732.5 781.761   5
   9   3  -5 17558.6 818.266  16
   9   3  -4 3791.61 390.530   5
   9   3  -4 4734.14 407.351  16
   9   3  -3 14571.0 794.308   5
   9   3  -3 11206.0 593.873  16
   9   3  -2 477.183 118.421  13
   9   3  -2 675.325 176.167   5
   9   3  -1 5134.17 481.318   5
  -9   3   0 1187.90 257.925   6
   9   3   0 1151.95 229.187   5
  -9   3  -1 718.884 205.022   6
   9   3   1 683.571 162.266   5
  -9   3  -2 1877.53 320.110   6
   9   3   2 1946.69 262.507   5
  -9   3  -3 873.587 202.917   6
   9   3   3 884.206 160.937   5
  -9   3  -4 99.9009 60.9075   6
   9   3   4 146.094 51.4529   5
   9   4 -10 121.094 47.8015  16
   9   4  -9 9599.99 550.293  16
   9   4  -8 3372.91 354.313  16
   9   4  -7 4139.29 400.758  16
   9   4  -6 3678.33 370.157  16
   9   4  -5 2088.73 276.766  16
   9   4  -4 1027.99 180.007  16
   9   4  -4 867.699 160.021   5
   9   4  -3-13.5287 27.7480   5
   9   4  -3 47.3614 48.7500  16
   9   4  -2 689.320 161.845   5
   9   4  -2 544.277 118.995  16
   9   4  -1 2149.76 284.775   5
   9   4   0 274.074 95.8586   5
   9   4   1 4561.94 381.263   5
   9   4   2 454.265 102.877   5
   9   5  -7 1433.70 186.791  16
   9   5  -6 180.426 69.6396  16
   9   5  -5 862.269 147.194  16
   9   5  -4 39.9316 34.3118  16
   9   5  -3 1327.80 167.581  16
   9   5  -1-82.9561 48.7457   5
  10  -4  -8 1156.65 162.931  12
  10  -4  -7 4559.85 350.798  12
  10  -4  -7 4077.29 322.181   8
  10  -4  -6 694.052 145.678   8
  10  -4  -6 811.199 151.002  12
  10  -4  -5 3360.82 315.994  12
  10  -4  -5 3456.01 389.694   8
  10  -4  -4 624.701 150.855   8
  10  -4  -4 631.842 132.967  12
  10  -4  -3 4103.86 373.578   8
  10  -4  -3 3023.95 274.928  12
  10  -4  -2 611.348 144.673   8
  10  -4  -1 580.320 130.665   8
  10  -4   0 66.3067 38.3831   8
  10  -4   1 953.901 145.482   8
  10  -3 -10 116.011 56.7856  11
  10  -3  -9 3833.72 337.706  12
  10  -3  -9 3360.41 299.983  11
  10  -3  -8 947.400 183.404  12
  10  -3  -7 6526.71 508.980  12
  10  -3  -6 3159.54 357.786  12
  10  -3  -5 1327.73 229.474   8
  10  -3  -5 1991.70 284.897  12
  10  -3  -4 409.123 124.406   8
  10  -3  -4 722.719 164.809  12
  10  -3  -3 6432.58 502.388   8
  10  -3  -3 5824.45 456.020  12
  10  -3  -2 1668.93 255.412   8
  10  -3  -2 1565.05 227.840  12
  10  -3  -1 2998.66 337.810   8
  10  -3   0 800.942 170.475   8
  10  -3   1 1327.62 207.655   8
  10  -3   2 695.993 139.485   8
  10  -3   3 1908.33 205.671   8
  10  -2 -12 263.726 79.9958  11
  10  -2 -11 117.740 62.0885  11
  10  -2 -10 678.301 136.187  12
  10  -2  -9 6815.43 495.759  12
  10  -2  -8 2889.00 344.155  12
  10  -2  -7 4950.41 459.117  12
  10  -2  -7 4376.65 368.595  15
  10  -2  -6 2776.80 343.931  12
  10  -2  -6 2516.60 282.592  15
  10  -2  -5 3527.56 316.614  15
  10  -2  -5 982.029 206.473  12
  10  -2  -4 3511.35 323.690  13
  10  -2  -3 25399.5 976.865   8
  10  -2  -3 20394.0 759.098  13
  10  -2  -2 5313.79 457.024   8
  10  -2  -2 5668.52 382.344  13
  10  -2  -1 2711.69 254.327  13
  10  -2   0 2555.66 271.489  12
 -10  -2  -3 2519.58 289.883   6
  10  -1 -12 1866.16 241.325  11
  10  -1 -11 4647.85 419.060  11
  10  -1 -11 3212.46 295.975  16
  10  -1 -10 4037.01 340.537  16
  10  -1  -9 6158.29 472.103  12
  10  -1  -9 6928.44 445.427  16
  10  -1  -8 222.257 96.3799  15
  10  -1  -8 322.844 111.620  12
  10  -1  -7 4967.88 420.051  15
  10  -1  -7 6092.68 508.043  12
  10  -1  -6 6804.49 479.269  15
  10  -1  -5 325.237 106.682  15
  10  -1  -5 260.672 103.751  13
  10  -1  -4 938.324 171.473  15
  10  -1  -4 1101.60 196.197  13
  10  -1  -3 4252.39 331.395  15
  10  -1  -3 4395.83 387.301  13
  10  -1  -2 9037.32 550.963  13
  10  -1  -1 23119.7 865.831  13
  10  -1   0 194.778 80.5308  13
  10  -1   1 14330.0 626.868  13
 -10  -1  -1 15128.5 852.113   6
  10  -1   2 2075.21 219.631  13
 -10  -1  -2 1973.50 307.233   6
  10  -1   3 2331.20 205.211  13
 -10  -1  -3 3214.98 372.572   6
 -10  -1  -4 178.117 82.8608   6
  10   0 -12 376.138 103.528  11
  10   0 -12 408.980 106.772  16
  10   0 -11 2653.87 289.980  16
  10   0 -10 5460.50 436.209  16
  10   0 -10 5985.03 485.653  15
  10   0  -9 46.3627 57.2707  15
  10   0  -9 7.57174 39.8387  16
  10   0  -8 104.603 70.1143  15
  10   0  -8 100.767 56.5572  16
  10   0  -7 25813.0 1008.72  15
  10   0  -6 187.990 91.1719  15
  10   0  -6 215.904 105.100  13
  10   0  -5 53163.3 1374.25  15
  10   0  -5 60103.7 1521.37  13
  10   0  -4 13746.4 724.437  13
  10   0  -3 6832.36 515.874  13
  10   0  -2 3215.03 356.846  13
  10   0  -1 1269.48 224.296  13
 -10   0   0 248.936 106.466   6
 -10   0  -1 1247.06 252.425   6
 -10   0  -2 4270.49 469.186   6
 -10   0  -3 898.963 204.552   6
 -10   0  -4 425.847 129.681   6
  10   1 -12 1247.51 187.180  16
  10   1 -11 4301.43 388.774  16
  10   1 -10 4541.69 415.632  16
  10   1 -10 6002.58 487.724  15
  10   1  -9 9492.94 617.073  15
  10   1  -9 8673.73 568.766  16
  10   1  -8 337.790 137.609  15
  10   1  -8 103.151 67.4150  16
  10   1  -7 5146.45 455.156  15
  10   1  -7 4061.44 343.540  16
  10   1  -6 9266.93 605.550  15
  10   1  -6 9189.15 599.423  13
  10   1  -5 293.417 120.980  13
  10   1  -4 1704.97 261.620  13
  10   1  -4 1550.07 246.872   5
  10   1  -3 5433.46 469.544  13
  10   1  -3 5385.75 468.587   5
  10   1  -2 10396.1 647.897  13
  10   1  -2 9710.50 629.757   5
 -10   1   1 24075.0 1085.31   6
  10   1  -1 26202.7 1012.50   5
 -10   1   0 333.907 164.740   6
  10   1   0 226.931 99.2952   5
 -10   1  -1 17046.3 953.345   6
  10   1   1 16071.2 733.789   5
 -10   1  -2 2250.24 352.212   6
  10   1   2 2174.15 243.210   5
 -10   1  -3 3571.38 408.961   6
 -10   1  -4 37.5700 46.5500   6
  10   2 -12 270.806 73.6572  16
  10   2 -11 119.856 70.9691  16
  10   2 -10 793.729 150.326  15
  10   2 -10 1096.96 198.775  16
  10   2  -9 6636.03 475.190  15
  10   2  -9 5698.88 437.130  16
  10   2  -8 2931.38 332.562  15
  10   2  -8 2664.04 309.593  16
  10   2  -7 4845.32 431.736  15
  10   2  -7 5096.60 425.938  16
  10   2  -6 2690.70 330.272  15
  10   2  -6 2614.92 292.304  13
  10   2  -6 2296.93 277.381  16
  10   2  -5 676.605 151.313  13
  10   2  -5 878.739 181.862   5
  10   2  -4 2956.00 324.821  13
  10   2  -4 4463.13 422.551   5
  10   2  -3 26370.0 996.738  13
  10   2  -3 27023.3 1055.09   5
  10   2  -2 7456.56 531.120  13
 -10   2   2 6507.09 553.180   6
  10   2  -2 7949.42 574.891   5
 -10   2   1 3636.82 426.055   6
  10   2  -1 3439.22 378.591   5
 -10   2   0 3515.46 427.513   6
  10   2   0 3298.35 355.118   5
 -10   2  -1 1596.00 293.016   6
  10   2   1 1887.63 254.050   5
 -10   2  -2 2098.99 313.934   6
  10   2   2 1881.45 228.132   5
 -10   2  -3 3419.54 372.041   6
  10   2   3 2349.78 214.124   5
 -10   2  -4 1218.30 196.455   6
  10   3 -10 133.936 58.5565  16
  10   3  -9 3828.32 350.074  16
  10   3  -8 1104.80 199.802  16
  10   3  -7 4230.36 362.685  15
  10   3  -7 6373.00 479.764  16
  10   3  -6 2199.01 269.129  15
  10   3  -6 2284.74 273.793  16
  10   3  -5 1479.46 219.737   5
  10   3  -5 1660.83 221.026  16
  10   3  -4 772.639 163.466   5
  10   3  -3 6679.83 504.188   5
  10   3  -2 1082.20 174.493  13
  10   3  -2 1798.87 268.849   5
  10   3  -1 2233.67 249.846  13
  10   3  -1 3739.50 380.114   5
  10   3   0 557.813 119.874  13
  10   3   0 697.269 155.270   5
  10   3   1 1367.01 204.335   5
  10   3   2 562.311 113.423   5
  10   4  -8 1249.97 182.517  16
  10   4  -7 5031.11 383.794  16
  10   4  -6 949.234 158.955  16
  10   4  -5 3121.69 282.862  16
  10   4  -4 671.183 128.529   5
  10   4  -4 522.954 106.119  16
  10   4  -3 2348.19 254.441   5
  10   4  -2 800.902 148.414   5
  10   4  -1 718.681 144.605   5
  10   4   0 8.40790 20.5475   5
  10   4   1 1175.44 152.115   5
  11  -4  -6 1254.14 158.502  12
  11  -4  -5 116.255 49.2318  12
  11  -3  -9 239.958 71.9724  12
  11  -3  -9 1051.74 154.734  11
  11  -3  -8 592.831 134.148  12
  11  -3  -7 25.5423 30.1539  12
  11  -3  -6 3549.22 345.560  12
  11  -3  -5 7124.51 486.620  12
  11  -3  -4 398.543 110.445   8
  11  -3  -4 687.095 153.723  12
  11  -3  -3 176.965 74.5284   8
  11  -3  -3 358.752 101.354  12
  11  -3  -2 165.358 63.8445   8
  11  -3  -2 251.200 75.0349  12
  11  -3  -1 185.447 74.1578   8
  11  -3   0 1152.40 166.224   8
  11  -2 -11 1334.47 180.323  11
  11  -2 -10 313.338 82.4467  12
  11  -2  -9 3270.20 314.556  12
  11  -2  -8 1026.13 193.303  12
  11  -2  -7 1124.09 207.211  12
  11  -2  -7 835.764 145.701  15
  11  -2  -6 598.240 151.968  12
  11  -2  -5 159.899 80.6843  12
  11  -2  -4 3809.25 377.361  12
  11  -2  -3 34.2015 16.4322  13
  11  -2  -3 4.74327 40.8390  12
  11  -2  -2 992.839 176.338   8
  11  -2  -2 1141.43 154.462  13
  11  -2  -2 1297.03 202.849  12
  11  -2  -1 3585.08 335.795   8
  11  -2  -1 4532.62 351.735  12
  11  -2   0-76.1395 39.5074   8
  11  -2   1 2581.48 258.080   8
  11  -2   2 592.843 113.184   8
  11  -1 -11 1171.01 189.698  11
  11  -1  -9 326.588 108.084  15
  11  -1  -9 192.305 73.5421  12
  11  -1  -8 2623.98 309.487  12
  11  -1  -8 2778.98 317.606  15
  11  -1  -7 1957.96 255.526  15
  11  -1  -7 2263.93 302.741  12
  11  -1  -6 3239.81 322.398  15
  11  -1  -5 3940.57 340.834  15
  11  -1  -5 4409.96 391.557  13
  11  -1  -4 550.080 121.072  15
  11  -1  -4 935.910 174.928  13
  11  -1  -3 2291.50 237.310  15
  11  -1  -3 2424.80 277.472  13
  11  -1  -2 158.446 63.2962  13
  11  -1  -1 1617.29 210.577  13
  11  -1   0 1094.40 166.862  13
  11  -1   1 449.426 91.2012  13
  11   0 -11 163.865 62.6448  16
  11   0 -10 74.8552 58.1227  15
  11   0 -10 75.4359 43.8017  16
  11   0  -9 168.536 81.2906  15
  11   0  -8 1027.03 202.008  15
  11   0  -8 742.514 161.947  12
  11   0  -7 7424.16 526.807  15
  11   0  -6 9899.18 595.403  15
  11   0  -6 10416.2 636.334  13
  11   0  -5 34.2875 37.5051  15
  11   0  -5 30.2449 52.8803  13
  11   0  -4 267.058 92.5179  15
  11   0  -4 344.953 118.963  13
  11   0  -3 3176.67 340.038  13
  11   0  -2 1607.34 239.961  13
  11   0  -1 1480.14 225.908  13
  11   0   0 2138.85 255.516  13
  11   0   1 1575.84 205.607  13
  11   0   2 212.468 67.5882  13
 -11   0  -2 280.946 104.819   6
  11   0   3 1316.96 142.185  13
  11   1 -11 686.291 128.116  16
  11   1 -10 3036.43 291.959  16
  11   1 -10 3606.22 346.845  15
  11   1  -9 279.064 102.618  15
  11   1  -9 306.871 95.1162  16
  11   1  -8 2787.10 328.088  15
  11   1  -8 2524.06 264.129  16
  11   1  -7 2598.57 321.720  15
  11   1  -6 3944.35 380.564  15
  11   1  -6 4038.76 388.119  13
  11   1  -5 4784.51 422.808  15
  11   1  -5 4922.91 429.381  13
  11   1  -4 766.947 171.207  13
  11   1  -3 2820.30 323.409  13
  11   1  -2 203.799 101.619  13
  11   1  -1 2309.23 285.733  13
  11   1   0 1438.62 216.065  13
  11   1   1 559.538 125.316  13
 -11   1  -1 406.363 122.451   6
  11   1   2 1227.21 167.722  13
 -11   1  -2 747.344 155.992   6
  11   1   3 1260.76 144.814  13
  11   2 -10 240.679 75.6606  15
  11   2 -10 371.016 99.6803  16
  11   2  -9 3464.25 315.595  15
  11   2  -9 3154.66 294.508  16
  11   2  -8 948.810 177.827  15
  11   2  -8 858.901 150.330  16
  11   2  -7 950.814 187.701  15
  11   2  -7 778.726 134.547  16
  11   2  -6 475.182 129.414  15
  11   2  -5 50.2613 39.3097  13
  11   2  -4 3799.44 349.897  13
  11   2  -3 18.6560 27.6921  13
  11   2  -3 71.7129 43.7068   5
  11   2  -2 1941.93 254.673  13
  11   2  -2 1795.44 254.359   5
  11   2  -1 5489.35 408.084  13
  11   2  -1 5432.72 427.255   5
 -11   2   0-48.3683 52.9663   6
  11   2   0 57.8853 67.7549  13
  11   2   0 17.6749 20.2096   5
  11   2   1 4011.04 308.093  13
  11   2   1 3640.83 290.702   5
  11   2   2 621.933 107.819  13
 -11   2  -2 667.746 139.122   6
  11   3  -9 266.198 78.8716  16
  11   3  -8 731.338 125.478  15
  11   3  -8 412.216 95.0073  16
  11   3  -7 192.475 91.1431  15
  11   3  -7 118.355 62.9591  16
  11   3  -6 2887.96 280.378  15
  11   3  -5 6945.76 457.159  15
  11   3  -4 566.100 125.822   5
  11   3  -3 508.571 126.648   5
  11   3  -2 229.578 70.2601  13
  11   3  -2 304.477 91.8617   5
  11   3  -1 230.383 67.0518  13
  11   3  -1 360.666 102.963   5
  11   3   0 1638.25 167.341  13
  11   3   0 1590.99 192.078   5
  12  -3  -7 2193.64 217.272  12
  12  -3  -6 701.724 127.799  12
  12  -3  -5 347.533 86.9103  12
  12  -3  -4 628.106 113.160  12
  12  -2  -9 18.8386 22.2744  12
  12  -2  -8 1861.18 225.915  12
  12  -2  -7 1559.93 223.156  12
  12  -2  -6 76.2303 66.1491  12
  12  -2  -5 844.516 160.224  12
  12  -2  -4 439.347 114.384  12
  12  -2  -3 1586.45 206.788  12
  12  -2  -2 685.663 124.086  12
  12  -1  -9 4104.95 320.567  12
  12  -1  -9 5783.55 375.444  15
  12  -1  -8 1972.53 242.191  12
  12  -1  -8 1854.42 223.983  15
  12  -1  -7 1450.68 218.882  12
  12  -1  -7 1269.75 186.237  15
  12  -1  -6 962.538 155.396  15
  12  -1  -6 1112.72 197.537  12
  12  -1  -5 1652.26 193.795  15
  12  -1  -4 1503.69 207.230  13
  12  -1  -3 226.587 78.3425  13
  12  -1  -2-23.9970 36.0963  13
  12  -1  -1 736.759 119.496  13
  12  -1   0-36.7432 37.8658  13
  12   0 -10 118.765 55.8006  15
  12   0  -9 145.079 59.7806  15
  12   0  -8 1192.52 191.085  15
  12   0  -8 713.478 144.654  12
  12   0  -7 1741.95 233.948  15
  12   0  -6 207.926 79.9717  15
  12   0  -5 3925.27 338.684  15
  12   0  -5 4737.99 390.860  13
  12   0  -4 573.744 122.647  15
  12   0  -4 677.129 146.209  13
  12   0  -3 1347.34 174.310  15
  12   0  -3 1707.68 225.845  13
  12   0  -2 116.765 50.3723  15
  12   0  -2 219.689 81.7598  13
  12   0  -1 1822.41 209.548  13
  12   0   0 987.880 142.420  13
  12   0   1 115.494 42.2503  13
  12   1 -10 88.7050 46.0386  15
  12   1  -9 6790.02 454.364  15
  12   1  -8 2061.48 253.006  15
  12   1  -7 1621.79 227.646  15
  12   1  -6 926.823 172.431  15
  12   1  -5 1932.95 239.505  15
  12   1  -5 1981.24 249.647  13
  12   1  -4 1517.85 208.995  15
  12   1  -4 1405.04 208.134  13
  12   1  -3 216.488 77.6232  15
  12   1  -3 185.197 77.4955  13
  12   1  -2 29.8761 45.0783  13
  12   1  -1 941.451 155.324  13
  12   1   0 84.8619 45.9908  13
  12   1   1 1206.51 143.545  13
  12   2  -9 46.1666 34.4765  15
  12   2  -8 1770.52 214.268  15
  12   2  -7 1638.99 216.542  15
  12   2  -6 26.6489 46.3906  15
  12   2  -5 2226.66 252.827  15
  12   2  -5 580.315 118.360  13
  12   2  -4 342.298 101.773  15
  12   2  -4 346.892 89.5603  13
  12   2  -3 1627.43 198.270  13
  12   2  -2 976.430 152.387  13
  12   2  -1 530.733 103.461  13
  12   2   0 1524.16 158.954  13
  12   3  -6 491.893 103.258  15
  12   3  -5 357.117 81.4576  15
  12   3  -4 787.805 133.481  15
  12   3  -3 140.448 47.4031  15
  13  -2  -6 1375.45 170.602  12
  13  -2  -5 222.651 69.1817  12
  13  -1  -7 1087.17 160.503  12
  13  -1  -6 521.740 115.400  12
  13  -1  -5 190.225 71.0081  12
  13  -1  -4 17.9885 16.6849  12
  13  -1  -3 1045.21 148.709  12
  13   0  -8 279.944 77.4431  15
  13   0  -7 2386.66 226.501  15
  13   0  -7 2440.77 243.409  12
  13   0  -6 1449.73 179.161  15
  13   0  -5 25.3296 25.1688  15
  13   0  -4-18.2482 17.6147  15
  13   0  -4-0.19124 31.4618  13
  13   0  -3 11.8982 12.5844  13
  13   0  -2 894.246 127.841  13
  13   1  -8 2635.56 238.876  15
  13   1  -7 1173.59 164.206  15
  13   1  -6 510.944 106.920  15
  13   1  -5 129.039 43.5610  15
  13   1  -4 100.754 39.4204  15
  13   1  -4 95.6258 48.2890  13
  13   1  -3 938.654 123.836  15
  13   1  -3 1328.05 163.583  13
  13   1  -2 1145.69 139.912  13
  13   2  -6 1069.13 143.662  15
  13   2  -5 219.996 66.8194  15
;
_shelx_hkl_checksum              42746
_olex2_submission_special_instructions 'No special instructions were received'
loop_
_space_group_symop_operation_xyz
'x, y, z'
'-x, y+1/2, -z'
loop_
_atom_site_label
_atom_site_type_symbol
_atom_site_fract_x
_atom_site_fract_y
_atom_site_fract_z
_atom_site_U_iso_or_equiv
_atom_site_adp_type
_atom_site_occupancy
_atom_site_site_symmetry_order
_atom_site_calc_flag
_atom_site_refinement_flags_posn
Si1 Si 0.24483(10) -0.0864(2) 0.79664(9) 0.0563(4) Uani 1 1 d .
H1A H 0.146(4) -0.198(10) 0.771(4) 0.068 Uiso 1 1 d R
H1B H 0.358(4) -0.179(9) 0.849(4) 0.068 Uiso 1 1 d R
C1 C 0.6624(4) 0.0483(7) 0.6043(3) 0.0551(9) Uani 1 1 d .
H1 H 0.646601 -0.090542 0.566643 0.066 Uiso 1 1 calc R
C2 C 0.7744(4) 0.1554(9) 0.6233(4) 0.0659(11) Uani 1 1 d .
H2 H 0.833938 0.088630 0.598088 0.079 Uiso 1 1 calc R
C3 C 0.8006(4) 0.3641(10) 0.6801(4) 0.0716(14) Uani 1 1 d .
H3 H 0.877164 0.434824 0.692555 0.086 Uiso 1 1 calc R
C4 C 0.7136(4) 0.4646(7) 0.7174(4) 0.0617(11) Uani 1 1 d .
H4 H 0.731746 0.603138 0.755199 0.074 Uiso 1 1 calc R
C5 C 0.5972(4) 0.3600(6) 0.6990(3) 0.0499(9) Uani 1 1 d .
C6 C 0.5705(3) 0.1474(6) 0.6417(3) 0.0453(8) Uani 1 1 d .
C7 C 0.4541(3) 0.0418(6) 0.6246(3) 0.0469(8) Uani 1 1 d .
H7 H 0.437045 -0.097085 0.587011 0.056 Uiso 1 1 calc R
C8 C 0.3656(4) 0.1376(6) 0.6615(3) 0.0466(8) Uani 1 1 d .
C9 C 0.3929(4) 0.3523(6) 0.7164(4) 0.0548(9) Uani 1 1 d .
H9 H 0.332880 0.421520 0.739897 0.066 Uiso 1 1 calc R
C10 C 0.5032(4) 0.4585(6) 0.7353(3) 0.0553(9) Uani 1 1 d .
H10 H 0.518208 0.597784 0.772422 0.066 Uiso 1 1 calc R
C11 C 0.2431(4) 0.0211(7) 0.6465(4) 0.0548(9) Uani 1 1 d .
H11 H 0.238056 -0.110830 0.596391 0.066 Uiso 1 1 calc R
C12 C 0.1259(4) 0.1584(12) 0.5802(5) 0.0765(13) Uani 1 1 d .
H12A H 0.051742 0.074348 0.573432 0.115 Uiso 1 1 calc GR
H12B H 0.122876 0.194359 0.500917 0.115 Uiso 1 1 calc GR
H12C H 0.128549 0.293704 0.624201 0.115 Uiso 1 1 calc GR
C13 C 0.2283(3) 0.1393(7) 0.8975(3) 0.0500(8) Uani 1 1 d .
C14 C 0.3314(4) 0.2593(8) 0.9726(4) 0.0595(10) Uani 1 1 d .
H14 H 0.411715 0.222779 0.975258 0.071 Uiso 1 1 calc R
C15 C 0.3190(4) 0.4327(10) 1.0442(3) 0.0636(10) Uani 1 1 d .
H15 H 0.389957 0.511724 1.093635 0.076 Uiso 1 1 calc R
C16 C 0.2004(5) 0.4866(9) 1.0415(4) 0.0666(11) Uani 1 1 d .
H16 H 0.191143 0.601589 1.089797 0.080 Uiso 1 1 calc R
C17 C 0.0955(4) 0.3703(10) 0.9671(4) 0.0723(13) Uani 1 1 d .
H17 H 0.015350 0.408063 0.964458 0.087 Uiso 1 1 calc R
C18 C 0.1094(4) 0.1979(9) 0.8967(4) 0.0609(11) Uani 1 1 d .
H18 H 0.038148 0.118993 0.847699 0.073 Uiso 1 1 calc R
loop_
_atom_site_aniso_label
_atom_site_aniso_U_11
_atom_site_aniso_U_22
_atom_site_aniso_U_33
_atom_site_aniso_U_23
_atom_site_aniso_U_13
_atom_site_aniso_U_12
Si1 0.0722(7) 0.0445(6) 0.0622(6) -0.0035(5) 0.0366(5) -0.0027(5)
C1 0.066(2) 0.053(2) 0.052(2) 0.0030(18) 0.0286(17) 0.0079(18)
C2 0.061(2) 0.077(3) 0.063(2) 0.010(2) 0.0266(19) 0.009(2)
C3 0.060(2) 0.088(4) 0.063(2) 0.020(3) 0.0192(19) -0.009(2)
C4 0.072(2) 0.049(3) 0.057(2) 0.0061(17) 0.0179(18) -0.0099(18)
C5 0.066(2) 0.043(2) 0.0397(17) 0.0038(14) 0.0181(15) -0.0018(15)
C6 0.0571(18) 0.0439(18) 0.0359(16) 0.0038(14) 0.0186(13) 0.0047(14)
C7 0.0641(19) 0.0378(18) 0.0398(17) -0.0021(14) 0.0209(14) 0.0003(15)
C8 0.062(2) 0.0403(19) 0.0411(17) -0.0011(14) 0.0233(15) 0.0011(15)
C9 0.071(2) 0.044(2) 0.056(2) -0.0069(16) 0.0317(18) 0.0040(16)
C10 0.080(2) 0.036(2) 0.053(2) -0.0049(15) 0.0289(18) -0.0026(16)
C11 0.063(2) 0.053(2) 0.054(2) -0.0131(17) 0.0288(17) -0.0080(18)
C12 0.065(2) 0.093(4) 0.069(3) 0.003(3) 0.022(2) 0.001(2)
C13 0.0590(19) 0.050(2) 0.0455(18) 0.0043(16) 0.0245(15) 0.0029(16)
C14 0.0544(19) 0.076(3) 0.050(2) -0.0027(19) 0.0213(16) 0.0004(18)
C15 0.070(2) 0.068(3) 0.0481(19) -0.008(2) 0.0169(17) -0.005(2)
C16 0.085(3) 0.064(3) 0.055(2) -0.0078(19) 0.032(2) 0.004(2)
C17 0.070(2) 0.082(4) 0.074(3) -0.014(3) 0.039(2) 0.010(2)
C18 0.0554(19) 0.073(3) 0.060(2) -0.010(2) 0.0272(17) -0.004(2)
loop_
_atom_type_symbol
_atom_type_description
_atom_type_scat_dispersion_real
_atom_type_scat_dispersion_imag
_atom_type_scat_source
C C 0.0181 0.0091 'International Tables Vol C Tables 4.2.6.8 and 6.1.1.4'
H H 0.0000 0.0000 'International Tables Vol C Tables 4.2.6.8 and 6.1.1.4'
Si Si 0.2541 0.3302 'International Tables Vol C Tables 4.2.6.8 and 6.1.1.4'
loop_
_geom_angle_atom_site_label_1
_geom_angle_atom_site_label_2
_geom_angle_atom_site_label_3
_geom_angle
H1A Si1 H1B 121(4)
C11 Si1 H1A 105(2)
C11 Si1 H1B 104(2)
C13 Si1 H1A 104(2)
C13 Si1 H1B 109(2)
C13 Si1 C11 113.41(19)
C2 C1 H1 119.8
C2 C1 C6 120.4(4)
C6 C1 H1 119.8
C1 C2 H2 119.6
C1 C2 C3 120.8(4)
C3 C2 H2 119.6
C2 C3 H3 119.9
C4 C3 C2 120.2(4)
C4 C3 H3 119.9
C3 C4 H4 119.7
C3 C4 C5 120.6(4)
C5 C4 H4 119.7
C4 C5 C6 119.4(3)
C4 C5 C10 122.7(4)
C6 C5 C10 117.9(3)
C1 C6 C5 118.6(4)
C7 C6 C1 122.2(4)
C7 C6 C5 119.2(3)
C6 C7 H7 119.0
C8 C7 C6 122.1(3)
C8 C7 H7 119.0
C7 C8 C9 117.8(3)
C7 C8 C11 121.9(3)
C9 C8 C11 120.2(3)
C8 C9 H9 119.0
C10 C9 C8 122.0(3)
C10 C9 H9 119.0
C5 C10 H10 119.6
C9 C10 C5 120.9(3)
C9 C10 H10 119.6
Si1 C11 H11 106.4
C8 C11 Si1 111.5(3)
C8 C11 H11 106.4
C8 C11 C12 113.8(4)
C12 C11 Si1 111.7(3)
C12 C11 H11 106.4
C11 C12 H12A 109.5
C11 C12 H12B 109.5
C11 C12 H12C 109.5
H12A C12 H12B 109.5
H12A C12 H12C 109.5
H12B C12 H12C 109.5
C14 C13 Si1 121.9(3)
C14 C13 C18 117.3(4)
C18 C13 Si1 120.8(3)
C13 C14 H14 119.0
C13 C14 C15 122.1(4)
C15 C14 H14 119.0
C14 C15 H15 120.4
C16 C15 C14 119.3(4)
C16 C15 H15 120.4
C15 C16 H16 120.0
C15 C16 C17 120.0(4)
C17 C16 H16 120.0
C16 C17 H17 120.0
C16 C17 C18 120.0(4)
C18 C17 H17 120.0
C13 C18 H18 119.4
C17 C18 C13 121.3(4)
C17 C18 H18 119.4
loop_
_geom_bond_atom_site_label_1
_geom_bond_atom_site_label_2
_geom_bond_distance
Si1 H1A 1.25(5)
Si1 H1B 1.33(5)
Si1 C11 1.899(4)
Si1 C13 1.867(4)
C1 H1 0.9300
C1 C2 1.369(6)
C1 C6 1.416(5)
C2 H2 0.9300
C2 C3 1.400(8)
C3 H3 0.9300
C3 C4 1.370(7)
C4 H4 0.9300
C4 C5 1.408(5)
C5 C6 1.422(5)
C5 C10 1.426(5)
C6 C7 1.412(5)
C7 H7 0.9300
C7 C8 1.371(5)
C8 C9 1.423(5)
C8 C11 1.509(5)
C9 H9 0.9300
C9 C10 1.350(5)
C10 H10 0.9300
C11 H11 0.9800
C11 C12 1.513(7)
C12 H12A 0.9600
C12 H12B 0.9600
C12 H12C 0.9600
C13 C14 1.379(6)
C13 C18 1.397(5)
C14 H14 0.9300
C14 C15 1.387(7)
C15 H15 0.9300
C15 C16 1.377(6)
C16 H16 0.9300
C16 C17 1.378(7)
C17 H17 0.9300
C17 C18 1.379(7)
C18 H18 0.9300
