#------------------------------------------------------------------------------
#$Date: 2017-07-27 01:34:31 +0300 (Thu, 27 Jul 2017) $
#$Revision: 199346 $
#$URL: file:///home/coder/svn-repositories/cod/cif/4/12/63/4126316.cif $
#------------------------------------------------------------------------------
#
# This file is available in the Crystallography Open Database (COD),
# http://www.crystallography.net/
#
# All data on this site have been placed in the public domain by the
# contributors.
#
data_4126316
loop_
_publ_author_name
'Surbella, Robert G.'
'Ducati, Lucas Colucci'
'Pellegrini, Kristi L.'
'McNamara, Bruce K.'
'Autschbach, Jochen'
'Schwantes, Jon Michael'
'Cahill, Christopher L.'
_publ_section_title
;
 Transuranic Hybrid Materials: Crystallographic and Computational Metrics
 of Supramolecular Assembly.
;
_journal_name_full               'Journal of the American Chemical Society'
_journal_paper_doi               10.1021/jacs.7b05689
_journal_year                    2017
_chemical_formula_moiety         '(C5 H5 Br N 1+)2, (Pu O2 Cl4 2-)'
_chemical_formula_sum            'C10 H10 Br2 Cl4 N2 O2 Pu'
_chemical_formula_weight         733.82
_space_group_crystal_system      monoclinic
_space_group_IT_number           12
_space_group_name_Hall           '-C 2y'
_space_group_name_H-M_alt        'C 1 2/m 1'
_symmetry_cell_setting           monoclinic
_symmetry_Int_Tables_number      12
_symmetry_space_group_name_Hall  '-C 2y'
_symmetry_space_group_name_H-M   'C 1 2/m 1'
_atom_sites_solution_hydrogens   geom
_audit_creation_method           SHELXL-2014/7
_cell_angle_alpha                90
_cell_angle_beta                 101.912(2)
_cell_angle_gamma                90
_cell_formula_units_Z            2
_cell_length_a                   16.1488(9)
_cell_length_b                   8.7340(5)
_cell_length_c                   6.7757(4)
_cell_measurement_reflns_used    9767
_cell_measurement_temperature    296(2)
_cell_measurement_theta_max      51.201
_cell_measurement_theta_min      4.849
_cell_volume                     935.09(9)
_computing_cell_refinement       'SAINT, Bruker-AXS'
_computing_data_collection       'APEX, Bruker-AXS'
_computing_data_reduction        'SAINT, Bruker-AXS'
_computing_molecular_graphics    'WINGX (Farrugia, 2012)'
_computing_publication_material  'Crystal Maker (Palmer, 2009)'
_computing_structure_refinement  'SHELXL-2014/7 (Sheldrick, 2014)'
_computing_structure_solution    'SIR92 (Gualardi, 1994)'
_diffrn_ambient_temperature      296(2)
_diffrn_measured_fraction_theta_full 0.986
_diffrn_measured_fraction_theta_max 0.983
_diffrn_measurement_device_type  'Bruker D8 Venture, Photon CCD'
_diffrn_measurement_method       'omega and phi scans'
_diffrn_radiation_probe          x-ray
_diffrn_radiation_type           AgK\a
_diffrn_radiation_wavelength     0.56086
_diffrn_reflns_av_R_equivalents  0.0276
_diffrn_reflns_av_unetI/netI     0.0190
_diffrn_reflns_Laue_measured_fraction_full 0.986
_diffrn_reflns_Laue_measured_fraction_max 0.983
_diffrn_reflns_limit_h_max       24
_diffrn_reflns_limit_h_min       -24
_diffrn_reflns_limit_k_max       12
_diffrn_reflns_limit_k_min       -13
_diffrn_reflns_limit_l_max       10
_diffrn_reflns_limit_l_min       -10
_diffrn_reflns_number            10959
_diffrn_reflns_point_group_measured_fraction_full 0.986
_diffrn_reflns_point_group_measured_fraction_max 0.983
_diffrn_reflns_theta_full        25.500
_diffrn_reflns_theta_max         25.644
_diffrn_reflns_theta_min         2.102
_diffrn_source                   'Silver microfocus'
_exptl_absorpt_coefficient_mu    7.465
_exptl_absorpt_correction_T_max  0.7452
_exptl_absorpt_correction_T_min  0.3937
_exptl_absorpt_correction_type   multi-scan
_exptl_absorpt_process_details   'Krause et. al 2015'
_exptl_crystal_colour            Yellow-Orange
_exptl_crystal_density_diffrn    2.606
_exptl_crystal_description       Prismatic
_exptl_crystal_F_000             664
_exptl_crystal_recrystallization_method 'Acidic (HCl) aqueous evaporation'
_exptl_crystal_size_max          0.283
_exptl_crystal_size_mid          0.277
_exptl_crystal_size_min          0.126
_refine_diff_density_max         1.018
_refine_diff_density_min         -1.119
_refine_diff_density_rms         0.112
_refine_ls_extinction_coef       0.0380(7)
_refine_ls_extinction_expression Fc^*^=kFc[1+0.001xFc^2^\l^3^/sin(2\q)]^-1/4^
_refine_ls_extinction_method     'SHELXL-2014/7 (Sheldrick 2014'
_refine_ls_goodness_of_fit_ref   1.068
_refine_ls_hydrogen_treatment    constr
_refine_ls_matrix_type           full
_refine_ls_number_parameters     59
_refine_ls_number_reflns         1863
_refine_ls_number_restraints     0
_refine_ls_restrained_S_all      1.068
_refine_ls_R_factor_all          0.0176
_refine_ls_R_factor_gt           0.0176
_refine_ls_shift/su_max          0.001
_refine_ls_shift/su_mean         0.000
_refine_ls_structure_factor_coef Fsqd
_refine_ls_weighting_details
'w=1/[\s^2^(Fo^2^)+(0.0118P)^2^+2.7315P] where P=(Fo^2^+2Fc^2^)/3'
_refine_ls_weighting_scheme      calc
_refine_ls_wR_factor_gt          0.0423
_refine_ls_wR_factor_ref         0.0423
_reflns_Friedel_coverage         0.000
_reflns_number_gt                1863
_reflns_number_total             1863
_reflns_threshold_expression     'I > 2\s(I)'
_cod_data_source_file            ja7b05689_si_002.cif
_cod_data_source_block           Compound_11
_cod_original_sg_symbol_H-M      'C 2/m'
_cod_database_code               4126316
_shelx_shelxl_version_number     2014/7
_shelx_space_group_comment
;
The symmetry employed for this shelxl refinement is uniquely defined
by the following loop, which should always be used as a source of
symmetry information in preference to the above space-group names.
They are only intended as comments.
;
_shelx_estimated_absorpt_t_min   0.226
_shelx_estimated_absorpt_t_max   0.453
_shelx_res_file
;

    shelx.res created by SHELXL-2014/7

TITL SIR92 run in space group C 2/m
CELL  0.56086  16.1488   8.7340   6.7757   90.000  101.912   90.000
ZERR     2.00   0.0009   0.0005   0.0004    0.000    0.002    0.000
LATT   7
SYMM  - X,   Y, - Z
SFAC  C    H    N    O    CL   BR   PU
UNIT  20 20 4 4 8 4 2
MERG   2
OMIT     2   0   0
OMIT    -8   0   7
OMIT     3   1   1
EQIV $1 -x+1, -y+1, -z+1
HTAB C1 Cl1_$1
HTAB C2 Cl2
EQIV $2 x, y+1, z+1
HTAB N1 Cl1_$2
HTAB N1 Cl1_$1
HTAB C1 Cl1_$1
HTAB C2 Cl2
HTAB N1 Cl1_$2
HTAB N1 Cl1_$1
FMAP   2
PLAN   25
SIZE     0.126   0.277   0.283
ACTA    51.00
BOND   $H
CONF
L.S.   100
TEMP    23.00
WGHT    0.011800    2.731500
EXTI    0.038019
FVAR       0.12003
C1    1    0.610589    0.865698    0.621794    11.00000    0.05203    0.05196 =
         0.05088    0.00648    0.01098   -0.00442
AFIX  43
H1    2    0.596539    0.774658    0.678081    11.00000   -1.20000
AFIX   0
C2    1    0.651016    0.862442    0.462070    11.00000    0.04657    0.04588 =
         0.04829   -0.00656    0.00880   -0.00057
AFIX  43
H2    2    0.663552    0.769926    0.406896    11.00000   -1.20000
AFIX   0
C3    1    0.672541    1.000000    0.385612    10.50000    0.03579    0.05766 =
         0.03051    0.00000    0.00440    0.00000
N1    3    0.591501    1.000000    0.696095    10.50000    0.04967    0.06108 =
         0.03738    0.00000    0.01432    0.00000
AFIX  43
HN1   2    0.565942    1.000001    0.795580    10.50000   -1.20000
AFIX   0
O1    4    0.467383    0.500000    0.229302    10.50000    0.05375    0.04136 =
         0.03837    0.00000    0.02167    0.00000
CL1   5    0.500000    0.194728    0.000000    10.50000    0.05550    0.02291 =
         0.05049    0.00000    0.01792    0.00000
CL2   5    0.660553    0.500000    0.191765    10.50000    0.03670    0.04887 =
         0.05648    0.00000    0.00000    0.00000
BR1   6    0.733264    1.000000    0.178963    10.50000    0.05015    0.09752 =
         0.04462    0.00000    0.01774    0.00000
PU1   7    0.500000    0.500000    0.000000    10.25000    0.02768    0.01748 =
         0.02337    0.00000    0.00803    0.00000
HKLF    4

REM  SIR92 run in space group C 2/m
REM R1 =  0.0176 for    1863 Fo > 4sig(Fo)  and  0.0176 for all    1863 data
REM     59 parameters refined using      0 restraints

END

WGHT      0.0096      2.2077

REM Highest difference peak  1.018,  deepest hole -1.119,  1-sigma level  0.112
Q1    1   0.5334  0.5000  0.0904  10.50000  0.05    1.02
Q2    1   0.7631  1.0000  0.2680  10.50000  0.05    0.93
Q3    1   0.6387  0.5000  0.2668  10.50000  0.05    0.69
Q4    1   0.5159  0.5372 -0.0439  11.00000  0.05    0.67
Q5    1   0.5329  0.5000 -0.0226  10.50000  0.05    0.66
Q6    1   0.6789  1.0000  0.0720  10.50000  0.05    0.58
Q7    1   0.7114  1.0000  0.2991  10.50000  0.05    0.54
Q8    1   0.7299  1.0000  0.0374  10.50000  0.05    0.53
Q9    1   0.4875  0.5000  0.1435  10.50000  0.05    0.52
Q10   1   0.7287  0.9194  0.1259  11.00000  0.05    0.45
Q11   1   0.5523  0.5000  0.2154  10.50000  0.05    0.45
Q12   1   0.6727  1.0000  0.1911  10.50000  0.05    0.37
Q13   1   0.6142  0.8666  0.4963  11.00000  0.05    0.32
Q14   1   0.5985  1.0000  0.7772  10.50000  0.05    0.32
Q15   1   0.5309  0.9810  0.6463  11.00000  0.05    0.32
Q16   1   0.6122  0.5000  0.0937  10.50000  0.05    0.31
Q17   1   0.4368  0.4408  0.1023  11.00000  0.05    0.30
Q18   1   0.5947  0.5000  0.2972  10.50000  0.05    0.29
Q19   1   0.7682  1.0000  0.3827  10.50000  0.05    0.29
Q20   1   0.7149  0.7102  0.1610  11.00000  0.05    0.29
Q21   1   0.5907  1.0000  0.9916  10.50000  0.05    0.29
Q22   1   0.7512  0.6889  0.2165  11.00000  0.05    0.28
Q23   1   0.7073  1.0000 -0.0736  10.50000  0.05    0.27
Q24   1   0.7709  1.0000  0.1012  10.50000  0.05    0.27
Q25   1   0.3874  0.5000  0.3536  10.50000  0.05    0.27
;
_shelx_res_checksum              62102
_shelx_hkl_file
;
  -2   0   0   -0.48    0.02
   4   0   0  329.66    8.63
   4   0   0  324.31    8.74
  -4   0   0  329.71    8.75
  -4   0   0  352.64    8.76
   6   0   0  229.15    5.82
   6   0   0  221.88    5.77
  -6   0   0  229.83    5.83
   6   0   0  220.58    5.77
  -6   0   0  223.40    5.76
   8   0   0  392.11   10.03
  -8   0   0  393.39   10.05
  -8   0   0  394.71   10.17
   8   0   0  388.90    9.98
 -10   0   0   48.75    1.49
  10   0   0   49.64    1.55
  10   0   0   47.22    1.50
  10   0   0   47.19    1.37
 -10   0   0   51.59    1.60
 -12   0   0  219.73    5.77
 -12   0   0  226.04    5.91
  12   0   0  220.29    5.80
  12   0   0  204.70    5.59
  12   0   0  221.56    5.84
 -14   0   0   57.01    1.90
  14   0   0   54.68    1.82
  14   0   0   51.73    1.77
 -16   0   0   17.25    0.98
  16   0   0   16.16    0.89
  16   0   0   16.55    0.89
  18   0   0   52.02    1.89
 -18   0   0   57.47    2.04
  18   0   0   51.34    2.13
 -20   0   0   15.95    1.06
  20   0   0   13.48    1.01
  22   0   0    9.73    1.00
  22   0   0   10.28    0.88
 -22   0   0    8.78    1.04
   1  -1   0  114.37    3.07
   1   1   0  116.37    3.11
   3  -1   0  301.45    7.87
  -3  -1   0  321.46    8.10
  -3  -1   0  343.19    8.21
  -3   1   0  282.93    8.00
   3   1   0  297.53    7.91
   3   1   0  304.47    8.07
   5  -1   0  157.22    4.10
  -5  -1   0  162.58    4.07
  -5  -1   0  165.19    4.07
   5   1   0  153.25    4.08
  -5   1   0  149.74    4.09
   5   1   0  156.86    4.07
   7  -1   0  316.22    8.57
   7  -1   0  330.52    8.57
  -7  -1   0  343.63    8.63
   7  -1   0  324.58    8.51
  -7  -1   0  349.94    8.56
   7   1   0  336.49    8.55
  -7   1   0  325.52    8.59
   7   1   0  353.23    8.56
   9  -1   0    1.21    0.20
   9  -1   0    1.14    0.23
  -9  -1   0    1.23    0.23
  -9  -1   0    1.30    0.21
   9  -1   0    1.37    0.22
   9   1   0    1.42    0.24
  -9   1   0    1.23    0.24
   9   1   0    1.14    0.22
  11  -1   0  150.58    4.13
 -11  -1   0  155.70    4.19
 -11  -1   0  156.52    4.28
  11  -1   0  157.10    4.29
  11  -1   0  155.11    4.21
  11   1   0  160.53    4.27
 -11   1   0  161.29    4.34
  11   1   0  157.01    4.26
 -13  -1   0   15.90    0.81
 -13  -1   0   14.59    0.80
  13  -1   0   14.24    0.70
  13  -1   0   13.84    0.61
  13  -1   0   14.09    0.75
  13   1   0   14.59    0.75
 -13   1   0   14.59    0.82
  13   1   0   13.14    0.72
 -15  -1   0   74.04    2.41
 -15  -1   0   75.05    2.28
  15  -1   0   71.02    2.13
  15  -1   0   75.75    2.30
  15  -1   0   77.06    2.36
  15   1   0   72.61    2.35
 -15   1   0   79.19    2.47
  15   1   0   73.68    2.36
  17  -1   0    3.57    0.57
 -17  -1   0    3.25    0.49
  17  -1   0    3.65    0.50
 -17  -1   0    3.54    0.53
  17  -1   0    3.43    0.38
 -17   1   0    4.15    0.60
  17   1   0    3.69    0.57
  17   1   0    4.03    0.56
 -19  -1   0   40.75    1.62
  19  -1   0   38.05    1.53
  19  -1   0   32.58    1.71
  19   1   0   36.29    1.51
  19   1   0   36.93    1.59
 -19   1   0   38.79    1.68
  21  -1   0    2.11    0.53
  21  -1   0    2.51    0.48
 -21  -1   0    1.22    0.50
  21   1   0    2.11    0.54
 -21   1   0    2.58    0.63
  21   1   0    2.65    0.50
 -23  -1   0    5.06    0.80
  23  -1   0    7.02    1.00
 -23   1   0    6.43    0.89
  23   1   0    7.59    1.06
   0  -2   0  639.01   16.33
   0  -2   0  628.34   16.27
   2  -2   0    0.34    0.13
   2  -2   0    0.49    0.15
   2   2   0    0.38    0.13
   2   2   0    0.29    0.13
  -2   2   0    0.51    0.15
   4  -2   0  279.86    7.18
  -4  -2   0  299.21    7.39
  -4  -2   0  284.29    7.14
   4   2   0  275.27    7.23
  -4   2   0  270.23    7.19
   4   2   0  279.57    7.19
   6  -2   0   46.78    1.42
  -6  -2   0   47.78    1.38
  -6  -2   0   48.56    1.42
   6   2   0   48.78    1.40
   6   2   0   47.44    1.43
  -6   2   0   48.41    1.45
  -8  -2   0  143.91    3.73
  -8  -2   0  152.92    3.90
   8  -2   0  145.18    3.94
  -8  -2   0  145.74    3.90
   8   2   0  150.14    3.91
   8   2   0  144.65    3.93
  -8   2   0  143.32    3.97
  10  -2   0    9.70    0.55
  10  -2   0    8.58    0.46
 -10  -2   0    8.41    0.48
 -10  -2   0    8.81    0.50
  10  -2   0    9.11    0.49
  10   2   0    8.82    0.52
 -10   2   0    9.12    0.57
  10   2   0    9.01    0.50
 -12  -2   0  118.49    3.29
  12  -2   0  116.93    3.33
 -12  -2   0  113.61    3.24
  12  -2   0  116.39    3.22
  12  -2   0  111.99    3.23
 -12   2   0  120.95    3.41
  12   2   0  115.74    3.32
  12   2   0  118.12    3.30
  14  -2   0   21.84    0.90
 -14  -2   0   21.15    0.89
  14  -2   0   20.28    0.86
  14  -2   0   20.38    1.00
 -14  -2   0   21.15    0.99
  14   2   0   20.51    0.98
  16  -2   0    8.13    0.66
 -16  -2   0    6.62    0.68
  16  -2   0    7.54    0.54
 -16  -2   0    6.71    0.58
  16  -2   0    7.02    0.59
 -16   2   0    8.18    0.77
  16   2   0    7.23    0.66
  16   2   0    7.59    0.73
 -18  -2   0   30.14    1.23
  18  -2   0   27.05    1.08
 -18  -2   0   29.04    1.31
  18  -2   0   30.04    1.29
  18  -2   0   29.33    1.23
  18   2   0   28.44    1.34
  18   2   0   27.52    1.27
 -18   2   0   30.95    1.47
 -20  -2   0    6.15    0.66
  20  -2   0    6.05    0.86
 -20  -2   0    5.28    0.77
  20  -2   0    6.02    0.54
  20  -2   0    5.75    0.77
  20   2   0    5.96    0.85
 -20   2   0    5.78    0.89
  22  -2   0    7.57    0.58
 -22  -2   0    8.56    0.95
  22  -2   0    7.15    0.85
  22  -2   0    8.27    0.91
  22   2   0    7.70    0.88
 -22   2   0    7.06    1.12
  22   2   0    7.47    0.98
  24  -2   0    2.37    0.64
  24   2   0    3.55    0.78
   1  -3   0  451.89   11.84
   1  -3   0  465.54   11.80
  -1  -3   0  447.96   11.96
  -1  -3   0  459.24   12.00
  -1   3   0  449.85   11.94
  -1   3   0  454.17   11.98
   1   3   0  450.57   11.55
   3  -3   0  244.52    6.26
  -3  -3   0  237.51    6.26
   3  -3   0  249.42    6.23
  -3  -3   0  242.61    6.23
   3   3   0  240.15    6.24
  -3   3   0  242.40    6.27
   3   3   0  242.32    6.27
   5  -3   0  176.92    4.58
  -5  -3   0  171.61    4.57
  -5  -3   0  173.82    4.53
   5   3   0  171.26    4.55
   5   3   0  176.57    4.60
  -5   3   0  172.00    4.60
  -7  -3   0  499.00   12.39
  -7  -3   0  483.28   12.19
   7  -3   0  484.25   12.26
   7   3   0  484.23   12.28
  -7   3   0  468.03   12.29
   7   3   0  469.30   12.21
  -9  -3   0   30.70    1.08
   9  -3   0   31.34    1.11
  -9  -3   0   30.23    1.04
  -9   3   0   31.25    1.15
   9   3   0   30.77    1.07
   9   3   0   30.06    1.11
  11  -3   0  160.75    4.44
 -11  -3   0  166.05    4.48
  11  -3   0  168.92    4.57
 -11  -3   0  167.04    4.50
  11   3   0  166.78    4.58
 -11   3   0  168.67    4.64
  11   3   0  168.06    4.52
  13  -3   0   39.20    1.54
 -13  -3   0   38.29    1.34
  13  -3   0   37.09    1.29
 -13  -3   0   38.62    1.36
  13   3   0   38.37    1.39
 -13   3   0   38.59    1.66
  13   3   0   37.96    1.43
 -15  -3   0   72.13    2.28
  15  -3   0   72.75    2.19
  15  -3   0   72.43    2.33
  15  -3   0   72.30    2.25
  15   3   0   70.21    2.29
 -15   3   0   73.75    2.60
  17  -3   0   10.08    0.76
 -17  -3   0    9.25    0.75
  17  -3   0    8.45    0.66
 -17  -3   0    9.65    0.69
  17  -3   0    9.62    0.68
  17   3   0    9.12    0.84
  17   3   0    8.74    0.73
 -17   3   0    9.20    0.89
  19  -3   0   48.34    1.94
 -19  -3   0   48.53    1.83
  19  -3   0   46.46    1.66
 -19  -3   0   48.67    1.76
  19   3   0   47.62    1.94
 -19   3   0   53.90    2.09
 -21  -3   0    4.31    0.69
  21  -3   0    3.42    0.57
  21  -3   0    5.41    0.75
  21  -3   0    4.44    0.66
 -21  -3   0    4.54    0.66
  21   3   0    4.88    0.77
  21   3   0    5.18    0.76
 -21   3   0    5.30    0.85
  23  -3   0    5.76    0.90
 -23  -3   0    6.15    0.91
  23   3   0    5.29    0.84
   0  -4   0  539.74   14.18
   0  -4   0  546.70   14.07
   0  -4   0  549.83   14.20
   0   4   0  531.16   13.81
  -2  -4   0   51.58    1.54
  -2  -4   0   50.67    1.55
  -2  -4   0   50.40    1.53
   2  -4   0   50.40    1.52
   2  -4   0   52.62    1.55
   2   4   0   51.45    1.55
  -2   4   0   51.12    1.51
  -2   4   0   50.77    1.56
   2   4   0   51.41    1.53
   4  -4   0  376.54    9.27
  -4  -4   0  347.91    9.21
  -4  -4   0  359.63    9.26
   4  -4   0  366.93    9.22
   4   4   0  365.70    9.28
  -4   4   0  354.01    9.28
   4   4   0  352.45    9.22
  -6  -4   0   96.24    2.74
  -6  -4   0   98.62    2.70
   6  -4   0   98.19    2.75
  -6   4   0   95.77    2.77
   6   4   0   97.56    2.72
   6   4   0   96.21    2.77
  -8  -4   0  131.75    3.59
   8  -4   0  132.82    3.67
   8   4   0  132.55    3.63
   8   4   0  133.41    3.70
  -8   4   0  132.49    3.73
 -10  -4   0   29.80    1.13
 -10  -4   0   31.33    1.09
  10  -4   0   30.14    1.15
 -10   4   0   30.88    1.22
  10   4   0   30.07    1.11
  10   4   0   30.65    1.19
 -12  -4   0  121.02    3.32
 -12  -4   0  122.52    3.37
  12   4   0  121.42    3.38
 -12   4   0  102.84    3.76
  12   4   0  119.45    3.45
  14  -4   0   30.60    1.26
 -14  -4   0   32.37    1.21
  14  -4   0   31.22    1.14
 -14  -4   0   30.89    1.21
  14  -4   0   29.23    1.27
 -14   4   0   30.28    1.37
  14   4   0   30.43    1.32
  14   4   0   30.77    1.23
 -16  -4   0   14.51    0.83
  16  -4   0   14.28    0.77
 -16  -4   0   14.04    0.84
  16  -4   0   14.91    0.90
  16  -4   0   15.42    0.87
  16   4   0   13.69    0.94
 -16   4   0   15.24    1.03
  16   4   0   13.46    0.86
 -18  -4   0   25.27    1.17
  18  -4   0   27.21    1.21
  18  -4   0   26.35    1.12
 -18  -4   0   26.05    1.21
  18   4   0   25.93    1.35
 -18   4   0   26.03    1.44
  20  -4   0    7.44    0.84
  20  -4   0    6.94    0.73
  20  -4   0    6.52    0.72
 -20  -4   0    6.46    0.79
 -20  -4   0    6.95    0.71
 -20   4   0    6.69    1.05
  20   4   0    6.90    0.81
 -22  -4   0    8.80    1.01
 -22  -4   0    7.57    0.84
  22  -4   0    7.40    0.82
  22  -4   0    8.41    0.84
  22   4   0    6.85    1.09
   1  -5   0  107.78    3.03
   1  -5   0  110.43    3.03
   1  -5   0  107.83    3.02
  -1  -5   0  107.56    3.02
  -1  -5   0  105.47    3.01
  -1  -5   0  107.19    3.03
  -1   5   0  108.09    3.04
   1   5   0  108.89    3.02
  -1   5   0  110.78    3.00
  -3  -5   0   63.96    1.96
   3  -5   0   66.37    1.94
   3  -5   0   67.00    1.97
  -3  -5   0   65.43    1.96
  -3  -5   0   63.86    1.94
  -3   5   0   63.92    1.98
   3   5   0   64.38    1.94
   3   5   0   64.96    1.97
   5  -5   0   43.27    1.45
  -5  -5   0   44.72    1.47
   5  -5   0   45.84    1.44
  -5  -5   0   44.36    1.42
  -5   5   0   45.17    1.50
   5   5   0   43.01    1.43
   5   5   0   42.39    1.46
   7  -5   0  157.03    4.42
   7  -5   0  163.69    4.32
  -7  -5   0  158.33    4.35
  -7  -5   0  153.84    4.28
   7   5   0  159.50    4.39
  -7   5   0  158.32    4.41
   7   5   0  160.75    4.33
  -9  -5   0    4.72    0.43
   9  -5   0    3.74    0.46
  -9  -5   0    4.08    0.46
   9   5   0    4.29    0.45
  -9   5   0    3.74    0.49
   9   5   0    3.99    0.49
 -11  -5   0   56.12    1.81
 -11  -5   0   50.70    2.06
  11  -5   0   53.52    1.80
  11   5   0   54.40    1.88
 -11   5   0   49.71    1.96
  13  -5   0   12.05    0.78
 -13  -5   0   11.22    0.75
 -13  -5   0   11.15    0.68
 -13   5   0   11.08    0.86
  13   5   0   12.82    0.76
  13   5   0   12.58    0.84
  15  -5   0   25.61    1.22
 -15  -5   0   24.07    1.11
 -15  -5   0   25.35    1.10
  15  -5   0   25.44    1.04
 -15   5   0   27.64    1.34
  15   5   0   24.01    1.14
  15   5   0   25.03    1.26
 -17  -5   0    4.05    0.69
  17  -5   0    3.49    0.68
  17  -5   0    3.40    0.54
 -17  -5   0    3.85    0.59
  17   5   0    3.11    0.56
 -17   5   0    3.78    0.68
  17   5   0    3.44    0.79
 -19  -5   0   21.25    1.09
  19  -5   0   20.83    1.18
  19  -5   0   21.11    1.03
  19  -5   0   21.85    1.20
 -19  -5   0   20.61    1.12
 -19   5   0   22.70    1.46
  19   5   0   20.77    1.17
  21  -5   0    2.07    0.50
 -21  -5   0    2.34    0.53
  21  -5   0    2.32    0.58
 -21  -5   0    1.85    0.54
  21   5   0    1.00    0.67
  21   5   0    2.24    0.70
   0  -6   0  455.20   11.45
   0  -6   0  428.20   11.18
   0  -6   0  429.35   11.22
   0   6   0  424.13   11.16
   2  -6   0   64.52    1.98
   2  -6   0   62.27    1.99
  -2  -6   0   64.08    1.99
  -2  -6   0   63.01    1.97
  -2  -6   0   63.27    1.97
   2  -6   0   63.31    1.97
  -2   6   0   62.86    1.93
  -2   6   0   63.92    2.01
   2   6   0   65.06    1.99
  -4  -6   0  161.33    4.39
   4  -6   0  163.88    4.41
  -4  -6   0  162.91    4.42
   4  -6   0  159.47    4.39
  -4  -6   0  159.75    4.42
   4   6   0  157.12    4.47
  -4   6   0  160.06    4.45
   4   6   0  158.45    4.38
  -6  -6   0  104.87    3.07
  -6  -6   0  106.95    3.02
   6  -6   0  107.14    3.04
   6  -6   0  104.61    3.06
   6   6   0  102.87    3.09
  -6   6   0  104.89    3.11
   6   6   0  105.44    3.04
  -8  -6   0  120.29    3.45
  -8  -6   0  118.33    3.37
   8  -6   0  120.99    3.44
   8  -6   0  120.36    3.40
  -8   6   0  117.07    3.51
   8   6   0  120.24    3.50
   8   6   0  117.72    3.41
  10  -6   0   29.73    1.18
 -10  -6   0   29.90    1.14
  10  -6   0   28.90    1.21
 -10  -6   0   28.78    1.21
 -10   6   0   29.38    1.30
  10   6   0   29.37    1.19
  10   6   0   29.86    1.27
 -12  -6   0   83.71    2.58
  12  -6   0   81.92    2.58
 -12  -6   0   80.33    2.47
 -12   6   0   82.85    2.70
  12   6   0   78.67    2.53
  12   6   0   81.35    2.64
  14  -6   0   27.63    1.32
 -14  -6   0   27.30    1.15
 -14  -6   0   28.06    1.22
  14   6   0   27.98    1.33
  14   6   0   27.09    1.21
 -14   6   0   26.43    1.38
  16  -6   0   11.02    0.75
 -16  -6   0   10.92    0.82
  16  -6   0   13.16    0.97
 -16  -6   0   12.14    0.78
  16   6   0    9.83    0.92
 -16   6   0   11.10    1.04
  18  -6   0   22.28    1.25
 -18  -6   0   21.54    1.10
  18  -6   0   21.20    1.31
 -18  -6   0   19.70    1.09
  18  -6   0   21.12    1.05
 -18   6   0   20.82    1.46
  18   6   0   23.34    1.19
 -20  -6   0    7.82    0.88
  20  -6   0    8.03    0.77
  20  -6   0    8.11    0.97
 -20  -6   0    7.50    0.86
  20   6   0    6.95    1.08
  20   6   0    8.23    1.09
  -1  -7   0  118.67    3.44
   1  -7   0  120.34    3.44
  -1  -7   0  120.02    3.44
  -1  -7   0  120.16    3.45
   1  -7   0  122.01    3.44
   1  -7   0  117.64    3.44
   1   7   0  117.03    3.41
  -1   7   0  118.74    3.39
   3  -7   0  141.44    4.01
  -3  -7   0  140.83    4.02
  -3  -7   0  147.45    4.03
  -3  -7   0  143.03    4.04
   3  -7   0  142.26    4.02
  -3   7   0  140.89    4.06
   3   7   0  142.43    4.03
   5  -7   0  112.80    3.28
  -5  -7   0  111.93    3.27
  -5  -7   0  114.04    3.33
  -5  -7   0  112.81    3.31
   5  -7   0  113.34    3.30
  -5   7   0  114.78    3.37
   5   7   0  109.86    3.29
   5   7   0  113.60    3.34
   7  -7   0  128.67    3.60
   7  -7   0  124.42    3.62
  -7  -7   0  126.23    3.64
  -7  -7   0  123.51    3.56
  -7   7   0  122.00    3.70
   7   7   0  123.76    3.66
   7   7   0  123.27    3.59
  -9  -7   0   27.09    1.13
  -9  -7   0   28.83    1.22
   9  -7   0   26.56    1.15
   9  -7   0   26.58    1.17
  -9   7   0   25.09    1.25
   9   7   0   27.59    1.25
   9   7   0   27.15    1.18
 -11  -7   0   64.88    2.08
 -11  -7   0   65.36    2.19
  11  -7   0   65.48    2.15
  11   7   0   63.59    2.25
  11   7   0   65.09    2.17
 -11   7   0   64.23    2.30
  13  -7   0   26.81    1.26
 -13  -7   0   28.99    1.29
 -13  -7   0   28.07    1.18
 -13   7   0   28.03    1.43
  13   7   0   29.65    1.38
  13   7   0   28.27    1.24
 -15  -7   0   28.04    1.31
 -15  -7   0   28.65    1.22
  15  -7   0   27.45    1.38
  15  -7   0   30.85    1.46
 -15   7   0   27.61    1.53
 -17  -7   0   11.14    0.81
 -17  -7   0    8.55    0.84
  17  -7   0    9.60    0.98
  17   7   0    8.84    0.82
 -17   7   0    9.10    1.15
  17   7   0    9.94    1.00
  19  -7   0   16.94    0.98
 -19  -7   0   13.90    1.02
 -19  -7   0   12.92    1.04
  19  -7   0   15.57    1.18
  19   7   0   14.88    1.28
   0  -8   0  135.57    3.86
   0  -8   0  133.01    3.90
   0   8   0  131.84    3.99
  -2  -8   0   14.83    0.91
  -2  -8   0   13.81    0.82
   2  -8   0   11.33    1.01
  -2  -8   0   14.12    0.83
   2  -8   0   15.66    0.86
   2  -8   0   13.49    0.81
   2   8   0   13.17    0.81
  -4  -8   0   30.14    1.25
   4  -8   0   28.84    1.22
  -4  -8   0   28.38    1.21
   4  -8   0   28.08    1.23
  -4  -8   0   28.74    1.25
   4   8   0   29.19    1.24
  -4   8   0   28.09    1.28
   6  -8   0   31.76    1.33
  -6  -8   0   33.25    1.31
  -6  -8   0   32.96    1.36
  -6  -8   0   32.32    1.36
   6  -8   0   32.32    1.34
   6   8   0   32.36    1.36
  -6   8   0   30.97    1.40
  -8  -8   0   33.39    1.35
  -8  -8   0   35.10    1.44
   8  -8   0   34.89    1.41
   8  -8   0   33.56    1.39
  -8  -8   0   34.69    1.43
  -8   8   0   32.87    1.48
 -10  -8   0    7.93    0.66
 -10  -8   0    8.09    0.76
  10  -8   0    7.39    0.95
  10  -8   0    8.98    0.78
 -10   8   0    8.36    0.85
 -12  -8   0   25.20    1.15
 -12  -8   0   27.59    1.30
 -12   8   0   25.39    1.39
  12   8   0   22.72    1.39
  14  -8   0    7.64    0.85
 -14  -8   0    8.10    0.74
 -14  -8   0    9.01    0.86
  14   8   0    6.49    1.02
 -14   8   0    7.70    1.02
  14   8   0    9.35    0.81
 -16  -8   0    2.63    0.52
  16  -8   0    3.18    0.67
  16  -8   0    3.37    0.64
 -16  -8   0    3.48    0.62
  16   8   0    3.15    0.65
  16   8   0    4.52    0.65
 -16   8   0    3.66    0.83
 -18  -8   0    9.55    1.18
  18  -8   0    7.96    1.04
  18  -8   0    8.57    0.99
   1  -9   0   54.95    1.99
  -1  -9   0   55.09    1.98
  -1  -9   0   54.28    1.96
   1  -9   0   54.82    1.95
   1  -9   0   55.56    1.98
  -1  -9   0   56.47    2.00
   1   9   0   55.71    1.92
  -1   9   0   54.84    1.91
  -3  -9   0   43.63    1.69
  -3  -9   0   42.17    1.89
   3  -9   0   44.18    1.69
   3  -9   0   42.62    1.66
   3  -9   0   44.87    1.73
  -3  -9   0   43.70    1.66
   3   9   0   42.25    1.64
   5  -9   0   43.81    1.70
   5  -9   0   44.84    1.74
   5  -9   0   45.79    1.82
  -5  -9   0   45.16    1.75
  -5  -9   0   44.90    1.74
  -5  -9   0   45.13    1.69
   5   9   0   44.54    1.71
  -7  -9   0   54.48    2.00
  -7  -9   0   53.31    1.92
  -7  -9   0   56.72    2.04
   7  -9   0   53.72    1.95
   7  -9   0   52.48    1.96
  -7   9   0   54.23    2.05
   9  -9   0   13.70    0.90
  -9  -9   0   15.62    0.94
  -9  -9   0   15.15    1.01
  -9  -9   0   14.32    1.00
   9  -9   0   14.17    0.98
  -9   9   0   14.26    1.06
 -11  -9   0   22.23    1.26
 -11  -9   0   24.30    1.28
  11  -9   0   23.70    1.25
 -11  -9   0   24.18    1.16
 -11   9   0   24.43    1.41
 -13  -9   0   15.98    1.13
  13  -9   0   14.47    1.05
 -13  -9   0   15.43    0.96
 -13   9   0   16.39    1.27
  13   9   0   17.21    1.12
  13   9   0   15.35    1.31
 -15  -9   0   11.67    1.07
  15  -9   0   11.76    1.02
  15  -9   0   12.58    1.14
 -15  -9   0   10.66    0.92
  15   9   0   10.39    0.99
  15   9   0   13.27    1.17
 -15   9   0   10.32    1.33
  17  -9   0    4.55    0.76
  17  -9   0    6.84    1.11
   0 -10   0   84.01    2.80
   0 -10   0   86.57    2.85
   0 -10   0   87.40    2.86
   0  10   0   89.10    2.79
  -2 -10   0   48.67    1.86
   2 -10   0   46.34    1.83
   2 -10   0   48.69    1.88
  -2 -10   0   48.40    1.88
   2 -10   0   47.26    1.88
  -2 -10   0   45.72    1.83
   2  10   0   46.48    1.78
   4 -10   0   61.14    2.28
  -4 -10   0   61.46    2.21
   4 -10   0   59.48    2.15
  -4 -10   0   60.24    2.15
  -4 -10   0   59.93    2.20
   4 -10   0   60.24    2.20
   4  10   0   60.96    2.16
   6 -10   0   48.72    1.91
   6 -10   0   46.53    1.85
  -6 -10   0   48.37    1.85
  -6 -10   0   49.37    1.94
   6 -10   0   49.77    2.01
  -6 -10   0   48.38    1.91
   8 -10   0   36.38    1.60
  -8 -10   0   35.47    1.62
   8 -10   0   36.32    1.54
  -8 -10   0   35.39    1.61
  -8 -10   0   36.19    1.52
  -8  10   0   34.83    1.69
 -10 -10   0   21.56    1.18
 -10 -10   0   22.08    1.29
  10 -10   0   22.27    1.27
 -10 -10   0   20.94    1.27
  10 -10   0   22.01    1.20
 -10  10   0   21.44    1.38
 -12 -10   0   28.48    1.37
  12 -10   0   29.40    1.44
 -12 -10   0   27.36    1.42
  12 -10   0   30.22    1.48
 -12 -10   0   29.19    1.50
  12  10   0   25.67    1.47
 -12  10   0   23.35    1.66
  12  10   0   26.98    1.44
 -14 -10   0   10.72    1.04
  14 -10   0   12.94    1.12
 -16 -10   0    5.75    0.83
  16 -10   0    6.46    1.56
  16 -10   0    7.02    1.07
  -1 -11   0   23.22    1.32
   1 -11   0   23.58    1.27
   1 -11   0   23.51    1.33
   1 -11   0   24.26    1.35
  -1 -11   0   24.98    1.30
  -1 -11   0   26.01    1.34
   1  11   0   24.34    1.24
   3 -11   0   11.34    1.04
  -3 -11   0   10.68    1.01
  -3 -11   0   11.01    0.96
  -3 -11   0   12.40    0.99
   3 -11   0   12.88    1.03
   3 -11   0   11.97    0.97
   3  11   0   11.43    0.90
  -5 -11   0   14.21    1.10
   5 -11   0   14.18    1.03
   5 -11   0   12.03    1.03
  -5 -11   0   13.25    0.99
   5 -11   0   14.04    1.19
  -5 -11   0   15.31    1.08
   5  11   0   14.78    1.03
  -7 -11   0   22.09    1.27
  -7 -11   0   22.01    1.25
   7 -11   0   21.43    1.30
   7 -11   0   21.80    1.43
  -7 -11   0   20.22    1.31
   7  11   0   23.08    1.85
  -9 -11   0    6.86    0.92
  -9 -11   0    6.27    0.89
   9 -11   0    9.60    1.17
  -9 -11   0    6.04    0.86
   9 -11   0    7.10    0.85
   9 -11   0    6.58    0.95
   9  11   0    6.41    1.17
  11 -11   0    8.46    1.05
 -11 -11   0    7.73    1.00
  13 -11   0    8.78    1.12
 -13 -11   0    5.80    0.80
   0 -12   0   17.74    1.21
   0 -12   0   20.34    1.32
   0 -12   0   20.34    1.35
  -2 -12   0   10.16    1.02
   2 -12   0   12.76    1.01
   2 -12   0   10.84    1.13
  -2 -12   0   10.53    1.12
  -2 -12   0   10.22    1.05
   2 -12   0   10.58    1.15
   2  12   0   10.91    0.95
  -4 -12   0   13.27    1.20
   4 -12   0   14.44    1.06
   4 -12   0   12.41    1.25
   4 -12   0   14.26    1.20
  -4 -12   0   12.12    1.04
  -4 -12   0   12.04    1.11
   4  12   0   13.58    1.04
  -6 -12   0   11.20    1.08
   6 -12   0   11.15    1.04
   6 -12   0   12.88    1.33
   6 -12   0   11.97    1.16
  -6 -12   0   13.30    1.60
   8 -12   0   10.74    1.38
  -8 -12   0    8.43    0.99
   8 -12   0    6.68    1.09
  10 -12   0    5.72    0.90
  10 -12   0    5.36    1.01
 -10 -12   0    5.55    1.01
  -1 -13   0   22.99    1.44
   1 -13   0   21.95    1.42
   1 -13   0   29.31    2.75
  -3 -13   0   20.80    1.40
   3 -13   0   18.19    1.58
  -5 -13   0   16.50    1.29
   5 -13   0   18.12    1.56
  24   0  -1    2.51    0.65
 -24   0   1    2.08    0.70
 -22   0   1   21.95    1.27
  22   0  -1   16.65    1.10
  22   0  -1   19.24    1.05
 -20   0   1   13.02    0.96
  20   0  -1   14.26    0.94
  20   0  -1   13.27    0.86
 -18   0   1   70.86    2.26
  18   0  -1   60.23    2.07
  18   0  -1   61.59    2.08
  16   0  -1   13.46    0.73
  16   0  -1   14.38    0.77
  16   0  -1   13.91    0.67
  14   0  -1  204.06    5.62
  14   0  -1  209.77    5.67
 -14   0   1  231.17    5.81
 -14   0   1  212.45    5.65
  14   0  -1  213.94    5.71
  12   0  -1   16.38    0.69
 -12   0   1   17.11    0.77
 -12   0   1   17.59    0.67
  12   0  -1   16.49    0.68
  12   0  -1   16.76    0.72
  10   0  -1  172.84    4.63
 -10   0   1  180.79    4.66
 -10   0   1  178.42    4.56
 -10   0   1  174.53    4.57
  10   0  -1  172.58    4.58
  10   0  -1  174.74    4.63
  -8   0   1  241.95    6.37
  -8   0   1  249.62    6.37
   8   0  -1  243.31    6.32
   8   0  -1  247.82    6.36
   8   0  -1  252.58    6.39
  -8   0   1  252.37    6.34
   6   0  -1  292.10    7.76
   6   0  -1  302.81    7.79
  -6   0   1  321.50    7.81
  -6   0   1  294.63    7.88
  -6   0   1  309.16    7.88
   6   0  -1  311.58    7.78
  -4   0   1  229.78    5.70
   4   0  -1  232.17    5.66
   4   0  -1  221.30    5.88
  -4   0   1  234.56    5.90
   4   0  -1  212.52    5.59
  -4   0   1  189.79    5.68
   2   0  -1  278.19    8.28
  -2   0   1  322.49    8.07
   0   0  -1  245.96    7.42
   0   0   1  314.70    7.39
   2   0   1  158.41    4.32
  -2   0  -1  171.98    4.33
   2   0   1  173.40    4.34
  -4   0  -1  869.15   23.59
  -4   0  -1 1000.00   23.70
   4   0   1  879.87   23.72
  -6   0  -1   87.97    2.47
   6   0   1   88.62    2.47
   6   0   1   84.86    2.42
  -6   0  -1   87.09    2.42
   8   0   1  233.96    6.16
   8   0   1  236.56    6.20
  -8   0  -1  236.65    6.22
  -8   0  -1  231.35    6.14
 -10   0  -1   74.86    2.28
  10   0   1   72.84    2.20
  10   0   1   72.59    2.24
  12   0   1  283.07    7.54
  12   0   1  281.92    7.57
 -12   0  -1  290.12    7.63
 -14   0  -1    9.92    0.77
  14   0   1    9.31    0.72
  14   0   1    9.61    0.69
  16   0   1   83.27    2.65
 -16   0  -1   81.91    2.72
 -18   0  -1   16.69    1.09
  18   0   1   15.72    1.03
  18   0   1   15.79    0.98
  20   0   1   12.41    0.91
 -20   0  -1   11.67    1.04
  20   0   1   11.21    1.00
 -22   0  -1    7.41    1.07
 -23  -1   1    3.15    0.64
  23  -1  -1    2.73    0.57
  23  -1  -1    2.64    0.53
  23   1  -1    2.41    0.50
 -23   1   1    2.82    0.67
  23   1  -1    2.40    0.62
  21  -1  -1   16.24    1.03
 -21  -1   1   15.20    1.03
 -21   1   1   17.12    1.14
  21   1  -1   17.07    1.07
  19  -1  -1   22.35    0.98
 -19  -1   1   25.83    1.08
  19  -1  -1   25.06    1.12
 -19  -1   1   27.20    1.25
  19  -1  -1   22.63    1.09
 -19   1   1   27.82    1.32
  19   1  -1   23.80    1.18
  19   1  -1   25.42    1.14
  17  -1  -1    8.66    0.63
 -17  -1   1   10.62    0.77
 -17  -1   1    9.91    0.62
  17  -1  -1   10.38    0.70
  17  -1  -1    9.79    0.62
 -17   1   1    9.72    0.80
  17   1  -1    9.39    0.68
  17   1  -1    8.92    0.67
 -15  -1   1   57.74    1.88
  15  -1  -1   59.16    1.84
 -15  -1   1   63.76    1.99
  15  -1  -1   56.91    1.84
  15  -1  -1   58.33    1.91
  15   1  -1   56.86    1.88
 -15   1   1   64.37    2.03
  15   1  -1   58.98    1.89
  13  -1  -1   39.89    1.37
 -13  -1   1   41.95    1.20
 -13  -1   1   43.01    1.42
  13  -1  -1   38.49    1.35
 -13  -1   1   40.01    1.30
  13  -1  -1   41.28    1.31
  13   1  -1   38.55    1.34
  13   1  -1   40.79    1.35
 -13   1   1   43.31    1.45
  11  -1  -1  136.37    3.81
 -11  -1   1  148.76    3.84
  11  -1  -1  141.35    3.81
 -11  -1   1  140.77    3.67
 -11  -1   1  136.69    3.74
  11  -1  -1  138.47    3.73
  11   1  -1  143.08    3.78
  11   1  -1  140.47    3.79
 -11   1   1  141.04    3.84
  -9  -1   1    1.08    0.18
   9  -1  -1    1.03    0.16
  -9  -1   1    1.01    0.17
  -9  -1   1    0.95    0.19
   9  -1  -1    1.00    0.20
  -9   1   1    1.24    0.20
   9   1  -1    1.13    0.18
   9   1  -1    1.08    0.19
   7  -1  -1  369.98    9.32
  -7  -1   1  378.95    9.70
   7  -1  -1  358.45    9.39
   7  -1  -1  348.53    9.45
  -7  -1   1  387.31    9.67
  -7  -1   1  375.47    9.37
  -7   1   1  365.78    9.33
  -7   1   1  363.79    9.35
   7   1  -1  364.16    9.48
   7   1  -1  370.61    9.47
  -5  -1   1   15.95    0.48
   5  -1  -1   16.58    0.59
   5  -1  -1   15.12    0.46
  -5  -1   1   15.74    0.53
  -5  -1   1   15.79    0.56
   5  -1  -1   16.06    0.52
   5   1  -1   15.45    0.48
  -5   1   1   15.65    0.57
  -5   1   1   16.11    0.52
   5   1  -1   15.58    0.53
  -3  -1   1  408.76   10.25
   3  -1  -1  421.05   10.01
   3   1  -1  398.39   10.03
  -3   1   1  323.84   10.19
   1  -1  -1  143.17    3.82
  -1  -1   1  144.96    3.76
   1  -1  -1  160.10    3.82
   1  -1  -1  142.46    3.91
  -1   1   1  157.40    3.87
  -1   1   1  148.16    3.90
   1   1  -1  148.58    3.83
  -1   1   1  139.44    3.81
  -1  -1  -1  431.04   10.80
  -1  -1  -1  421.67   10.76
   1  -1   1  387.84   10.73
   1   1   1  421.62   10.74
   1   1   1  389.54   10.59
  -3  -1  -1   18.24    0.61
   3  -1   1   18.37    0.65
  -3  -1  -1   19.15    0.55
   3   1   1   18.84    0.63
  -3   1  -1   19.54    0.67
   3   1   1   18.54    0.55
   5  -1   1  373.95    9.90
  -5  -1  -1  402.06   10.31
  -5  -1  -1  395.88    9.86
   5   1   1  396.37    9.88
  -5   1  -1  371.59    9.92
   5   1   1  387.54    9.99
   7  -1   1  134.58    3.69
  -7  -1  -1  137.83    3.71
   7  -1   1  138.15    3.75
  -7  -1  -1  136.26    3.67
  -7   1  -1  139.91    3.80
   7   1   1  139.35    3.73
   7   1   1  135.99    3.71
  -9  -1  -1  102.30    2.88
   9  -1   1  101.83    2.90
  -9  -1  -1  103.62    2.94
   9  -1   1  102.00    2.96
   9   1   1  104.58    2.94
   9   1   1  102.69    2.95
  -9   1  -1  105.88    3.02
  11  -1   1  118.05    3.28
 -11  -1  -1  114.80    3.33
 -11  -1  -1  114.34    3.25
  11  -1   1  114.55    3.34
  11   1   1  114.90    3.33
 -11   1  -1  122.12    3.43
  11   1   1  115.10    3.34
  13  -1   1   29.91    1.42
 -13  -1  -1   32.77    1.30
  13  -1   1   30.88    1.00
  13  -1   1   32.41    1.23
 -13  -1  -1   31.17    1.19
  13   1   1   30.65    1.27
 -13   1  -1   33.61    1.37
  13   1   1   31.15    1.31
 -15  -1  -1   23.81    1.08
  15  -1   1   25.15    0.85
  15  -1   1   26.03    1.13
  15  -1   1   26.51    1.17
 -15  -1  -1   24.49    1.18
 -15   1  -1   26.08    1.27
  15   1   1   24.50    1.15
  15   1   1   24.36    1.23
  17  -1   1   18.85    1.05
  17  -1   1   18.99    1.02
 -17  -1  -1   19.19    1.11
  17   1   1   17.60    1.08
 -17   1  -1   20.74    1.43
  17   1   1   18.49    1.04
 -19  -1  -1   27.78    1.38
  19  -1   1   27.56    1.32
  19   1   1   28.40    1.42
 -19   1  -1   27.96    1.44
 -21  -1  -1    0.81    0.55
  21  -1   1    0.64    0.49
  21  -1   1    0.67    0.46
  21   1   1   -0.36    0.52
 -21   1  -1    1.03    0.58
  21   1   1    1.04    0.47
  23   1   1    6.92    1.12
  24  -2  -1    0.69    0.56
 -24  -2   1    1.09    0.54
 -24   2   1    0.65    0.77
  24   2  -1    1.94    0.69
 -22  -2   1   11.97    0.80
  22  -2  -1    9.00    0.72
  22  -2  -1    9.37    0.82
 -22  -2   1   10.38    0.91
  22   2  -1    9.30    0.97
 -22   2   1    9.45    1.05
  22   2  -1    8.88    0.82
 -20  -2   1    9.52    0.78
 -20  -2   1    9.28    0.83
  20  -2  -1    9.90    0.71
  20  -2  -1    9.52    0.76
  20   2  -1    9.40    0.88
  20   2  -1    9.44    0.79
 -20   2   1   11.30    1.00
 -18  -2   1   36.97    1.63
  18  -2  -1   42.30    1.54
 -18  -2   1   42.84    1.58
  18  -2  -1   38.52    1.44
  18  -2  -1   40.75    1.44
  18   2  -1   40.02    1.50
  18   2  -1   34.63    1.71
 -18   2   1   42.37    1.68
 -16  -2   1    0.98    0.29
  16  -2  -1    1.29    0.33
  16  -2  -1    0.91    0.32
 -16  -2   1    0.66    0.33
  16  -2  -1    0.59    0.27
  16   2  -1    1.29    0.36
 -16   2   1    0.69    0.37
  16   2  -1    0.44    0.30
  14  -2  -1  119.79    3.33
  14  -2  -1  119.89    3.44
 -14  -2   1  126.61    3.45
 -14  -2   1  123.27    3.37
  14  -2  -1  117.06    3.44
 -14  -2   1  121.57    3.18
  14   2  -1  117.67    3.44
 -14   2   1  126.51    3.55
  14   2  -1  121.56    3.40
  12  -2  -1    4.10    0.42
  12  -2  -1    3.78    0.33
 -12  -2   1    4.11    0.40
  12  -2  -1    4.54    0.41
 -12  -2   1    4.25    0.28
 -12  -2   1    4.28    0.38
 -12   2   1    4.44    0.43
  12   2  -1    3.67    0.37
 -10  -2   1   66.88    1.87
 -10  -2   1   68.84    1.93
  10  -2  -1   65.35    1.88
  10  -2  -1   64.62    2.03
 -10  -2   1   70.17    1.96
  10  -2  -1   69.02    1.99
 -10   2   1   71.41    2.03
  10   2  -1   66.83    1.99
  10   2  -1   67.38    1.92
  -8  -2   1   87.72    2.41
   8  -2  -1   86.02    2.50
  -8  -2   1   86.95    2.39
   8  -2  -1   88.88    2.41
   8  -2  -1   82.08    2.32
  -8  -2   1   89.55    2.36
  -8   2   1   88.69    2.44
   8   2  -1   89.57    2.36
   8   2  -1   88.08    2.44
   6  -2  -1  115.18    3.03
  -6  -2   1  115.08    3.05
  -6  -2   1  115.18    2.98
   6  -2  -1  111.71    3.12
   6   2  -1  114.22    2.99
  -6   2   1  116.18    3.05
   6   2  -1  112.71    3.06
  -4  -2   1   11.35    0.39
   4  -2  -1   10.21    0.47
  -4  -2   1   11.52    0.44
   4  -2  -1   11.06    0.42
   4  -2  -1   10.86    0.36
   4   2  -1   10.62    0.39
  -4   2   1   11.21    0.43
   4   2  -1   10.57    0.44
   2  -2  -1  120.20    3.11
  -2  -2   1  119.28    3.13
   2  -2  -1  117.61    3.10
  -2  -2   1  119.85    3.09
   2   2  -1  115.66    3.12
  -2   2   1  120.82    3.06
   2   2  -1  120.79    3.09
   0  -2  -1  280.84    7.05
   0  -2  -1  271.68    6.96
   0  -2   1  260.73    6.87
   0  -2  -1  278.51    7.29
   0   2  -1  263.91    7.04
   0   2   1  267.26    7.10
   0   2   1  274.39    7.18
  -2  -2  -1    2.61    0.21
   2  -2   1    2.31    0.21
  -2  -2  -1    2.50    0.19
  -2  -2  -1    2.37    0.20
   2   2   1    2.53    0.20
   2   2   1    3.03    0.22
  -2   2  -1    2.53    0.23
  -4  -2  -1  436.76   11.10
  -4  -2  -1  413.21   10.87
  -4  -2  -1  437.57   10.80
   4  -2   1  405.74   10.54
   4   2   1  420.18   10.86
  -4   2  -1  385.86   10.55
   4   2   1  405.33   10.73
  -6  -2  -1   33.31    1.09
   6  -2   1   34.59    1.15
  -6  -2  -1   34.01    1.10
  -6  -2  -1   34.98    0.93
   6   2   1   34.82    1.13
   6   2   1   34.38    1.14
  -6   2  -1   34.24    1.17
  -8  -2  -1  154.83    4.23
   8  -2   1  161.09    4.33
  -8  -2  -1  160.16    4.25
  -8   2  -1  157.39    4.35
   8   2   1  160.29    4.31
   8   2   1  157.12    4.28
 -10  -2  -1   11.22    0.58
  10  -2   1   10.60    0.63
  10  -2   1   10.59    0.57
 -10  -2  -1   11.24    0.61
 -10   2  -1   11.23    0.70
  10   2   1   10.37    0.63
  10   2   1   10.12    0.61
 -12  -2  -1  149.24    4.17
  12  -2   1  149.21    4.26
 -12  -2  -1  153.64    4.23
  12  -2   1  156.93    4.19
  12   2   1  146.75    4.26
 -12   2  -1  157.37    4.38
  12   2   1  149.12    4.28
 -14  -2  -1    2.97    0.45
  14  -2   1    2.25    0.36
  14  -2   1    1.99    0.39
  14  -2   1    2.50    0.41
 -14  -2  -1    2.19    0.41
  14   2   1    1.67    0.39
  14   2   1    2.37    0.46
 -14   2  -1    2.40    0.47
  16  -2   1   46.38    1.50
 -16  -2  -1   48.44    1.79
  16  -2   1   50.72    1.95
 -16  -2  -1   47.11    1.69
  16  -2   1   48.26    1.70
  16   2   1   45.43    1.77
 -16   2  -1   47.83    1.91
  16   2   1   45.51    1.81
 -18  -2  -1    9.28    0.76
 -18  -2  -1    8.95    0.87
  18  -2   1    8.31    0.55
  18  -2   1    8.41    0.78
 -18   2  -1    8.48    0.95
  18   2   1    8.69    0.89
  20  -2   1    6.40    0.77
  20  -2   1    7.84    0.79
  20  -2   1    7.25    0.50
 -20  -2  -1    6.41    0.88
  20   2   1    7.51    0.85
  20   2   1    8.86    0.98
 -20   2  -1    7.60    1.02
 -22  -2  -1    2.77    0.75
  22  -2   1    2.86    0.61
  22   2   1    2.79    0.66
 -23  -3   1    6.09    0.87
  23  -3  -1    5.50    0.71
  23  -3  -1    5.78    0.77
 -23  -3   1    7.19    0.72
 -23   3   1    8.36    1.22
  23   3  -1    6.18    0.92
 -21  -3   1   18.30    1.00
  21  -3  -1   18.72    1.04
  21  -3  -1   16.22    0.96
 -21  -3   1   17.09    1.05
  21  -3  -1   16.38    0.99
  21   3  -1   18.54    1.22
  21   3  -1   17.22    1.16
 -21   3   1   17.59    1.25
 -19  -3   1   20.74    1.01
  19  -3  -1   22.51    1.13
  19  -3  -1   20.90    1.05
 -19  -3   1   21.65    1.08
  19  -3  -1   21.23    0.98
  19   3  -1   20.50    1.05
 -19   3   1   20.50    1.23
  19   3  -1   21.73    1.18
 -17  -3   1   21.61    1.01
  17  -3  -1   22.57    1.07
  17  -3  -1   22.30    0.93
  17  -3  -1   21.65    1.05
 -17  -3   1   22.95    1.05
  17   3  -1   21.62    1.02
  17   3  -1   21.35    1.11
 -17   3   1   23.38    1.20
 -15  -3   1   93.70    2.52
 -15  -3   1   95.07    2.77
  15  -3  -1   93.71    2.92
  15  -3  -1   96.09    2.85
  15  -3  -1   95.03    2.68
 -15   3   1  101.12    2.99
  15   3  -1   91.25    2.86
  15   3  -1   93.24    2.77
 -13  -3   1   55.11    1.59
 -13  -3   1   56.53    1.77
  13  -3  -1   54.17    1.85
  13  -3  -1   55.45    1.66
  13  -3  -1   56.99    1.82
 -13  -3   1   57.58    1.75
  13   3  -1   55.03    1.83
  13   3  -1   55.24    1.74
 -13   3   1   58.90    1.90
  11  -3  -1  140.10    3.91
 -11  -3   1  152.80    3.98
  11  -3  -1  149.75    4.05
  11  -3  -1  144.27    4.14
 -11  -3   1  155.82    4.05
 -11  -3   1  146.84    3.92
 -11   3   1  153.44    4.12
  11   3  -1  146.00    4.08
  11   3  -1  148.12    3.99
  -9  -3   1   31.31    0.99
   9  -3  -1   30.92    1.06
   9  -3  -1   29.51    1.14
  -9  -3   1   31.83    1.07
   9   3  -1   31.49    1.10
   9   3  -1   30.42    1.01
  -9   3   1   30.74    1.09
   7  -3  -1  406.90   10.18
   7  -3  -1  376.80   10.28
  -7  -3   1  407.65   10.20
  -7  -3   1  410.49   10.11
  -7   3   1  397.90   10.20
   7   3  -1  403.14   10.22
   7   3  -1  390.74   10.12
   5  -3  -1   39.19    1.20
  -5  -3   1   38.82    1.22
   5  -3  -1   39.82    1.12
  -5  -3   1   39.16    1.15
   5  -3  -1   36.15    1.26
   5   3  -1   38.80    1.22
  -5   3   1   39.55    1.21
   5   3  -1   38.07    1.15
   3  -3  -1  589.52   14.68
  -3  -3   1  567.53   14.68
  -3  -3   1  588.66   14.87
   3  -3  -1  600.83   14.84
  -3  -3   1  552.85   14.84
   3   3  -1  550.41   14.73
  -3   3   1  592.49   14.93
  -3   3   1  574.57   14.69
   1  -3  -1  135.51    3.53
  -1  -3   1  136.33    3.52
   1  -3  -1  132.62    3.49
  -1  -3   1  131.79    3.54
   1   3  -1  133.20    3.52
  -1   3   1  134.06    3.53
   1   3  -1  127.91    3.53
  -1   3   1  133.64    3.49
   1  -3   1  411.89   10.78
  -1  -3  -1  440.93   10.94
  -1  -3  -1  419.57   10.96
   1  -3   1  412.05   10.92
   1   3   1  416.00   10.84
   1   3   1  408.63   10.76
  -1   3  -1  403.70   10.67
   3  -3   1  132.50    3.53
  -3  -3  -1  130.67    3.50
  -3  -3  -1  129.29    3.49
   3   3   1  132.06    3.52
   3   3   1  131.64    3.51
  -5  -3  -1  539.77   13.10
  -5  -3  -1  499.60   12.99
   5  -3   1  486.14   12.70
   5   3   1  507.78   12.86
   5   3   1  490.71   12.68
  -5   3  -1  473.18   12.72
   7  -3   1   94.10    2.71
  -7  -3  -1   94.86    2.67
  -7  -3  -1   94.36    2.65
  -7  -3  -1   96.66    2.49
   7   3   1   93.78    2.71
   7   3   1   95.22    2.69
  -7   3  -1   94.87    2.76
   9  -3   1  128.77    3.65
  -9  -3  -1  129.31    3.58
  -9  -3  -1  133.06    3.58
  -9   3  -1  132.34    3.72
   9   3   1  129.47    3.62
   9   3   1  126.84    3.65
 -11  -3  -1  181.72    4.94
  11  -3   1  184.61    5.05
 -11  -3  -1  182.54    4.94
  11   3   1  181.75    5.00
  11   3   1  179.68    5.04
 -11   3  -1  186.28    5.13
 -13  -3  -1   48.48    1.69
 -13  -3  -1   48.40    1.68
  13  -3   1   50.21    1.76
  13  -3   1   50.53    1.65
  13   3   1   44.85    1.84
 -13   3  -1   50.53    1.87
  13   3   1   50.10    1.75
  15  -3   1   31.78    1.24
  15  -3   1   30.62    1.18
 -15  -3  -1   30.85    1.25
  15  -3   1   32.29    1.56
 -15  -3  -1   30.18    1.30
 -15   3  -1   32.07    1.48
  15   3   1   30.03    1.32
  15   3   1   31.33    1.39
  17  -3   1   25.34    1.06
  17  -3   1   26.33    1.17
 -17  -3  -1   26.39    1.25
 -17  -3  -1   26.29    1.18
 -17   3  -1   28.59    1.46
  17   3   1   25.15    1.34
  17   3   1   26.99    1.28
  19  -3   1   23.03    1.02
 -19  -3  -1   23.61    1.29
  19  -3   1   25.76    1.20
 -19  -3  -1   26.01    1.22
  19   3   1   24.50    1.29
  19   3   1   25.12    1.38
 -19   3  -1   26.68    1.51
  21  -3   1    2.05    0.40
 -21  -3  -1    1.10    0.57
  21  -3   1    2.55    0.51
  21  -3   1    2.48    0.79
 -21  -3  -1    2.17    0.51
 -21   3  -1    1.40    0.72
  21   3   1    2.36    0.60
  21   3   1    1.30    0.63
  23   3   1   10.26    1.36
  22  -4  -1    7.17    0.79
 -22  -4   1    7.67    0.86
  22  -4  -1    9.59    0.96
 -22  -4   1    8.87    0.76
 -22   4   1    9.50    1.24
  22   4  -1    8.72    0.90
  20  -4  -1   14.17    0.84
 -20  -4   1   15.71    0.96
  20  -4  -1   15.53    0.99
  20  -4  -1   15.49    1.02
 -20  -4   1   15.64    0.89
 -20   4   1   17.10    1.24
  20   4  -1   15.02    1.10
  18  -4  -1   39.03    1.58
  18  -4  -1   39.71    1.36
 -18  -4   1   40.10    1.50
 -18  -4   1   38.11    1.47
  18  -4  -1   40.65    1.58
  18   4  -1   41.13    1.51
  18   4  -1   38.25    1.62
 -18   4   1   38.81    1.73
 -16  -4   1    3.56    0.28
 -16  -4   1    3.69    0.52
  16  -4  -1    3.56    0.62
  16  -4  -1    3.53    0.50
  16  -4  -1    3.09    0.41
 -16  -4   1    3.16    0.49
  16   4  -1    3.78    0.53
  16   4  -1    2.84    0.51
 -16   4   1    4.85    0.74
  14  -4  -1  108.38    2.98
  14  -4  -1  107.38    3.25
 -14  -4   1  109.54    3.13
  14  -4  -1  109.54    3.18
 -14  -4   1  106.57    2.92
  14   4  -1  105.89    3.08
  14   4  -1  104.75    3.21
 -14   4   1  111.39    3.29
  12  -4  -1   23.30    0.98
 -12  -4   1   23.45    0.97
  12  -4  -1   22.88    1.06
 -12  -4   1   24.31    0.90
  12   4  -1   22.97    1.02
 -12   4   1   24.02    1.06
  12   4  -1   23.15    0.93
 -10  -4   1   83.60    2.39
  10  -4  -1   86.16    2.49
 -10  -4   1   87.57    2.50
  10  -4  -1   80.39    2.59
  10   4  -1   87.41    2.55
 -10   4   1   86.81    2.55
  10   4  -1   83.60    2.43
  -8  -4   1  133.18    3.60
  -8  -4   1  137.29    3.71
   8  -4  -1  123.44    3.76
   8  -4  -1  136.95    3.58
   8  -4  -1  136.13    3.68
   8   4  -1  136.01    3.73
  -8   4   1  135.78    3.72
   8   4  -1  136.11    3.63
   6  -4  -1  150.53    3.93
  -6  -4   1  149.65    4.05
   6  -4  -1  150.39    4.02
  -6  -4   1  147.09    3.96
   6   4  -1  150.14    4.06
   6   4  -1  148.05    3.98
  -6   4   1  150.64    4.05
   4  -4  -1   39.50    1.24
  -4  -4   1   38.85    1.21
  -4  -4   1   38.19    1.21
   4  -4  -1   38.45    1.17
   4   4  -1   37.90    1.25
  -4   4   1   38.82    1.16
  -4   4   1   38.05    1.25
  -2  -4   1  196.56    5.17
   2  -4  -1  198.21    5.15
   2  -4  -1  197.44    5.14
  -2  -4   1  193.50    5.12
   2  -4  -1  197.00    5.10
  -2  -4   1  193.74    5.12
   2   4  -1  193.29    5.15
  -2   4   1  198.26    5.09
   2   4  -1  195.20    5.12
   0  -4  -1  368.72    9.45
   0  -4   1  375.07    9.48
   0  -4  -1  372.38    9.48
   0  -4   1  372.08    9.50
   0   4   1  367.12    9.45
   0   4  -1  366.10    9.48
   0   4   1  371.65    9.47
  -2  -4  -1   41.63    1.30
  -2  -4  -1   40.89    1.30
   2  -4   1   40.36    1.31
   2  -4   1   43.06    1.34
   2   4   1   41.23    1.31
  -2   4  -1   41.35    1.34
   2   4   1   40.71    1.31
  -4  -4  -1  318.17    8.29
  -4  -4  -1  328.59    8.32
   4  -4   1  326.65    8.34
   4   4   1  326.21    8.34
   4   4   1  318.93    8.32
  -4   4  -1  313.40    8.36
   6  -4   1   95.15    2.72
  -6  -4  -1   94.33    2.69
  -6  -4  -1   95.16    2.67
   6   4   1   96.06    2.70
   6   4   1   93.34    2.73
  -6   4  -1   92.56    2.76
  -8  -4  -1  180.42    4.91
   8  -4   1  187.38    5.01
  -8  -4  -1  188.50    4.96
   8   4   1  184.72    5.02
   8   4   1  179.45    4.96
  -8   4  -1  183.37    5.06
  10  -4   1   26.90    1.11
 -10  -4  -1   26.86    0.80
 -10  -4  -1   25.72    1.02
 -10  -4  -1   25.67    1.05
  10   4   1   26.75    1.12
  10   4   1   25.48    1.07
 -10   4  -1   27.64    1.39
  12  -4   1  122.18    3.59
 -12  -4  -1  121.42    3.48
  12   4   1  120.14    3.55
 -12   4  -1  125.61    3.71
 -14  -4  -1    9.79    0.71
 -14  -4  -1    9.38    0.70
  14  -4   1   10.23    0.70
  14  -4   1    8.49    0.81
 -14   4  -1    9.91    0.88
  14   4   1   10.23    0.81
  14   4   1    9.06    0.74
 -16  -4  -1   43.59    1.63
  16  -4   1   39.31    1.73
  16  -4   1   44.48    1.58
 -16  -4  -1   44.24    1.62
 -16   4  -1   43.00    1.87
  16   4   1   43.68    1.70
  16   4   1   43.04    1.77
  18  -4   1   13.15    0.86
  18  -4   1   12.09    0.82
 -18  -4  -1   11.93    0.87
 -18  -4  -1   12.66    0.93
 -18   4  -1   12.73    1.16
  18   4   1   13.21    1.07
  20  -4   1    7.94    0.81
 -20  -4  -1    8.21    0.96
  20  -4   1    7.56    0.74
  20  -4   1    8.08    0.91
 -20  -4  -1    8.59    0.83
  20   4   1    8.23    0.97
  20   4   1    6.95    1.01
 -20   4  -1   11.21    1.28
 -22  -4  -1    5.43    0.83
  22  -4   1    3.13    0.59
  22   4   1    2.58    0.84
 -21  -5   1    7.41    0.79
 -21  -5   1    7.68    0.78
  21  -5  -1    8.01    0.92
  21  -5  -1    8.72    0.94
  21  -5  -1    8.99    0.73
  21   5  -1    6.56    0.85
 -21   5   1    8.17    1.23
 -19  -5   1    9.64    0.77
  19  -5  -1   10.51    0.86
 -19  -5   1   10.55    0.78
  19  -5  -1   10.23    0.93
  19  -5  -1    9.35    0.68
 -19   5   1    9.56    1.05
  19   5  -1   10.23    0.95
  17  -5  -1    6.96    0.74
 -17  -5   1    6.15    0.65
 -17  -5   1    5.80    0.61
  17  -5  -1    8.17    0.83
  17  -5  -1    5.90    0.51
  17   5  -1    6.80    0.65
 -17   5   1    6.46    0.84
  17   5  -1    8.08    0.82
 -15  -5   1   33.83    1.34
  15  -5  -1   36.22    1.50
 -15  -5   1   33.00    1.11
  15  -5  -1   34.91    1.37
  15  -5  -1   33.91    1.17
 -15  -5   1   34.28    1.26
  15   5  -1   32.74    1.30
  15   5  -1   33.29    1.42
 -15   5   1   32.37    1.46
 -13  -5   1   17.96    0.96
  13  -5  -1   19.52    1.04
  13  -5  -1   20.40    0.95
 -13  -5   1   19.88    0.86
  13   5  -1   19.64    0.90
  13   5  -1   19.21    1.02
 -13   5   1   18.95    1.02
 -11  -5   1   43.39    1.40
  11  -5  -1   41.41    1.60
  11  -5  -1   42.26    1.38
 -11  -5   1   44.10    1.52
  11   5  -1   42.42    1.56
 -11   5   1   40.70    1.73
  11   5  -1   43.25    1.45
   9  -5  -1    3.60    0.37
  -9  -5   1    3.40    0.43
   9  -5  -1    3.87    0.43
  -9  -5   1    3.26    0.36
   9  -5  -1    3.48    0.48
   9   5  -1    3.60    0.39
  -9   5   1    3.75    0.47
   9   5  -1    3.25    0.44
  -7  -5   1  138.08    3.80
   7  -5  -1  135.31    3.76
  -7  -5   1  138.79    3.70
   7  -5  -1  135.16    3.67
   7   5  -1  134.44    3.81
  -7   5   1  138.35    3.81
   7   5  -1  133.30    3.71
  -5  -5   1    1.95    0.28
   5  -5  -1    1.83    0.29
  -5  -5   1    1.08    0.24
   5  -5  -1    1.54    0.24
  -5  -5   1    1.87    0.29
   5   5  -1    1.42    0.25
  -5   5   1    1.45    0.29
  -3  -5   1  162.00    4.48
   3  -5  -1  168.65    4.41
   3  -5  -1  162.61    4.46
  -3  -5   1  164.73    4.42
  -3  -5   1  164.82    4.43
   3  -5  -1  168.45    4.46
  -3   5   1  166.94    4.39
   3   5  -1  164.22    4.47
   1  -5  -1   32.11    1.07
  -1  -5   1   29.98    1.11
   1  -5  -1   30.86    1.10
   1  -5  -1   31.89    1.10
  -1  -5   1   31.66    1.09
  -1  -5   1   30.82    1.08
  -1   5   1   32.08    1.07
   1   5  -1   30.25    1.09
   1   5  -1   30.13    1.09
   1  -5   1  129.87    3.62
  -1  -5  -1  130.05    3.60
   1  -5   1  134.11    3.60
  -1  -5  -1  132.46    3.58
   1   5   1  128.01    3.59
   1   5   1  129.21    3.58
  -1   5  -1  131.81    3.62
   3  -5   1   11.58    0.60
  -3  -5  -1   11.03    0.57
  -3  -5  -1   10.45    0.57
   3  -5   1   11.26    0.61
   3   5   1   10.27    0.58
   3   5   1   10.82    0.58
  -3   5  -1   10.86    0.61
  -5  -5  -1  177.97    4.80
  -5  -5  -1  178.35    4.78
   5  -5   1  180.69    4.83
  -5   5  -1  176.17    4.88
   5   5   1  177.85    4.81
   5   5   1  175.37    4.83
   7  -5   1   29.07    1.12
  -7  -5  -1   28.07    1.09
  -7  -5  -1   28.54    1.07
   7   5   1   27.67    1.09
  -7   5  -1   27.73    1.16
   7   5   1   28.44    1.13
   9  -5   1   35.92    1.36
  -9  -5  -1   38.21    1.30
  -9  -5  -1   37.50    1.34
   9   5   1   35.21    1.39
   9   5   1   36.15    1.35
  -9   5  -1   34.92    1.43
  11  -5   1   62.60    2.11
 -11  -5  -1   61.98    2.04
 -11  -5  -1   65.24    1.78
 -11  -5  -1   63.31    2.01
  11   5   1   63.89    2.16
  11   5   1   62.66    2.08
 -11   5  -1   64.97    2.23
 -13  -5  -1   17.02    0.89
 -13  -5  -1   17.44    0.91
  13  -5   1   14.51    1.05
  13   5   1   18.16    0.97
  13   5   1   18.22    1.04
 -13   5  -1   17.79    1.08
 -15  -5  -1    9.58    0.76
 -15  -5  -1    9.94    0.75
  15  -5   1    9.54    0.88
  15   5   1    9.89    0.90
 -15   5  -1    9.52    0.95
  17  -5   1   11.48    0.84
 -17  -5  -1   10.89    0.84
 -17  -5  -1   11.71    0.86
  17  -5   1   13.24    0.92
 -17   5  -1   11.79    1.13
  19  -5   1   10.23    0.84
  19  -5   1    8.43    1.27
 -19  -5  -1   12.10    0.90
 -19  -5  -1   11.90    0.99
 -19   5  -1   12.68    1.29
  19   5   1   11.99    1.16
  19   5   1   10.80    1.06
  21  -5   1    0.88    0.55
  21  -5   1    1.33    0.48
 -21  -5  -1    0.60    0.48
  21   5   1    0.91    0.77
  22  -6  -1    7.57    1.08
 -22  -6   1    8.34    0.92
  22   6  -1    8.46    1.25
  20  -6  -1   11.34    0.77
 -20  -6   1   10.79    0.85
  20  -6  -1   12.09    1.06
 -20  -6   1    9.95    0.86
  20  -6  -1   10.83    1.05
  20   6  -1   11.69    1.10
 -20   6   1    9.80    1.24
  20   6  -1    9.72    0.89
 -18  -6   1   22.06    0.79
 -18  -6   1   22.03    1.05
 -18  -6   1   23.12    1.15
  18  -6  -1   22.82    0.98
  18  -6  -1   23.14    1.20
  18  -6  -1   23.65    1.31
 -18   6   1   26.57    1.46
  16  -6  -1    9.58    0.71
  16  -6  -1   10.16    0.64
 -16  -6   1   11.19    0.90
 -16  -6   1   10.55    0.70
  16  -6  -1   11.76    0.94
 -16  -6   1   10.88    0.58
 -16   6   1   11.89    0.98
  16   6  -1    9.49    0.73
  16   6  -1   11.16    0.90
  14  -6  -1   73.39    2.50
 -14  -6   1   74.18    2.37
  14  -6  -1   73.95    2.36
 -14  -6   1   72.77    2.22
  14  -6  -1   70.73    2.22
  14   6  -1   71.82    2.30
  14   6  -1   71.53    2.44
 -14   6   1   71.12    2.50
 -12  -6   1   23.88    1.09
  12  -6  -1   23.28    1.06
 -12  -6   1   23.42    0.97
  12  -6  -1   22.17    1.21
  12  -6  -1   22.86    0.97
  12   6  -1   22.37    1.01
 -12   6   1   23.40    1.17
  12   6  -1   23.48    1.14
  10  -6  -1   64.64    1.93
  10  -6  -1   65.62    2.03
  10  -6  -1   59.95    2.13
 -10   6   1   63.02    2.10
  10   6  -1   61.98    2.01
  10   6  -1   55.40    2.27
   8  -6  -1   99.52    2.87
  -8  -6   1  101.01    2.89
  -8  -6   1  103.21    3.02
   8  -6  -1   99.05    2.96
  -8  -6   1  104.22    2.97
  -8   6   1  102.32    3.04
   8   6  -1  101.62    3.02
   8   6  -1   99.50    2.92
   6  -6  -1  112.73    3.18
  -6  -6   1  111.49    3.29
  -6  -6   1  116.01    3.25
  -6  -6   1  113.84    3.21
   6  -6  -1  114.74    3.26
  -6   6   1  116.25    3.31
   6   6  -1  111.72    3.29
   4  -6  -1   76.69    2.33
   4  -6  -1   76.36    2.28
  -4  -6   1   78.64    2.31
  -4  -6   1   76.37    2.31
   4  -6  -1   77.84    2.36
  -4  -6   1   78.44    2.38
   4   6  -1   79.13    2.37
  -4   6   1   78.17    2.26
   2  -6  -1  145.06    3.98
   2  -6  -1  143.73    4.01
   2  -6  -1  146.97    4.04
  -2  -6   1  145.75    4.01
  -2  -6   1  144.94    4.05
  -2  -6   1  144.74    4.00
  -2   6   1  144.11    3.95
   2   6  -1  147.59    4.04
   0  -6   1  170.18    4.63
   0  -6   1  171.74    4.68
   0  -6  -1  170.22    4.65
   0  -6  -1  173.21    4.63
   0  -6  -1  168.76    4.65
   0   6  -1  168.94    4.66
   0   6   1  170.20    4.61
   2  -6   1   70.39    2.12
  -2  -6  -1   68.69    2.12
  -2  -6  -1   68.34    2.11
   2  -6   1   69.27    2.15
   2   6   1   67.51    2.11
  -2   6  -1   68.18    2.15
   2   6   1   68.51    2.11
   4  -6   1  272.45    7.28
  -4  -6  -1  273.60    7.26
   4  -6   1  288.72    7.34
  -4  -6  -1  278.59    7.28
   4   6   1  275.43    7.30
  -4   6  -1  266.80    7.32
   4   6   1  271.20    7.28
  -6  -6  -1   71.74    2.19
   6  -6   1   72.02    2.23
   6  -6   1   71.85    2.26
  -6  -6  -1   69.15    2.28
   6   6   1   71.39    2.23
   6   6   1   68.91    2.24
  -6   6  -1   71.82    2.30
   8  -6   1   86.71    2.70
  -8   6  -1   85.68    2.76
 -10  -6  -1   44.89    1.60
 -10  -6  -1   42.07    1.52
  10  -6   1   42.83    1.61
 -10   6  -1   43.61    1.72
  10   6   1   44.26    1.67
  10   6   1   43.55    1.59
  12  -6   1   82.87    2.74
 -12  -6  -1   86.44    2.70
 -12  -6  -1   87.55    2.41
 -12  -6  -1   87.59    2.66
 -12   6  -1   89.92    2.92
  12   6   1   85.83    2.81
 -14  -6  -1   11.34    0.77
 -14  -6  -1   10.58    0.80
 -14   6  -1   11.73    1.01
  14   6   1   10.79    0.88
  16  -6   1   29.57    1.29
 -16  -6  -1   28.69    1.32
 -16  -6  -1   28.85    1.30
 -16   6  -1   30.18    1.62
 -18  -6  -1    9.66    0.89
  18  -6   1   10.82    0.87
  18  -6   1   12.51    1.00
 -18  -6  -1   11.91    0.95
 -18   6  -1   11.24    1.29
  18   6   1   10.70    1.00
  18   6   1   11.89    1.11
  20  -6   1    5.03    0.77
  20  -6   1    7.55    0.92
 -20  -6  -1    5.11    0.72
  20   6   1    7.20    1.25
  21  -7  -1   10.41    1.19
 -21  -7   1   11.42    1.54
  19  -7  -1   15.81    0.99
  19  -7  -1   16.53    0.88
 -19  -7   1   15.10    1.06
 -19  -7   1   14.79    0.94
  19  -7  -1   15.43    1.23
 -19   7   1   18.06    1.53
  19   7  -1   17.11    1.21
  19   7  -1   14.06    1.04
  17  -7  -1   11.76    1.01
 -17  -7   1    9.83    0.60
 -17  -7   1   10.09    0.75
  17  -7  -1    9.76    0.85
  17  -7  -1   10.98    0.73
  17  -7  -1    9.72    0.80
 -17  -7   1   10.42    0.85
  17   7  -1   11.88    0.85
 -17   7   1   11.69    1.13
  15  -7  -1   28.89    1.23
 -15  -7   1   28.69    1.33
  15  -7  -1   29.91    1.47
 -15  -7   1   28.99    1.20
  15   7  -1   31.19    1.63
  15   7  -1   30.75    1.43
 -15   7   1   31.38    1.53
  13  -7  -1   38.31    1.68
 -13  -7   1   39.20    1.43
  13  -7  -1   38.30    1.45
 -13  -7   1   41.33    1.60
  13   7  -1   41.66    1.68
 -13   7   1   40.12    1.69
  13   7  -1   40.23    1.53
 -11  -7   1   61.70    2.08
  11  -7  -1   57.07    1.89
 -11  -7   1   58.01    1.89
  11  -7  -1   57.37    2.13
 -11   7   1   58.98    2.10
  11   7  -1   58.23    2.08
  11   7  -1   57.62    1.95
   9  -7  -1   32.30    1.30
   9  -7  -1   33.30    1.25
  -9  -7   1   34.56    1.33
  -9  -7   1   32.60    1.36
  -9  -7   1   33.43    1.25
   9   7  -1   33.60    1.28
  -9   7   1   32.01    1.39
   9   7  -1   32.23    1.36
  -7  -7   1  147.63    4.19
   7  -7  -1  148.19    4.14
  -7  -7   1  150.76    4.14
  -7  -7   1  144.61    4.11
   7  -7  -1  146.24    4.06
  -7   7   1  142.68    4.19
   7   7  -1  143.56    4.18
   5  -7  -1   33.28    1.36
  -5  -7   1   30.58    1.27
   5  -7  -1   31.11    1.24
   5  -7  -1   31.69    1.28
  -5  -7   1   32.31    1.23
  -5  -7   1   31.26    1.21
   5   7  -1   31.30    1.29
  -3  -7   1  147.13    4.04
  -3  -7   1  143.77    4.03
   3  -7  -1  142.86    4.00
   3  -7  -1  143.98    4.05
  -3  -7   1  143.54    4.09
   3  -7  -1  141.84    4.07
  -3   7   1  139.56    3.96
   3   7  -1  147.26    4.07
  -1  -7   1  132.18    3.76
   1  -7  -1  136.45    3.79
  -1  -7   1  129.66    3.80
   1  -7  -1  132.01    3.79
   1  -7  -1  134.73    3.75
  -1  -7   1  131.93    3.77
  -1   7   1  133.26    3.73
   1   7  -1  132.55    3.77
  -1  -7  -1  169.97    4.78
   1  -7   1  175.23    4.85
  -1  -7  -1  175.61    4.82
  -1  -7  -1  176.49    4.84
   1  -7   1  176.07    4.80
  -1   7  -1  178.79    4.86
   1   7   1  167.26    4.77
   3  -7   1   37.17    1.37
  -3  -7  -1   36.42    1.40
  -3  -7  -1   36.81    1.37
   3  -7   1   36.90    1.41
  -3  -7  -1   35.92    1.37
  -3   7  -1   37.01    1.42
   3   7   1   36.06    1.38
   3   7   1   35.42    1.37
  -5  -7  -1  145.30    4.50
   5  -7   1  157.48    4.33
   5  -7   1  161.32    4.38
  -5  -7  -1  145.46    4.59
  -5   7  -1  155.24    4.40
   7  -7   1   88.40    2.77
  -7  -7  -1   88.19    2.69
  -7  -7  -1   87.46    2.72
   7  -7   1   90.06    2.74
   7   7   1   89.45    2.79
   7   7   1   85.75    2.72
  -7   7  -1   88.49    2.83
   9  -7   1   59.94    2.09
  -9  -7  -1   60.73    2.04
  -9  -7  -1   58.83    1.97
   9  -7   1   59.63    2.04
   9   7   1   58.36    2.03
  -9   7  -1   57.72    2.14
   9   7   1   59.22    2.08
 -11  -7  -1   56.58    1.98
  11  -7   1   56.04    2.00
 -11  -7  -1   55.62    1.91
 -11   7  -1   55.14    2.11
 -13  -7  -1   28.15    1.24
 -13  -7  -1   28.00    1.29
 -13  -7  -1   27.76    0.99
 -13   7  -1   28.81    1.49
  13   7   1   27.78    1.39
 -15  -7  -1   15.26    0.99
 -15  -7  -1   15.72    0.95
 -15  -7  -1   14.29    0.67
  15   7   1   14.20    1.35
 -15   7  -1   14.46    1.23
 -17  -7  -1   15.02    1.03
 -17  -7  -1   15.20    1.04
  17   7   1   14.86    1.09
  17   7   1   15.71    1.22
 -17   7  -1   15.71    1.42
  19  -7   1   12.70    0.94
  19  -7   1   10.33    1.09
 -18  -8   1    7.35    0.57
 -18  -8   1    5.97    0.92
 -18  -8   1    8.10    0.80
  18  -8  -1    9.18    1.05
  18  -8  -1    6.99    1.13
  18   8  -1    6.79    0.92
  18   8  -1    6.24    0.86
  16  -8  -1    4.70    0.76
 -16  -8   1    5.43    0.76
  16  -8  -1    4.93    0.73
  16  -8  -1    5.61    0.89
 -16  -8   1    6.47    0.67
  16   8  -1    5.43    0.85
 -16   8   1    5.13    0.88
  16   8  -1    4.69    0.63
  14  -8  -1   25.03    1.38
  14  -8  -1   24.54    1.13
 -14  -8   1   23.63    1.08
 -14  -8   1   22.77    1.22
 -14   8   1   23.53    1.39
 -12  -8   1    7.13    0.62
 -12  -8   1    7.31    0.78
  12  -8  -1    5.63    0.67
  12  -8  -1    6.30    0.81
 -12  -8   1    6.40    0.69
 -12   8   1    5.23    0.77
  12   8  -1    7.39    0.67
  12   8  -1    5.59    0.74
 -10  -8   1   16.56    0.95
 -10  -8   1   15.81    0.86
 -10  -8   1   14.24    0.94
  10  -8  -1   15.52    0.89
  10   8  -1   15.82    0.97
  10   8  -1   15.52    0.89
 -10   8   1   15.94    1.01
   8  -8  -1   29.80    1.25
   8  -8  -1   30.34    1.30
  -8  -8   1   32.19    1.37
  -8  -8   1   31.51    1.26
  -8  -8   1   32.39    1.33
   8   8  -1   29.71    1.33
  -8   8   1   31.74    1.39
   6  -8  -1   27.70    1.23
  -6  -8   1   29.08    1.21
   6  -8  -1   29.58    1.21
  -6  -8   1   28.23    1.29
  -6  -8   1   30.45    1.25
   6  -8  -1   30.06    1.32
   6   8  -1   29.41    1.27
  -4  -8   1   18.11    0.99
   4  -8  -1   19.10    1.01
  -4  -8   1   19.05    0.94
  -4  -8   1   18.60    0.95
   4  -8  -1   18.33    0.94
   4  -8  -1   18.08    0.92
   4   8  -1   18.26    0.96
   2  -8  -1   37.02    1.44
   2  -8  -1   37.47    1.41
  -2  -8   1   36.89    1.40
  -2  -8   1   35.80    1.44
   2  -8  -1   31.32    1.55
  -2  -8   1   37.41    1.42
   2   8  -1   35.77    1.39
  -2   8   1   36.92    1.35
   0  -8  -1   30.51    1.53
   0  -8   1   33.84    1.42
   0  -8  -1   36.98    1.40
   0  -8  -1   34.39    1.35
   0  -8   1   33.46    1.37
   0  -8   1   34.14    1.35
   0   8   1   34.36    1.32
  -2  -8  -1   18.11    0.96
  -2  -8  -1   16.64    0.93
  -2  -8  -1   15.06    0.97
   2  -8   1   16.56    1.39
   2  -8   1   17.69    0.92
   2   8   1   17.24    0.90
  -2   8  -1   17.18    0.97
  -4  -8  -1   89.02    2.75
  -4  -8  -1   86.25    2.68
   4  -8   1   89.45    2.92
   4  -8   1   77.33    2.97
  -4  -8  -1   87.73    2.67
  -4   8  -1   76.02    2.80
   4   8   1   88.70    2.71
   4   8   1   89.57    2.72
  -6  -8  -1   19.45    0.99
  -6  -8  -1   20.28    1.05
   6  -8   1   19.57    1.01
   6  -8   1   20.27    1.10
   6   8   1   21.61    1.07
  -6   8  -1   18.37    1.09
   6   8   1   19.03    1.01
   8  -8   1   18.30    1.02
  -8  -8  -1   19.01    1.03
  -8  -8  -1   18.37    0.98
   8  -8   1   19.74    1.25
  -8   8  -1   17.56    1.12
 -10  -8  -1   18.18    1.05
  10  -8   1   16.74    1.08
  10  -8   1   17.00    1.01
 -10  -8  -1   16.92    0.96
 -10   8  -1   18.04    1.17
  12  -8   1   30.37    1.39
 -12  -8  -1   28.39    1.36
 -12  -8  -1   31.18    1.32
  12  -8   1   29.42    1.43
 -12  -8  -1   29.14    1.11
 -12   8  -1   26.94    1.51
  14  -8   1    4.17    0.67
 -14  -8  -1    4.38    0.68
 -14  -8  -1    4.29    0.64
 -14  -8  -1    4.22    0.42
 -14   8  -1    3.61    0.74
  14   8   1    3.79    0.70
 -16  -8  -1    9.86    0.49
 -16  -8  -1   11.13    0.95
  16  -8   1    9.79    1.07
 -16  -8  -1    9.17    0.94
  16  -8   1    9.62    1.01
  16   8   1   10.66    1.03
 -16   8  -1   10.94    1.36
  16   8   1    8.93    1.11
  18  -8   1    5.37    0.83
 -17  -9   1    4.80    0.67
  17  -9  -1    6.02    0.79
  17  -9  -1    5.83    0.89
 -15  -9   1   12.97    0.99
  15  -9  -1   14.39    1.04
  15  -9  -1   12.84    1.14
  15  -9  -1   15.77    1.22
 -15  -9   1   14.55    0.94
 -15  -9   1   14.23    1.11
  15   9  -1   13.07    0.98
 -15   9   1   14.28    1.28
  15   9  -1   14.04    1.12
  13  -9  -1   18.79    1.31
 -13  -9   1   17.91    1.00
 -13  -9   1   17.03    1.08
  13  -9  -1   16.19    1.20
 -13  -9   1   18.54    1.17
  13   9  -1   20.00    1.16
 -13   9   1   19.35    1.26
  13   9  -1   19.07    1.07
 -11  -9   1   22.84    1.10
  11  -9  -1   23.48    1.32
 -11  -9   1   23.28    1.19
 -11  -9   1   22.95    1.24
  11  -9  -1   17.80    1.58
 -11   9   1   21.17    1.28
  -9  -9   1   18.78    1.05
  -9  -9   1   18.66    0.98
  -9  -9   1   17.98    1.10
   9  -9  -1   17.56    1.20
  -9   9   1   18.04    1.13
   7  -9  -1   52.11    1.98
   7  -9  -1   50.84    1.86
  -7  -9   1   51.04    1.83
  -7  -9   1   50.55    1.87
  -7  -9   1   51.10    1.94
  -5  -9   1   17.62    1.01
   5  -9  -1   19.79    1.05
   5  -9  -1   17.92    1.21
  -5  -9   1   20.35    1.03
   5  -9  -1   19.02    1.11
  -5  -9   1   19.86    1.11
  -3  -9   1   56.76    2.05
   3  -9  -1   55.43    1.97
  -3  -9   1   56.12    1.97
   3  -9  -1   55.86    1.98
  -3  -9   1   56.69    1.98
   3  -9  -1   57.68    2.05
  -3   9   1   54.18    1.89
   3   9  -1   56.48    1.98
   1  -9  -1   49.37    1.84
  -1  -9   1   49.30    1.88
   1  -9  -1   51.67    1.84
  -1  -9   1   50.62    1.84
  -1  -9   1   50.08    1.86
   1  -9  -1   50.63    1.86
   1   9  -1   52.51    1.84
  -1   9   1   50.61    1.79
   1  -9   1   55.47    2.02
  -1  -9  -1   54.03    1.97
  -1  -9  -1   55.65    1.96
   1  -9   1   55.20    1.95
  -1  -9  -1   56.07    1.99
   1  -9   1   53.56    1.99
   1   9   1   55.06    1.92
  -3  -9  -1   24.49    1.20
   3  -9   1   23.88    1.17
   3  -9   1   24.11    1.24
  -3  -9  -1   25.32    1.21
   3  -9   1   25.56    1.28
  -3  -9  -1   26.46    1.26
  -3   9  -1   24.90    1.26
   3   9   1   25.77    1.20
  -5  -9  -1   64.93    2.22
  -5  -9  -1   64.24    2.20
   5  -9   1   61.72    2.18
   5  -9   1   64.38    2.29
  -5  -9  -1   66.26    2.29
  -5   9  -1   62.10    2.29
   5   9   1   63.16    2.22
   7  -9   1   30.89    1.44
  -7  -9  -1   30.84    1.39
   7  -9   1   31.30    1.38
  -7  -9  -1   30.40    1.35
  -7  -9  -1   31.14    1.44
  -7   9  -1   30.56    1.47
  -9  -9  -1   25.78    1.30
   9  -9   1   24.53    1.33
  -9  -9  -1   25.87    1.23
   9  -9   1   25.89    1.27
  -9   9  -1   24.10    1.38
  11  -9   1   29.70    1.38
 -11  -9  -1   27.72    1.38
 -11  -9  -1   28.11    1.31
  11  -9   1   27.60    1.42
 -11   9  -1   27.60    1.53
 -13  -9  -1   12.84    1.04
 -13  -9  -1   12.78    0.94
 -13  -9  -1   13.44    0.75
  13  -9   1   12.54    1.01
  13  -9   1   13.11    1.10
 -13   9  -1   13.80    1.25
  15  -9   1    5.97    0.83
 -15  -9  -1    7.11    0.55
  17  -9   1    6.67    0.91
  16 -10  -1    8.31    1.05
  14 -10  -1   21.54    1.49
  14 -10  -1   21.49    1.26
 -14 -10   1   23.08    1.26
 -14 -10   1   19.60    1.26
 -12 -10   1   17.95    1.18
 -12 -10   1   17.56    1.25
  12 -10  -1   19.57    1.17
 -12 -10   1   17.36    1.06
  12 -10  -1   18.34    1.31
 -12  10   1   20.37    1.38
  12  10  -1   20.17    1.23
 -10 -10   1   24.26    1.22
 -10 -10   1   24.68    1.38
 -10 -10   1   25.89    1.34
  10 -10  -1   24.47    1.29
  10 -10  -1   26.33    1.48
   8 -10  -1   44.38    1.77
   8 -10  -1   46.08    1.95
  -8 -10   1   43.77    1.86
   8 -10  -1   46.61    1.81
  -8 -10   1   46.99    1.77
  -8 -10   1   43.92    1.96
   6 -10  -1   48.29    1.95
   6 -10  -1   45.51    1.80
   6 -10  -1   47.51    1.82
  -6 -10   1   46.83    1.89
  -6 -10   1   44.87    1.78
   4 -10  -1   32.44    1.45
  -4 -10   1   34.42    1.50
   4 -10  -1   33.57    1.48
  -4 -10   1   32.01    1.45
  -4 -10   1   35.69    1.57
   4 -10  -1   34.24    1.56
  -2 -10   1   61.49    2.27
  -2 -10   1   63.72    2.22
   2 -10  -1   62.05    2.21
   2 -10  -1   62.95    2.27
  -2 -10   1   60.86    2.21
   2 -10  -1   62.43    2.21
  -2  10   1   63.00    2.13
   2  10  -1   62.72    2.20
   0 -10   1   67.92    2.45
   0 -10  -1   69.02    2.42
   0 -10   1   70.23    2.46
   0 -10  -1   70.78    2.45
   0 -10  -1   71.15    2.42
   0 -10   1   70.44    2.41
   0  10   1   71.11    2.36
   2 -10   1   39.65    1.70
  -2 -10  -1   40.21    1.66
  -2 -10  -1   38.25    1.62
   2 -10   1   38.69    1.61
   2 -10   1   39.91    1.71
  -2 -10  -1   38.43    1.61
   2  10   1   38.66    1.59
   4 -10   1   62.93    2.24
   4 -10   1   61.71    2.31
  -4 -10  -1   62.97    2.30
  -4 -10  -1   61.77    2.21
   4 -10   1   65.16    2.39
  -4 -10  -1   62.64    2.25
  -4  10  -1   64.11    2.36
   4  10   1   64.25    2.25
  -6 -10  -1   46.02    1.82
   6 -10   1   45.75    1.83
  -6 -10  -1   49.47    1.95
   6 -10   1   46.13    1.93
  -6 -10  -1   49.63    1.89
  -6  10  -1   44.61    1.96
   6  10   1   47.41    1.87
   8 -10   1   34.60    1.53
   8 -10   1   34.17    1.64
  -8 -10  -1   34.47    1.53
  -8 -10  -1   36.81    1.63
  -8 -10  -1   35.52    1.62
  -8  10  -1   33.66    1.65
 -10 -10  -1   21.88    1.30
  10 -10   1   22.27    1.24
  10 -10   1   23.07    1.35
 -10 -10  -1   23.56    1.24
 -10 -10  -1   20.76    1.48
 -10  10  -1   22.09    1.44
  12 -10   1   25.83    1.39
 -12 -10  -1   24.27    1.12
  12 -10   1   20.34    1.35
 -12 -10  -1   23.78    1.42
 -12 -10  -1   23.47    1.32
  12  10   1   25.41    1.85
  12  10   1   27.36    1.96
 -12  10  -1   25.26    1.64
 -14 -10  -1    8.60    0.90
  14 -10   1    7.95    1.10
  13 -11  -1    7.97    1.06
 -13 -11   1    6.20    0.94
  13 -11  -1    6.96    0.98
 -11 -11   1    8.07    0.93
  11 -11  -1    8.24    1.33
  11 -11  -1    7.15    0.93
  11 -11  -1    8.06    1.03
   9 -11  -1    6.84    0.85
   9 -11  -1   10.92    1.15
  -9 -11   1    8.50    0.93
   9 -11  -1    8.18    0.94
  -9 -11   1    9.85    0.92
  -9 -11   1    9.18    1.06
   7 -11  -1   16.42    1.08
  -7 -11   1   15.12    1.17
   7 -11  -1   17.64    1.15
  -7 -11   1   16.23    1.07
  -7 -11   1   16.81    1.14
   7 -11  -1   17.28    1.26
  -5 -11   1   10.16    0.93
   5 -11  -1    8.89    0.87
   5 -11  -1    9.83    1.02
   5 -11  -1   10.56    0.97
  -5 -11   1    9.62    1.02
  -5 -11   1   10.10    0.88
   3 -11  -1   20.08    1.22
  -3 -11   1   19.57    1.18
  -3 -11   1   20.09    1.19
   3 -11  -1   19.32    1.26
  -3 -11   1   20.75    1.28
   3 -11  -1   20.29    1.19
   3  11  -1   21.46    1.17
   1 -11  -1   16.42    1.08
  -1 -11   1   17.27    1.13
  -1 -11   1   16.15    1.19
  -1 -11   1   16.19    1.12
   1 -11  -1   15.57    1.12
   1 -11  -1   16.74    1.10
  -1  11   1   17.12    1.00
   1 -11   1   15.55    1.04
  -1 -11  -1   14.76    1.04
  -1 -11  -1   14.69    1.07
   1 -11   1   15.03    1.12
   1 -11   1   15.12    1.13
  -1 -11  -1   14.57    1.04
   1  11   1   13.89    0.96
  -3 -11  -1   14.08    1.07
   3 -11   1   14.01    1.13
   3 -11   1   15.82    1.19
  -3 -11  -1   16.91    1.11
   3 -11   1   13.82    1.00
  -3 -11  -1   14.94    1.06
   3  11   1   12.99    0.97
  -5 -11  -1   25.31    1.34
  -5 -11  -1   24.65    1.37
   5 -11   1   24.54    1.42
   5 -11   1   23.51    1.47
   5 -11   1   24.98    1.29
  -5 -11  -1   25.28    1.37
   5  11   1   24.43    1.31
   7 -11   1   10.08    1.06
  -7 -11  -1    8.31    1.10
  -7 -11  -1   10.22    1.00
   7 -11   1    9.24    0.91
  -7 -11  -1    8.01    1.01
   7  11   1    9.17    0.95
  -7  11  -1    8.90    1.09
  -9 -11  -1    7.09    1.06
   9 -11   1    8.68    1.10
  -9 -11  -1    8.70    1.01
   9 -11   1    9.17    0.96
  -9 -11  -1    8.43    1.04
  -9  11  -1    8.11    1.17
   9  11   1   10.42    1.31
 -11 -11  -1   13.04    1.12
  11 -11   1    9.53    1.21
  13 -11   1    5.07    0.92
 -13 -11  -1    5.98    0.71
 -13 -11  -1    4.24    0.78
  10 -12  -1    7.04    0.93
  10 -12  -1    6.75    1.04
   8 -12  -1   12.36    1.16
   8 -12  -1   14.56    1.37
  -8 -12   1   11.62    1.07
   6 -12  -1   11.93    1.13
  -6 -12   1   11.98    1.06
   6 -12  -1   12.43    1.28
   6 -12  -1   10.63    1.05
  -4 -12   1    7.36    1.01
  -4 -12   1    5.81    0.78
   4 -12  -1    6.37    0.98
   4 -12  -1    7.61    0.93
   4 -12  -1    7.22    1.07
  -4 -12   1    6.89    0.96
   4  12  -1    7.93    0.96
   2 -12  -1   15.29    1.16
   2 -12  -1   14.78    1.22
   2 -12  -1   14.39    1.09
  -2 -12   1   15.01    1.12
  -2 -12   1   15.54    1.27
  -2 -12   1   13.47    1.18
   0 -12  -1   18.21    1.18
   0 -12   1   15.30    1.12
   0 -12   1   15.21    1.28
   0 -12  -1   15.27    1.20
   0 -12   1   13.27    1.18
   0 -12  -1   15.94    1.26
   0  12   1   15.92    1.03
  -2 -12  -1    8.45    0.96
   2 -12   1   10.96    1.16
   2 -12   1   10.57    0.97
  -2 -12  -1    9.11    1.03
   2 -12   1    8.90    1.13
  -2 -12  -1    8.18    1.04
   2  12   1    9.62    0.90
   4 -12   1   13.49    1.26
  -4 -12  -1   13.34    1.19
  -4 -12  -1   14.48    1.23
   4 -12   1   14.15    1.07
   4 -12   1   14.80    1.34
  -4 -12  -1   14.83    1.14
   4  12   1   14.07    1.10
   6 -12   1   12.06    1.39
   6 -12   1   11.35    1.05
  -6 -12  -1   12.69    1.11
   6 -12   1   13.02    1.31
  -8 -12  -1    7.96    0.94
   8 -12   1    7.91    1.22
   8 -12   1    5.43    1.05
 -10 -12  -1    6.33    0.83
  10 -12   1    6.66    1.39
  -5 -13   1   15.06    1.28
   5 -13  -1   14.48    1.36
  -3 -13   1   18.95    1.30
   3 -13  -1   16.65    1.44
   1 -13  -1   20.43    1.54
  -1 -13   1   20.60    1.37
   1 -13   1   20.94    1.30
  -1 -13  -1   17.76    1.38
  -3 -13  -1   15.73    1.28
   3 -13   1   16.81    1.49
  -5 -13  -1   17.45    1.34
 -24   0   2    3.37    0.67
  24   0  -2    4.14    0.65
  24   0  -2    3.88    0.58
  22   0  -2   18.19    1.02
 -22   0   2   17.46    1.09
  20   0  -2   22.52    1.05
 -20   0   2   24.20    1.18
  20   0  -2   22.43    1.04
  18   0  -2   40.05    1.43
 -18   0   2   44.27    1.59
  18   0  -2   42.32    1.47
  16   0  -2   28.75    1.16
 -16   0   2   32.98    1.19
 -16   0   2   28.42    1.03
  16   0  -2   29.12    1.09
  16   0  -2   29.07    1.07
  14   0  -2  207.01    5.80
 -14   0   2  227.72    5.73
 -14   0   2  218.37    5.69
 -14   0   2  214.98    5.62
  14   0  -2  212.11    5.64
  14   0  -2  216.64    5.68
  12   0  -2   29.66    0.95
  12   0  -2   28.86    1.11
 -12   0   2   29.25    0.92
 -12   0   2   30.21    0.98
  12   0  -2   28.49    0.97
 -12   0   2   30.25    1.03
 -10   0   2  379.40    9.50
 -10   0   2  379.16    9.62
 -10   0   2  371.19    9.61
  10   0  -2  365.88    9.51
  10   0  -2  379.92    9.72
  10   0  -2  379.75    9.50
   8   0  -2   33.40    0.95
  -8   0   2   32.87    0.93
   8   0  -2   33.16    1.14
   8   0  -2   32.00    0.94
  -8   0   2   33.49    1.09
  -8   0   2   34.26    0.92
   6   0  -2  450.83   12.23
  -6   0   2  479.56   12.02
  -6   0   2  468.17   12.46
   6   0  -2  478.07   12.00
   4   0  -2  107.39    2.94
  -4   0   2  107.13    2.93
  -4   0   2  107.27    2.75
  -2   0   2  616.88   15.86
   2   0  -2  563.72   15.37
   0   0   2   66.25    1.95
   0   0  -2   72.63    1.95
   0   0   2   66.71    1.86
   2   0   2  265.83    6.79
   2   0   2  273.94    6.81
   2   0   2  249.11    6.77
  -2   0  -2  265.97    6.79
  -4   0  -2  166.54    4.37
   4   0   2  165.93    4.38
   4   0   2  157.63    4.34
   6   0   2  276.62    7.15
  -6   0  -2  273.69    7.18
   6   0   2  271.16    7.19
  -8   0  -2  240.84    6.41
   8   0   2  238.13    6.41
   8   0   2  240.76    6.36
  10   0   2   82.81    2.51
 -10   0  -2   82.43    2.56
  10   0   2   83.03    2.56
  12   0   2   99.43    2.86
  12   0   2   84.88    3.23
 -12   0  -2   94.67    2.96
  14   0   2   22.44    1.11
 -14   0  -2   22.61    1.17
  14   0   2   23.43    1.13
 -16   0  -2   80.94    2.76
  16   0   2   84.10    2.70
 -18   0  -2    7.65    0.92
  18   0   2    9.04    0.87
 -20   0  -2   13.13    1.14
  20   0   2   14.43    1.26
  22   0   2    4.10    0.75
 -23  -1   2    1.73    0.52
  23  -1  -2    2.60    0.51
  23  -1  -2    2.60    0.51
  23   1  -2    2.44    0.56
  23   1  -2    2.28    0.50
 -23   1   2    1.31    0.57
  21  -1  -2   30.50    1.27
  21  -1  -2   30.24    1.24
 -21  -1   2   33.75    1.40
  21  -1  -2   29.42    1.27
  21   1  -2   30.36    1.35
 -21   1   2   31.20    1.43
  21   1  -2   32.11    1.28
  19  -1  -2    4.01    0.56
 -19  -1   2    3.75    0.45
 -19  -1   2    5.10    0.64
  19  -1  -2    4.20    0.50
  19  -1  -2    3.71    0.53
  19   1  -2    3.64    0.50
  19   1  -2    3.63    0.52
 -19   1   2    4.09    0.57
 -17  -1   2   57.60    1.79
 -17  -1   2   54.29    1.60
 -17  -1   2   53.00    1.64
  17  -1  -2   51.19    1.70
  17  -1  -2   48.46    1.76
  17  -1  -2   49.67    1.61
  17   1  -2   51.61    1.71
  17   1  -2   51.90    1.71
  15  -1  -2   34.35    1.15
 -15  -1   2   38.64    1.29
 -15  -1   2   35.38    1.18
  15  -1  -2   35.49    1.24
 -15  -1   2   35.38    1.18
  15  -1  -2   34.97    1.35
  15   1  -2   35.46    1.20
 -15   1   2   39.21    1.33
  15   1  -2   35.13    1.24
 -13  -1   2   88.05    2.45
  13  -1  -2   84.33    2.59
 -13  -1   2   84.82    2.40
 -13  -1   2   92.88    2.48
  13  -1  -2   86.35    2.46
  13  -1  -2   82.66    2.35
 -13   1   2   89.76    2.50
  13   1  -2   84.84    2.45
  13   1  -2   88.02    2.40
 -13   1   2   87.65    2.50
  11  -1  -2   26.31    0.91
 -11  -1   2   27.84    0.89
 -11  -1   2   26.84    0.95
 -11  -1   2   29.35    0.91
  11  -1  -2   26.93    1.06
  11  -1  -2   27.77    0.83
 -11   1   2   26.58    0.98
  11   1  -2   27.37    0.92
 -11   1   2   28.11    0.92
  11   1  -2   27.74    0.86
   9  -1  -2  206.40    5.27
   9  -1  -2  206.67    5.36
  -9  -1   2  210.63    5.37
   9  -1  -2  208.45    5.57
  -9  -1   2  209.99    5.33
  -9  -1   2  207.01    5.47
   9   1  -2  211.23    5.40
  -9   1   2  213.62    5.36
  -9   1   2  203.18    5.49
   9   1  -2  213.11    5.31
  -7  -1   2  168.70    4.47
  -7  -1   2  170.77    4.34
   7  -1  -2  171.98    4.31
   7  -1  -2  162.57    4.50
  -7   1   2  161.86    4.46
   7   1  -2  165.37    4.25
  -7   1   2  175.84    4.30
   7   1  -2  170.65    4.35
   5  -1  -2    1.23    0.21
  -5  -1   2    1.90    0.17
   5  -1  -2    1.61    0.14
  -5  -1   2    1.90    0.24
  -5   1   2    1.30    0.20
   5   1  -2    1.99    0.16
   3  -1  -2  324.11    7.84
  -3  -1   2  290.79    7.66
   3  -1  -2  291.83    7.83
  -3   1   2  267.99    7.64
  -3   1   2  288.25    7.82
  -3   1   2  335.83    7.77
  -1  -1   2   17.18    0.56
   1  -1  -2   16.52    0.61
   1  -1  -2   16.68    0.53
   1  -1  -2   15.45    0.54
  -1   1   2   16.76    0.54
  -1   1   2   15.43    0.60
   1   1  -2   15.91    0.54
  -1   1   2   15.93    0.53
  -1  -1  -2  202.97    5.18
   1  -1   2  196.95    5.23
  -1  -1  -2  206.19    5.21
  -1  -1  -2  200.24    5.20
   1   1   2  190.76    5.22
   1   1   2  195.04    5.20
   1   1   2  218.93    5.21
  -1   1  -2  200.16    5.24
  -3  -1  -2   70.88    2.00
   3  -1   2   72.16    2.06
  -3  -1  -2   72.20    1.95
  -3  -1  -2   70.81    2.01
  -3   1  -2   74.04    2.08
   3   1   2   67.72    2.02
   3   1   2   70.43    1.97
   5  -1   2  362.50    9.42
  -5  -1  -2  373.62    9.36
  -5  -1  -2  375.58    9.36
   5   1   2  363.32    9.38
   5   1   2  347.61    9.22
   5   1   2  368.10    9.39
  -5   1  -2  361.45    9.44
   7  -1   2   21.31    0.87
  -7  -1  -2   22.03    0.88
   7  -1   2   22.68    0.92
  -7  -1  -2   21.45    0.86
   7   1   2   21.86    0.89
   7   1   2   22.45    0.91
   7   1   2   21.07    0.68
  -7   1  -2   21.87    0.96
   9  -1   2  248.69    6.62
  -9  -1  -2  239.55    6.56
  -9  -1  -2  247.49    6.54
   9  -1   2  250.37    6.55
  -9   1  -2  249.86    6.67
   9   1   2  248.43    6.59
   9   1   2  244.60    6.62
  11  -1   2   52.09    1.72
  11  -1   2   50.83    1.77
 -11  -1  -2   48.55    1.75
 -11  -1  -2   50.35    1.70
  11   1   2   51.49    1.77
 -11   1  -2   52.36    1.86
  11   1   2   49.31    1.77
  13  -1   2   52.88    1.77
 -13  -1  -2   50.89    1.82
 -13  -1  -2   45.69    1.88
  13  -1   2   51.77    1.81
  13   1   2   49.38    1.81
 -13   1  -2   50.21    1.88
  13   1   2   44.26    2.30
 -15  -1  -2   14.13    0.98
  15  -1   2   16.49    0.94
 -15   1  -2   15.61    1.04
  15   1   2   16.00    1.01
 -17  -1  -2   33.67    1.56
  17  -1   2   37.17    1.51
  17   1   2   35.06    1.59
 -17   1  -2   32.91    1.62
  19  -1   2    3.01    0.54
 -19  -1  -2    3.39    0.64
  19   1   2    2.89    0.80
 -19   1  -2    3.88    0.68
  21  -1   2    4.29    0.86
 -21  -1  -2    5.68    1.12
 -21   1  -2    7.35    1.47
  21   1   2    5.66    0.86
 -24  -2   2    2.44    0.63
  24  -2  -2    3.19    0.56
  24   2  -2    1.95    0.65
  24   2  -2    3.03    0.58
 -24   2   2    2.33    0.65
  22  -2  -2   11.88    0.84
  22  -2  -2    9.97    0.76
 -22  -2   2   12.81    1.03
  22  -2  -2   10.90    0.87
 -22  -2   2   12.33    0.89
  22   2  -2   11.43    0.98
 -22   2   2   10.40    0.97
  20  -2  -2    9.09    0.79
  20  -2  -2    9.74    0.71
 -20  -2   2    8.66    0.75
  20  -2  -2    8.92    0.63
 -20   2   2    7.21    1.11
  20   2  -2    8.63    0.68
 -18  -2   2   19.89    0.98
  18  -2  -2   20.04    0.94
  18  -2  -2   18.76    0.81
 -18  -2   2   20.90    0.88
  18  -2  -2   19.46    1.02
 -18  -2   2   20.44    0.76
 -18   2   2   19.78    1.04
  18   2  -2   18.15    0.87
  18   2  -2   19.39    0.97
  16  -2  -2   20.56    1.01
  16  -2  -2   20.52    0.91
  16  -2  -2   19.07    0.77
 -16  -2   2   21.32    0.79
 -16  -2   2   21.24    0.86
 -16  -2   2   21.45    0.93
 -16   2   2   18.32    1.07
  16   2  -2   19.96    0.93
  16   2  -2   20.40    0.86
 -14  -2   2  132.92    3.51
 -14  -2   2  127.73    3.46
  14  -2  -2  125.16    3.50
  14  -2  -2  120.16    3.34
  14  -2  -2  127.52    3.67
 -14  -2   2  124.67    3.43
  14   2  -2  123.82    3.52
  14   2  -2  127.33    3.42
 -14   2   2  130.64    3.57
  12  -2  -2    0.69    0.27
  12  -2  -2    0.60    0.13
 -12  -2   2    0.70    0.20
 -12  -2   2    0.50    0.18
  12  -2  -2    0.58    0.20
 -12  -2   2    0.79    0.20
  12   2  -2    0.79    0.19
  12   2  -2    0.83    0.23
 -12   2   2    0.70    0.22
  10  -2  -2  205.64    5.45
 -10  -2   2  220.29    5.63
  10  -2  -2  214.92    5.81
 -10  -2   2  214.30    5.68
 -10  -2   2  221.47    5.56
  10  -2  -2  213.31    5.61
  10   2  -2  214.01    5.53
 -10   2   2  225.45    5.64
 -10   2   2  213.49    5.72
  10   2  -2  219.33    5.66
  -8  -2   2    7.68    0.40
  -8  -2   2    7.43    0.31
   8  -2  -2    7.71    0.38
  -8  -2   2    7.83    0.46
   8  -2  -2    7.51    0.49
   8   2  -2    7.31    0.32
  -8   2   2    7.72    0.38
  -8   2   2    7.44    0.45
   8   2  -2    7.61    0.41
  -6  -2   2  200.77    5.01
  -6  -2   2  207.94    5.13
   6  -2  -2  183.73    5.23
  -6  -2   2  201.51    4.99
   6  -2  -2  205.15    5.08
   6   2  -2  198.80    5.12
  -6   2   2  183.02    5.20
   4  -2  -2    4.49    0.26
   4  -2  -2    4.62    0.26
  -4  -2   2    4.32    0.28
  -4  -2   2    5.23    0.24
   4  -2  -2    4.49    0.19
   4  -2  -2    4.25    0.33
  -4  -2   2    4.43    0.22
  -4   2   2    4.72    0.19
  -4   2   2    4.41    0.32
   4   2  -2    4.29    0.28
  -2  -2   2  322.75    8.14
  -2  -2   2  296.47    8.00
   2  -2  -2  332.71    7.96
   2  -2  -2  305.11    8.06
   2  -2  -2  297.07    8.20
  -2   2   2  335.95    8.24
  -2   2   2  294.30    8.05
  -2   2   2  314.08    8.20
   2   2  -2  324.55    8.07
   0  -2   2   12.34    0.49
   0  -2  -2   12.21    0.51
   0  -2  -2   11.38    0.45
   0  -2  -2   13.42    0.50
   0   2   2   12.91    0.48
   0   2   2   12.77    0.49
   0   2  -2   12.62    0.50
   0   2   2   11.76    0.52
  -2  -2  -2  125.63    3.36
   2  -2   2  127.07    3.41
  -2  -2  -2  127.67    3.35
  -2  -2  -2  129.45    3.37
   2   2   2  125.95    3.38
  -2   2  -2  125.52    3.41
   2   2   2  124.00    3.38
   2   2   2  128.74    3.39
  -4  -2  -2  103.39    2.81
  -4  -2  -2  102.88    2.73
   4  -2   2  105.10    2.89
   4   2   2   98.34    2.75
   4   2   2  103.81    2.85
  -4   2  -2  103.08    2.90
  -6  -2  -2   65.46    1.97
   6  -2   2   69.46    2.06
  -6  -2  -2   65.52    1.96
  -6  -2  -2   66.69    1.82
   6   2   2   65.32    1.84
   6   2   2   68.25    2.04
   6   2   2   70.68    2.04
  -6   2  -2   67.06    2.08
   8  -2   2   72.26    2.24
  -8  -2  -2   71.58    2.16
  -8  -2  -2   71.63    2.18
   8   2   2   72.63    2.24
  -8   2  -2   73.40    2.33
   8   2   2   74.66    2.24
 -10  -2  -2   54.09    1.80
  10  -2   2   59.57    1.85
 -10  -2  -2   54.07    1.84
  10  -2   2   58.42    1.92
  10   2   2   54.36    1.89
  10   2   2   56.63    1.91
 -10   2  -2   60.04    1.99
 -12  -2  -2   58.37    1.89
 -12  -2  -2   56.31    1.95
  12  -2   2   58.79    1.90
  12  -2   2   58.61    1.99
 -12   2  -2   55.57    2.10
  12   2   2   55.72    1.97
  12   2   2   56.73    2.02
  14  -2   2    4.93    0.60
 -14  -2  -2    4.07    0.62
 -14  -2  -2    3.14    0.47
  14  -2   2    4.04    0.60
 -14   2  -2    3.68    0.56
  14   2   2    3.97    0.55
  14   2   2    3.64    0.55
 -16  -2  -2   49.62    1.93
 -16  -2  -2   51.90    1.87
  16  -2   2   53.95    1.89
  16  -2   2   50.79    1.59
 -16   2  -2   52.28    2.06
  16   2   2   52.50    2.03
  18  -2   2    5.64    0.73
  18  -2   2    5.37    0.44
 -18  -2  -2    4.24    0.68
 -18   2  -2    6.27    0.94
  18   2   2    4.33    0.68
 -20  -2  -2    8.37    1.04
  20  -2   2    8.43    1.05
  20   2   2    9.32    1.04
  20   2   2    9.10    1.00
 -20   2  -2    7.94    1.16
  22  -2   2    3.72    0.67
  22   2   2    2.27    0.77
 -23  -3   2    3.53    0.55
  23  -3  -2    2.45    0.55
 -23  -3   2    2.80    0.52
  23  -3  -2    2.24    0.77
  23   3  -2    3.31    0.65
 -23   3   2    1.64    0.62
  23   3  -2    2.36    0.51
  21  -3  -2   33.26    1.48
  21  -3  -2   30.10    1.21
 -21  -3   2   34.83    1.33
 -21  -3   2   35.93    1.41
 -21   3   2   32.04    1.55
  21   3  -2   35.77    1.51
  21   3  -2   33.26    1.53
 -19  -3   2   15.67    0.88
  19  -3  -2   14.57    0.73
  19  -3  -2   16.42    0.88
 -19  -3   2   15.15    0.82
 -19  -3   2   14.73    0.61
  19  -3  -2   14.78    0.97
  19   3  -2   15.13    0.96
  19   3  -2   15.32    0.82
 -19   3   2   13.76    0.97
  17  -3  -2   43.09    1.49
 -17  -3   2   49.40    1.65
  17  -3  -2   48.99    1.67
 -17  -3   2   49.12    1.61
  17  -3  -2   47.71    1.80
 -17  -3   2   46.71    1.46
  17   3  -2   48.00    1.58
 -17   3   2   50.48    1.78
  17   3  -2   47.99    1.72
  15  -3  -2   39.55    1.39
  15  -3  -2   37.04    1.18
 -15  -3   2   39.14    1.34
 -15  -3   2   38.74    1.26
 -15  -3   2   39.41    1.33
  15  -3  -2   37.46    1.51
  15   3  -2   38.89    1.42
  15   3  -2   36.47    1.27
 -13  -3   2  142.87    3.88
 -13  -3   2  141.90    3.84
  13  -3  -2  140.54    4.07
  13  -3  -2  140.31    3.87
 -13  -3   2  143.15    3.81
  13  -3  -2  134.49    3.68
 -13   3   2  147.61    3.95
  13   3  -2  141.29    3.79
  13   3  -2  140.51    3.93
  11  -3  -2   83.79    2.36
 -11  -3   2   84.12    2.28
 -11  -3   2   82.29    2.41
 -11  -3   2   83.30    2.39
  11  -3  -2   77.96    2.18
  11  -3  -2   79.75    2.54
  11   3  -2   83.03    2.29
 -11   3   2   86.24    2.41
  11   3  -2   84.02    2.43
  -9  -3   2  207.59    5.44
   9  -3  -2  197.95    5.59
   9  -3  -2  209.68    5.40
  -9  -3   2  203.03    5.29
   9   3  -2  205.59    5.46
  -9   3   2  213.92    5.43
   9   3  -2  207.39    5.33
  -7  -3   2  212.67    5.48
  -7  -3   2  217.79    5.62
   7  -3  -2  218.41    5.57
   7  -3  -2  225.48    5.49
  -7  -3   2  215.17    5.50
   7  -3  -2  200.35    5.72
   7   3  -2  212.47    5.61
  -7   3   2  215.03    5.58
   7   3  -2  210.46    5.49
  -5  -3   2   51.72    1.45
   5  -3  -2   50.61    1.39
  -5  -3   2   50.70    1.55
  -5  -3   2   52.58    1.46
   5  -3  -2   50.52    1.50
   5  -3  -2   51.98    1.50
   5  -3  -2   50.14    1.63
   5   3  -2   52.54    1.55
  -5   3   2   51.81    1.39
   3  -3  -2  407.06    9.72
  -3  -3   2  376.15    9.75
   3  -3  -2  360.25    9.81
  -3  -3   2  375.95    9.92
   3  -3  -2  381.09    9.91
  -3   3   2  389.57    9.84
  -1  -3   2  166.11    4.26
  -1  -3   2  155.21    4.18
   1  -3  -2  156.62    4.14
   1  -3  -2  158.46    4.26
   1  -3  -2  157.46    4.18
   1   3  -2  160.82    4.19
  -1   3   2  158.26    4.19
  -1   3   2  160.63    4.15
  -1  -3  -2  325.23    8.00
   1  -3   2  309.75    8.03
  -1  -3  -2  316.15    8.03
  -1  -3  -2  316.34    8.02
   1   3   2  306.03    8.00
   1   3   2  311.74    8.03
  -1   3  -2  302.24    8.04
  -3  -3  -2   62.09    1.74
  -3  -3  -2   59.56    1.77
   3  -3   2   58.72    1.81
  -3  -3  -2   60.80    1.78
  -3   3  -2   61.27    1.84
   3   3   2   61.54    1.81
  -5  -3  -2  362.89    9.45
   5  -3   2  359.57    9.52
  -5  -3  -2  385.66    9.52
  -5  -3  -2  363.77    9.45
   5   3   2  365.50    9.49
  -5   3  -2  365.79    9.56
   5   3   2  374.90    9.52
  -7  -3  -2   22.42    0.87
  -7  -3  -2   22.31    0.74
   7  -3   2   20.52    0.91
  -7  -3  -2   21.88    0.88
  -7   3  -2   22.77    0.99
   7   3   2   21.87    0.93
   7   3   2   21.71    0.91
  -9  -3  -2  246.44    6.59
  -9  -3  -2  248.54    6.59
   9  -3   2  250.45    6.70
   9   3   2  248.21    6.67
  -9   3  -2  250.89    6.77
   9   3   2  248.68    6.69
 -11  -3  -2   33.74    1.87
  11  -3   2   42.25    1.48
 -11  -3  -2   41.63    1.46
  11   3   2   41.49    1.59
 -11   3  -2   41.36    1.86
 -13  -3  -2   64.83    2.12
  13  -3   2   66.58    2.20
 -13  -3  -2   63.84    2.15
  13  -3   2   65.05    2.21
  13   3   2   63.02    2.25
  13   3   2   65.39    2.25
 -13   3  -2   68.49    2.37
 -15  -3  -2   31.45    1.33
 -15  -3  -2   31.90    1.40
  15  -3   2   34.83    1.36
 -15   3  -2   32.28    1.57
  15   3   2   30.76    1.49
 -17  -3  -2   34.15    1.45
 -17  -3  -2   33.37    1.52
  17  -3   2   34.80    1.45
  17  -3   2   33.74    1.26
 -17   3  -2   36.28    1.75
  17   3   2   36.62    1.66
 -19  -3  -2    4.20    0.85
  19  -3   2    4.76    0.54
  19  -3   2    4.91    0.64
 -19  -3  -2    6.50    0.76
  19   3   2    6.37    0.93
 -19   3  -2    4.90    0.85
  21  -3   2    4.21    0.75
  22  -4  -2   12.76    1.07
  22  -4  -2   11.56    0.76
  22  -4  -2   14.44    0.96
 -22  -4   2   14.74    0.93
 -22  -4   2   12.56    0.85
 -22   4   2   11.71    1.15
  22   4  -2   12.02    1.07
  22   4  -2   12.19    0.89
  20  -4  -2   10.42    0.94
  20  -4  -2    8.23    0.60
 -20  -4   2    8.72    0.70
 -20  -4   2    8.75    0.75
  20   4  -2    9.87    0.89
 -20   4   2    8.08    0.90
  20   4  -2    8.45    0.71
 -18  -4   2   21.45    0.81
 -18  -4   2   22.54    1.01
  18  -4  -2   20.61    0.84
 -18  -4   2   20.93    0.99
  18  -4  -2   22.51    1.06
  18   4  -2   21.26    1.13
 -18   4   2   24.33    1.26
  18   4  -2   20.06    0.96
  16  -4  -2   38.39    1.22
  16  -4  -2   39.17    1.46
  16  -4  -2   39.95    1.63
 -16  -4   2   38.48    1.29
 -16  -4   2   39.95    1.37
 -16   4   2   40.40    1.56
  16   4  -2   39.02    1.36
 -14  -4   2  111.13    3.15
  14  -4  -2  115.42    3.24
  14  -4  -2  107.57    2.99
 -14  -4   2  115.46    3.24
 -14  -4   2  116.63    3.13
  14  -4  -2  110.46    3.42
  14   4  -2  111.76    3.30
 -14   4   2  113.42    3.32
  14   4  -2  110.77    3.14
  12  -4  -2    3.73    0.44
 -12  -4   2    4.36    0.36
  12  -4  -2    3.74    0.30
 -12  -4   2    3.71    0.42
  12  -4  -2    3.52    0.27
  12  -4  -2    4.20    0.55
 -12  -4   2    4.26    0.45
  12   4  -2    3.82    0.48
 -12   4   2    3.81    0.49
  12   4  -2    3.34    0.37
  10  -4  -2  205.48    5.40
  10  -4  -2  201.03    5.22
 -10  -4   2  205.17    5.29
 -10  -4   2  203.63    5.44
  10  -4  -2  196.74    5.60
  10   4  -2  206.79    5.48
  10   4  -2  202.34    5.32
 -10   4   2  206.84    5.45
   8  -4  -2   46.59    1.67
   8  -4  -2   48.63    1.38
  -8  -4   2   47.27    1.42
  -8  -4   2   48.57    1.56
   8  -4  -2   48.15    1.50
  -8  -4   2   48.88    1.45
  -8   4   2   47.89    1.53
   8   4  -2   48.90    1.44
   8   4  -2   47.62    1.56
  -6  -4   2  209.12    5.48
   6  -4  -2  202.87    5.70
   6  -4  -2  207.53    5.41
  -6  -4   2  213.30    5.47
   6  -4  -2  216.49    5.56
   6  -4  -2  216.73    5.55
  -6  -4   2  210.64    5.60
   6   4  -2  211.33    5.59
  -4  -4   2   57.99    1.69
   4  -4  -2   57.80    1.85
   4  -4  -2   56.43    1.72
  -4  -4   2   57.65    1.77
   4  -4  -2   56.22    1.72
  -4  -4   2   59.11    1.69
   4  -4  -2   59.09    1.64
   4   4  -2   57.80    1.75
  -4   4   2   59.83    1.64
   4   4  -2   58.48    1.72
   2  -4  -2  308.86    7.89
  -2  -4   2  303.39    7.94
  -2  -4   2  299.22    8.01
   2  -4  -2  314.48    7.97
   2   4  -2  309.21    7.95
  -2   4   2  315.11    7.91
  -2   4   2  311.78    7.97
   0  -4  -2    5.35    0.39
   0  -4   2    6.24    0.43
   0  -4  -2    5.77    0.39
   0  -4  -2    5.13    0.35
   0  -4   2    5.88    0.39
   0   4   2    6.32    0.38
   0   4   2    5.42    0.39
   0   4  -2    5.88    0.41
  -2  -4  -2  190.91    5.11
  -2  -4  -2  194.87    5.11
   2  -4   2  190.54    5.14
  -2  -4  -2  201.25    5.14
  -2   4  -2  187.68    5.16
   2   4   2  194.00    5.15
   2   4   2  194.80    5.13
  -4  -4  -2  176.45    4.54
  -4  -4  -2  170.24    4.59
  -4  -4  -2  169.32    4.59
   4  -4   2  168.95    4.63
   4   4   2  172.94    4.63
  -4   4  -2  166.85    4.66
   4   4   2  174.23    4.63
  -6  -4  -2   73.28    2.19
  -6  -4  -2   74.74    2.07
   6  -4   2   73.01    2.24
  -6  -4  -2   73.14    2.18
  -6   4  -2   74.64    2.30
   6   4   2   72.67    2.24
   6   4   2   72.64    2.23
  -8  -4  -2   69.88    2.11
  -8  -4  -2   69.27    1.91
  -8  -4  -2   69.54    2.12
   8  -4   2   67.67    2.19
   8   4   2   66.54    2.18
   8   4   2   69.55    2.17
  -8   4  -2   69.69    2.27
 -10  -4  -2   87.07    2.24
 -10  -4  -2   80.69    2.72
  10  -4   2   85.16    2.74
  10   4   2   78.45    3.28
 -10   4  -2   88.87    2.79
 -12  -4  -2   64.97    2.13
 -12  -4  -2   67.37    2.15
  12  -4   2   64.57    2.23
  12   4   2   65.64    2.27
  12   4   2   66.57    2.24
 -12   4  -2   67.70    2.36
  14  -4   2    8.64    0.72
 -14  -4  -2    7.94    0.71
 -14  -4  -2    7.55    0.71
 -14   4  -2    7.63    0.88
  14   4   2    7.46    0.80
  16  -4   2   45.60    1.68
 -16  -4  -2   42.45    1.72
 -16  -4  -2   43.70    1.71
 -16   4  -2   46.01    2.00
  16   4   2   43.42    1.86
  18  -4   2    8.44    0.80
 -18  -4  -2    7.50    0.81
  18  -4   2    8.76    0.73
 -18  -4  -2    8.32    0.89
 -18   4  -2    9.84    1.17
  18   4   2    8.99    1.04
 -20  -4  -2    6.75    0.88
  20  -4   2    7.84    0.74
  20   4   2    6.03    0.92
 -23  -5   2    2.40    0.51
  23  -5  -2    1.56    0.69
 -23  -5   2    1.30    0.52
  23   5  -2    0.60    0.51
  23   5  -2    1.84    0.71
  21  -5  -2   17.22    1.20
 -21  -5   2   16.75    0.95
  21  -5  -2   14.77    0.79
 -21  -5   2   15.64    0.93
  21  -5  -2   15.43    1.03
  21   5  -2   14.68    0.93
 -21   5   2   17.09    1.28
  19  -5  -2    5.32    0.48
 -19  -5   2    5.23    0.42
  19  -5  -2    5.65    0.86
 -19  -5   2    4.43    0.62
 -19  -5   2    6.04    0.61
  19   5  -2    4.83    0.62
  19   5  -2    6.19    0.84
 -19   5   2    5.94    0.85
 -17  -5   2   18.16    0.77
  17  -5  -2   17.25    0.72
  17  -5  -2   18.63    0.97
  17  -5  -2   16.50    0.76
  17  -5  -2   19.87    1.17
 -17  -5   2   17.62    0.93
 -17  -5   2   18.23    0.86
 -17   5   2   17.29    1.08
  17   5  -2   17.77    1.06
  17   5  -2   15.97    0.87
  15  -5  -2   15.20    0.64
 -15  -5   2   15.49    0.76
 -15  -5   2   16.16    0.87
  15  -5  -2   14.41    0.67
  15  -5  -2   15.29    0.85
  15  -5  -2   17.09    1.06
 -15  -5   2   15.09    0.75
 -15   5   2   17.16    0.98
  15   5  -2   15.60    0.79
  15   5  -2   15.25    0.93
  13  -5  -2   46.18    1.39
 -13  -5   2   44.90    1.65
  13  -5  -2   46.53    1.80
 -13  -5   2   45.60    1.46
  13  -5  -2   46.08    1.58
 -13   5   2   46.64    1.68
  13   5  -2   43.78    1.85
 -11  -5   2   19.58    0.83
 -11  -5   2   20.19    0.93
  11  -5  -2   20.12    1.06
 -11  -5   2   20.47    0.79
  11  -5  -2   19.37    0.74
  11   5  -2   20.16    0.96
 -11   5   2   21.36    0.96
  11   5  -2   19.55    0.84
  -9  -5   2   74.62    2.12
   9  -5  -2   69.92    2.39
  -9  -5   2   75.82    2.28
   9  -5  -2   73.84    2.22
   9  -5  -2   72.85    2.06
  -9  -5   2   74.97    2.17
   9   5  -2   73.26    2.15
   9   5  -2   73.62    2.28
  -9   5   2   74.10    2.26
  -7  -5   2   57.20    1.81
  -7  -5   2   55.79    1.68
   7  -5  -2   54.46    1.90
   7  -5  -2   54.50    1.73
   7  -5  -2   55.17    1.61
  -7  -5   2   56.45    1.70
   7   5  -2   55.69    1.79
   5  -5  -2    3.39    0.38
  -5  -5   2    4.49    0.36
   5  -5  -2    3.77    0.40
  -5  -5   2    3.65    0.40
  -5  -5   2    3.39    0.34
   5  -5  -2    3.69    0.33
   5   5  -2    4.28    0.42
  -5   5   2    4.22    0.31
   3  -5  -2  118.70    3.34
   3  -5  -2  121.68    3.27
  -3  -5   2  118.74    3.40
   3  -5  -2  121.25    3.36
  -3  -5   2  121.85    3.32
   3  -5  -2  119.41    3.46
  -3  -5   2  116.93    3.30
  -3   5   2  121.02    3.26
   3   5  -2  121.32    3.32
   3   5  -2  122.77    3.38
   1  -5  -2   26.68    0.93
   1  -5  -2   25.63    0.98
  -1  -5   2   25.50    0.96
  -1  -5   2   26.56    1.04
   1  -5  -2   26.23    1.05
  -1   5   2   26.18    0.94
  -1   5   2   25.32    0.97
   1   5  -2   25.62    0.98
  -1  -5  -2   74.35    2.25
   1  -5   2   76.68    2.27
  -1  -5  -2   75.34    2.23
  -1  -5  -2   78.39    2.31
   1  -5   2   79.57    2.40
   1   5   2   76.41    2.26
  -1   5  -2   76.45    2.30
   1   5   2   77.18    2.29
  -3  -5  -2   16.12    0.75
  -3  -5  -2   15.64    0.73
  -3  -5  -2   17.01    0.74
   3  -5   2   16.34    0.76
  -3   5  -2   16.03    0.79
   3   5   2   16.02    0.76
   3   5   2   16.46    0.76
   5  -5   2  129.45    3.69
  -5  -5  -2  131.77    3.58
  -5  -5  -2  132.27    3.65
  -5  -5  -2  131.36    3.65
  -5   5  -2  125.50    3.73
   5   5   2  130.36    3.69
   5   5   2  134.75    3.72
  -7  -5  -2    1.04    0.22
   7  -5   2    1.36    0.32
  -7  -5  -2    1.11    0.29
  -7  -5  -2    2.37    0.49
   7   5   2    0.73    0.28
  -7   5  -2    0.81    0.30
   7   5   2    0.95    0.32
  -9  -5  -2   88.27    2.74
  -9  -5  -2   86.60    2.77
  -9  -5  -2   95.42    2.50
  -9   5  -2   84.17    3.09
   9   5   2   92.94    2.84
   9   5   2   93.58    2.83
 -11  -5  -2   17.42    0.63
  11  -5   2   19.62    1.02
 -11  -5  -2   17.44    0.90
 -11  -5  -2   17.60    0.91
 -11   5  -2   18.51    1.12
  11   5   2   18.25    0.99
  11   5   2   17.33    1.01
 -13  -5  -2   22.04    1.07
 -13  -5  -2   20.93    1.05
  13  -5   2   21.81    1.16
  13   5   2   21.37    1.17
 -13   5  -2   21.41    1.28
 -15  -5  -2   13.01    0.88
 -15  -5  -2   12.54    0.89
  15  -5   2   13.28    0.90
  15   5   2   11.48    1.04
 -15   5  -2   12.39    1.12
  17  -5   2   19.22    1.08
 -17  -5  -2   17.54    1.09
 -17  -5  -2   17.90    1.11
 -17   5  -2   17.52    1.38
  17   5   2   17.87    1.27
 -19  -5  -2    1.61    0.49
 -19  -5  -2    2.14    0.67
 -19   5  -2    2.02    1.42
  19   5   2    2.79    0.72
  21  -5   2    3.79    0.65
  22  -6  -2   10.00    1.15
 -22  -6   2    8.11    0.89
 -22  -6   2    8.15    0.89
  22   6  -2   10.93    1.14
  22   6  -2    7.40    0.94
 -20  -6   2   11.35    0.86
 -20  -6   2   12.48    0.80
 -20  -6   2   10.52    0.57
  20  -6  -2   11.15    0.74
  20  -6  -2   11.25    0.66
  20  -6  -2   12.02    1.11
  20  -6  -2   11.01    0.97
 -20   6   2   13.26    1.21
  20   6  -2   10.79    0.85
  18  -6  -2   18.06    1.03
  18  -6  -2   17.53    0.82
 -18  -6   2   17.80    0.89
  18  -6  -2   16.34    0.75
 -18  -6   2   17.13    0.98
 -18  -6   2   17.73    0.79
  18  -6  -2   21.01    1.25
 -18   6   2   16.65    1.18
  18   6  -2   18.86    1.13
  16  -6  -2   23.61    0.87
  16  -6  -2   22.84    0.94
  16  -6  -2   25.94    1.36
  16  -6  -2   24.78    1.17
 -16  -6   2   23.00    1.01
 -16  -6   2   24.53    1.15
 -16  -6   2   23.94    1.00
  16   6  -2   24.57    1.07
 -16   6   2   23.80    1.27
  16   6  -2   23.79    1.23
 -14  -6   2   73.67    2.23
  14  -6  -2   75.59    2.38
  14  -6  -2   74.61    2.60
  14  -6  -2   73.12    2.17
 -14  -6   2   78.81    2.44
 -14   6   2   73.84    2.49
  14   6  -2   72.98    2.46
  14   6  -2   74.94    2.31
 -12  -6   2   18.61    0.82
  12  -6  -2   19.23    0.79
  12  -6  -2   19.59    0.93
  12  -6  -2   20.11    1.33
 -12  -6   2   19.44    0.98
 -12  -6   2   19.10    0.90
 -12   6   2   19.54    1.01
  12   6  -2   18.83    1.01
  12   6  -2   19.49    0.88
  10  -6  -2  128.06    3.53
  10  -6  -2  125.05    3.35
 -10  -6   2  123.27    3.41
  10  -6  -2  105.67    3.93
 -10  -6   2  128.91    3.49
 -10   6   2  124.21    3.58
  -8  -6   2   50.47    1.64
   8  -6  -2   50.29    1.72
  -8  -6   2   51.43    1.61
   8  -6  -2   48.30    1.84
  -8  -6   2   53.44    1.76
   8  -6  -2   49.04    1.54
   8   6  -2   48.41    1.72
   6  -6  -2  131.48    3.99
   6  -6  -2  135.63    4.16
  -6  -6   2  138.32    3.90
  -6  -6   2  139.81    3.78
  -6  -6   2  139.17    3.80
   6  -6  -2  135.19    3.71
   6  -6  -2  137.02    3.83
   6   6  -2  139.04    3.89
   4  -6  -2   55.81    1.97
   4  -6  -2   58.38    1.77
  -4  -6   2   58.99    1.82
   4  -6  -2   58.60    1.87
  -4  -6   2   58.75    1.82
  -4  -6   2   58.94    1.91
   4  -6  -2   57.71    1.85
   4   6  -2   57.33    1.87
  -4   6   2   57.62    1.75
   2  -6  -2  215.33    5.80
  -2  -6   2  221.93    5.78
  -2  -6   2  216.90    5.86
   2  -6  -2  212.55    5.89
   2  -6  -2  210.73    5.71
   2  -6  -2  214.45    5.80
  -2   6   2  218.99    5.72
   2   6  -2  216.99    5.79
   0  -6   2   42.07    1.43
   0  -6  -2   39.98    1.48
   0  -6   2   43.60    1.51
   0  -6  -2   41.14    1.44
   0  -6  -2   41.49    1.48
   0   6   2   40.71    1.43
   0   6   2   40.44    1.39
   0   6  -2   39.84    1.44
   2  -6   2  119.41    3.43
  -2  -6  -2  117.87    3.38
  -2  -6  -2  113.76    3.32
  -2  -6  -2  116.90    3.30
   2  -6   2  116.23    3.34
   2   6   2  117.05    3.35
  -2   6  -2  114.83    3.38
   2   6   2  116.68    3.33
  -4  -6  -2  101.15    2.89
  -4  -6  -2   98.59    2.90
  -4  -6  -2   98.99    2.90
   4  -6   2   97.19    2.93
   4  -6   2  100.21    3.02
   4   6   2   99.35    2.94
   4   6   2  100.79    2.96
  -4   6  -2   97.22    2.98
  -6  -6  -2   85.39    2.58
  -6  -6  -2   87.59    2.50
  -6  -6  -2   83.97    2.56
   6  -6   2   83.40    2.62
  -6   6  -2   83.08    2.68
   6   6   2   85.11    2.62
   6   6   2   85.85    2.65
  -8  -6  -2   69.70    2.25
  -8  -6  -2   71.38    2.24
   8  -6   2   67.51    2.34
  -8  -6  -2   72.26    2.10
  -8   6  -2   70.90    2.51
   8   6   2   72.09    2.36
   8   6   2   71.75    2.31
  10  -6   2   51.19    1.88
 -10  -6  -2   51.36    1.58
 -10  -6  -2   52.92    1.83
 -10  -6  -2   51.24    1.79
  10   6   2   52.39    1.93
  10   6   2   52.96    1.88
 -10   6  -2   52.09    2.00
 -12  -6  -2   37.55    1.17
 -12  -6  -2   39.98    1.52
 -12  -6  -2   37.87    1.49
  12  -6   2   38.98    1.61
 -12   6  -2   38.34    1.74
 -14  -6  -2   13.62    0.92
 -14  -6  -2   14.18    0.94
 -14   6  -2   16.96    1.25
 -16  -6  -2   29.21    1.38
  16  -6   2   29.81    1.38
 -16  -6  -2   28.85    1.42
  16   6   2   29.79    1.57
 -16   6  -2   30.41    1.74
 -18  -6  -2    6.85    0.86
 -18  -6  -2    8.63    0.98
  18   6   2    7.14    0.98
 -18   6  -2    6.37    1.21
  20  -6   2    5.73    0.90
  20  -6   2    6.17    0.99
 -21  -7   2   12.20    0.95
  21  -7  -2   10.77    1.23
 -21  -7   2   12.17    1.05
  21   7  -2   14.04    1.28
  19  -7  -2    5.83    0.69
 -19  -7   2    7.89    0.68
 -19  -7   2    5.97    0.56
  19  -7  -2    8.01    0.92
  19  -7  -2    9.48    1.04
  19  -7  -2    7.96    0.58
 -19  -7   2    6.34    0.80
  19   7  -2    6.29    0.76
 -19   7   2    7.91    1.12
  19   7  -2    7.42    0.93
  17  -7  -2   23.18    1.02
  17  -7  -2   24.54    1.43
  17  -7  -2   23.68    1.18
 -17  -7   2   24.23    1.22
 -17  -7   2   21.21    1.08
 -17  -7   2   24.04    1.03
 -17  -7   2   22.93    1.05
  17  -7  -2   23.92    0.92
 -17   7   2   25.64    1.40
 -15  -7   2   31.38    1.32
 -15  -7   2   34.46    1.44
 -15  -7   2   33.80    1.26
  15  -7  -2   33.79    1.63
  15  -7  -2   32.91    1.23
 -15   7   2   33.82    1.54
  15   7  -2   34.04    1.34
  15   7  -2   34.26    1.50
 -13  -7   2   43.35    1.63
 -13  -7   2   39.74    1.42
  13  -7  -2   40.18    1.75
 -13  -7   2   40.49    1.52
  13  -7  -2   42.26    1.56
  13  -7  -2   40.42    1.39
  13   7  -2   40.37    1.65
  13   7  -2   40.05    1.50
 -13   7   2   41.45    1.67
  11  -7  -2   34.77    1.23
  11  -7  -2   34.84    1.37
 -11  -7   2   34.22    1.43
 -11  -7   2   34.19    1.26
  11  -7  -2   33.53    1.54
 -11  -7   2   34.79    1.33
  11   7  -2   34.07    1.44
 -11   7   2   35.49    1.46
   9  -7  -2  105.33    3.18
   9  -7  -2   98.66    3.29
   9  -7  -2  103.88    2.97
   9  -7  -2  104.53    3.11
  -9  -7   2  107.08    3.03
  -9  -7   2  105.81    3.19
  -9  -7   2  108.00    3.09
   9   7  -2  103.49    3.17
  -7  -7   2   89.49    2.65
   7  -7  -2   86.73    2.71
   7  -7  -2   86.30    2.55
   7  -7  -2   84.55    2.84
   7  -7  -2   88.41    2.67
  -7  -7   2   87.87    2.62
  -7  -7   2   88.81    2.74
   7   7  -2   88.14    2.72
  -5  -7   2   40.84    1.61
   5  -7  -2   41.54    1.52
  -5  -7   2   43.26    1.46
   5  -7  -2   35.94    1.63
   5  -7  -2   42.21    1.40
  -5   7   2   42.07    1.36
   5   7  -2   36.55    1.75
  -3  -7   2  147.93    4.16
  -3  -7   2  155.01    4.18
   3  -7  -2  145.99    4.19
   3  -7  -2  146.62    4.32
  -3  -7   2  148.07    4.26
   3  -7  -2  149.17    4.21
   3  -7  -2  150.49    4.12
  -3   7   2  148.28    4.09
   3   7  -2  149.18    4.24
   1  -7  -2   63.48    2.08
   1  -7  -2   62.16    1.99
   1  -7  -2   62.86    2.06
  -1  -7   2   64.23    2.04
   1  -7  -2   64.27    2.14
  -1  -7   2   63.56    2.13
   1   7  -2   61.95    2.06
  -1   7   2   63.00    1.99
  -1  -7  -2   97.25    2.90
   1  -7   2   96.00    2.93
   1  -7   2   94.80    2.82
  -1  -7  -2   94.55    2.83
  -1  -7  -2   93.79    2.79
  -1   7  -2   92.01    2.87
   1   7   2   93.94    2.81
   1   7   2   90.65    2.83
   3  -7   2   96.75    2.98
   3  -7   2   91.72    2.85
  -3  -7  -2   93.02    2.84
  -3  -7  -2   95.23    2.87
  -3  -7  -2   98.52    2.89
   3   7   2   95.18    2.90
  -3   7  -2   97.26    2.95
   3   7   2   94.66    2.89
  -5  -7  -2  129.79    3.77
  -5  -7  -2  134.63    3.75
  -5  -7  -2  131.86    3.78
   5  -7   2  130.62    3.80
  -5   7  -2  130.56    3.88
   5   7   2  127.39    3.80
   5   7   2  131.12    3.82
  -7  -7  -2   10.88    0.74
   7  -7   2   10.28    0.84
  -7  -7  -2   10.51    0.64
   7  -7   2    9.69    0.74
  -7  -7  -2    9.65    0.73
   7   7   2    7.83    0.72
   7   7   2    9.79    0.77
  -7   7  -2    9.88    0.85
   9  -7   2   87.05    2.79
  -9  -7  -2   88.32    2.57
  -9  -7  -2   88.59    2.72
  -9  -7  -2   87.92    2.75
  -9   7  -2   87.25    2.92
   9   7   2   86.46    2.79
 -11  -7  -2   43.70    1.70
 -11  -7  -2   44.47    1.44
 -11  -7  -2   45.04    1.68
  11  -7   2   45.61    1.76
 -11   7  -2   46.21    1.92
  13  -7   2   21.90    1.23
 -13  -7  -2   22.91    1.18
 -13  -7  -2   21.61    0.81
 -13  -7  -2   23.12    1.14
 -13   7  -2   23.58    1.44
 -15  -7  -2   13.35    1.01
 -15  -7  -2   14.04    0.99
  15  -7   2   15.31    1.10
 -15   7  -2   14.01    1.30
  15   7   2   15.97    1.18
 -17  -7  -2   16.34    1.22
  17   7   2   17.68    1.72
  19  -7   2    3.18    0.62
 -20  -8   2    4.98    0.69
 -18  -8   2    5.73    0.65
  18  -8  -2    6.28    0.61
 -18  -8   2    4.80    0.91
  18  -8  -2    6.93    0.74
 -18  -8   2    5.78    0.67
 -18  -8   2    6.86    0.90
  18  -8  -2    6.71    1.07
  18   8  -2    8.53    0.97
 -18   8   2    3.71    0.91
  18   8  -2    4.71    0.64
  16  -8  -2    8.46    1.01
 -16  -8   2    7.70    0.83
  16  -8  -2    8.67    0.74
 -16  -8   2    7.72    0.74
  16  -8  -2    8.05    0.83
 -16  -8   2    8.59    0.67
  16   8  -2    9.12    0.91
 -16   8   2    6.92    0.99
  16   8  -2    7.49    0.75
 -14  -8   2   23.91    1.22
 -14  -8   2   21.88    1.12
  14  -8  -2   22.64    1.36
  14  -8  -2   23.30    1.04
 -14  -8   2   22.31    1.01
 -14   8   2   23.48    1.31
 -12  -8   2    7.70    0.69
 -12  -8   2    8.20    0.79
 -12  -8   2    8.83    0.63
  12  -8  -2    7.12    0.64
  12  -8  -2    7.37    0.86
  12   8  -2    7.62    0.77
 -10  -8   2   37.38    1.36
  10  -8  -2   33.83    1.59
 -10  -8   2   34.81    1.40
 -10  -8   2   35.06    1.49
  10  -8  -2   35.34    1.54
  10  -8  -2   35.49    1.32
  10   8  -2   35.22    1.50
   8  -8  -2   14.54    0.93
  -8  -8   2   14.81    0.91
  -8  -8   2   13.49    0.81
   8  -8  -2   13.35    0.77
  -8  -8   2   13.50    0.90
   8  -8  -2   13.35    0.98
   8   8  -2   12.97    0.89
   6  -8  -2   30.72    1.42
   6  -8  -2   30.43    1.21
  -6  -8   2   30.55    1.35
  -6  -8   2   31.05    1.25
   6  -8  -2   30.66    1.33
   6  -8  -2   29.73    1.26
  -6  -8   2   31.95    1.27
   6   8  -2   30.35    1.29
  -4  -8   2   16.07    0.95
  -4  -8   2   16.19    0.88
   4  -8  -2   16.94    1.02
  -4  -8   2   15.34    0.86
   4  -8  -2   16.50    0.85
   4  -8  -2   16.43    0.94
   4  -8  -2   14.93    0.88
   4   8  -2   16.94    0.92
  -4   8   2   16.91    0.80
  -2  -8   2   58.41    1.97
   2  -8  -2   59.07    2.10
  -2  -8   2   58.46    1.96
   2  -8  -2   57.20    1.99
   2  -8  -2   57.49    1.91
  -2  -8   2   57.74    2.04
   2  -8  -2   56.08    1.97
  -2   8   2   57.01    1.89
   0  -8  -2    9.53    0.71
   0  -8  -2   10.52    0.76
   0  -8  -2    9.16    0.94
   0  -8   2   10.97    0.73
   0  -8   2    9.38    0.79
   0  -8  -2   10.45    0.79
   0   8  -2   11.12    0.81
   0   8   2   10.53    0.71
  -2  -8  -2   26.06    1.17
  -2  -8  -2   24.30    1.37
   2  -8   2   26.28    1.31
  -2  -8  -2   26.01    1.15
  -2  -8  -2   25.90    1.22
   2  -8   2   26.51    1.17
   2   8   2   25.36    1.15
  -2   8  -2   25.56    1.22
   2   8   2   25.75    1.19
  -4  -8  -2   23.85    1.13
   4  -8   2   23.31    1.20
  -4  -8  -2   23.75    1.14
   4  -8   2   25.37    1.26
  -4  -8  -2   25.04    1.14
   4   8   2   24.53    1.16
   4   8   2   23.45    1.15
  -4   8  -2   25.19    1.25
  -6  -8  -2   26.37    1.22
  -6  -8  -2   28.01    1.17
   6  -8   2   27.22    1.25
  -6  -8  -2   25.78    1.19
   6  -8   2   27.47    1.36
   6   8   2   27.37    1.25
  -6   8  -2   26.01    1.33
   6   8   2   25.95    1.26
  -8  -8  -2   24.76    1.20
   8  -8   2   24.80    1.30
  -8  -8  -2   24.04    1.17
   8  -8   2   24.07    1.20
  -8  -8  -2   26.56    1.09
   8   8   2   24.40    1.23
  -8   8  -2   24.48    1.33
  10  -8   2   17.72    1.05
  10  -8   2   15.43    1.11
 -10  -8  -2   17.70    0.83
 -10  -8  -2   16.00    0.98
 -10  -8  -2   16.74    1.02
 -10   8  -2   17.44    1.21
 -12  -8  -2   10.92    0.66
  12  -8   2   10.49    0.92
 -12  -8  -2   11.37    0.93
 -12  -8  -2   11.12    0.88
 -12   8  -2   13.33    1.18
 -14  -8  -2    5.84    0.83
  14  -8   2    7.08    0.87
 -14  -8  -2    5.78    0.77
 -14  -8  -2    6.33    0.44
 -14   8  -2    5.97    0.96
  14   8   2    5.17    0.97
  18  -8   2    1.67    0.61
 -17  -9   2    9.01    1.13
  17  -9  -2    9.45    0.91
 -17  -9   2    9.38    0.83
  17  -9  -2    9.76    1.22
  15  -9  -2   14.74    1.24
  15  -9  -2   14.09    0.93
 -15  -9   2   13.71    1.10
 -15  -9   2   13.95    0.88
 -15  -9   2   13.84    1.08
  15  -9  -2   14.24    1.05
  15   9  -2   16.92    1.13
  13  -9  -2   19.02    1.02
 -13  -9   2   19.68    1.09
 -13  -9   2   18.91    0.99
  13  -9  -2   20.00    1.31
 -13  -9   2   20.94    1.21
  13   9  -2   19.60    1.20
  11  -9  -2   17.80    1.22
 -11  -9   2   19.78    1.15
  11  -9  -2   17.87    0.99
  11  -9  -2   17.00    1.20
 -11  -9   2   18.38    1.04
 -11  -9   2   18.70    0.97
   9  -9  -2   41.95    1.55
  -9  -9   2   40.50    1.62
   9  -9  -2   41.01    1.82
   9  -9  -2   41.41    1.75
  -9  -9   2   40.61    1.70
  -9  -9   2   40.28    1.55
  -7  -9   2   35.91    1.48
  -7  -9   2   36.87    1.59
   7  -9  -2   37.48    1.59
   7  -9  -2   36.64    1.44
   7  -9  -2   35.07    1.65
  -7  -9   2   37.52    1.51
   5  -9  -2   18.67    1.17
   5  -9  -2   20.36    1.13
  -5  -9   2   21.15    1.06
   5  -9  -2   19.72    1.06
   5  -9  -2   20.23    1.03
  -5  -9   2   19.28    1.03
  -5  -9   2   18.91    1.11
  -5   9   2   19.86    0.98
   3  -9  -2   51.95    1.91
  -3  -9   2   55.24    1.91
   3  -9  -2   51.96    1.94
   3  -9  -2   53.69    1.92
   3  -9  -2   53.09    2.05
  -3  -9   2   52.45    1.99
  -3  -9   2   51.65    1.89
  -3   9   2   51.18    1.81
   1  -9  -2   35.91    1.56
  -1  -9   2   33.65    1.45
   1  -9  -2   34.28    1.46
  -1  -9   2   33.15    1.41
   1  -9  -2   34.81    1.41
  -1  -9   2   35.01    1.53
   1  -9  -2   34.95    1.48
  -1   9   2   33.22    1.36
   1  -9   2   32.91    1.64
  -1  -9  -2   37.38    1.56
  -1  -9  -2   34.97    1.51
  -1  -9  -2   35.31    1.50
  -1  -9  -2   35.31    1.45
   1  -9   2   36.09    1.58
  -1   9  -2   35.83    1.57
   1   9   2   35.53    1.44
  -3  -9  -2   37.94    1.57
  -3  -9  -2   37.48    1.52
   3  -9   2   37.47    1.64
  -3  -9  -2   37.44    1.60
  -3  -9  -2   36.90    1.54
   3  -9   2   35.75    1.50
  -3   9  -2   36.28    1.61
   3   9   2   37.88    1.53
   5  -9   2   49.22    1.97
   5  -9   2   47.94    1.83
  -5  -9  -2   48.28    1.83
  -5  -9  -2   47.32    1.81
  -5  -9  -2   51.09    1.83
   5   9   2   49.41    1.87
  -5   9  -2   48.49    1.94
   5   9   2   47.39    1.84
   7  -9   2   11.18    0.88
  -7  -9  -2    9.92    0.88
   7  -9   2   10.21    0.98
  -7  -9  -2    9.61    0.85
  -7  -9  -2   11.03    0.79
   7   9   2   10.02    0.88
   7   9   2   10.41    0.88
  -7   9  -2   10.17    0.97
  -9  -9  -2   32.80    1.38
   9  -9   2   34.69    1.51
  -9  -9  -2   32.64    1.46
   9  -9   2   31.41    1.61
  -9  -9  -2   33.31    1.52
   9   9   2   31.93    1.54
  -9   9  -2   33.17    1.64
  11  -9   2   14.37    1.18
  11  -9   2   17.89    1.15
 -11  -9  -2   18.95    1.12
 -11  -9  -2   19.41    1.22
 -11  -9  -2   19.28    0.90
 -11   9  -2   18.37    1.37
  13  -9   2   10.61    1.12
 -13  -9  -2   10.44    0.63
  13  -9   2    9.96    1.00
 -13  -9  -2   11.06    1.07
 -13  -9  -2   10.57    1.01
 -13   9  -2    8.13    1.26
  13   9   2    9.72    0.99
  13   9   2    8.98    1.25
  15  -9   2    6.73    0.96
  16 -10  -2   16.30    1.50
  14 -10  -2   20.51    1.52
 -14 -10   2   22.93    1.18
 -14 -10   2   25.70    1.58
 -14 -10   2   18.77    1.21
  14 -10  -2   22.47    1.36
  14 -10  -2   23.53    1.53
 -12 -10   2   14.09    1.01
  12 -10  -2   12.00    1.18
 -12 -10   2   14.43    1.15
 -12 -10   2   13.16    0.93
  12 -10  -2   14.88    1.22
  12 -10  -2   13.77    1.01
  12  10  -2   14.16    1.11
 -10 -10   2   39.36    1.75
 -10 -10   2   39.66    1.58
  10 -10  -2   35.98    1.82
 -10 -10   2   40.38    1.67
  10 -10  -2   41.71    1.63
  10 -10  -2   38.15    1.80
  10  10  -2   39.81    1.70
  -8 -10   2   36.98    1.50
   8 -10  -2   35.29    1.66
  -8 -10   2   36.80    1.66
   8 -10  -2   35.99    1.52
  -8 -10   2   36.88    1.57
   8 -10  -2   34.12    1.74
   6 -10  -2   39.47    1.85
   6 -10  -2   42.58    1.79
  -6 -10   2   41.18    1.79
  -6 -10   2   40.45    1.63
   6 -10  -2   43.50    1.75
   6 -10  -2   41.27    1.64
  -6 -10   2   40.92    1.69
  -4 -10   2   44.06    1.83
   4 -10  -2   45.17    1.83
   4 -10  -2   43.93    1.70
  -4 -10   2   42.94    1.99
   4 -10  -2   43.29    1.90
  -4 -10   2   42.25    1.71
   4 -10  -2   43.92    1.74
  -4  10   2   43.15    1.61
   2 -10  -2   65.63    2.42
   2 -10  -2   64.92    2.32
   2 -10  -2   62.52    2.21
   2 -10  -2   63.63    2.27
  -2 -10   2   62.99    2.35
  -2 -10   2   62.56    2.26
  -2 -10   2   66.07    2.26
  -2  10   2   61.70    2.15
   0 -10  -2   28.57    1.34
   0 -10   2   28.50    1.41
   0 -10  -2   29.50    1.47
   0 -10   2   28.76    1.35
   0 -10  -2   29.30    1.40
   0 -10  -2   29.22    1.37
   0 -10   2   27.37    1.43
   0  10   2   29.64    1.32
  -2 -10  -2   49.15    1.91
   2 -10   2   51.71    2.04
   2 -10   2   48.72    2.02
  -2 -10  -2   47.84    1.87
  -2 -10  -2   50.11    1.98
   2 -10   2   49.45    1.88
  -2 -10  -2   49.65    1.98
   2  10   2   49.00    1.87
  -2  10  -2   47.92    1.98
  -4 -10  -2   52.13    2.04
  -4 -10  -2   52.10    1.97
  -4 -10  -2   53.13    2.00
  -4 -10  -2   51.02    1.96
   4 -10   2   53.23    2.13
   4 -10   2   50.73    1.95
  -4  10  -2   50.12    2.09
   4  10   2   50.65    1.96
  -6 -10  -2   29.92    1.44
  -6 -10  -2   31.12    1.46
   6 -10   2   29.00    1.39
   6 -10   2   30.71    1.57
  -6 -10  -2   29.50    1.51
  -6 -10  -2   31.37    1.40
   6  10   2   31.21    1.48
  -6  10  -2   27.71    1.66
   6  10   2   30.38    1.47
  -8 -10  -2   25.25    1.21
   8 -10   2   22.62    1.44
  -8 -10  -2   24.64    1.35
  -8 -10  -2   25.53    1.32
   8 -10   2   23.39    1.30
  -8  10  -2   25.05    1.48
   8  10   2   25.66    1.37
   8  10   2   25.69    1.35
 -10 -10  -2   27.76    1.48
  10 -10   2   25.97    1.55
  10 -10   2   28.52    1.42
 -10 -10  -2   27.29    1.43
 -10 -10  -2   27.23    1.32
  10  10   2   29.95    1.51
  10  10   2   28.61    1.50
 -10  10  -2   26.72    1.65
 -12 -10  -2   14.69    0.85
  12 -10   2   15.46    1.29
 -12  10  -2   15.48    1.80
  14 -10   2    8.15    1.26
 -13 -11   2    9.05    1.17
  13 -11  -2    9.25    1.26
  13 -11  -2    8.33    1.05
  11 -11  -2    7.16    0.96
 -11 -11   2    8.28    1.24
  11 -11  -2   10.53    1.16
   9 -11  -2   14.41    1.07
  -9 -11   2   13.62    1.03
  -9 -11   2   14.55    1.12
   9 -11  -2   13.84    1.05
   9 -11  -2   15.84    1.23
  -9 -11   2   11.20    1.19
   9 -11  -2   12.33    1.26
   9  11  -2   12.41    1.08
   7 -11  -2   11.50    0.98
  -7 -11   2   12.38    1.13
   7 -11  -2   13.44    1.12
   7 -11  -2   12.20    0.97
   7 -11  -2   11.71    1.18
  -7 -11   2   12.52    0.94
  -7 -11   2   13.01    1.04
  -5 -11   2    6.86    0.89
  -5 -11   2    8.37    0.99
   5 -11  -2    8.46    1.01
  -5 -11   2    8.31    0.87
   5 -11  -2    7.84    0.95
   5 -11  -2    6.58    0.83
   5 -11  -2    7.11    0.82
   3 -11  -2   19.57    1.16
  -3 -11   2   19.16    1.16
   3 -11  -2   18.71    1.21
  -3 -11   2   19.08    1.27
   3 -11  -2   15.05    1.09
   3 -11  -2   19.41    1.30
  -3 -11   2   15.55    1.10
  -3  11   2   16.68    0.99
  -1 -11   2   16.41    1.15
   1 -11  -2   15.16    1.16
  -1 -11   2   15.56    1.17
   1 -11  -2   12.26    1.00
   1 -11  -2   14.62    1.12
   1 -11  -2   14.95    1.06
  -1 -11   2   16.03    1.05
  -1  11   2   16.04    0.98
  -1 -11  -2   11.92    1.01
   1 -11   2   12.97    1.13
  -1 -11  -2   12.16    1.00
   1 -11   2   11.99    0.97
  -1 -11  -2   13.81    1.02
  -1 -11  -2   12.68    1.05
   1 -11   2   12.01    1.09
   1  11   2   12.48    0.92
  -3 -11  -2   11.98    0.99
   3 -11   2   10.92    0.94
   3 -11   2   12.89    1.14
   3 -11   2   12.45    1.12
  -3 -11  -2   11.09    1.02
  -3 -11  -2   11.95    1.01
  -3 -11  -2   12.38    1.02
  -3  11  -2   10.09    1.08
   3  11   2   11.16    0.93
  -5 -11  -2   15.59    1.11
   5 -11   2   14.27    1.26
  -5 -11  -2   16.58    1.08
   5 -11   2   15.60    1.10
  -5 -11  -2   15.06    1.13
  -5 -11  -2   17.75    1.19
  -5  11  -2   16.13    1.28
   5  11   2   16.41    1.09
  -7 -11  -2    6.89    0.96
   7 -11   2    8.12    1.10
  -7 -11  -2    7.89    0.81
  -7 -11  -2    8.28    0.99
   7 -11   2    8.48    0.93
  -7 -11  -2    8.42    0.98
   7  11   2    7.43    0.95
  -7  11  -2    7.42    1.00
   9 -11   2   12.21    1.27
   9 -11   2   11.87    1.08
  -9 -11  -2   11.42    1.11
  -9 -11  -2   11.79    0.89
  -9  11  -2   10.16    1.36
 -11 -11  -2    6.43    0.72
  11 -11   2    6.00    0.93
 -10 -12   2   10.27    1.10
  10 -12  -2    8.07    1.13
  10 -12  -2   11.64    1.15
  -8 -12   2   10.56    1.10
   8 -12  -2    8.87    1.22
   8 -12  -2    7.88    1.05
   6 -12  -2    8.44    1.00
   6 -12  -2    9.93    1.19
  -6 -12   2   10.90    1.09
  -4 -12   2    9.45    1.41
  -4 -12   2   11.10    1.05
   4 -12  -2   12.50    1.22
   4 -12  -2   11.30    1.06
   4 -12  -2   12.22    1.36
   4 -12  -2   10.71    1.04
   2 -12  -2   14.93    1.32
  -2 -12   2   13.63    1.33
  -2 -12   2   12.87    1.57
   2 -12  -2   12.78    1.12
   2 -12  -2   12.78    1.09
  -2 -12   2   13.93    1.08
   2 -12  -2   15.08    1.24
  -2  12   2   14.25    0.96
   0 -12   2    5.56    0.87
   0 -12  -2    8.23    1.03
   0 -12  -2    6.56    0.92
   0 -12  -2    6.65    1.04
   0 -12   2    6.89    1.09
   0 -12   2    6.92    0.93
   0 -12  -2    6.32    0.95
   0  12   2    5.72    0.76
  -2 -12  -2   10.85    1.11
  -2 -12  -2   12.19    1.12
   2 -12   2   10.88    1.26
  -2 -12  -2   11.21    1.15
   2 -12   2   10.76    1.28
  -2 -12  -2   11.29    1.10
   2 -12   2   10.84    1.01
   2  12   2   11.83    0.96
   4 -12   2   13.01    1.34
  -4 -12  -2   12.41    1.19
  -4 -12  -2   14.00    1.11
  -4 -12  -2   12.60    1.27
  -4 -12  -2   11.33    1.10
   4 -12   2   13.15    1.06
   4 -12   2   16.07    2.13
   4  12   2   11.95    1.12
  -6 -12  -2    8.11    0.93
   6 -12   2    7.43    1.08
   6 -12   2    6.95    0.96
  -6 -12  -2    6.94    1.05
  -6  12  -2    8.81    1.32
  -8 -12  -2    6.76    0.83
   8 -12   2    6.62    1.26
  -8 -12  -2    5.10    0.79
   5 -13  -2   15.44    1.34
  -5 -13   2   14.24    1.23
  -3 -13   2   19.84    1.33
   3 -13  -2   20.06    1.45
   1 -13  -2   15.93    1.41
  -1 -13   2   14.55    1.19
   1 -13   2   14.07    1.19
   3 -13   2   17.41    1.33
 -24   0   3    7.62    0.74
 -22   0   3    7.54    0.67
  22   0  -3    8.76    0.68
  22   0  -3    9.19    0.71
  20   0  -3   22.88    0.97
  20   0  -3   25.23    1.00
 -20   0   3   22.99    1.05
 -18   0   3   18.25    0.85
  18   0  -3   17.01    0.76
 -18   0   3   17.11    0.77
  16   0  -3  107.71    2.91
 -16   0   3  109.28    3.07
 -16   0   3  104.01    2.87
  16   0  -3  105.68    2.90
  16   0  -3  103.79    3.22
 -16   0   3  107.00    2.90
 -14   0   3   63.24    1.70
  14   0  -3   61.07    1.74
  14   0  -3   62.45    1.74
 -14   0   3   62.10    1.93
 -14   0   3   59.61    1.71
  14   0  -3   60.35    2.06
 -12   0   3   79.55    2.17
  12   0  -3   83.19    2.56
  12   0  -3   81.22    2.19
  12   0  -3   83.05    2.18
 -12   0   3   81.45    2.42
  10   0  -3  315.01    7.94
 -10   0   3  317.32    7.93
 -10   0   3  305.41    8.19
  10   0  -3  320.60    8.32
  -8   0   3  157.38    4.37
   8   0  -3  163.82    4.45
  -8   0   3  160.75    4.10
  -6   0   3  296.17    7.90
   6   0  -3  304.53    7.95
  -6   0   3  307.76    7.76
  -4   0   3  100.52    2.54
   4   0  -3   99.04    2.83
  -4   0   3   96.02    2.82
  -2   0   3  623.22   15.61
  -2   0   3  650.08   15.84
   2   0  -3  569.99   15.78
   2   0  -3  608.23   16.16
   0   0   3   30.56    1.13
   0   0  -3   32.17    1.03
   0   0   3   32.60    1.03
   2   0   3  503.36   13.38
   2   0   3  526.43   13.24
   2   0   3  521.62   13.29
  -2   0  -3  527.72   13.23
   4   0   3   46.28    1.55
   4   0   3   46.24    1.52
   4   0   3   47.31    1.52
  -4   0  -3   48.87    1.55
   6   0   3  162.76    4.45
   6   0   3  152.27    4.30
  -6   0  -3  162.57    4.43
   6   0   3  162.01    4.40
   8   0   3   37.05    1.37
   8   0   3   36.56    1.23
   8   0   3   36.97    1.42
  -8   0  -3   38.84    1.43
  10   0   3  222.13    6.10
  10   0   3  204.02    5.75
  10   0   3  233.93    6.05
 -10   0  -3  223.61    6.08
 -12   0  -3   21.88    1.14
  12   0   3   22.52    1.11
  12   0   3   20.02    0.75
  12   0   3   22.04    1.08
  14   0   3   37.96    1.58
 -14   0  -3   35.08    1.59
  14   0   3   38.21    1.55
  16   0   3   31.54    1.44
 -16   0  -3   28.17    1.47
 -18   0  -3    8.54    1.02
  20   0   3   10.71    1.07
  23  -1  -3    3.81    0.48
 -23  -1   3    3.93    0.55
 -23   1   3    2.99    0.50
  23   1  -3    5.51    0.76
  21  -1  -3   20.49    1.14
  21  -1  -3   21.29    0.98
 -21  -1   3   21.88    0.90
 -21  -1   3   21.10    1.04
  21  -1  -3   21.51    0.88
  21   1  -3   21.40    1.03
 -21   1   3   17.10    0.95
  21   1  -3   22.10    0.93
  19  -1  -3    2.33    0.37
  19  -1  -3    2.75    0.38
 -19  -1   3    2.87    0.37
 -19  -1   3    2.21    0.37
  19  -1  -3    2.99    0.52
  19   1  -3    2.39    0.36
 -19   1   3    2.23    0.38
 -17  -1   3   72.13    2.13
  17  -1  -3   67.13    1.93
  17  -1  -3   67.97    2.05
  17  -1  -3   67.68    2.32
 -17  -1   3   68.38    2.00
 -17  -1   3   68.61    2.01
  17   1  -3   69.77    1.99
 -17   1   3   70.65    2.16
 -17   1   3   69.04    2.05
  17   1  -3   68.99    2.07
  15  -1  -3   10.86    0.56
 -15  -1   3   11.29    0.52
  15  -1  -3   11.42    0.47
  15  -1  -3   11.11    0.79
 -15  -1   3   11.31    0.63
 -15  -1   3   11.58    0.49
  15   1  -3   10.97    0.50
 -15   1   3   12.14    0.55
 -15   1   3   12.03    0.68
  15   1  -3   11.19    0.59
  13  -1  -3  129.20    3.70
 -13  -1   3  124.75    3.50
  13  -1  -3  119.02    3.32
  13  -1  -3  123.35    3.21
 -13  -1   3  124.08    3.32
  13   1  -3  123.86    3.24
 -13   1   3  129.34    3.55
 -13   1   3  128.11    3.29
  13   1  -3  123.64    3.36
 -11  -1   3   16.33    0.76
 -11  -1   3   16.49    0.60
  11  -1  -3   16.25    0.84
  11  -1  -3   15.62    0.57
 -11   1   3   16.24    0.75
  11   1  -3   15.86    0.62
   9  -1  -3  297.25    7.57
  -9  -1   3  305.80    7.65
  -9  -1   3  301.26    7.87
   9  -1  -3  298.52    7.93
  -9   1   3  298.62    7.86
   9   1  -3  300.95    7.65
  -7  -1   3    4.37    0.27
   7  -1  -3    4.27    0.22
  -7  -1   3    4.01    0.38
   7  -1  -3    4.80    0.42
   7  -1  -3    4.50    0.22
  -7   1   3    4.29    0.38
  -5  -1   3  394.58    9.95
  -5  -1   3  400.18    9.91
   5  -1  -3  378.79    9.85
  -5   1   3  371.23    9.82
  -5   1   3  417.37    9.84
  -5   1   3  321.04    9.62
   5   1  -3  384.34    9.65
   3  -1  -3  109.52    2.93
   3  -1  -3  104.39    2.70
  -3  -1   3  101.25    2.71
  -3  -1   3  105.58    2.99
  -3   1   3  109.40    2.71
  -3   1   3  104.24    2.92
  -3   1   3   95.44    2.71
   3   1  -3   92.61    2.87
   1  -1  -3   71.54    1.93
  -1  -1   3   69.60    1.98
   1  -1  -3   70.01    2.05
  -1   1   3   72.86    2.10
   1   1  -3   66.69    2.08
  -1   1   3   71.79    1.94
  -1   1   3   67.40    1.96
  -1  -1  -3   81.29    2.31
  -1  -1  -3   83.41    2.26
   1  -1   3   79.76    2.32
   1   1   3   82.50    2.27
  -1   1  -3   83.47    2.34
   1   1   3   79.52    2.35
   1   1   3   77.13    2.28
   3  -1   3  143.81    3.98
  -3  -1  -3  148.04    3.91
   3   1   3  139.99    3.93
   3   1   3  146.30    3.94
   3   1   3  141.72    3.92
  -3   1  -3  149.34    4.00
   5  -1   3   80.42    2.38
  -5  -1  -3   75.48    2.29
   5   1   3   79.48    2.34
   5   1   3   77.11    2.35
   5   1   3   76.16    2.24
  -5   1  -3   80.34    2.41
   7  -1   3   36.88    1.31
  -7  -1  -3   35.68    1.30
   7  -1   3   35.11    1.34
   7   1   3   34.05    1.13
   7   1   3   35.89    1.32
  -7   1  -3   35.74    1.38
   9  -1   3  137.08    3.94
   9  -1   3  143.74    3.89
  -9  -1  -3  137.55    3.89
   9   1   3  131.62    3.93
  -9   1  -3  137.27    3.98
   9   1   3  126.42    3.59
   9   1   3  137.99    3.91
  11  -1   3    0.69    0.39
  11   1   3    0.79    0.39
 -11   1  -3    0.55    0.44
  11   1   3    0.90    0.36
  13  -1   3   63.36    2.10
 -13  -1  -3   57.07    2.12
  13  -1   3   60.33    2.15
  13   1   3   61.41    2.18
  13   1   3   60.76    2.16
 -13   1  -3   61.27    2.23
 -15  -1  -3   19.43    1.18
  15  -1   3   17.54    0.74
  15  -1   3   22.05    1.13
  15   1   3   20.18    1.19
 -15   1  -3   18.74    1.19
 -17  -1  -3   16.36    1.20
  17  -1   3   19.97    1.15
 -17   1  -3   20.21    1.28
  19  -1   3    0.97    0.49
 -19  -1  -3    2.00    0.62
  19   1   3    1.60    0.62
 -19   1  -3    2.06    0.68
  21  -1   3   11.26    1.15
  21   1   3   10.30    1.52
 -24  -2   3    8.20    0.71
  24  -2  -3    7.98    1.00
  24  -2  -3    9.31    0.79
 -24   2   3    7.83    0.83
  24   2  -3    8.15    0.95
  24   2  -3    6.87    0.73
 -22  -2   3    4.24    0.51
  22  -2  -3    4.17    0.48
 -22   2   3    3.61    0.53
  22   2  -3    4.37    0.51
  20  -2  -3   15.51    1.05
  20  -2  -3   16.25    0.84
 -20  -2   3   15.35    0.77
  20  -2  -3   14.36    0.64
 -20  -2   3   15.31    0.80
 -20  -2   3   17.13    0.77
  20   2  -3   15.23    0.90
 -20   2   3   16.03    0.87
  20   2  -3   16.26    0.78
  18  -2  -3    7.24    0.80
 -18  -2   3    6.02    0.52
  18  -2  -3    6.73    0.56
  18  -2  -3    6.31    0.37
 -18  -2   3    5.96    0.52
 -18  -2   3    6.87    0.49
  18   2  -3    7.36    0.62
 -18   2   3    6.24    0.57
 -16  -2   3   47.41    1.40
 -16  -2   3   43.69    1.49
  16  -2  -3   44.12    1.46
  16  -2  -3   43.14    1.72
 -16  -2   3   45.72    1.43
  16   2  -3   45.51    1.51
  16   2  -3   42.78    1.35
 -16   2   3   45.46    1.47
 -14  -2   3   27.59    0.97
  14  -2  -3   27.89    1.23
  14  -2  -3   26.28    0.96
 -14  -2   3   26.55    1.05
 -14   2   3   27.68    1.10
  14   2  -3   26.06    0.86
 -14   2   3   27.19    0.95
  14   2  -3   27.31    1.02
 -12  -2   3   50.24    1.53
 -12  -2   3   51.10    1.67
  12  -2  -3   52.07    1.82
  12  -2  -3   50.99    1.51
 -12   2   3   50.52    1.72
 -12   2   3   52.15    1.50
  12   2  -3   50.09    1.57
  12   2  -3   50.67    1.41
  10  -2  -3  149.08    3.91
  10  -2  -3  150.95    4.24
 -10  -2   3  147.91    4.14
 -10  -2   3  152.76    3.98
  10   2  -3  150.34    3.99
 -10   2   3  145.77    4.14
   8  -2  -3   27.26    0.84
  -8  -2   3   27.90    0.91
  -8  -2   3   25.78    1.06
   8  -2  -3   25.75    1.07
   8  -2  -3   25.33    0.85
   8   2  -3   26.36    0.89
  -8   2   3   25.08    1.01
   6  -2  -3  169.79    4.27
  -6  -2   3  172.52    4.60
  -6  -2   3  157.22    4.20
  -6  -2   3  169.29    4.18
   6  -2  -3  167.94    4.27
  -6  -2   3  165.10    4.34
   6  -2  -3  160.17    4.51
   6   2  -3  165.83    4.20
  -6   2   3  155.38    4.47
   4  -2  -3   34.16    1.03
   4  -2  -3   33.55    1.20
  -4  -2   3   34.57    1.09
  -4  -2   3   32.55    1.01
  -4   2   3   34.44    0.96
  -4   2   3   32.24    1.18
  -4   2   3   35.43    1.03
   2  -2  -3  291.67    7.51
  -2  -2   3  282.31    7.54
   2  -2  -3  308.88    7.53
   2  -2  -3  289.89    7.66
   2   2  -3  300.61    7.55
  -2   2   3  286.54    7.49
  -2   2   3  280.04    7.67
  -2   2   3  316.14    7.55
   0  -2  -3    1.29    0.21
   0  -2  -3    1.09    0.22
   0  -2   3    1.57    0.25
   0  -2  -3    1.61    0.23
   0   2  -3    1.28    0.22
   0   2   3    1.13    0.21
   0   2   3    1.05    0.22
   0   2   3    1.45    0.23
  -2  -2  -3  270.84    6.87
   2  -2   3  267.51    6.95
  -2  -2  -3  266.22    6.88
  -2  -2  -3  263.56    6.87
  -2   2  -3  267.18    6.95
   2   2   3  259.94    6.90
   2   2   3  273.59    6.90
   2   2   3  251.32    6.90
  -4  -2  -3    1.32    0.26
  -4  -2  -3    1.25    0.24
  -4  -2  -3    1.21    0.22
   4  -2   3    0.92    0.23
  -4   2  -3    1.14    0.27
   4   2   3    1.12    0.24
   4   2   3    1.72    0.26
   4   2   3    0.71    0.20
  -6  -2  -3   95.79    2.73
   6  -2   3   94.24    2.81
  -6  -2  -3   95.86    2.74
   6   2   3   90.74    2.62
   6   2   3   94.69    2.80
   6   2   3   93.38    2.79
  -6   2  -3   97.83    2.88
  -8  -2  -3   14.42    0.76
  -8  -2  -3   14.09    0.76
   8  -2   3   14.51    0.81
   8   2   3   15.91    0.82
  -8   2  -3   15.54    0.89
   8   2   3   14.99    0.82
   8   2   3   14.92    0.60
  10  -2   3  102.62    2.93
 -10  -2  -3   93.79    2.90
 -10  -2  -3   92.33    2.97
  10  -2   3   96.59    2.97
 -10   2  -3   98.92    3.06
  10   2   3   89.22    3.57
  10   2   3   96.62    3.01
  12  -2   3    5.18    0.62
 -12  -2  -3    5.29    0.59
 -12  -2  -3    3.89    0.55
  12  -2   3    4.55    0.59
  12   2   3    4.25    0.65
  12   2   3    4.78    0.65
 -12   2  -3    3.92    0.60
  14  -2   3   28.81    1.30
  14  -2   3   29.90    1.39
 -14  -2  -3   27.32    1.34
 -14  -2  -3   28.05    1.28
 -14   2  -3   28.52    1.45
  14   2   3   30.45    1.43
  16  -2   3   19.91    1.08
 -16  -2  -3   17.90    1.17
 -16   2  -3   17.54    1.22
  16   2   3   19.51    1.23
  18  -2   3    3.31    0.40
 -18  -2  -3    2.89    0.69
  18   2   3    2.62    0.63
 -18   2  -3    2.93    0.91
  20  -2   3    8.05    0.98
  20   2   3    7.46    1.09
 -23  -3   3    6.19    0.63
 -23  -3   3    6.14    0.69
  23  -3  -3    6.09    0.98
  23  -3  -3    8.35    0.74
  23   3  -3    6.50    0.92
 -23   3   3    6.16    0.83
 -21  -3   3   22.35    0.89
 -21  -3   3   23.90    1.24
 -21  -3   3   21.74    0.98
  21  -3  -3   21.34    1.27
  21   3  -3   20.94    0.95
  21   3  -3   22.46    1.18
 -21   3   3   18.38    1.06
 -19  -3   3    4.23    0.52
 -19  -3   3    4.19    0.56
  19  -3  -3    4.79    0.56
 -19  -3   3    5.06    0.47
  19  -3  -3    6.44    0.84
 -19   3   3    4.46    0.58
  19   3  -3    4.95    0.68
  19   3  -3    4.44    0.50
  17  -3  -3   87.35    2.93
 -17  -3   3   88.36    2.62
  17  -3  -3   89.90    2.64
 -17  -3   3   89.56    2.61
 -17  -3   3   97.90    2.60
  17   3  -3   81.45    2.68
 -17   3   3   89.56    2.68
  17   3  -3   90.33    2.71
  15  -3  -3   34.10    1.40
  15  -3  -3   38.06    1.57
 -15  -3   3   37.68    1.29
 -15  -3   3   39.22    1.22
 -15  -3   3   37.00    1.32
 -15   3   3   36.29    1.30
  15   3  -3   37.21    1.35
  15   3  -3   35.92    1.16
 -13  -3   3  101.98    2.96
  13  -3  -3  101.65    3.14
  13  -3  -3   97.17    2.81
 -13  -3   3  101.93    2.72
 -13  -3   3  100.38    2.87
 -13  -3   3  100.48    2.69
  13   3  -3  101.64    2.91
 -13   3   3  103.97    2.85
  13   3  -3   99.21    2.71
  11  -3  -3   36.86    1.44
  11  -3  -3   36.82    1.17
 -11  -3   3   35.73    1.05
 -11  -3   3   36.18    1.23
 -11  -3   3   36.03    1.05
 -11  -3   3   34.92    1.33
  11   3  -3   36.11    1.24
 -11   3   3   35.23    1.33
  11   3  -3   36.02    1.07
  -9  -3   3  408.47   10.25
   9  -3  -3  387.15   10.63
  -9  -3   3  414.82   10.26
  -9  -3   3  406.23   10.64
   9  -3  -3  424.95   10.37
  -9  -3   3  417.79   10.45
  -9   3   3  384.25   10.56
   9   3  -3  412.52   10.44
  -7  -3   3   47.74    1.51
   7  -3  -3   49.09    1.67
  -7  -3   3   49.15    1.38
   7  -3  -3   49.41    1.45
  -7  -3   3   49.25    1.35
   7  -3  -3   47.75    1.45
   7   3  -3   49.17    1.51
  -7   3   3   47.47    1.62
  -5  -3   3  352.63    8.71
   5  -3  -3  325.92    8.82
  -5  -3   3  330.30    8.58
   5  -3  -3  362.03    8.64
   5  -3  -3  312.47    8.50
  -5   3   3  350.02    8.52
  -5   3   3  312.04    8.79
   5   3  -3  356.64    8.58
   3  -3  -3  182.54    4.65
   3  -3  -3  178.25    4.80
  -3  -3   3  174.95    4.63
  -3  -3   3  183.65    4.74
   3  -3  -3  171.76    4.57
  -3   3   3  182.24    4.58
  -3   3   3  181.97    4.66
   3   3  -3  171.24    4.74
  -3   3   3  166.29    4.79
  -1  -3   3  145.22    3.98
   1  -3  -3  153.54    3.97
   1  -3  -3  142.77    3.91
   1  -3  -3  147.75    4.06
   1   3  -3  153.60    3.99
  -1   3   3  142.65    4.08
  -1   3   3  147.50    3.93
  -1   3   3  157.86    4.00
  -1  -3  -3  137.75    3.82
   1  -3   3  142.10    3.90
  -1  -3  -3  144.36    3.89
  -1  -3  -3  148.28    3.87
  -1   3  -3  140.00    3.89
   1   3   3  143.60    3.87
   1   3   3  150.03    3.90
   1   3   3  141.40    3.94
  -3  -3  -3  256.10    6.50
   3  -3   3  245.76    6.58
  -3  -3  -3  246.45    6.50
  -3  -3  -3  241.20    6.49
  -3   3  -3  250.03    6.60
   3   3   3  255.41    6.56
   3   3   3  254.62    6.57
   3   3   3  242.47    6.54
  -5  -3  -3  102.04    3.02
   5  -3   3  108.15    3.14
  -5  -3  -3  107.95    2.95
  -5  -3  -3  108.75    3.05
  -5   3  -3  110.34    3.18
   5   3   3  110.76    3.11
   5   3   3  108.65    3.12
   5   3   3  106.08    3.00
  -7  -3  -3   35.18    1.26
   7  -3   3   35.44    1.35
  -7  -3  -3   34.76    1.27
  -7  -3  -3   34.23    1.10
   7   3   3   33.34    1.32
  -7   3  -3   36.81    1.42
   9  -3   3  168.35    4.74
  -9  -3  -3  165.53    4.64
  -9  -3  -3  169.61    4.64
  -9   3  -3  177.03    4.85
   9   3   3  168.99    4.75
   9   3   3  154.07    4.84
 -11  -3  -3   17.56    0.94
 -11  -3  -3   16.83    0.95
  11  -3   3   19.18    1.02
  11  -3   3   19.97    1.00
  11   3   3   18.67    1.06
 -11   3  -3   19.65    1.14
  11   3   3   17.74    1.03
  13  -3   3   56.93    1.98
  13  -3   3   56.01    2.04
 -13  -3  -3   52.40    1.95
 -13  -3  -3   53.49    1.94
  13   3   3   54.96    2.08
 -13   3  -3   56.90    2.18
  13   3   3   56.27    2.11
 -15  -3  -3   17.01    1.11
  15  -3   3   22.03    1.13
 -15  -3  -3   19.02    1.08
 -15   3  -3   19.59    1.31
  15   3   3   21.01    1.25
  17  -3   3   26.91    1.45
 -17  -3  -3   23.90    1.36
 -17  -3  -3   23.14    1.26
  17   3   3   25.38    1.54
 -17   3  -3   25.93    1.55
  19  -3   3    3.99    0.64
 -19  -3  -3    1.89    0.73
  19  -3   3    3.60    0.54
  19   3   3    3.88    0.74
 -19   3  -3    1.63    0.84
  21  -3   3    7.42    1.03
 -22  -4   3    5.67    0.51
 -22  -4   3    7.55    0.70
 -22  -4   3    5.49    0.92
  22  -4  -3    7.16    0.98
  22  -4  -3    8.37    0.78
  22   4  -3    7.54    0.94
 -22   4   3    5.85    0.84
 -20  -4   3   17.13    0.81
 -20  -4   3   16.83    1.07
 -20  -4   3   19.39    0.92
  20  -4  -3   19.01    1.23
  20   4  -3   18.76    1.09
 -20   4   3   17.60    1.05
  20   4  -3   18.49    0.88
  18  -4  -3   10.77    0.99
  18  -4  -3    9.86    0.74
 -18  -4   3   10.46    0.66
 -18  -4   3   10.42    0.70
 -18  -4   3   10.80    0.65
  18   4  -3   10.32    0.65
 -18   4   3   10.83    0.77
  18   4  -3   10.76    0.81
  16  -4  -3   39.87    1.69
 -16  -4   3   38.28    1.38
 -16  -4   3   40.51    1.29
  16  -4  -3   37.52    1.38
 -16  -4   3   35.29    1.23
 -16  -4   3   38.52    1.40
 -16   4   3   38.59    1.46
  16   4  -3   39.33    1.49
  14  -4  -3   39.94    1.89
 -14  -4   3   40.99    1.47
 -14  -4   3   41.43    1.27
 -14  -4   3   40.71    1.27
  14  -4  -3   40.55    1.39
 -14  -4   3   39.98    1.42
  14   4  -3   41.48    1.49
  14   4  -3   40.28    1.35
  12  -4  -3   82.97    2.73
  12  -4  -3   83.63    2.43
 -12  -4   3   82.32    2.60
 -12  -4   3   86.20    2.51
 -12  -4   3   84.79    2.31
 -12  -4   3   83.23    2.32
  12   4  -3   83.28    2.52
 -10  -4   3  139.20    3.83
  10  -4  -3  137.06    4.04
  10  -4  -3  136.85    3.76
  10  -4  -3  138.54    3.75
 -10  -4   3  137.40    3.61
  10   4  -3  137.32    3.82
   8  -4  -3   40.86    1.53
   8  -4  -3   40.82    1.31
   8  -4  -3   40.64    1.32
  -8  -4   3   42.78    1.27
  -8  -4   3   40.29    1.21
   8  -4  -3   39.21    1.12
  -8  -4   3   40.60    1.39
   8   4  -3   39.61    1.36
   6  -4  -3  182.20    4.84
  -6  -4   3  182.66    4.79
   6  -4  -3  182.88    5.06
   6  -4  -3  185.29    4.86
  -6  -4   3  185.92    4.92
   6  -4  -3  175.93    4.68
  -6  -4   3  184.66    4.77
  -6   4   3  182.69    4.69
   4  -4  -3   90.61    2.52
  -4  -4   3   89.86    2.48
   4  -4  -3   86.47    2.40
  -4  -4   3   90.58    2.60
   4  -4  -3   90.24    2.68
  -4   4   3   89.97    2.42
   4   4  -3   92.25    2.49
  -4   4   3   82.53    2.64
   2  -4  -3  279.18    7.27
  -2  -4   3  277.37    7.34
   2  -4  -3  288.07    7.39
   2  -4  -3  289.37    7.48
  -2  -4   3  292.29    7.46
   2   4  -3  287.79    7.35
  -2   4   3  288.34    7.30
  -2   4   3  263.59    7.47
  -2   4   3  284.03    7.37
   0  -4  -3   20.47    0.86
   0  -4  -3   21.00    0.82
   0  -4  -3   19.89    0.77
   0  -4   3   20.19    0.82
   0   4  -3   21.12    0.85
   0   4   3   21.02    0.80
   0   4   3   21.22    0.85
  -2  -4  -3  236.75    6.15
  -2  -4  -3  232.47    6.11
   2  -4   3  227.94    6.18
  -2  -4  -3  237.60    6.16
   2   4   3  235.50    6.19
   2   4   3  230.04    6.15
  -2   4  -3  230.21    6.20
  -4  -4  -3   14.77    0.71
  -4  -4  -3   15.44    0.73
  -4  -4  -3   15.51    0.68
   4  -4   3   16.14    0.78
   4   4   3   15.92    0.76
   4   4   3   14.69    0.75
  -4   4  -3   15.32    0.80
  -6  -4  -3  120.02    3.24
  -6  -4  -3  116.15    3.34
   6  -4   3  115.69    3.43
  -6  -4  -3  118.09    3.36
  -6   4  -3  122.03    3.52
   6   4   3  118.39    3.42
   6   4   3  117.25    3.43
  -8  -4  -3   39.71    1.42
  -8  -4  -3   36.98    1.47
  -8  -4  -3   38.66    1.21
   8  -4   3   38.15    1.50
   8   4   3   37.81    1.95
  -8   4  -3   38.68    1.57
   8   4   3   39.27    1.49
 -10  -4  -3   75.93    2.38
 -10  -4  -3   72.02    2.07
 -10  -4  -3   74.68    2.39
  10  -4   3   75.26    2.49
 -10   4  -3   80.18    2.63
  10   4   3   75.36    2.52
  10   4   3   76.28    2.51
  12  -4   3    9.35    0.81
 -12  -4  -3    8.32    0.74
 -12  -4  -3    8.92    0.75
 -12   4  -3    7.83    0.91
  12   4   3    9.74    0.83
  12   4   3    8.18    0.78
  14  -4   3   38.24    1.62
 -14  -4  -3   33.56    1.49
 -14  -4  -3   34.72    1.51
  14  -4   3   39.58    1.57
 -14   4  -3   38.75    1.81
  14   4   3   33.98    1.63
  16  -4   3   20.20    1.19
  16  -4   3   22.55    1.16
 -16  -4  -3   19.20    1.15
 -16  -4  -3   19.84    1.20
 -16   4  -3   21.74    1.42
  16   4   3   15.70    1.49
  18  -4   3    3.17    0.64
 -18  -4  -3    3.01    0.59
  18  -4   3    3.01    0.72
 -18  -4  -3    3.96    0.71
  18   4   3    4.90    0.83
 -18   4  -3    3.51    0.83
  18   4   3    2.52    0.88
  20  -4   3    7.73    0.96
 -23  -5   3    3.35    0.48
  23   5  -3    3.28    0.53
 -21  -5   3    8.46    0.75
 -21  -5   3   10.39    0.74
  21  -5  -3    8.67    0.85
 -21  -5   3    9.71    0.62
  21  -5  -3   11.50    1.12
  21   5  -3   10.14    1.00
 -21   5   3    9.00    0.91
  19  -5  -3    2.94    0.62
 -19  -5   3    2.12    0.37
 -19  -5   3    1.47    0.44
 -19  -5   3    1.89    0.38
 -19  -5   3    2.15    0.43
  19   5  -3    2.43    0.52
 -19   5   3    1.90    0.49
  19   5  -3    2.20    0.39
 -17  -5   3   35.47    1.23
 -17  -5   3   35.86    1.39
  17  -5  -3   33.51    1.34
 -17  -5   3   34.53    1.32
  17  -5  -3   37.05    1.67
  17   5  -3   33.82    1.25
  17   5  -3   35.47    1.47
 -17   5   3   34.45    1.43
 -15  -5   3   12.14    0.76
 -15  -5   3   11.15    0.73
  15  -5  -3   11.73    0.97
  15  -5  -3   11.26    0.72
 -15  -5   3   11.73    0.67
  15   5  -3   11.33    0.64
  15   5  -3   11.74    0.82
 -15   5   3   11.31    0.77
 -13  -5   3   33.01    1.08
 -13  -5   3   31.96    1.28
 -13  -5   3   32.21    1.13
  13  -5  -3   31.87    1.47
  13  -5  -3   33.52    1.23
  13   5  -3   32.05    1.32
 -11  -5   3   10.62    0.51
 -11  -5   3    9.77    0.53
 -11  -5   3   10.59    0.68
  11  -5  -3   10.05    0.40
  11   5  -3    9.38    0.68
  -9  -5   3  149.75    3.97
  -9  -5   3  148.89    4.00
   9  -5  -3  144.63    3.86
   9  -5  -3  149.91    4.10
  -9  -5   3  150.30    4.17
   9  -5  -3  148.18    4.35
   9  -5  -3  150.70    4.09
   9   5  -3  148.78    4.16
   7  -5  -3    6.88    0.50
   7  -5  -3    6.75    0.37
  -7  -5   3    8.00    0.46
  -7  -5   3    7.45    0.45
   7  -5  -3    7.91    0.65
  -7  -5   3    7.04    0.55
   7  -5  -3    6.98    0.52
   7   5  -3    6.77    0.54
  -7   5   3    6.94    0.36
  -5  -5   3  123.29    3.36
  -5  -5   3  122.27    3.34
   5  -5  -3  123.11    3.42
   5  -5  -3  121.80    3.41
   5  -5  -3  119.85    3.26
   5  -5  -3  124.24    3.59
  -5  -5   3  121.05    3.48
   5   5  -3  122.07    3.35
  -5   5   3  121.61    3.27
   3  -5  -3   46.73    1.64
  -3  -5   3   47.50    1.61
   3  -5  -3   46.49    1.53
   3  -5  -3   46.57    1.43
  -3  -5   3   46.11    1.49
  -3   5   3   47.58    1.45
  -3   5   3   46.82    1.53
   3   5  -3   46.83    1.51
  -1  -5   3   33.10    1.26
   1  -5  -3   32.66    1.11
   1  -5  -3   32.16    1.23
   1  -5  -3   32.44    1.17
  -1  -5   3   30.63    1.14
   1   5  -3   31.85    1.18
  -1   5   3   32.64    1.18
  -1   5   3   32.39    1.12
  -1  -5  -3   36.22    1.24
  -1  -5  -3   35.55    1.27
   1  -5   3   35.91    1.28
  -1  -5  -3   36.09    1.30
   1   5   3   36.49    1.27
  -1   5  -3   36.12    1.32
   1   5   3   36.92    1.31
  -3  -5  -3   80.67    2.37
  -3  -5  -3   80.58    2.36
   3  -5   3   77.30    2.40
  -3  -5  -3   80.19    2.38
   3   5   3   79.66    2.40
   3   5   3   78.71    2.42
  -3   5  -3   76.34    2.44
  -5  -5  -3   25.59    1.04
  -5  -5  -3   26.71    0.99
  -5  -5  -3   24.49    1.04
   5  -5   3   24.86    1.08
  -5   5  -3   25.39    1.15
   5   5   3   25.80    1.09
   5   5   3   25.81    1.10
   7  -5   3   10.82    0.74
  -7  -5  -3   11.03    0.71
  -7  -5  -3    9.83    0.81
  -7  -5  -3   10.80    0.56
   7   5   3   10.18    0.73
   7   5   3   11.07    0.78
  -7   5  -3   10.36    0.81
  -9  -5  -3   60.23    2.00
   9  -5   3   59.51    2.10
  -9  -5  -3   60.20    2.00
  -9  -5  -3   59.38    1.77
  -9   5  -3   63.37    2.23
   9   5   3   58.37    2.09
   9   5   3   60.34    2.12
 -11  -5  -3    4.22    0.31
 -11  -5  -3    4.27    0.59
  11  -5   3    4.10    0.63
 -11  -5  -3    3.28    0.50
  11   5   3    4.01    0.58
 -11   5  -3    4.82    0.71
  13  -5   3   22.57    1.23
 -13  -5  -3   22.60    1.16
 -13  -5  -3   22.84    1.15
 -13   5  -3   22.32    1.39
  15  -5   3   10.50    0.89
 -15  -5  -3    9.41    0.92
 -15  -5  -3   10.08    0.88
  15  -5   3   10.38    0.94
  15   5   3    9.70    1.04
 -15   5  -3   11.58    1.19
 -17  -5  -3   11.24    0.97
  17  -5   3   10.98    1.05
 -17  -5  -3    9.61    1.02
  17   5   3    8.97    1.12
 -17   5  -3    9.65    1.36
  19  -5   3    1.78    0.58
 -22  -6   3    7.06    0.91
  22  -6  -3    5.69    0.92
 -22  -6   3    6.69    0.75
  22   6  -3    7.68    0.80
  22   6  -3    6.65    1.04
 -22   6   3    5.49    0.95
 -20  -6   3    9.96    0.72
  20  -6  -3   10.73    0.88
  20  -6  -3   10.84    1.14
 -20  -6   3   10.64    0.70
 -20  -6   3   10.49    0.83
 -20   6   3    9.40    0.98
 -18  -6   3   11.52    0.69
 -18  -6   3   10.61    0.82
 -18  -6   3   10.88    0.75
  18  -6  -3   10.92    1.04
  18  -6  -3   13.32    1.12
  18   6  -3   10.80    0.92
  18   6  -3   10.37    0.73
 -18   6   3   11.55    0.89
 -16  -6   3   38.89    1.54
 -16  -6   3   40.63    1.35
 -16  -6   3   35.80    1.37
 -16  -6   3   40.74    1.56
  16  -6  -3   43.01    1.84
  16  -6  -3   40.59    1.50
 -16   6   3   40.43    1.61
  16   6  -3   38.35    1.40
  16   6  -3   40.84    1.62
 -14  -6   3   31.82    1.10
 -14  -6   3   30.12    1.16
  14  -6  -3   30.96    0.97
  14  -6  -3   31.32    1.25
 -14  -6   3   31.49    1.33
  14  -6  -3   31.19    1.52
  14   6  -3   31.37    1.37
 -12  -6   3   43.12    1.56
  12  -6  -3   44.67    1.33
 -12  -6   3   45.04    1.50
  12  -6  -3   46.89    1.87
  12  -6  -3   45.41    1.58
  12  -6  -3   44.31    1.62
 -12  -6   3   47.35    1.68
  12   6  -3   44.28    1.67
  10  -6  -3  107.75    2.90
 -10  -6   3  108.83    3.06
 -10  -6   3  109.18    3.00
  10  -6  -3  110.33    3.74
 -10  -6   3   98.60    3.42
  10  -6  -3  108.71    3.17
  10  -6  -3  112.79    3.14
  10   6  -3  104.44    3.26
   8  -6  -3   59.73    1.97
   8  -6  -3   60.66    1.77
  -8  -6   3   62.75    1.88
   8  -6  -3   60.32    1.95
  -8  -6   3   62.59    2.04
  -8  -6   3   62.74    1.90
   8  -6  -3   62.35    2.19
   8   6  -3   57.75    1.99
  -6  -6   3  112.16    3.14
   6  -6  -3  110.59    3.21
   6  -6  -3  112.18    3.42
  -6  -6   3  109.29    3.27
   6  -6  -3  110.79    3.05
   6  -6  -3  110.30    3.20
  -6  -6   3  113.36    3.15
  -6   6   3  110.75    3.04
   4  -6  -3   86.00    2.68
  -4  -6   3   82.32    2.58
  -4  -6   3   83.70    2.46
   4  -6  -3   82.29    2.52
   4  -6  -3   83.12    2.38
  -4  -6   3   83.72    2.47
   4  -6  -3   82.47    2.52
   4   6  -3   83.53    2.48
  -4   6   3   82.89    2.39
   2  -6  -3  188.95    5.15
  -2  -6   3  178.08    4.98
   2  -6  -3  182.63    5.01
   2  -6  -3  180.75    4.92
  -2  -6   3  188.96    5.13
  -2   6   3  186.14    4.94
  -2   6   3  187.48    5.03
   2   6  -3  178.51    5.00
   0  -6   3   30.37    1.30
   0  -6  -3   30.70    1.14
   0  -6   3   30.24    1.18
   0  -6  -3   31.24    1.25
   0  -6  -3   30.09    1.19
   0   6  -3   31.00    1.31
   0   6   3   33.18    1.27
   0   6   3   31.42    1.17
  -2  -6  -3  169.24    4.75
  -2  -6  -3  176.60    4.71
   2  -6   3  168.81    4.75
   2  -6   3  178.14    4.92
  -2  -6  -3  177.62    4.78
  -2   6  -3  161.76    5.00
   2   6   3  174.58    4.76
   2   6   3  171.79    4.79
   4  -6   3   35.97    1.41
  -4  -6  -3   35.62    1.43
  -4  -6  -3   37.39    1.35
  -4  -6  -3   37.86    1.37
   4   6   3   40.90    1.46
  -4   6  -3   38.08    1.49
   4   6   3   37.04    1.48
  -6  -6  -3   59.22    2.01
   6  -6   3   59.07    2.04
  -6  -6  -3   61.49    1.89
  -6  -6  -3   59.33    1.97
   6   6   3   60.39    2.05
   6   6   3   59.05    2.09
  -6   6  -3   59.50    2.12
  -8  -6  -3   31.58    1.15
   8  -6   3   32.32    1.39
  -8  -6  -3   31.80    1.30
  -8  -6  -3   33.42    1.32
   8   6   3   32.43    1.40
  -8   6  -3   31.05    1.46
   8   6   3   31.40    1.37
 -10  -6  -3   67.48    2.25
 -10  -6  -3   66.92    1.99
  10  -6   3   68.57    2.35
 -10  -6  -3   66.43    2.23
 -10   6  -3   68.85    2.48
  10   6   3   67.75    2.36
  12  -6   3   12.23    0.93
 -12  -6  -3   12.24    0.87
 -12  -6  -3   11.42    0.53
 -12  -6  -3   12.24    0.88
 -12   6  -3   10.20    1.05
  12   6   3   11.31    1.40
 -14  -6  -3   19.16    1.15
  14  -6   3   19.73    1.23
 -14  -6  -3   21.27    1.18
 -14   6  -3   22.15    1.49
 -16  -6  -3   14.69    1.11
 -16  -6  -3   14.59    1.09
  16  -6   3   16.58    1.16
 -16   6  -3   12.46    1.42
  16   6   3   15.77    1.29
  16   6   3   12.29    1.49
  18  -6   3    5.06    0.73
  21  -7  -3   10.50    1.34
 -21  -7   3    9.50    0.98
 -21  -7   3    9.82    0.93
  21   7  -3   13.11    1.16
  21   7  -3   10.29    0.91
 -19  -7   3    8.08    0.64
 -19  -7   3    6.80    0.68
 -19  -7   3    7.65    0.79
  19  -7  -3    7.82    1.11
  19  -7  -3    6.28    0.85
 -19   7   3    5.07    0.79
  19   7  -3    6.09    0.90
  17  -7  -3   25.55    0.82
 -17  -7   3   26.27    1.42
 -17  -7   3   26.12    1.24
  17  -7  -3   25.15    0.87
 -17  -7   3   25.20    1.02
  17  -7  -3   26.10    1.20
  17  -7  -3   25.57    1.49
 -17  -7   3   22.56    1.07
 -15  -7   3   18.64    0.85
  15  -7  -3   20.44    1.30
 -15  -7   3   18.65    0.92
  15  -7  -3   19.62    0.75
 -15  -7   3   19.72    1.07
  15   7  -3   18.49    1.10
 -13  -7   3   49.28    1.62
  13  -7  -3   50.51    2.05
  13  -7  -3   51.83    1.78
 -13  -7   3   52.35    1.88
  13  -7  -3   47.46    1.83
 -13  -7   3   49.74    1.70
  13  -7  -3   49.31    1.52
  13   7  -3   50.12    1.88
 -11  -7   3   40.09    1.38
  11  -7  -3   38.39    1.28
  11  -7  -3   39.70    1.75
  11  -7  -3   39.45    1.49
 -11  -7   3   40.80    1.45
  11  -7  -3   39.94    1.56
 -11  -7   3   40.96    1.59
  11   7  -3   39.27    1.58
  -9  -7   3  104.19    2.96
   9  -7  -3  100.07    2.85
  -9  -7   3  101.86    3.01
   9  -7  -3  106.11    3.33
   9  -7  -3  100.05    3.09
   9  -7  -3  104.21    3.06
  -9  -7   3  102.73    3.14
   9   7  -3   99.96    3.11
   7  -7  -3   35.00    1.36
  -7  -7   3   36.04    1.32
   7  -7  -3   35.27    1.21
   7  -7  -3   35.93    1.56
  -7  -7   3   35.23    1.30
   7  -7  -3   34.88    1.45
  -7  -7   3   35.48    1.44
  -7   7   3   35.37    1.19
   7   7  -3   34.80    1.40
  -5  -7   3  145.62    4.06
  -5  -7   3  145.35    4.05
  -5  -7   3  142.14    4.18
   5  -7  -3  143.54    3.96
   5  -7  -3  144.65    4.10
   5  -7  -3  145.34    4.12
   5  -7  -3  146.76    4.29
  -5   7   3  143.84    3.95
  -3  -7   3   89.69    2.71
  -3  -7   3   89.43    2.83
   3  -7  -3   88.14    2.88
   3  -7  -3   90.21    2.76
   3  -7  -3   89.85    2.74
  -3  -7   3   89.03    2.69
   3  -7  -3   90.14    2.62
   3   7  -3   90.61    2.73
  -3   7   3   88.33    2.62
   1  -7  -3   68.95    2.12
  -1  -7   3   70.06    2.32
   1  -7  -3   65.78    2.28
  -1  -7   3   68.24    2.17
   1  -7  -3   66.49    2.19
  -1   7   3   68.13    2.13
   1   7  -3   67.13    2.21
  -1   7   3   69.21    2.21
   1  -7   3   72.10    2.31
  -1  -7  -3   71.13    2.31
  -1  -7  -3   72.99    2.27
  -1  -7  -3   74.39    2.37
   1  -7   3   74.69    2.47
   1   7   3   72.13    2.29
   1   7   3   72.83    2.34
  -1   7  -3   70.16    2.36
   3  -7   3   84.30    2.62
  -3  -7  -3   88.56    2.63
  -3  -7  -3   77.43    2.86
   3  -7   3   85.54    2.77
   3   7   3   79.44    2.66
  -3   7  -3   87.10    2.71
   3   7   3   80.68    2.87
   5  -7   3   48.91    1.88
  -5  -7  -3   46.31    1.68
  -5  -7  -3   47.80    1.65
   5  -7   3   45.20    1.79
  -5  -7  -3   47.33    1.70
   5   7   3   47.32    1.75
   5   7   3   48.70    1.76
  -5   7  -3   43.83    2.04
   7  -7   3   44.88    1.72
  -7  -7  -3   43.38    1.53
  -7  -7  -3   44.95    1.67
  -7  -7  -3   43.96    1.65
   7   7   3   44.22    1.73
   7   7   3   44.69    1.74
  -7   7  -3   46.31    1.85
  -9  -7  -3   53.59    1.91
   9  -7   3   52.82    2.00
  -9  -7  -3   53.70    1.91
  -9  -7  -3   54.41    1.73
  -9   7  -3   54.12    2.13
   9   7   3   52.47    1.99
 -11  -7  -3    8.37    0.79
 -11  -7  -3    8.83    0.79
  11  -7   3    7.25    0.83
 -11  -7  -3    7.54    0.51
  11   7   3    7.39    0.81
 -11   7  -3    8.57    1.01
  13  -7   3   22.85    1.30
 -13  -7  -3   23.99    1.25
 -13  -7  -3   22.69    0.84
 -13  -7  -3   22.60    1.25
 -13   7  -3   25.27    1.56
 -15  -7  -3   15.28    1.18
  15  -7   3   17.85    1.23
 -15  -7  -3   15.90    1.13
 -15   7  -3   16.11    1.52
  15   7   3   16.38    1.38
  15   7   3   16.96    1.27
  17  -7   3    8.63    1.01
  18  -8  -3    6.53    1.14
 -18  -8   3    4.77    0.68
 -18  -8   3    4.90    0.70
 -18  -8   3    4.84    0.73
  18   8  -3    6.11    0.97
  16  -8  -3   14.88    0.73
 -16  -8   3   14.48    0.88
 -16  -8   3   15.29    0.79
  16  -8  -3   15.55    1.18
  16  -8  -3   16.92    1.31
  16  -8  -3   14.60    0.97
 -16  -8   3   13.55    1.00
  16   8  -3   16.84    1.11
  14  -8  -3    9.23    0.60
  14  -8  -3    7.37    0.89
  14  -8  -3   10.49    1.04
 -14  -8   3    8.72    0.84
  14  -8  -3    9.79    0.78
 -14  -8   3   10.25    0.66
 -14  -8   3    9.40    0.73
 -12  -8   3   12.34    0.78
  12  -8  -3   12.27    0.94
 -12  -8   3   12.86    0.75
  12  -8  -3   11.32    1.03
 -12  -8   3   12.36    0.92
  12  -8  -3   11.93    0.67
  12   8  -3   12.49    0.90
  10  -8  -3   37.52    1.55
 -10  -8   3   36.14    1.35
 -10  -8   3   37.60    1.42
  10  -8  -3   36.72    1.70
  10  -8  -3   35.85    1.28
 -10  -8   3   34.05    1.60
  10   8  -3   35.94    1.50
  -8  -8   3   21.87    0.99
  -8  -8   3   22.40    1.05
   8  -8  -3   20.70    1.12
   8  -8  -3   20.82    0.93
  -8  -8   3   22.15    1.15
   8  -8  -3   20.22    1.20
   8   8  -3   22.20    1.12
  -6  -8   3   24.81    1.10
   6  -8  -3   25.44    1.04
  -6  -8   3   24.96    1.22
   6  -8  -3   25.42    1.19
   6  -8  -3   26.09    1.32
  -6  -8   3   24.55    1.09
  -6   8   3   25.25    1.01
  -4  -8   3   21.21    1.03
   4  -8  -3   21.78    1.11
  -4  -8   3   22.58    1.15
   4  -8  -3   20.39    1.17
  -4  -8   3   22.00    1.03
   4  -8  -3   22.71    1.00
   4  -8  -3   21.88    1.06
  -4   8   3   22.34    0.96
   2  -8  -3   48.04    1.77
  -2  -8   3   48.00    1.76
   2  -8  -3   48.25    1.67
   2  -8  -3   48.46    1.79
   2  -8  -3   50.51    1.89
  -2  -8   3   48.95    1.87
  -2  -8   3   47.94    1.72
  -2   8   3   46.78    1.66
   2   8  -3   47.65    1.77
   0  -8  -3    9.36    0.76
   0  -8   3    8.50    0.80
   0  -8  -3    8.51    0.74
   0  -8   3    8.63    0.70
   0  -8  -3    7.98    0.87
   0   8  -3    9.21    0.79
   0   8   3    7.53    0.97
   2  -8   3   51.76    1.96
  -2  -8  -3   47.67    1.73
  -2  -8  -3   47.92    1.77
  -2  -8  -3   48.85    1.81
   2  -8   3   48.39    1.77
   2   8   3   50.40    1.83
   2   8   3   48.84    1.78
  -2   8  -3   46.77    1.85
  -4  -8  -3   12.26    0.84
  -4  -8  -3    9.98    1.19
   4  -8   3   12.24    0.86
   4  -8   3   13.02    1.00
  -4  -8  -3   11.69    0.84
  -4   8  -3   13.09    0.96
   4   8   3   13.25    0.88
   4   8   3   12.19    0.84
  -6  -8  -3   13.38    0.88
  -6  -8  -3   12.53    0.88
   6  -8   3   14.31    0.93
   6  -8   3   13.06    1.02
  -6  -8  -3   13.69    0.81
  -6   8  -3   13.32    1.04
   6   8   3   13.01    0.94
   6   8   3   13.20    0.93
  -8  -8  -3   10.58    0.86
  -8  -8  -3   10.30    0.68
  -8  -8  -3   10.04    0.81
   8  -8   3    9.35    0.94
   8  -8   3   10.39    0.89
   8   8   3   10.99    0.87
  -8   8  -3   11.87    1.05
   8   8   3   10.58    0.89
 -10  -8  -3   24.93    1.26
  10  -8   3   25.14    1.30
 -10  -8  -3   24.14    1.26
 -10  -8  -3   25.02    1.04
 -10   8  -3   25.52    1.49
  10   8   3   24.86    1.32
 -12  -8  -3    4.60    0.69
 -12  -8  -3    6.36    0.81
  12  -8   3    5.23    0.73
 -12   8  -3    5.76    0.92
  12   8   3    5.24    0.82
  14  -8   3    7.06    1.00
 -14  -8  -3    4.31    0.79
 -14  -8  -3    5.03    0.81
 -14  -8  -3    6.51    0.46
 -14   8  -3    6.14    1.03
 -17  -9   3   11.64    0.84
 -17  -9   3   11.62    1.12
  17  -9  -3   13.92    1.48
  17  -9  -3   13.54    1.57
  17   9  -3   13.85    1.72
  15  -9  -3   13.39    1.28
  15  -9  -3   12.00    1.20
 -15  -9   3   12.28    0.87
  15  -9  -3   11.65    1.06
 -15  -9   3   12.54    1.06
 -15  -9   3   13.51    0.80
  15  -9  -3   11.41    0.76
  15   9  -3   12.37    1.08
  13  -9  -3   17.03    0.90
 -13  -9   3   18.98    1.02
 -13  -9   3   18.07    1.14
  13  -9  -3   17.47    1.65
  13  -9  -3   17.88    1.30
  13  -9  -3   17.84    1.03
 -13  -9   3   17.85    0.91
  13   9  -3   17.35    1.12
 -11  -9   3   21.02    1.19
  11  -9  -3   18.73    0.95
 -11  -9   3   19.70    1.06
 -11  -9   3   20.56    0.99
  11  -9  -3   20.79    1.32
  -9  -9   3   43.31    1.60
   9  -9  -3   46.13    1.96
   9  -9  -3   44.01    1.55
  -9  -9   3   42.89    1.77
  -9  -9   3   43.53    1.67
   9  -9  -3   38.78    2.44
   7  -9  -3   17.68    1.20
   7  -9  -3   19.55    1.22
  -7  -9   3   19.15    1.02
  -7  -9   3   18.42    1.11
   7  -9  -3   18.67    0.94
  -7  -9   3   17.94    0.97
   5  -9  -3   53.62    2.11
   5  -9  -3   54.59    1.99
  -5  -9   3   51.45    1.88
  -5  -9   3   53.92    1.91
  -5  -9   3   50.97    2.01
   5  -9  -3   53.20    1.83
  -5   9   3   51.94    1.77
   3  -9  -3   41.81    1.69
   3  -9  -3   41.71    1.57
   3  -9  -3   42.01    1.77
   3  -9  -3   41.73    1.66
  -3  -9   3   40.60    1.74
  -3  -9   3   38.63    1.60
  -3  -9   3   42.76    1.61
  -3   9   3   41.50    1.53
  -1  -9   3   25.20    1.21
  -1  -9   3   25.81    1.35
   1  -9  -3   26.25    1.18
  -1  -9   3   24.49    1.25
   1  -9  -3   27.97    1.34
   1  -9  -3   25.51    1.24
   1  -9  -3   25.81    1.29
   1   9  -3   24.45    1.29
  -1   9   3   26.84    1.18
   1  -9   3   26.00    1.56
  -1  -9  -3   29.63    1.32
  -1  -9  -3   29.85    1.36
  -1  -9  -3   30.95    1.42
   1  -9   3   32.42    1.52
  -1  -9  -3   33.75    1.46
   1   9   3   29.50    1.31
  -1   9  -3   29.36    1.45
  -3  -9  -3   41.80    1.69
   3  -9   3   42.45    1.86
  -3  -9  -3   41.60    1.64
  -3  -9  -3   44.13    1.71
   3  -9   3   41.48    1.67
   3   9   3   41.98    1.68
   3   9   3   43.68    1.73
  -3   9  -3   39.32    1.74
  -5  -9  -3   19.02    1.09
   5  -9   3   21.03    1.13
   5  -9   3   18.63    1.27
  -5  -9  -3   19.41    1.04
  -5  -9  -3   18.26    1.09
  -5   9  -3   18.84    1.23
   5   9   3   20.04    1.11
   5   9   3   19.37    1.15
  -7  -9  -3   16.74    1.08
   7  -9   3   17.77    1.28
   7  -9   3   18.15    1.10
  -7  -9  -3   17.67    1.09
  -7  -9  -3   17.48    1.01
   7   9   3   18.15    1.13
   7   9   3   17.64    1.12
  -7   9  -3   17.56    1.28
  -9  -9  -3   24.65    1.27
   9  -9   3   25.15    1.32
  -9  -9  -3   22.52    1.26
   9  -9   3   22.37    1.42
   9   9   3   24.77    1.35
   9   9   3   24.98    1.33
  -9   9  -3   24.66    1.51
  11  -9   3    5.77    0.87
 -11  -9  -3    7.30    0.61
  11  -9   3    6.76    0.88
 -11  -9  -3    6.82    0.93
 -11  -9  -3    5.92    0.90
  11   9   3    8.59    1.01
  11   9   3    5.49    0.75
 -11   9  -3    7.39    1.14
 -13  -9  -3   10.57    0.63
  13  -9   3    8.84    1.21
 -13   9  -3    9.48    1.64
  16 -10  -3   12.84    1.42
  14 -10  -3   15.91    1.35
  14 -10  -3   14.38    0.95
 -14 -10   3   16.67    0.99
 -14 -10   3   14.75    1.59
  12 -10  -3   23.84    1.41
  12 -10  -3   23.58    1.45
 -12 -10   3   24.25    1.42
  12 -10  -3   24.68    1.59
 -12 -10   3   25.26    1.28
  12 -10  -3   23.80    1.16
 -12 -10   3   24.90    1.20
  12  10  -3   24.20    1.37
  10 -10  -3   36.18    1.70
  10 -10  -3   34.24    1.44
 -10 -10   3   38.59    1.59
 -10 -10   3   33.79    1.66
 -10 -10   3   35.13    1.47
  10 -10  -3   32.84    1.77
  10  10  -3   36.46    1.63
   8 -10  -3   28.70    1.34
   8 -10  -3   28.48    1.57
  -8 -10   3   27.23    1.45
  -8 -10   3   29.38    1.31
  -8 -10   3   29.27    1.37
   8 -10  -3   29.42    1.50
   6 -10  -3   43.01    1.65
  -6 -10   3   43.15    1.72
   6 -10  -3   43.18    1.83
   6 -10  -3   42.85    1.94
  -6 -10   3   43.24    1.86
  -6 -10   3   41.08    1.67
   4 -10  -3   46.09    2.30
  -4 -10   3   44.97    1.80
   4 -10  -3   47.74    1.91
   4 -10  -3   45.75    1.75
   4 -10  -3   47.62    2.00
  -4 -10   3   46.13    1.94
  -4 -10   3   46.78    1.82
  -4  10   3   45.63    1.68
  -2 -10   3   52.10    2.01
   2 -10  -3   51.97    1.89
  -2 -10   3   45.21    2.10
   2 -10  -3   53.16    2.00
   2 -10  -3   51.98    2.01
   2 -10  -3   52.55    2.10
  -2 -10   3   52.07    2.10
  -2  10   3   51.95    1.86
   0 -10  -3   35.06    1.55
   0 -10   3   31.10    1.61
   0 -10  -3   31.19    1.48
   0 -10  -3   31.86    1.53
   0 -10  -3   31.18    1.41
   0 -10   3   32.42    1.45
   0 -10   3   30.42    1.53
   0  10  -3   31.96    1.57
   0  10   3   32.24    1.41
   2 -10   3   48.40    2.06
  -2 -10  -3   47.70    1.91
  -2 -10  -3   47.77    1.92
  -2 -10  -3   49.29    1.99
   2 -10   3   48.21    1.87
  -2 -10  -3   46.90    1.84
  -2  10  -3   47.95    1.99
   2  10   3   47.69    1.85
   4 -10   3   23.70    1.46
  -4 -10  -3   26.15    1.42
  -4 -10  -3   24.87    1.30
  -4 -10  -3   24.78    1.27
  -4 -10  -3   26.43    1.35
   4 -10   3   24.24    1.29
   4  10   3   25.11    1.35
  -4  10  -3   25.80    1.45
   4  10   3   25.34    1.31
   6 -10   3   25.70    1.56
   6 -10   3   24.39    1.32
  -6 -10  -3   26.68    1.36
  -6 -10  -3   26.63    1.35
  -6 -10  -3   26.28    1.25
   6  10   3   25.40    1.36
  -6  10  -3   24.65    1.46
   6  10   3   26.89    1.42
   8 -10   3   22.71    1.63
   8 -10   3   22.29    1.25
  -8 -10  -3   22.12    1.12
  -8 -10  -3   23.09    1.31
  -8 -10  -3   20.32    1.27
   8  10   3   20.09    1.29
   8  10   3   24.07    1.35
  -8  10  -3   21.77    1.49
 -10 -10  -3   17.61    1.47
 -10 -10  -3   17.83    0.97
 -10 -10  -3   21.24    2.04
  10 -10   3   16.03    1.43
  10 -10   3   16.90    1.18
 -10  10  -3   19.59    1.59
 -12 -10  -3    7.40    0.69
  12 -10   3    4.93    0.94
  13 -11  -3    5.54    0.84
  13 -11  -3    4.69    0.89
 -11 -11   3    8.32    0.99
  11 -11  -3    8.68    0.93
  11 -11  -3    7.20    0.95
   9 -11  -3   19.56    1.14
  -9 -11   3   18.51    1.16
   9 -11  -3   19.31    1.34
  -9 -11   3   18.92    1.19
  -9 -11   3   19.71    1.48
   7 -11  -3    9.77    1.15
   7 -11  -3    7.50    1.03
  -7 -11   3    9.14    1.09
  -7 -11   3    7.43    0.86
   7 -11  -3    9.46    0.92
   7 -11  -3    9.56    0.92
  -5 -11   3   13.20    1.02
   5 -11  -3   14.43    1.05
  -5 -11   3   15.03    1.22
   5 -11  -3   15.54    1.26
  -5 -11   3   16.72    1.08
   5 -11  -3   16.86    1.10
   5 -11  -3   15.60    1.15
  -5  11   3   15.90    0.95
   3 -11  -3   17.47    1.11
  -3 -11   3   16.23    1.24
   3 -11  -3   15.69    1.06
  -3 -11   3   15.03    1.13
   3 -11  -3   15.96    1.17
   3 -11  -3   16.66    1.32
  -3 -11   3   16.81    1.09
  -3  11   3   14.41    0.94
   1 -11  -3    9.92    0.97
   1 -11  -3   11.53    0.98
  -1 -11   3   11.18    1.12
   1 -11  -3    9.62    0.92
  -1 -11   3   11.15    0.96
  -1 -11   3    9.19    1.04
   1 -11  -3    9.43    0.99
  -1  11   3   10.17    0.84
  -1 -11  -3   11.04    1.00
   1 -11   3   11.22    0.97
  -1 -11  -3   10.65    0.97
   1 -11   3   10.90    1.16
   1 -11   3   11.44    1.10
  -1 -11  -3   14.07    1.11
  -1 -11  -3   12.43    1.06
  -1  11  -3   12.26    1.15
   1  11   3   12.46    0.95
  -3 -11  -3   17.92    1.16
  -3 -11  -3   17.22    1.22
  -3 -11  -3   17.29    1.18
   3 -11   3   17.26    1.15
  -3 -11  -3   19.61    1.28
   3 -11   3   19.09    1.42
   3  11   3   16.55    1.10
  -3  11  -3   17.80    1.29
  -5 -11  -3    7.78    0.80
   5 -11   3    7.62    1.06
   5 -11   3    7.31    0.89
  -5 -11  -3    7.27    0.90
  -5 -11  -3    8.51    1.02
  -5 -11  -3    6.98    0.97
   5  11   3    8.36    0.95
  -5  11  -3    9.87    1.14
   7 -11   3    4.83    0.91
  -7 -11  -3    5.29    0.84
  -7 -11  -3    4.53    0.71
  -7 -11  -3    4.95    0.86
   7 -11   3    5.55    0.85
  -7 -11  -3    4.92    0.82
   7  11   3    5.60    1.34
  -7  11  -3    6.17    0.94
  -9 -11  -3    9.13    0.81
   9 -11   3   10.04    1.51
  -9  11  -3    6.80    1.26
  10 -12  -3    8.92    1.32
   8 -12  -3    9.54    1.26
  -8 -12   3    7.65    1.03
   8 -12  -3    7.77    1.02
   6 -12  -3    9.53    1.03
   6 -12  -3   10.09    1.23
  -6 -12   3   10.92    1.04
  -4 -12   3   13.32    1.09
   4 -12  -3   13.04    1.09
   4 -12  -3   13.83    1.27
  -4  12   3   13.18    0.92
  -2 -12   3   11.73    1.02
   2 -12  -3   10.92    1.06
   2 -12  -3   10.80    1.25
   2 -12  -3   13.66    1.19
  -2  12   3   11.75    0.91
   0 -12   3    8.04    0.95
   0 -12  -3    7.62    1.00
   0 -12  -3    5.90    0.87
   0 -12  -3    8.06    1.44
   0 -12  -3    6.33    0.94
   0  12   3    7.10    0.84
   2 -12   3   10.62    1.05
  -2 -12  -3   11.88    1.21
  -2 -12  -3   14.13    1.18
  -2 -12  -3   10.96    1.13
  -2 -12  -3   10.49    1.48
   2  12   3   12.24    1.02
   4 -12   3    6.58    0.82
  -4 -12  -3    6.28    1.16
  -4 -12  -3    5.69    0.92
  -4  12  -3    6.41    0.99
  -6 -12  -3    4.29    0.91
   6 -12   3    6.50    0.96
  -6  12  -3    6.12    1.04
  24   0  -4   13.35    0.80
  22   0  -4    5.56    0.53
  22   0  -4    6.05    0.54
  20   0  -4   35.18    1.14
  20   0  -4   33.90    1.16
  18   0  -4   10.30    0.50
 -18   0   4   10.13    0.72
  18   0  -4   10.47    0.49
 -16   0   4   92.86    2.54
 -16   0   4   98.16    2.90
  14   0  -4    9.48    0.79
 -14   0   4    8.47    0.35
 -14   0   4    9.08    0.64
 -12   0   4  220.83    6.04
  12   0  -4  230.46    6.21
 -12   0   4  217.31    5.65
 -10   0   4   54.86    1.49
 -10   0   4   52.66    1.82
  10   0  -4   56.24    1.94
   8   0  -4  207.24    5.59
  -8   0   4  198.26    5.12
  -8   0   4  194.93    5.46
   6   0  -4  165.54    4.47
   6   0  -4  183.00    4.89
  -6   0   4  176.36    4.86
  -4   0   4  356.20    9.43
   4   0  -4  338.99    9.10
  -4   0   4  381.54    9.24
  -2   0   4  112.19    3.38
   2   0  -4  118.76    3.15
  -2   0   4  116.91    3.11
   0   0   4  156.92    4.11
   0   0   4  147.32    4.27
   0   0  -4  152.37    4.11
  -2   0  -4  397.17   10.19
   2   0   4  384.23   10.29
   2   0   4  404.17   10.21
   2   0   4  391.89   10.20
  -4   0  -4   47.81    1.61
   4   0   4   48.19    1.60
   4   0   4   45.45    1.61
   4   0   4   46.35    1.62
   6   0   4  180.94    5.01
  -6   0  -4  178.51    4.97
   6   0   4  185.62    4.97
   6   0   4  170.79    4.89
  -8   0  -4   51.60    1.84
   8   0   4   48.75    1.66
   8   0   4   52.03    1.84
   8   0   4   49.47    1.83
  10   0   4   63.98    2.05
 -10   0  -4   68.87    2.34
  10   0   4   67.65    2.33
  10   0   4   70.69    2.29
  12   0   4    6.83    0.50
  12   0   4    7.99    0.76
 -12   0  -4    7.44    0.83
  12   0   4    7.94    0.76
 -14   0  -4   80.29    2.84
  14   0   4   92.10    2.85
  14   0   4   85.83    2.87
  14   0   4   78.64    2.32
 -16   0  -4    4.13    0.74
  16   0   4    5.18    0.79
  18   0   4    6.29    0.99
  18   0   4    8.11    0.94
 -18   0  -4    5.25    0.87
  23  -1  -4   14.61    0.80
  23   1  -4   15.36    0.75
  23   1  -4   13.91    0.90
 -21  -1   4    3.51    0.40
  21  -1  -4    3.72    0.43
 -21  -1   4    5.33    0.62
  21   1  -4    4.01    0.44
  21   1  -4    3.68    0.54
 -19  -1   4   14.33    0.84
  19  -1  -4   13.85    0.85
 -19  -1   4   13.93    0.61
  19  -1  -4   15.26    1.08
 -19   1   4   14.47    0.85
  19   1  -4   13.57    0.57
  19   1  -4   14.08    0.71
 -17  -1   4   34.80    1.11
  17  -1  -4   34.49    1.57
  17  -1  -4   34.58    1.12
 -17  -1   4   35.86    1.36
  17   1  -4   35.07    1.19
 -17   1   4   36.46    1.45
  15  -1  -4   17.92    1.06
  15  -1  -4   16.82    0.62
 -15  -1   4   17.03    0.85
 -15  -1   4   15.78    0.62
  15   1  -4   16.80    0.69
 -15   1   4   16.66    0.89
 -13  -1   4   56.49    1.90
  13  -1  -4   60.49    2.08
  13  -1  -4   55.12    1.56
 -13  -1   4   56.62    1.62
 -13   1   4   55.92    1.90
 -11  -1   4   38.99    1.18
 -11  -1   4   38.88    1.44
  11  -1  -4   40.71    1.56
 -11   1   4   37.41    1.42
   9  -1  -4  168.98    4.19
   9  -1  -4  170.80    4.67
  -9  -1   4  160.96    4.60
  -9  -1   4  165.91    4.30
   9  -1  -4  158.14    4.17
  -9   1   4  160.61    4.57
   7  -1  -4    7.35    0.57
  -7  -1   4    5.93    0.52
  -7  -1   4    6.61    0.36
   7  -1  -4    5.62    0.28
  -7   1   4    5.96    0.27
  -7   1   4    5.73    0.48
   5  -1  -4  332.75    8.57
  -5  -1   4  352.42    8.58
  -5  -1   4  351.13    8.98
   5  -1  -4  350.21    8.90
  -5   1   4  356.54    8.61
  -5   1   4  292.38    8.56
  -5   1   4  329.38    8.88
  -3  -1   4   13.46    0.56
   3  -1  -4   14.23    0.73
  -3  -1   4   14.28    0.80
  -3   1   4   15.26    0.56
  -3   1   4   14.70    0.59
   3   1  -4   13.76    0.58
  -3   1   4   13.32    0.73
  -1  -1   4  327.24    8.49
   1  -1  -4  331.52    8.33
  -1  -1   4  316.12    8.20
   1  -1  -4  322.41    8.20
   1   1  -4  309.51    8.21
  -1   1   4  332.80    8.17
  -1   1   4  305.27    8.36
  -1   1   4  294.36    8.18
  -1  -1  -4   33.03    1.19
  -1  -1  -4   33.90    1.15
   1  -1   4   32.22    1.32
   1  -1   4   32.16    1.18
   1   1   4   34.37    1.15
  -1   1  -4   33.19    1.20
   1   1   4   31.39    1.15
   1   1   4   31.89    1.24
  -3  -1  -4  170.51    4.69
   3  -1   4  172.55    4.78
  -3   1  -4  177.59    4.80
   3   1   4  179.43    4.76
   3   1   4  174.47    4.75
   3   1   4  168.99    4.77
  -5  -1  -4    7.27    0.57
   5  -1   4    8.34    0.60
   5  -1   4    8.18    0.59
   5   1   4    8.07    0.57
  -5   1  -4    8.00    0.63
   5   1   4    7.65    0.54
   5   1   4    7.78    0.58
  -7  -1  -4  132.19    3.81
   7  -1   4  132.64    3.88
   7  -1   4  138.65    3.84
  -7   1  -4  133.54    3.91
   7   1   4  125.33    3.67
   7   1   4  129.22    3.87
   7   1   4  136.23    3.86
   9  -1   4   30.89    1.27
   9  -1   4   29.74    1.32
  -9  -1  -4   27.74    1.27
   9   1   4   27.99    1.06
   9   1   4   30.27    1.30
   9   1   4   28.78    1.34
  -9   1  -4   30.76    1.38
 -11  -1  -4   22.88    1.30
  11  -1   4   21.89    0.97
  11  -1   4   25.02    1.16
  11  -1   4   24.08    1.21
  11   1   4   21.14    0.85
 -11   1  -4   23.99    1.25
  11   1   4   24.67    1.19
  11   1   4   23.41    1.21
 -13  -1  -4   21.20    1.21
  13  -1   4   20.71    1.18
  13  -1   4   19.19    0.90
  13  -1   4   23.30    1.17
 -13   1  -4   20.57    1.25
  13   1   4   22.59    1.21
  13   1   4   21.85    1.23
  15  -1   4    8.32    0.56
  15  -1   4   10.52    0.88
 -15  -1  -4    8.42    1.00
 -15   1  -4    9.67    1.03
  15   1   4   10.54    0.97
 -17  -1  -4    8.70    1.03
  17  -1   4   10.29    0.96
  17  -1   4   10.09    0.91
  17   1   4   10.26    1.00
 -17   1  -4    8.14    1.10
  17   1   4   11.01    1.02
  19  -1   4    4.09    0.71
  19   1   4    5.50    1.29
  24  -2  -4    8.00    1.12
  24   2  -4    8.81    0.65
  22  -2  -4    3.07    0.42
 -22  -2   4    3.47    0.57
 -22  -2   4    2.82    0.43
  22  -2  -4    2.52    0.66
  22   2  -4    3.92    0.55
  22   2  -4    2.59    0.36
  20  -2  -4   20.92    1.27
 -20  -2   4   20.35    0.83
 -20  -2   4   21.04    1.00
  20  -2  -4   20.23    0.87
  20   2  -4   19.46    0.96
  18  -2  -4    3.83    0.45
  18  -2  -4    4.01    0.67
 -18  -2   4    3.38    0.53
 -18  -2   4    3.58    0.39
  18   2  -4    4.41    0.52
 -16  -2   4   61.33    2.00
 -16  -2   4   61.46    1.80
  16  -2  -4   58.20    1.76
 -16   2   4   55.23    2.26
  16   2  -4   63.05    1.87
  14  -2  -4    1.03    0.43
 -14  -2   4    0.34    0.27
  14  -2  -4    0.53    0.19
 -14  -2   4    0.42    0.18
  14   2  -4    0.81    0.24
 -14   2   4    0.71    0.30
  12  -2  -4  103.32    3.17
  12  -2  -4   96.62    2.69
 -12  -2   4  100.81    3.04
  12  -2  -4  101.40    2.70
 -12  -2   4  101.51    2.79
 -12   2   4  101.20    3.05
  10  -2  -4   23.34    0.76
  10  -2  -4   24.57    1.12
 -10  -2   4   22.17    1.03
 -10  -2   4   21.94    0.83
 -10   2   4   22.50    1.02
  -8  -2   4  120.29    3.57
   8  -2  -4  120.77    3.55
  -8  -2   4  123.18    3.29
   8  -2  -4  122.66    3.18
  -8   2   4  115.58    3.48
  -6  -2   4   41.14    1.20
  -6  -2   4   40.77    1.59
   6  -2  -4   43.38    1.25
   6  -2  -4   42.03    1.53
  -6  -2   4   43.83    1.35
  -6   2   4   43.14    1.18
  -6   2   4   41.08    1.50
  -6   2   4   42.82    1.25
   6   2  -4   42.77    1.20
   4  -2  -4  151.69    4.19
   4  -2  -4  154.46    3.94
  -4  -2   4  142.32    3.96
  -4   2   4  147.57    4.20
  -4   2   4  148.10    3.91
   4   2  -4  148.35    3.92
  -4   2   4  153.98    3.95
   2  -2  -4   57.15    1.81
  -2  -2   4   54.12    1.70
   2  -2  -4   56.42    1.63
  -2   2   4   57.72    1.66
   2   2  -4   54.49    1.65
  -2   2   4   54.36    1.83
  -2   2   4   55.23    1.64
   0  -2   4   63.24    1.97
   0  -2  -4   64.57    1.98
   0  -2  -4   64.05    1.88
   0   2  -4   65.56    1.95
   0   2   4   64.71    1.91
   0   2   4   62.17    1.90
   0   2   4   62.19    2.03
   2  -2   4  200.06    5.42
  -2  -2  -4  201.12    5.35
  -2  -2  -4  199.21    5.30
  -2  -2  -4  200.71    5.35
  -2   2  -4  205.04    5.42
   2   2   4  204.45    5.36
   2   2   4  189.04    5.39
   2   2   4  197.74    5.36
  -4  -2  -4    9.88    0.55
   4  -2   4    9.96    0.64
  -4  -2  -4   10.32    0.64
  -4  -2  -4    9.32    0.59
   4   2   4    9.50    0.58
  -4   2  -4   10.32    0.70
   4   2   4    9.77    0.62
   4   2   4    9.31    0.62
  -6  -2  -4   81.59    2.50
  -6  -2  -4   82.30    2.52
   6  -2   4   81.70    2.59
   6   2   4   79.84    2.43
  -6   2  -4   85.85    2.66
   6   2   4   84.18    2.59
   6   2   4   81.94    2.58
  -8  -2  -4   15.66    1.07
  -8  -2  -4   17.25    0.92
   8  -2   4   17.71    0.96
   8  -2   4   16.04    1.09
   8   2   4   16.52    0.99
   8   2   4   16.94    0.74
  -8   2  -4   16.88    1.01
   8   2   4   16.99    0.99
 -10  -2  -4   44.96    1.72
  10  -2   4   47.11    1.73
  10  -2   4   47.71    1.79
 -10   2  -4   48.14    1.87
  10   2   4   45.06    1.44
  10   2   4   47.50    1.79
  10   2   4   43.88    1.80
  12  -2   4    3.00    0.53
 -12  -2  -4    2.34    0.50
  12  -2   4    2.55    0.51
  12   2   4    1.72    0.67
 -12   2  -4    1.72    0.52
  12   2   4    1.92    0.48
 -14  -2  -4   44.11    1.85
  14  -2   4   46.06    1.88
  14  -2   4   49.61    1.83
  14   2   4   44.99    1.91
 -14   2  -4   43.50    1.94
 -16  -2  -4    1.21    0.58
  16  -2   4    1.80    0.50
  16   2   4    1.40    0.53
 -16   2  -4    0.98    0.56
  16   2   4    1.44    0.56
  18  -2   4    6.96    0.91
 -18  -2  -4    4.81    0.96
  18  -2   4    5.06    0.54
  18   2   4    7.34    1.10
 -18   2  -4    4.91    0.94
 -23  -3   4   14.69    0.82
 -23  -3   4   14.67    1.07
  23  -3  -4   14.59    1.36
  23   3  -4   14.64    1.06
  23   3  -4   15.95    0.79
 -21  -3   4    5.17    0.77
  21  -3  -4    5.75    0.83
 -21  -3   4    7.17    0.66
  21  -3  -4    6.89    0.61
  21   3  -4    5.37    0.51
 -19  -3   4   20.86    0.90
  19  -3  -4   20.42    0.91
 -19  -3   4   21.18    0.99
  19  -3  -4   20.05    1.31
  19   3  -4   20.71    1.02
  17  -3  -4   39.56    1.74
  17  -3  -4   36.51    1.30
 -17  -3   4   38.02    1.33
 -17  -3   4   39.30    1.48
  17   3  -4   39.42    1.42
  15  -3  -4   27.43    1.41
  15  -3  -4   25.74    0.97
 -15  -3   4   27.05    1.16
 -15   3   4   26.87    1.20
  15   3  -4   26.34    1.07
  13  -3  -4  104.86    2.84
  13  -3  -4  102.71    3.57
  13  -3  -4  101.07    2.84
 -13  -3   4  104.23    3.14
 -13  -3   4  103.20    2.93
  13   3  -4  102.49    2.94
  11  -3  -4   77.03    2.16
  11  -3  -4   75.02    2.16
 -11  -3   4   75.69    2.48
 -11  -3   4   75.83    2.25
  11  -3  -4   78.70    2.56
 -11   3   4   75.28    2.44
  -9  -3   4  129.76    3.84
  -9  -3   4  128.92    3.55
   9  -3  -4  131.03    3.45
   9  -3  -4  126.19    3.44
   9  -3  -4  131.13    3.82
  -9   3   4  124.40    3.73
   7  -3  -4   37.41    1.18
  -7  -3   4   36.37    1.12
   7  -3  -4   38.33    1.45
  -7  -3   4   38.17    1.07
   7  -3  -4   35.39    1.26
  -7  -3   4   35.99    1.26
  -7   3   4   38.74    1.02
  -7   3   4   34.50    1.38
  -5  -3   4  438.03   11.71
   5  -3  -4  459.78   11.98
   5  -3  -4  463.21   11.72
  -5  -3   4  472.64   11.84
  -5   3   4  487.77   11.73
   5   3  -4  481.94   11.68
  -5   3   4  421.39   11.95
  -5   3   4  464.58   11.73
   3  -3  -4   50.83    1.52
   3  -3  -4   51.46    1.72
  -3  -3   4   49.92    1.57
   3  -3  -4   51.48    1.55
   3   3  -4   51.19    1.54
  -3   3   4   50.82    1.50
  -3   3   4   47.97    1.72
  -3   3   4   52.68    1.57
  -1  -3   4  273.39    7.14
   1  -3  -4  270.04    7.07
   1  -3  -4  280.52    7.06
   1  -3  -4  271.46    7.19
  -1   3   4  269.34    7.05
   1   3  -4  266.33    7.08
  -1   3   4  285.24    7.11
  -1   3   4  255.89    7.22
  -1  -3  -4   88.04    2.59
  -1  -3  -4   89.55    2.54
   1  -3   4   88.48    2.61
  -1  -3  -4   87.33    2.52
  -1   3  -4   88.11    2.60
   1   3   4   83.31    2.63
   1   3   4   89.92    2.57
   1   3   4   87.92    2.56
  -3  -3  -4  200.00    5.48
   3  -3   4  207.43    5.60
  -3  -3  -4  205.79    5.51
  -3  -3  -4  204.51    5.49
  -3   3  -4  208.54    5.61
   3   3   4  210.07    5.57
   3   3   4  209.71    5.56
   3   3   4  197.57    5.55
  -5  -3  -4   31.42    1.12
  -5  -3  -4   32.14    1.20
   5  -3   4   30.00    1.25
  -5  -3  -4   30.59    1.19
   5   3   4   31.99    1.27
   5   3   4   31.64    1.26
   5   3   4   30.24    1.17
  -5   3  -4   32.18    1.32
  -7  -3  -4  159.82    4.48
  -7  -3  -4  166.53    4.68
   7  -3   4  165.89    4.75
  -7   3  -4  178.30    4.86
   7   3   4  165.95    4.75
   7   3   4  167.92    4.55
  -9  -3  -4   36.57    1.43
  -9  -3  -4   37.60    1.61
   9  -3   4   35.06    1.66
   9   3   4   34.59    1.51
   9   3   4   36.31    1.53
  -9   3  -4   36.68    1.69
   9   3   4   36.41    1.22
  11  -3   4   23.15    1.16
  11  -3   4   23.26    1.18
 -11  -3  -4   20.55    1.13
 -11  -3  -4   20.96    1.09
  11   3   4   20.82    1.21
 -11   3  -4   24.19    1.30
 -13  -3  -4   32.67    1.47
  13  -3   4   35.18    1.55
 -13  -3  -4   33.10    1.50
  13  -3   4   36.59    1.52
 -13   3  -4   33.73    1.68
  13   3   4   32.78    1.59
 -15  -3  -4   16.25    1.18
  15  -3   4   20.91    1.22
 -15   3  -4   19.43    1.33
  15   3   4   17.69    1.24
  15   3   4   16.48    1.25
  17  -3   4    7.63    0.96
  17  -3   4    8.22    0.88
 -17  -3  -4    8.55    1.08
  17   3   4    7.93    1.12
  17   3   4    7.87    1.05
 -17   3  -4    8.06    1.17
  19  -3   4    5.77    1.05
 -22  -4   4    4.39    0.59
 -22  -4   4    4.31    0.59
  22  -4  -4    5.44    0.69
  22  -4  -4    3.91    0.81
  22   4  -4    5.48    0.71
  22   4  -4    4.30    0.58
 -20  -4   4   18.03    0.90
  20  -4  -4   16.99    0.92
 -20  -4   4   18.76    0.95
  20  -4  -4   18.03    1.28
  20   4  -4   19.66    1.09
  20   4  -4   17.77    0.77
  18  -4  -4    8.87    0.99
 -18  -4   4    8.06    0.75
  18  -4  -4    7.79    0.65
 -18  -4   4    8.81    0.71
  18   4  -4    8.56    0.96
 -16  -4   4   60.39    2.07
  16  -4  -4   59.97    1.91
  16  -4  -4   61.76    2.34
 -16  -4   4   62.65    1.97
  16   4  -4   61.80    2.04
 -14  -4   4    3.52    0.54
 -14  -4   4    3.43    0.48
  14  -4  -4    3.51    0.46
  14  -4  -4    3.99    0.66
  14  -4  -4    2.86    0.43
  14   4  -4    3.81    0.50
  12  -4  -4   86.64    2.84
  12  -4  -4   83.30    2.43
 -12  -4   4   83.72    2.74
  12  -4  -4   82.57    2.43
 -12  -4   4   86.18    2.53
  12   4  -4   82.83    2.52
 -10  -4   4   57.37    1.52
  10  -4  -4   55.55    1.68
 -10  -4   4   56.63    1.78
  10  -4  -4   53.92    1.69
  10  -4  -4   56.20    2.09
 -10  -4   4   53.87    1.56
 -10   4   4   47.27    2.43
   8  -4  -4  146.84    3.94
  -8  -4   4  145.24    4.03
  -8  -4   4  133.29    3.86
  -8  -4   4  149.98    3.82
   8  -4  -4  147.28    4.25
   8  -4  -4  154.27    3.95
  -8   4   4  145.35    3.71
  -8   4   4  142.10    4.19
   6  -4  -4   52.43    1.62
  -6  -4   4   52.42    1.70
  -6  -4   4   52.26    1.58
   6  -4  -4   49.98    1.48
   6  -4  -4   52.81    1.61
  -6   4   4   49.30    1.80
   6   4  -4   51.56    1.55
  -6   4   4   53.60    1.47
  -4  -4   4  151.49    4.10
   4  -4  -4  149.06    3.97
   4  -4  -4  140.15    3.87
  -4  -4   4  144.07    3.96
   4  -4  -4  148.03    4.17
  -4   4   4  138.29    4.17
  -4   4   4  149.56    3.98
   4   4  -4  148.84    3.95
  -4   4   4  147.39    3.88
  -2  -4   4   91.86    2.69
   2  -4  -4   97.25    2.68
   2  -4  -4   90.13    2.60
   2  -4  -4   93.54    2.80
   2   4  -4   94.08    2.68
  -2   4   4   94.91    2.62
  -2   4   4   95.46    2.70
  -2   4   4   88.90    2.83
   0  -4   4   96.72    2.85
   0  -4  -4   99.05    2.89
   0  -4  -4   98.87    2.80
   0  -4  -4   96.34    2.76
   0   4  -4   97.99    2.84
   0   4   4   95.18    2.94
   0   4   4   99.44    2.84
   0   4   4   98.30    2.79
   2  -4   4  184.93    5.09
  -2  -4  -4  186.48    4.98
  -2  -4  -4  189.48    5.04
  -2  -4  -4  184.41    5.00
   2   4   4  181.99    5.12
   2   4   4  185.57    5.06
   2   4   4  185.53    5.04
  -2   4  -4  183.88    5.09
  -4  -4  -4   28.32    1.13
   4  -4   4   28.49    1.21
  -4  -4  -4   28.76    1.09
  -4  -4  -4   28.29    1.12
  -4   4  -4   30.23    1.28
   4   4   4   28.20    1.15
   4   4   4   29.16    1.19
   4   4   4   30.16    1.20
  -6  -4  -4   65.35    2.82
  -6  -4  -4   75.53    2.33
   6  -4   4   74.80    2.43
  -6  -4  -4   76.00    2.23
   6   4   4   76.23    2.43
  -6   4  -4   79.02    2.53
  -8  -4  -4   29.80    1.25
  -8  -4  -4   29.49    1.06
  -8  -4  -4   29.44    1.25
   8   4   4   30.61    1.36
   8   4   4   29.84    1.36
  10  -4   4   49.16    1.90
 -10  -4  -4   48.80    1.81
 -10  -4  -4   51.01    1.85
 -10   4  -4   53.86    2.08
  10   4   4   50.52    1.95
 -12  -4  -4    6.51    0.75
 -12  -4  -4    7.20    0.78
  12  -4   4    7.17    0.84
  12  -4   4    6.25    0.76
 -12   4  -4    7.25    0.97
  12   4   4    6.82    0.82
 -14  -4  -4   31.06    1.51
 -14  -4  -4   33.64    1.50
  14  -4   4   32.67    1.54
 -14   4  -4   33.78    1.77
  14   4   4   31.56    1.61
  16  -4   4    3.63    0.64
  16  -4   4    5.64    0.88
 -16  -4  -4    3.66    0.72
 -16  -4  -4    3.98    0.71
  16   4   4    3.08    0.65
 -16   4  -4    3.10    0.77
  16   4   4    2.66    0.70
  18  -4   4    7.78    1.00
 -21  -5   4    3.35    0.64
  21  -5  -4    2.92    0.74
  21  -5  -4    2.22    0.47
  21   5  -4    3.00    0.62
  19  -5  -4    8.20    1.03
 -19  -5   4    7.00    0.92
 -19  -5   4    6.59    0.66
  19   5  -4    7.16    0.83
  17  -5  -4   15.29    0.83
 -17  -5   4   14.14    0.60
 -17  -5   4   17.45    0.90
  17  -5  -4   15.72    1.21
  17   5  -4   16.50    0.99
 -15  -5   4    8.68    0.68
 -15  -5   4    8.53    0.45
 -15  -5   4    7.54    0.44
  15  -5  -4    8.57    0.63
  15  -5  -4    9.07    0.96
 -15  -5   4    8.41    0.87
  15  -5  -4    7.52    0.65
  15   5  -4    8.02    0.71
 -13  -5   4   29.65    1.03
 -13  -5   4   32.02    1.43
  13  -5  -4   31.23    1.22
  13  -5  -4   31.45    1.19
  13  -5  -4   32.56    1.53
 -13  -5   4   32.18    1.00
 -13  -5   4   32.44    1.46
  13   5  -4   32.45    1.48
  11  -5  -4   23.46    1.26
 -11  -5   4   23.97    0.81
 -11  -5   4   22.77    1.04
  11  -5  -4   23.56    0.98
  11  -5  -4   24.03    0.97
 -11  -5   4   22.57    0.85
  11   5  -4   23.91    1.06
  -9  -5   4   40.20    1.46
   9  -5  -4   37.41    1.11
   9  -5  -4   38.37    1.49
   9  -5  -4   40.02    1.37
  -9  -5   4   39.09    1.30
   9  -5  -4   41.77    1.65
  -9  -5   4   40.18    1.24
  -7  -5   4    7.02    0.58
  -7  -5   4    7.91    0.45
   7  -5  -4    6.91    0.53
  -7  -5   4    7.38    0.46
   7  -5  -4    6.66    0.37
   7  -5  -4    6.16    0.52
  -7   5   4    6.66    0.40
  -5  -5   4  181.31    4.86
   5  -5  -4  167.29    4.57
   5  -5  -4  181.27    4.97
  -5  -5   4  172.54    4.69
   5  -5  -4  172.33    4.72
  -5   5   4  175.18    4.60
   5   5  -4  171.71    4.68
   3  -5  -4   10.79    0.63
  -3  -5   4   11.22    0.60
  -3  -5   4   11.48    0.74
   3  -5  -4    9.88    0.52
   3  -5  -4   10.12    0.71
   3   5  -4   10.43    0.63
  -3   5   4   10.81    0.63
  -3   5   4   10.61    0.56
   1  -5  -4   90.36    2.66
   1  -5  -4   94.44    2.76
   1  -5  -4   98.07    2.87
  -1  -5   4   92.88    2.77
  -1  -5   4   93.84    2.91
  -1   5   4   94.30    2.78
   1   5  -4   93.53    2.78
  -1   5   4   94.75    2.72
  -1  -5  -4   24.27    1.02
  -1  -5  -4   24.86    0.97
   1  -5   4   22.47    1.01
  -1  -5  -4   24.62    1.05
  -1   5  -4   23.51    1.06
   1   5   4   24.95    1.01
   1   5   4   24.30    1.05
  -3  -5  -4   68.20    2.13
  -3  -5  -4   68.95    2.16
  -3  -5  -4   70.01    2.17
   3  -5   4   67.28    2.22
   3   5   4   68.55    2.27
  -3   5  -4   67.88    2.26
   3   5   4   71.12    2.24
   5  -5   4    7.51    0.65
  -5  -5  -4    6.58    0.62
  -5  -5  -4    6.63    0.52
  -5  -5  -4    5.40    0.70
   5   5   4    6.60    0.64
   5   5   4    5.97    0.63
  -5   5  -4    7.28    0.71
   7  -5   4   59.81    2.42
  -7  -5  -4   60.83    1.90
  -7  -5  -4   59.13    2.03
  -7  -5  -4   63.54    2.05
   7   5   4   61.67    2.16
  -7   5  -4   63.55    3.01
   7   5   4   61.53    2.15
   9  -5   4   13.79    0.95
  -9  -5  -4   12.16    0.63
  -9  -5  -4   13.05    0.86
  -9  -5  -4   12.98    0.86
   9   5   4   13.88    0.96
  -9   5  -4   12.52    1.05
   9   5   4   13.83    0.95
 -11  -5  -4    8.03    0.79
 -11  -5  -4    8.16    0.81
  11  -5   4    9.38    0.87
  11   5   4    8.07    0.84
 -11   5  -4    9.05    1.01
 -13  -5  -4   12.77    1.00
  13  -5   4   12.56    1.03
 -13  -5  -4   12.85    0.97
 -13   5  -4   14.20    1.28
  13   5   4   15.28    1.12
 -15  -5  -4    7.77    0.96
  15  -5   4    9.48    0.94
 -15  -5  -4    7.47    1.04
  15  -5   4    9.09    0.96
 -15   5  -4    7.53    1.18
  15   5   4    5.82    0.84
  15   5   4    8.20    1.07
 -20  -6   4   14.40    0.94
 -20  -6   4   14.21    0.72
  20  -6  -4   14.99    0.97
  20  -6  -4   16.28    1.36
 -20  -6   4   13.86    0.91
  20   6  -4   13.62    1.27
 -18  -6   4    7.42    0.54
  18  -6  -4    8.02    0.84
  18  -6  -4   10.34    1.15
 -18  -6   4    9.28    0.58
 -18  -6   4   10.59    0.81
 -18  -6   4   10.86    0.83
  18   6  -4   11.50    0.92
  16  -6  -4   32.52    1.38
 -16  -6   4   32.04    1.45
  16  -6  -4   33.70    1.35
 -16  -6   4   30.30    1.13
 -16  -6   4   32.32    1.12
  16  -6  -4   34.15    1.69
 -16  -6   4   35.08    1.41
  16   6  -4   34.87    1.47
 -14  -6   4   10.21    0.87
  14  -6  -4   10.25    0.79
 -14  -6   4   10.50    0.56
  14  -6  -4   10.15    0.70
 -14  -6   4   10.80    0.79
 -14  -6   4    9.53    0.60
  14  -6  -4   12.17    1.04
  14   6  -4   11.74    0.83
  12  -6  -4   76.13    2.30
 -12  -6   4   65.00    2.25
 -12  -6   4   70.55    2.17
  12  -6  -4   76.32    2.66
 -12  -6   4   75.22    2.39
  12  -6  -4   72.40    2.30
  12   6  -4   75.81    2.39
  10  -6  -4   38.24    1.44
  10  -6  -4   40.46    1.71
  10  -6  -4   37.74    1.14
 -10  -6   4   39.20    1.33
  10  -6  -4   40.03    1.43
 -10  -6   4   40.05    1.29
 -10  -6   4   38.44    1.50
   8  -6  -4   78.77    2.62
   8  -6  -4   74.55    2.12
  -8  -6   4   73.97    2.45
   8  -6  -4   76.21    2.36
  -8  -6   4   74.95    2.26
   8  -6  -4   78.04    2.36
  -8  -6   4   77.77    2.24
  -8   6   4   75.13    2.11
  -6  -6   4   70.45    2.15
   6  -6  -4   70.69    2.22
   6  -6  -4   71.39    2.22
   6  -6  -4   68.36    2.03
   6  -6  -4   73.29    2.44
  -6  -6   4   70.42    2.13
   6   6  -4   71.55    2.16
  -6   6   4   70.26    2.04
   4  -6  -4  123.85    3.53
   4  -6  -4  121.40    3.39
   4  -6  -4  123.65    3.76
  -4  -6   4  124.86    3.51
  -4   6   4  126.36    3.43
   4   6  -4  123.37    3.51
   2  -6  -4   59.40    2.06
   2  -6  -4   60.26    1.94
   2  -6  -4   60.30    1.86
  -2  -6   4   55.55    2.32
  -2  -6   4   58.62    1.92
   2   6  -4   60.95    1.96
  -2   6   4   59.40    1.95
  -2   6   4   59.97    1.87
   0  -6  -4   81.72    2.56
   0  -6   4   78.70    2.48
   0  -6   4   80.84    2.66
   0  -6  -4   82.98    2.49
   0  -6  -4   78.79    2.39
   0   6  -4   78.78    2.52
   0   6   4   81.74    2.46
   0   6   4   79.68    2.51
   2  -6   4  124.19    3.69
  -2  -6  -4  129.03    3.66
  -2  -6  -4  131.45    3.70
  -2  -6  -4  123.30    3.59
   2   6   4  125.16    3.71
   2   6   4  128.10    3.68
  -2   6  -4  127.79    3.74
  -4  -6  -4   28.74    1.19
   4  -6   4   28.71    1.26
  -4  -6  -4   30.00    1.19
  -4  -6  -4   25.92    1.35
   4   6   4   29.96    1.35
   4   6   4   28.99    1.26
  -4   6  -4   31.97    1.36
  -6  -6  -4   59.53    2.05
  -6  -6  -4   59.69    2.03
  -6  -6  -4   61.04    1.96
   6   6   4   60.31    2.14
   6   6   4   64.24    2.17
  -8  -6  -4   33.38    1.38
  -8  -6  -4   31.42    1.44
  -8  -6  -4   33.42    1.39
   8  -6   4   32.22    1.47
   8   6   4   31.63    1.47
  -8   6  -4   32.62    1.59
   8   6   4   34.55    1.51
 -10  -6  -4   24.50    1.24
 -10  -6  -4   24.97    1.21
  10  -6   4   25.30    1.32
 -10  -6  -4   24.90    0.96
  10   6   4   25.57    1.33
 -10   6  -4   25.34    1.46
 -12  -6  -4    7.34    0.85
  12  -6   4    8.52    0.88
 -12  -6  -4    8.53    0.86
 -12  -6  -4    7.95    0.47
 -12   6  -4    7.71    1.08
  12   6   4    8.83    0.95
  14  -6   4   27.45    1.50
 -14  -6  -4   27.41    1.44
 -14  -6  -4   26.70    1.43
  14   6   4   28.25    1.56
 -14   6  -4   27.89    1.74
  16  -6   4    3.73    0.72
  19  -7  -4    8.31    0.87
 -19  -7   4    9.72    0.88
 -19  -7   4    9.31    0.61
  19  -7  -4   10.99    1.31
 -19  -7   4    9.28    0.83
  19   7  -4    8.96    0.95
 -17  -7   4   21.72    1.14
 -17  -7   4   22.44    0.96
 -17  -7   4   18.74    0.94
  17  -7  -4   24.25    1.14
 -17  -7   4   21.75    1.22
  17  -7  -4   23.20    1.51
  17  -7  -4   20.95    1.21
  15  -7  -4   18.36    1.08
 -15  -7   4   18.30    0.78
 -15  -7   4   16.16    0.86
 -15  -7   4   17.93    1.05
  15  -7  -4   18.82    1.32
  15   7  -4   18.65    1.07
 -13  -7   4   26.63    1.10
  13  -7  -4   27.31    1.49
  13  -7  -4   28.83    1.28
 -13  -7   4   29.09    1.05
  13  -7  -4   28.27    1.21
 -13  -7   4   27.62    1.29
  13   7  -4   28.16    1.32
  11  -7  -4   39.67    1.56
 -11  -7   4   41.03    1.62
  11  -7  -4   42.46    1.53
 -11  -7   4   39.15    1.47
  11  -7  -4   42.90    1.84
 -11  -7   4   39.25    1.42
  11  -7  -4   38.84    1.23
  11   7  -4   42.70    1.64
  -9  -7   4   69.85    2.19
   9  -7  -4   71.87    2.28
   9  -7  -4   72.92    2.57
   9  -7  -4   70.26    2.30
   9  -7  -4   70.05    2.03
  -9  -7   4   68.86    2.36
  -9  -7   4   70.61    2.15
   7  -7  -4   34.61    1.37
  -7  -7   4   35.34    1.51
  -7  -7   4   33.39    1.43
  -7  -7   4   34.42    1.28
   7  -7  -4   33.48    1.53
   7  -7  -4   33.85    1.39
   7  -7  -4   33.50    1.17
  -7   7   4   35.08    1.17
   5  -7  -4  119.36    3.48
  -5  -7   4  116.54    3.41
  -5  -7   4  117.61    3.40
   5  -7  -4  121.87    3.68
  -5  -7   4  117.32    3.59
   5  -7  -4  118.12    3.30
   5  -7  -4  116.99    3.47
  -5   7   4  117.00    3.30
   5   7  -4  117.82    3.42
  -3  -7   4   45.48    1.78
   3  -7  -4   44.75    1.66
   3  -7  -4   47.83    1.71
   3  -7  -4   47.04    1.79
   3  -7  -4   45.54    1.53
  -3  -7   4   45.76    1.62
   3   7  -4   44.09    1.64
  -3   7   4   46.10    1.55
  -1  -7   4  109.11    3.25
  -1  -7   4  113.14    3.46
   1  -7  -4  111.15    3.37
   1  -7  -4  107.24    3.25
   1  -7  -4  105.96    3.15
  -1   7   4  111.42    3.30
  -1   7   4  109.29    3.21
   1   7  -4  111.13    3.31
  -1  -7  -4   56.41    1.89
   1  -7   4   57.26    2.07
  -1  -7  -4   45.03    2.00
   1  -7   4   55.20    1.89
  -1  -7  -4   54.33    2.01
   1   7   4   52.35    1.91
  -1   7  -4   54.87    1.95
   3  -7   4   69.42    2.38
  -3  -7  -4   71.62    2.35
  -3  -7  -4   72.20    2.31
   3  -7   4   69.33    2.54
  -3  -7  -4   76.45    2.38
   3   7   4   72.73    2.43
  -3   7  -4   72.12    2.47
   3   7   4   75.26    2.41
  -5  -7  -4   24.75    1.09
   5  -7   4   23.57    1.19
  -5  -7  -4   23.22    1.14
  -5  -7  -4   23.02    1.10
   5   7   4   22.78    1.16
   5   7   4   23.24    1.19
  -5   7  -4   23.82    1.30
  -7  -7  -4   54.12    1.93
  -7  -7  -4   52.89    1.80
   7  -7   4   55.10    2.03
  -7  -7  -4   53.28    1.93
  -7   7  -4   54.93    2.16
   7   7   4   54.61    2.05
   7   7   4   53.63    2.04
  -9  -7  -4   22.53    0.99
   9  -7   4   25.83    1.31
  -9  -7  -4   23.51    1.21
  -9  -7  -4   22.91    1.20
   9   7   4   23.67    1.30
  -9   7  -4   24.99    1.45
   9   7   4   26.17    1.36
 -11  -7  -4   18.44    1.27
 -11  -7  -4   16.52    0.77
 -11  -7  -4   17.89    1.10
  11  -7   4   16.01    1.14
  11   7   4   18.11    1.18
 -11   7  -4   15.90    1.33
  13  -7   4   12.93    1.10
 -13  -7  -4   11.48    1.04
 -13  -7  -4   11.82    0.58
 -13  -7  -4   12.47    1.04
 -13   7  -4   12.59    1.71
  13   7   4   13.27    1.16
 -18  -8   4    3.49    0.52
 -18  -8   4    3.65    0.65
  18  -8  -4    3.37    0.90
 -18  -8   4    5.51    0.88
  18   8  -4    6.07    0.91
 -16  -8   4    9.01    0.71
 -16  -8   4    8.91    0.89
 -16  -8   4   10.72    0.65
  16  -8  -4   10.54    1.18
  16  -8  -4   10.77    1.03
  16  -8  -4   10.87    0.88
  16   8  -4   11.54    0.95
  14  -8  -4    5.41    0.87
  14  -8  -4    4.47    0.37
 -14  -8   4    4.50    0.70
 -14  -8   4    4.92    0.57
  14  -8  -4    4.14    0.65
  14  -8  -4    5.89    0.70
 -14  -8   4    4.05    0.50
  12  -8  -4   23.19    0.87
  12  -8  -4   23.98    1.24
 -12  -8   4   23.75    1.03
 -12  -8   4   21.63    1.04
  12  -8  -4   23.54    1.44
 -12  -8   4   23.34    1.22
  12   8  -4   25.94    1.48
 -10  -8   4   10.60    0.73
  10  -8  -4   11.51    1.05
  10  -8  -4   11.05    0.89
 -10  -8   4   10.85    0.85
  10  -8  -4   11.70    0.62
 -10  -8   4   11.96    0.71
  -8  -8   4   17.67    0.89
   8  -8  -4   17.04    0.81
  -8  -8   4   17.13    1.09
   8  -8  -4   17.42    1.06
   8  -8  -4   18.45    1.18
  -8  -8   4   18.82    0.93
   6  -8  -4   24.14    1.31
   6  -8  -4   24.21    1.02
  -6  -8   4   25.90    1.12
  -6  -8   4   25.53    1.10
  -6  -8   4   24.40    1.24
   6  -8  -4   24.65    1.20
  -6   8   4   23.92    0.98
   4  -8  -4   40.63    1.73
  -4  -8   4   43.71    1.75
   4  -8  -4   41.78    1.48
   4  -8  -4   39.57    1.59
  -4  -8   4   41.25    1.56
  -4  -8   4   42.23    1.57
  -4   8   4   42.42    1.48
   4   8  -4   40.77    1.61
   2  -8  -4   13.34    0.81
  -2  -8   4   14.12    0.84
   2  -8  -4   13.45    1.03
  -2  -8   4   13.37    0.99
   2  -8  -4   13.31    0.93
  -2   8   4   12.90    0.80
   2   8  -4   13.53    0.91
   0  -8  -4   22.78    1.17
   0  -8  -4   22.02    1.06
   0  -8   4   23.25    1.29
   0  -8   4   21.90    1.10
   0  -8  -4   23.12    1.15
   0   8   4   22.75    1.09
   0   8  -4   21.89    1.19
   0   8   4   22.35    1.14
   2  -8   4   43.71    1.85
  -2  -8  -4   41.03    1.63
  -2  -8  -4   42.39    1.77
  -2  -8  -4   39.76    1.55
   2  -8   4   41.04    1.63
   2   8   4   41.83    1.68
   2   8   4   42.08    1.63
  -2   8  -4   40.99    1.73
  -4  -8  -4    9.72    0.77
  -4  -8  -4    9.46    0.81
   4  -8   4    9.13    0.82
   4  -8   4    9.13    0.96
  -4  -8  -4   10.49    0.81
   4   8   4    9.77    0.85
   4   8   4    9.31    0.80
  -4   8  -4    8.54    0.93
   6  -8   4   16.30    1.21
  -6  -8  -4   20.15    1.02
  -6  -8  -4   17.50    1.04
   6  -8   4   17.51    1.07
  -6  -8  -4   18.82    1.05
   6   8   4   18.67    1.11
   6   8   4   18.70    1.14
  -6   8  -4   18.93    1.27
   8  -8   4   14.12    1.02
  -8  -8  -4   11.96    0.94
  -8  -8  -4   14.00    0.82
  -8  -8  -4   14.57    0.99
   8   8   4   12.80    1.01
   8   8   4   14.09    1.05
  -8   8  -4   13.13    1.16
  10  -8   4    8.29    0.90
 -10  -8  -4    7.40    0.60
 -10  -8  -4    7.87    0.87
 -10  -8  -4    7.40    0.85
  10   8   4    7.99    0.98
 -10   8  -4    8.00    1.11
  10   8   4    5.99    0.88
 -12  -8  -4    3.28    0.45
  12  -8   4    3.51    0.64
 -12  -8  -4    3.52    0.69
 -12  -8  -4    3.22    0.67
  12   8   4    4.20    0.72
 -12   8  -4    2.21    0.82
  12   8   4    3.74    1.03
 -17  -9   4   11.74    1.28
 -17  -9   4   10.04    0.79
 -15  -9   4    8.24    0.65
  15  -9  -4    7.93    1.25
 -15  -9   4    8.50    1.01
  15  -9  -4    9.94    1.11
  15   9  -4    7.94    0.97
  13  -9  -4   14.44    1.30
 -13  -9   4   16.20    1.13
  13  -9  -4   16.70    1.20
 -13  -9   4   14.17    0.91
  13  -9  -4   15.35    1.03
  13  -9  -4   14.09    0.73
 -13  -9   4   15.21    0.84
  13   9  -4   18.15    1.14
 -11  -9   4   21.55    1.07
  11  -9  -4   21.34    1.04
  11  -9  -4   18.89    1.10
 -11  -9   4   22.37    1.02
  11  -9  -4   21.34    1.28
 -11  -9   4   19.92    1.21
  11  -9  -4   23.33    1.43
   9  -9  -4   23.15    1.41
  -9  -9   4   22.40    1.25
   9  -9  -4   24.25    1.36
  -9  -9   4   22.81    1.07
  -9  -9   4   20.96    1.09
   9  -9  -4   23.57    1.01
  -7  -9   4   17.83    0.96
   7  -9  -4   20.75    1.73
   7  -9  -4   19.21    1.27
  -7  -9   4   19.70    1.02
   7  -9  -4   18.85    0.94
  -7  -9   4   17.70    1.15
  -7   9   4   18.51    0.88
   5  -9  -4   50.97    1.95
   5  -9  -4   52.41    2.10
   5  -9  -4   50.87    1.78
  -5  -9   4   51.66    1.86
  -5  -9   4   52.63    1.87
  -5  -9   4   50.78    2.04
  -5   9   4   49.31    1.75
   3  -9  -4   22.81    1.21
  -3  -9   4   22.40    1.33
  -3  -9   4   22.27    1.15
   3  -9  -4   22.01    1.08
   3  -9  -4   22.17    1.25
  -3  -9   4   22.65    1.14
  -3   9   4   22.03    1.05
   3   9  -4   21.85    1.20
   1  -9  -4   40.48    1.71
  -1  -9   4   39.85    1.80
  -1  -9   4   40.25    1.61
   1  -9  -4   39.98    1.54
   1  -9  -4   40.55    1.67
   1  -9  -4   38.00    1.89
  -1   9   4   39.38    1.55
   1   9  -4   39.37    1.69
   1  -9   4   28.38    1.54
  -1  -9  -4   29.35    1.30
   1  -9   4   26.98    1.36
  -1  -9  -4   30.05    1.41
  -1  -9  -4   28.36    1.37
  -1   9  -4   29.12    1.46
   1   9   4   28.52    1.39
   1   9   4   31.52    1.35
  -3  -9  -4   26.17    1.34
   3  -9   4   27.33    1.55
  -3  -9  -4   27.09    1.29
  -3  -9  -4   28.42    1.30
   3  -9   4   27.12    1.32
  -3   9  -4   26.33    1.45
   3   9   4   28.28    1.34
   3   9   4   27.25    1.38
   5  -9   4   12.43    0.99
  -5  -9  -4   12.56    0.96
  -5  -9  -4   13.84    1.01
  -5  -9  -4   14.09    0.91
   5  -9   4   12.65    1.20
  -5   9  -4   13.45    1.16
   5   9   4   13.40    1.04
   5   9   4   11.96    0.98
   7  -9   4   22.40    1.47
   7  -9   4   23.99    1.31
  -7  -9  -4   26.96    1.34
  -7  -9  -4   24.07    1.27
  -7  -9  -4   24.87    1.34
   7   9   4   23.94    1.36
   7   9   4   26.53    1.39
  -7   9  -4   22.56    1.47
  -9  -9  -4   11.43    0.76
  -9  -9  -4   10.30    1.01
   9  -9   4    7.95    1.26
  -9  -9  -4    8.82    0.94
   9  -9   4    9.96    0.94
   9   9   4    9.98    1.06
  -9   9  -4    8.24    1.20
   9   9   4   12.36    1.09
  11  -9   4    4.73    0.87
 -11  -9  -4    7.00    0.65
  11  -9   4    7.36    0.95
 -11   9  -4   10.26    1.46
 -14 -10   4    8.79    0.79
  14 -10  -4    9.18    1.23
  12 -10  -4   20.63    1.38
 -12 -10   4   18.24    1.31
 -12 -10   4   19.33    1.05
 -12 -10   4   20.58    1.13
  12 -10  -4   19.81    0.97
 -10 -10   4   26.27    1.22
  10 -10  -4   23.43    1.33
 -10 -10   4   24.92    1.46
  10 -10  -4   26.95    1.49
  10 -10  -4   25.49    1.15
 -10 -10   4   27.11    1.56
  10 -10  -4   26.38    1.63
   8 -10  -4   30.89    1.71
   8 -10  -4   33.49    1.58
  -8 -10   4   31.79    1.42
  -8 -10   4   28.41    1.55
  -8 -10   4   31.97    1.38
   6 -10  -4   30.21    1.32
   6 -10  -4   30.29    1.50
  -6 -10   4   28.34    1.53
  -6 -10   4   29.03    1.37
  -6 -10   4   29.49    1.37
   6 -10  -4   33.47    1.66
  -6  10   4   29.43    1.24
  -4 -10   4   41.10    1.70
  -4 -10   4   42.40    1.94
   4 -10  -4   42.34    1.80
   4 -10  -4   41.40    1.65
   4 -10  -4   45.40    1.94
  -4 -10   4   42.01    1.75
  -4  10   4   42.91    1.60
  -2 -10   4   33.12    1.69
   2 -10  -4   31.41    1.52
   2 -10  -4   32.78    1.54
   2 -10  -4   32.73    1.59
  -2 -10   4   30.68    1.62
   2 -10  -4   32.05    1.40
  -2 -10   4   26.14    1.97
  -2  10   4   30.93    1.37
   2  10  -4   31.76    1.58
   0 -10   4   35.15    1.58
   0 -10  -4   38.34    1.69
   0 -10  -4   36.88    1.68
   0 -10  -4   35.84    1.54
   0 -10   4   39.51    1.87
   0 -10  -4   37.81    1.66
   0  10   4   35.38    1.53
   0  10  -4   34.86    1.71
  -2 -10  -4   43.07    1.85
  -2 -10  -4   41.63    1.74
   2 -10   4   41.17    1.97
  -2 -10  -4   40.43    1.76
  -2 -10  -4   38.48    1.65
   2 -10   4   39.55    1.69
  -2  10  -4   39.90    1.84
   2  10   4   41.31    1.78
   2  10   4   41.37    1.70
   4 -10   4   20.93    1.22
   4 -10   4   20.25    1.50
  -4 -10  -4   20.23    1.20
  -4 -10  -4   22.64    1.29
  -4 -10  -4   21.47    1.17
   4  10   4   23.58    1.31
  -4  10  -4   21.88    1.40
   4  10   4   20.17    1.20
  -6 -10  -4   18.70    1.23
   6 -10   4   19.94    1.51
  -6 -10  -4   20.36    1.12
  -6 -10  -4   19.11    1.27
   6 -10   4   19.25    1.24
   6  10   4   21.69    1.28
  -6  10  -4   20.49    1.47
   6  10   4   19.43    1.26
   8 -10   4   14.14    1.51
  -8 -10  -4   16.15    1.26
  -8 -10  -4   16.85    0.99
  -8 -10  -4   14.61    1.21
   8 -10   4   16.72    1.17
   8  10   4   16.36    1.29
  -8  10  -4   19.40    1.52
  10 -10   4    8.87    1.22
 -10 -10  -4   11.42    0.81
 -10  10  -4   11.76    1.76
  11 -11  -4   10.10    1.26
  11 -11  -4    9.63    0.92
  -9 -11   4    7.79    0.89
   9 -11  -4    5.98    0.82
  -9 -11   4    6.34    0.91
   9 -11  -4    7.61    1.09
   7 -11  -4    8.67    0.89
   7 -11  -4    6.85    1.05
  -7 -11   4    8.54    0.92
  -7 -11   4    7.31    0.89
   5 -11  -4   20.14    1.31
   5 -11  -4   21.61    1.19
  -5 -11   4   20.28    1.46
  -5 -11   4   19.28    1.25
   5 -11  -4   21.40    1.50
   5 -11  -4   25.64    2.03
  -5 -11   4   22.21    1.51
  -5  11   4   20.69    1.08
  -3 -11   4    9.63    1.06
  -3 -11   4    8.43    1.16
   3 -11  -4    9.42    0.91
   3 -11  -4    9.02    1.02
   3 -11  -4    8.06    1.07
   3 -11  -4    9.56    1.05
  -3 -11   4   10.05    0.99
  -3  11   4    9.28    0.82
   1 -11  -4   14.20    1.13
  -1 -11   4   10.86    0.99
   1 -11  -4   13.62    1.15
  -1 -11   4   10.17    1.27
   1 -11  -4   11.36    0.99
  -1 -11   4   10.72    1.14
   1 -11  -4   12.03    1.11
   1  11  -4   11.28    1.19
  -1  11   4   11.90    0.92
  -1 -11  -4   12.65    1.10
  -1 -11  -4   13.96    1.21
  -1 -11  -4   14.14    1.16
   1 -11   4   13.78    1.08
  -1 -11  -4   13.10    1.05
   1 -11   4   12.24    1.44
  -1  11  -4   13.32    1.22
   1  11   4   13.54    1.00
  -3 -11  -4    8.20    1.12
   3 -11   4   10.00    1.00
   3 -11   4    8.26    1.25
  -3 -11  -4   10.57    0.93
  -3 -11  -4   10.64    1.07
  -3 -11  -4    8.54    0.98
   3  11   4    9.92    0.96
  -3  11  -4    8.19    1.09
   5 -11   4    7.56    0.93
  -5 -11  -4    4.35    0.76
  -5 -11  -4    3.80    0.76
  -5 -11  -4    4.53    0.76
   5  11   4    6.18    0.92
   5  11   4    6.06    0.83
  -5  11  -4    5.90    0.95
   7 -11   4    8.77    1.07
  -7 -11  -4    9.96    0.88
  -7  11  -4   10.08    1.43
  -6 -12   4    7.69    0.90
   6 -12  -4    8.54    1.20
   6 -12  -4    8.47    1.00
   4 -12  -4   13.05    1.26
   4 -12  -4    9.26    1.06
  -4 -12   4   11.06    1.07
  -4  12   4   12.50    0.91
   2 -12  -4    8.20    1.05
  -2 -12   4    6.37    0.97
   2 -12  -4    7.67    1.16
  -2  12   4    9.15    0.87
   0 -12   4    9.65    1.07
   0 -12  -4    9.08    1.12
   0 -12  -4    9.12    1.24
   0  12   4   11.09    0.97
   2 -12   4   12.30    1.08
  -2 -12  -4    9.60    1.08
  -2 -12  -4    9.81    1.19
  -2  12  -4   12.17    1.37
   4 -12   4    5.56    0.81
 -22   0   5   10.66    0.85
 -20   0   5   19.06    1.05
 -18   0   5   29.35    1.32
 -16   0   5   59.24    2.06
 -14   0   5   13.60    0.85
 -12   0   5  145.95    4.41
 -12   0   5  154.72    3.88
 -10   0   5   15.63    0.56
 -10   0   5   14.76    0.87
  -8   0   5  216.88    5.49
   8   0  -5  202.06    5.40
  -8   0   5  217.93    5.92
  -6   0   5   37.08    1.05
  -6   0   5   35.04    1.46
  -4   0   5  268.28    6.73
   4   0  -5  253.75    6.78
  -4   0   5  262.69    7.16
   2   0  -5   41.59    1.36
  -2   0   5   38.58    1.56
  -2   0   5   40.84    1.31
   0   0   5  328.54    8.42
   0   0   5  318.48    8.67
   0   0  -5  330.67    8.43
   0   0   5  311.71    8.44
   2   0   5   35.67    1.32
   2   0   5   32.98    1.41
   2   0   5   33.97    1.31
  -2   0  -5   35.93    1.33
   4   0   5  110.70    3.45
   4   0   5  121.21    3.42
  -4   0  -5  112.96    3.38
   4   0   5  115.02    3.43
   6   0   5  114.19    3.53
  -6   0  -5  114.63    3.48
   6   0   5  124.72    3.51
   6   0   5  112.48    3.47
   8   0   5   54.35    1.91
   8   0   5   54.29    2.36
   8   0   5   59.80    2.04
  -8   0  -5   58.50    2.68
 -10   0  -5   28.33    1.41
  10   0   5   29.08    1.40
  10   0   5   26.97    1.15
  12   0   5   26.83    1.12
 -12   0  -5   28.79    1.47
  12   0   5   28.88    1.45
 -14   0  -5   17.25    1.28
  14   0   5   18.95    0.86
  14   0   5   23.83    1.31
  14   0   5   22.28    1.26
 -16   0  -5    2.67    0.71
  16   0   5    3.11    0.66
  16   0   5    3.41    0.69
 -23  -1   5   14.36    0.93
 -21  -1   5    1.83    0.26
 -21  -1   5    2.32    0.50
 -21   1   5    1.82    0.47
 -19  -1   5   39.58    1.24
  19  -1  -5   39.60    1.86
 -19  -1   5   41.69    1.64
 -19   1   5   45.67    1.70
 -17  -1   5    3.19    0.29
  17  -1  -5    4.12    0.73
 -17  -1   5    3.32    0.53
 -17   1   5    3.40    0.53
 -15  -1   5   44.19    1.32
 -15  -1   5   43.67    1.69
  15  -1  -5   44.34    1.88
 -15   1   5   47.85    1.74
 -13  -1   5   19.17    0.69
  13  -1  -5   20.33    1.18
 -13   1   5   18.37    0.99
 -11  -1   5   81.28    2.25
 -11  -1   5   81.30    2.63
  11  -1  -5   85.76    2.76
 -11   1   5   74.43    2.68
   9  -1  -5   14.89    0.52
  -9  -1   5   14.24    0.87
   9  -1  -5   15.33    0.95
   9  -1  -5   14.61    0.51
  -9  -1   5   15.01    0.61
  -9   1   5   13.80    0.84
  -9   1   5   14.64    0.50
  -9   1   5   14.43    0.50
   7  -1  -5   81.52    2.57
  -7  -1   5   81.78    2.25
  -7  -1   5   77.27    2.58
  -7   1   5   80.27    2.10
   7   1  -5   76.02    2.08
  -7   1   5   72.49    2.15
  -7   1   5   77.74    2.53
  -5  -1   5   98.12    3.13
   5  -1  -5  109.41    3.11
   5  -1  -5  101.00    2.72
   5   1  -5   98.61    2.73
  -5   1   5   92.82    2.75
  -5   1   5   98.16    3.08
  -5   1   5  100.94    2.71
  -3  -1   5   20.82    1.08
  -3  -1   5   20.14    0.77
   3  -1  -5   20.38    0.79
   3  -1  -5   20.63    0.98
  -3   1   5   19.24    0.81
   3   1  -5   19.38    0.82
  -3   1   5   20.68    0.76
  -3   1   5   19.52    1.00
  -1  -1   5  139.06    4.25
  -1  -1   5  145.66    3.97
   1  -1  -5  145.53    4.10
   1  -1  -5  143.65    3.91
  -1   1   5  150.17    3.93
  -1   1   5  138.46    4.16
   1   1  -5  143.74    3.99
  -1   1   5  141.56    3.97
   1  -1   5   46.85    1.85
  -1  -1  -5   49.74    1.63
   1  -1   5   49.18    1.69
   1   1   5   48.29    1.79
   1   1   5   50.17    1.68
   1   1   5   50.04    1.65
  -1   1  -5   51.80    1.72
  -3  -1  -5  133.65    3.76
   3  -1   5  130.23    3.83
   3  -1   5  128.22    3.95
   3   1   5  129.25    3.86
   3   1   5  133.63    3.80
   3   1   5  137.87    3.82
  -3   1  -5  132.96    4.08
   5  -1   5    8.05    1.06
   5  -1   5    7.71    0.68
   5  -1   5    8.70    0.71
  -5  -1  -5    7.46    0.65
   5   1   5    8.61    0.66
   5   1   5    8.81    0.68
   5   1   5    8.44    0.69
  -5   1  -5    9.22    0.76
  -7  -1  -5  114.47    3.44
   7  -1   5  108.64    3.43
   7  -1   5  118.99    3.46
   7  -1   5  112.24    3.50
   7   1   5  121.56    3.50
   7   1   5  109.80    3.34
   7   1   5  109.97    3.50
  -7   1  -5  117.58    3.53
   9  -1   5    5.09    0.70
  -9  -1  -5    4.62    0.69
   9  -1   5    4.80    0.59
   9   1   5    3.07    0.60
   9   1   5    4.50    0.65
  -9   1  -5    4.85    0.68
   9   1   5    4.04    0.49
  11  -1   5   38.69    1.51
  11  -1   5   44.07    1.77
 -11  -1  -5   40.13    1.71
 -11   1  -5   41.21    1.78
  11   1   5   40.77    1.77
  11   1   5   38.34    1.39
  13  -1   5   12.97    1.03
 -13  -1  -5   11.11    1.04
  13  -1   5   11.44    0.75
  13   1   5   11.57    0.63
 -13   1  -5   11.92    1.11
  13   1   5   12.12    1.04
  15  -1   5   12.89    1.06
 -15  -1  -5   11.64    1.09
  15  -1   5   14.93    1.08
  15  -1   5   11.27    0.72
 -15   1  -5   11.26    1.18
  15   1   5   12.09    1.06
  15   1   5   12.48    1.06
  22  -2  -5    6.97    1.03
 -22  -2   5    7.00    0.78
 -22  -2   5    6.77    0.55
 -20  -2   5    9.23    0.77
  20  -2  -5   10.04    1.08
 -20  -2   5    8.65    0.53
 -20   2   5    9.36    0.82
 -18  -2   5   15.06    0.91
 -18  -2   5   13.93    0.64
  18  -2  -5   14.11    1.16
 -18   2   5   15.52    0.96
 -16  -2   5   29.79    1.02
 -16  -2   5   29.32    1.31
  16  -2  -5   29.38    0.92
  16  -2  -5   32.41    1.57
  16  -2  -5   27.13    0.93
 -16   2   5   31.00    1.36
  14  -2  -5    4.44    0.75
  14  -2  -5    3.86    0.29
 -14  -2   5    4.00    0.58
  14  -2  -5    3.90    0.31
 -14  -2   5    3.67    0.37
 -14   2   5    3.91    0.60
 -12  -2   5   90.72    3.21
  12  -2  -5   96.81    2.50
 -12  -2   5   86.11    2.60
  12  -2  -5  100.21    3.10
  12  -2  -5   92.25    2.48
 -12   2   5   93.48    2.94
  10  -2  -5    0.64    0.41
  10  -2  -5    0.57    0.18
 -10  -2   5    0.72    0.31
  10  -2  -5    0.73    0.17
 -10  -2   5    0.65    0.21
  -8  -2   5   96.48    3.11
   8  -2  -5   99.73    3.06
  -8  -2   5   97.84    2.75
  -8   2   5   97.75    2.53
  -8   2   5   90.88    2.98
   8   2  -5   97.94    2.53
   6  -2  -5   17.54    0.93
  -6  -2   5   16.12    0.60
  -6  -2   5   16.25    0.99
   6  -2  -5   16.69    0.64
  -6  -2   5   16.90    0.76
  -6   2   5   15.77    0.90
  -6   2   5   16.47    0.64
  -6   2   5   16.15    0.60
  -4  -2   5  153.01    4.18
   4  -2  -5  161.75    4.46
  -4  -2   5  160.98    4.68
   4  -2  -5  156.15    4.14
  -4   2   5  150.98    4.47
   4   2  -5  150.32    4.14
  -4   2   5  154.10    4.15
  -4   2   5  159.72    4.17
   2  -2  -5    0.74    0.23
  -2  -2   5    0.87    0.36
   2  -2  -5    0.53    0.28
  -2  -2   5    1.62    0.30
   2   2  -5    0.94    0.25
  -2   2   5    1.21    0.25
  -2   2   5    0.99    0.23
  -2   2   5    1.12    0.35
   0  -2  -5  181.32    4.96
   0  -2   5  174.60    4.91
   0  -2  -5  185.75    4.82
   0   2   5  180.76    4.85
   0   2  -5  181.92    4.90
   0   2   5  173.42    4.86
   0   2   5  172.78    5.03
  -2  -2  -5   15.97    0.93
  -2  -2  -5   15.89    0.82
   2  -2   5   16.01    0.85
   2   2   5   17.37    0.83
   2   2   5   15.69    0.82
  -2   2  -5   15.72    0.88
   2   2   5   14.91    0.86
  -4  -2  -5   55.36    1.85
   4  -2   5   55.05    1.93
   4   2   5   53.54    1.89
  -4   2  -5   57.66    1.99
   4   2   5   55.12    1.92
   4   2   5   56.17    1.92
   6  -2   5   58.92    2.09
  -6  -2  -5   58.57    2.01
   6   2   5   58.57    2.09
  -6   2  -5   61.69    2.17
   6   2   5   61.21    2.09
   6   2   5   58.09    1.98
   8  -2   5   31.74    1.36
  -8  -2  -5   28.78    1.34
   8   2   5   34.40    1.43
   8   2   5   26.97    1.38
   8   2   5   30.16    1.19
  -8   2  -5   27.38    2.01
 -10  -2  -5   10.82    0.92
  10  -2   5   12.29    0.92
  10   2   5   11.15    0.66
 -10   2  -5   11.63    1.02
  10   2   5   11.37    0.96
  12  -2   5   16.92    1.12
 -12  -2  -5   15.72    1.12
  12  -2   5   15.84    0.95
  12   2   5   16.68    1.14
 -12   2  -5   15.35    1.17
  12   2   5   15.74    0.73
  14  -2   5   13.78    0.89
  14  -2   5   18.48    1.18
  14  -2   5   16.17    1.08
 -14  -2  -5   14.54    1.17
  14   2   5   15.19    1.16
 -14   2  -5   14.86    1.22
 -16  -2  -5    1.21    0.63
  16  -2   5    2.01    0.58
  16  -2   5    1.66    0.43
  16  -2   5    1.85    0.58
  16   2   5    0.26    0.55
  16   2   5    1.36    0.59
 -16   2  -5    1.07    0.63
 -23  -3   5   12.69    1.20
  23  -3  -5   12.72    1.29
  23  -3  -5   14.27    0.86
 -21  -3   5    5.56    0.69
  21  -3  -5    6.78    0.58
 -21  -3   5    5.71    0.52
  21  -3  -5    4.83    0.85
 -19  -3   5   40.70    1.38
 -19  -3   5   42.87    1.65
  19  -3  -5   40.60    1.35
  19  -3  -5   40.08    1.34
  19  -3  -5   41.24    1.93
  17  -3  -5   11.83    1.11
  17  -3  -5    8.66    0.56
 -17  -3   5    9.65    0.59
  17  -3  -5   10.44    0.58
 -17  -3   5   10.75    0.82
 -17   3   5   10.21    0.82
 -15  -3   5   54.86    2.00
  15  -3  -5   53.29    1.62
  15  -3  -5   52.91    1.62
  15  -3  -5   57.15    2.22
 -15  -3   5   54.75    1.73
 -15   3   5   54.94    2.02
 -13  -3   5   26.23    1.29
 -13  -3   5   26.07    1.04
  13  -3  -5   29.30    1.43
  13  -3  -5   28.25    0.96
 -13   3   5   28.10    1.29
 -11  -3   5  102.84    3.39
  11  -3  -5  103.40    2.85
  11  -3  -5  109.27    3.36
 -11   3   5  100.72    3.22
   9  -3  -5   60.20    1.75
  -9  -3   5   60.02    1.87
  -9  -3   5   59.49    2.22
   9  -3  -5   59.85    1.74
   9  -3  -5   58.55    2.20
  -9   3   5   58.07    2.08
   7  -3  -5   99.61    2.74
  -7  -3   5  100.20    3.28
   7  -3  -5  103.47    3.13
  -7  -3   5  101.69    3.04
  -7  -3   5   93.72    2.70
  -7   3   5   98.54    3.13
  -7   3   5   99.84    2.64
  -5  -3   5   79.64    2.46
   5  -3  -5   85.93    2.72
  -5  -3   5   90.25    2.61
   5  -3  -5   85.95    2.43
  -5   3   5   88.40    2.38
   5   3  -5   86.66    2.41
  -5   3   5   88.68    2.45
  -5   3   5   80.97    2.71
   3  -3  -5   67.15    1.97
   3  -3  -5   68.74    2.21
  -3  -3   5   64.04    2.04
  -3   3   5   63.88    2.23
  -3   3   5   67.39    2.00
   3   3  -5   64.72    1.97
  -3   3   5   67.87    1.96
   1  -3  -5  214.51    5.76
   1  -3  -5  226.91    5.96
  -1  -3   5  211.91    5.87
  -1   3   5  219.32    5.79
   1   3  -5  215.13    5.81
  -1   3   5  207.43    6.00
  -1   3   5  225.95    5.82
   1  -3   5   67.09    2.17
  -1  -3  -5   66.19    2.06
  -1  -3  -5   68.09    2.11
  -1  -3  -5   67.18    2.15
  -1   3  -5   66.35    2.14
   1   3   5   63.22    2.20
   1   3   5   66.22    2.10
   1   3   5   67.98    2.11
  -3  -3  -5  129.07    3.63
  -3  -3  -5  124.68    3.57
  -3  -3  -5  124.57    3.60
   3  -3   5  125.63    3.70
   3   3   5  122.57    3.68
   3   3   5  126.17    3.80
  -3   3  -5  125.63    3.70
   3   3   5  125.43    3.65
  -5  -3  -5   30.38    1.30
  -5  -3  -5   30.56    1.20
  -5  -3  -5   31.01    1.27
   5  -3   5   32.18    1.36
  -5   3  -5   30.76    1.49
   5   3   5   29.82    1.25
   5   3   5   30.61    1.34
   5   3   5   30.84    1.34
  -7  -3  -5  117.12    3.50
   7  -3   5  119.92    3.60
  -7  -3  -5  107.00    3.62
  -7   3  -5  125.56    3.87
   7   3   5  119.01    3.42
   7   3   5  109.21    3.94
   7   3   5  122.37    3.63
   9  -3   5   14.36    0.96
  -9  -3  -5   12.89    0.91
   9   3   5   13.70    0.75
   9   3   5   11.26    0.96
  -9   3  -5   13.48    1.05
 -11  -3  -5   44.43    1.82
  11  -3   5   50.26    1.92
  11  -3   5   43.28    1.80
  11   3   5   45.57    1.95
 -11   3  -5   47.38    2.00
 -13  -3  -5   12.16    1.07
  13  -3   5   13.39    1.30
  13  -3   5   15.83    1.11
  13   3   5   11.49    1.11
 -13   3  -5   11.76    1.15
 -15  -3  -5    9.40    1.12
  15  -3   5   11.92    1.03
 -15   3  -5   10.55    1.22
  15   3   5    9.38    1.09
  15   3   5    9.68    1.17
  17  -3   5    3.88    0.69
  22  -4  -5    7.03    1.03
 -22  -4   5    5.84    0.63
 -22  -4   5    4.80    0.69
  22   4  -5    5.90    0.75
 -20  -4   5   10.70    0.86
 -20  -4   5   10.37    0.70
  20  -4  -5    9.93    1.22
  20  -4  -5   10.37    0.69
 -18  -4   5   19.19    1.10
  18  -4  -5   18.80    0.87
  18  -4  -5   20.26    1.38
  16  -4  -5   30.45    1.12
  16  -4  -5   29.84    1.15
 -16  -4   5   32.15    1.22
  16  -4  -5   33.54    1.67
 -16  -4   5   29.07    1.38
 -14  -4   5   13.25    0.75
 -14  -4   5   12.52    0.90
  14  -4  -5   12.91    1.06
  14  -4  -5   12.17    0.68
  14  -4  -5   12.70    0.67
 -14   4   5   12.80    0.89
 -12  -4   5   93.98    2.80
 -12  -4   5   94.24    3.13
  12  -4  -5   98.61    3.19
  12  -4  -5   92.57    2.75
 -12   4   5   93.70    3.04
  10  -4  -5    3.37    0.41
 -10  -4   5    4.33    0.69
  10  -4  -5    3.81    0.67
 -10  -4   5    4.14    0.48
  10  -4  -5    3.90    0.44
 -10   4   5    3.79    0.56
  -8  -4   5   85.22    2.62
   8  -4  -5   90.07    2.87
   8  -4  -5   88.83    2.52
  -8  -4   5   91.71    2.44
   8  -4  -5   86.16    2.48
  -8  -4   5   79.65    2.44
  -8   4   5   86.35    3.13
  -8   4   5   86.27    2.30
  -6  -4   5   57.70    1.87
  -6  -4   5   53.63    1.74
   6  -4  -5   56.92    1.73
   6  -4  -5   52.15    2.22
  -6   4   5   53.00    2.05
   6   4  -5   56.87    1.69
  -6   4   5   55.66    1.73
  -6   4   5   57.41    1.62
  -4  -4   5  163.72    4.49
   4  -4  -5  164.87    4.56
   4  -4  -5  158.83    4.26
   4  -4  -5  157.06    4.28
  -4  -4   5  152.25    4.35
  -4   4   5  158.08    4.22
  -4   4   5  150.78    4.57
  -4   4   5  157.38    4.31
   4   4  -5  157.83    4.28
  -2  -4   5    5.59    0.50
   2  -4  -5    5.60    0.47
   2  -4  -5    5.56    0.58
   2  -4  -5    5.38    0.49
   2   4  -5    5.35    0.50
  -2   4   5    5.38    0.61
  -2   4   5    5.53    0.44
  -2   4   5    5.12    0.48
   0  -4   5  159.36    4.52
   0  -4  -5  166.16    4.43
   0  -4  -5  161.04    4.40
   0  -4  -5  162.87    4.53
   0   4   5  159.28    4.43
   0   4  -5  158.19    4.47
   0   4   5  152.48    4.60
   0   4   5  163.40    4.47
  -2  -4  -5   39.70    1.49
   2  -4   5   39.85    1.54
  -2  -4  -5   41.90    1.48
  -2  -4  -5   41.39    1.46
   2   4   5   41.19    1.51
  -2   4  -5   40.85    1.56
   2   4   5   40.88    1.59
   2   4   5   39.99    1.50
  -4  -4  -5   61.57    1.99
  -4  -4  -5   54.91    2.22
  -4  -4  -5   62.35    2.03
   4  -4   5   61.77    2.13
   4   4   5   63.20    2.12
  -4   4  -5   62.59    2.18
   4   4   5   62.54    2.10
   4   4   5   62.46    2.15
  -6  -4  -5   61.60    2.15
  -6  -4  -5   52.92    2.16
   6  -4   5   59.38    2.11
  -6  -4  -5   58.75    1.92
   6   4   5   61.57    2.02
   6   4   5   61.98    2.16
  -6   4  -5   63.73    2.23
   6   4   5   51.00    2.72
  -8  -4  -5   36.74    1.51
   8  -4   5   38.14    1.61
  -8  -4  -5   36.30    1.52
  -8   4  -5   38.41    1.72
   8   4   5   38.71    1.66
   8   4   5   34.86    1.60
 -10  -4  -5   11.30    0.95
  10  -4   5   13.16    1.02
 -10  -4  -5   13.90    0.95
  10   4   5   13.15    1.06
 -10   4  -5   13.71    1.17
 -12  -4  -5   18.33    1.15
  12  -4   5   20.29    1.25
 -12  -4  -5   19.22    1.18
 -12   4  -5   18.20    1.38
  12   4   5   19.46    1.30
 -14  -4  -5   16.78    1.22
  14  -4   5   16.76    1.20
  14  -4   5   19.55    1.21
  14   4   5   17.27    1.27
 -14   4  -5   17.32    1.44
 -21  -5   5    3.30    0.56
  21  -5  -5    3.39    0.50
  21  -5  -5    2.92    0.84
 -21  -5   5    2.12    0.42
  21   5  -5    2.99    0.65
  19  -5  -5   18.12    1.20
 -19  -5   5   17.80    1.08
  19  -5  -5   18.14    1.44
 -19  -5   5   19.03    0.96
 -17  -5   5    2.89    0.54
 -17  -5   5    2.97    0.50
  17  -5  -5    3.97    0.80
  17  -5  -5    2.89    0.41
  17  -5  -5    3.08    0.46
  15  -5  -5   19.78    1.31
 -15  -5   5   17.37    0.93
  15  -5  -5   18.68    0.88
 -15  -5   5   19.12    1.13
  15  -5  -5   16.94    0.88
 -13  -5   5   11.43    0.95
  13  -5  -5   11.08    1.02
  13  -5  -5   10.49    0.87
  13  -5  -5   10.65    0.67
 -13  -5   5    9.20    0.72
 -11  -5   5   35.99    1.69
  11  -5  -5   38.25    1.70
  11  -5  -5   37.43    1.32
 -11  -5   5   36.54    1.10
  11  -5  -5   36.44    1.31
 -11  -5   5   36.02    1.85
   9  -5  -5   14.68    1.00
   9  -5  -5   12.56    0.71
  -9  -5   5   12.29    0.67
  -9  -5   5   14.35    0.59
   9  -5  -5   13.32    0.72
  -9  -5   5   12.61    0.79
  -9   5   5   13.06    0.47
  -9   5   5   12.21    0.85
   7  -5  -5   31.26    1.06
   7  -5  -5   34.03    1.24
  -7  -5   5   31.34    1.18
   7  -5  -5   34.34    1.48
  -7  -5   5   32.79    1.11
  -7  -5   5   32.75    1.32
   7  -5  -5   30.89    1.19
  -7   5   5   32.44    1.43
  -7   5   5   32.36    1.03
   7   5  -5   32.70    1.32
  -5  -5   5   26.95    1.08
  -5  -5   5   28.00    1.25
   5  -5  -5   27.67    1.29
   5  -5  -5   27.33    1.00
   5  -5  -5   27.22    1.08
  -5   5   5   27.40    1.08
  -5   5   5   28.72    0.98
  -5   5   5   26.04    1.27
   5   5  -5   27.80    1.07
   3  -5  -5   17.05    0.77
  -3  -5   5   16.95    0.84
   3  -5  -5   16.57    0.81
   3  -5  -5   15.73    0.97
   3   5  -5   16.90    0.84
  -3   5   5   16.53    0.98
  -3   5   5   16.37    0.75
  -3   5   5   16.56    0.82
   1  -5  -5   77.58    2.30
  -1  -5   5   75.18    2.40
   1  -5  -5   77.67    2.50
   1  -5  -5   75.98    2.34
  -1   5   5   78.57    2.33
  -1   5   5   70.32    2.59
   1   5  -5   74.79    2.37
  -1   5   5   78.36    2.39
  -1  -5  -5   23.77    1.02
  -1  -5  -5   23.26    1.04
  -1  -5  -5   23.34    1.09
   1  -5   5   23.92    1.10
   1   5   5   24.52    1.10
   1   5   5   23.72    1.05
   1   5   5   23.09    1.17
  -1   5  -5   22.71    1.10
  -3  -5  -5   41.04    1.53
  -3  -5  -5   42.17    1.55
   3  -5   5   41.53    1.61
  -3  -5  -5   42.82    1.54
   3   5   5   40.69    1.62
   3   5   5   41.00    1.59
   3   5   5   40.51    1.56
  -3   5  -5   39.91    1.64
  -5  -5  -5   10.20    0.77
  -5  -5  -5   10.28    0.76
   5  -5   5   10.05    0.79
  -5  -5  -5    9.67    0.69
   5   5   5    8.77    0.80
   5   5   5   10.45    0.79
  -5   5  -5   10.00    0.91
  -7  -5  -5   48.90    1.80
  -7  -5  -5   45.56    1.64
  -7  -5  -5   49.07    1.82
   7  -5   5   49.44    1.91
   7   5   5   49.90    1.94
   7   5   5   51.58    1.95
  -7   5  -5   51.94    2.05
  -9  -5  -5    4.52    0.49
  -9  -5  -5    3.75    0.61
   9  -5   5    5.24    0.74
  -9  -5  -5    4.14    0.62
  -9   5  -5    4.08    0.75
   9   5   5    3.96    0.66
   9   5   5    4.78    0.70
 -11  -5  -5   19.40    1.16
  11  -5   5   19.48    1.20
 -11  -5  -5   19.20    1.19
  11   5   5   20.69    1.30
 -11   5  -5   18.20    1.39
  13  -5   5    8.09    0.96
 -13  -5  -5    6.06    0.94
  13  -5   5    6.14    0.89
 -13  -5  -5    6.00    0.83
 -13   5  -5    5.38    0.92
  13   5   5    6.90    0.91
  15  -5   5    8.86    1.15
  15  -5   5    5.67    1.00
 -15   5  -5    4.66    1.03
 -20  -6   5   10.07    0.83
  20  -6  -5    7.83    1.33
  20  -6  -5    8.06    0.80
 -20  -6   5    9.80    0.88
  20   6  -5    9.05    1.02
  18  -6  -5   15.32    0.99
  18  -6  -5   14.62    0.90
 -18  -6   5   15.74    1.08
 -18  -6   5   15.14    0.94
  18  -6  -5   18.06    1.42
 -16  -6   5   22.78    1.14
  16  -6  -5   25.66    1.17
 -16  -6   5   21.98    1.29
  16  -6  -5   24.93    1.55
  14  -6  -5   13.87    0.80
 -14  -6   5   12.14    1.00
 -14  -6   5   13.11    0.54
 -14  -6   5   10.33    0.56
  14  -6  -5   14.26    1.18
 -14  -6   5   12.99    0.85
  14  -6  -5   13.31    0.84
 -12  -6   5   46.84    1.62
 -12  -6   5   52.28    1.57
  12  -6  -5   52.58    1.80
 -12  -6   5   52.24    1.89
  12  -6  -5   54.59    1.79
  12  -6  -5   58.29    2.24
  10  -6  -5   14.80    0.57
  10  -6  -5   16.00    0.87
 -10  -6   5   15.02    0.79
  10  -6  -5   17.11    1.13
  10  -6  -5   15.68    0.85
 -10  -6   5   16.86    1.01
   8  -6  -5   71.76    2.20
   8  -6  -5   70.53    2.47
  -8  -6   5   62.96    2.19
   8  -6  -5   68.45    2.16
   8  -6  -5   68.36    1.95
  -8  -6   5   70.47    2.30
  -8  -6   5   65.40    2.21
  -8   6   5   68.55    1.93
   6  -6  -5   37.73    1.25
   6  -6  -5   38.36    1.44
  -6  -6   5   37.06    1.37
  -6  -6   5   38.84    1.55
   6  -6  -5   38.26    1.41
   6   6  -5   37.30    1.36
  -6   6   5   38.00    1.24
   4  -6  -5   84.65    2.98
  -4  -6   5   88.85    2.70
   4  -6  -5   87.15    2.55
   4  -6  -5   88.73    2.69
  -4  -6   5   91.83    2.89
   4   6  -5   88.89    2.69
  -4   6   5   90.08    2.59
  -4   6   5   89.58    2.70
   2  -6  -5   25.49    1.11
   2  -6  -5   25.16    1.21
   2  -6  -5   25.02    1.01
  -2  -6   5   24.15    1.10
  -2  -6   5   24.81    1.28
  -2   6   5   23.76    1.10
   2   6  -5   24.81    1.13
  -2   6   5   24.90    1.03
   0  -6   5  108.32    3.31
   0  -6  -5  109.93    3.26
   0  -6  -5  112.46    3.36
   0  -6   5  111.06    3.49
   0  -6  -5  110.18    3.18
   0   6   5  111.19    3.24
   0   6   5  110.00    3.32
   0   6  -5  107.04    3.31
  -2  -6  -5   28.73    1.19
  -2  -6  -5   29.10    1.24
   2  -6   5   27.89    1.27
   2   6   5   28.58    1.25
   2   6   5   28.21    1.28
  -2   6  -5   28.44    1.32
   4  -6   5   46.75    1.80
  -4  -6  -5   48.37    1.70
  -4  -6  -5   46.23    1.72
  -4  -6  -5   46.27    1.69
   4   6   5   45.20    1.79
  -4   6  -5   46.49    1.86
   4   6   5   46.12    1.77
  -6  -6  -5   48.01    1.76
   6  -6   5   48.03    1.88
  -6  -6  -5   47.46    1.67
  -6  -6  -5   45.61    1.75
   6   6   5   46.41    1.87
   6   6   5   45.17    1.84
  -6   6  -5   51.31    2.02
  -8  -6  -5   25.94    1.09
  -8  -6  -5   26.36    1.29
   8  -6   5   28.72    1.41
  -8  -6  -5   27.05    1.30
   8   6   5   25.68    1.37
  -8   6  -5   27.65    1.56
   8   6   5   25.35    1.36
 -10  -6  -5   13.75    1.03
 -10  -6  -5   12.08    0.99
  10  -6   5   13.79    1.06
 -10  -6  -5   12.48    0.71
 -10   6  -5   11.64    1.23
  10   6   5   12.61    1.09
  10   6   5   15.32    1.10
 -12  -6  -5   15.63    1.16
  12  -6   5   14.87    1.14
 -12  -6  -5   13.45    1.12
  12   6   5   16.02    1.29
  12   6   5   13.24    1.32
 -12   6  -5   16.35    1.46
  14  -6   5    9.03    1.10
  14  -6   5    9.46    1.46
 -14   6  -5    7.34    1.15
 -19  -7   5   17.21    1.07
 -19  -7   5   17.05    1.14
  19  -7  -5   17.53    1.08
  19  -7  -5   15.83    1.69
  17  -7  -5    8.26    0.93
 -17  -7   5    7.99    0.91
  17  -7  -5    8.06    0.77
 -17  -7   5    8.95    0.82
  17  -7  -5    8.24    1.26
  15  -7  -5   23.79    1.54
 -15  -7   5   20.65    1.12
  15  -7  -5   18.09    1.12
 -15  -7   5   18.92    1.25
  15  -7  -5   20.29    1.13
 -15  -7   5   20.92    0.84
  13  -7  -5   25.51    1.20
 -13  -7   5   24.55    0.92
 -13  -7   5   24.71    1.21
  13  -7  -5   26.08    1.51
 -13  -7   5   20.63    1.02
  11  -7  -5   39.17    1.53
  11  -7  -5   39.99    1.49
 -11  -7   5   35.93    1.38
  11  -7  -5   41.45    1.87
 -11  -7   5   39.70    1.32
  11  -7  -5   38.52    1.16
 -11  -7   5   38.82    1.59
  -9  -7   5   18.39    0.89
  -9  -7   5   17.72    1.05
   9  -7  -5   17.17    0.73
   9  -7  -5   20.43    1.24
  -9  -7   5   18.82    0.85
   9  -7  -5   19.60    1.02
   9  -7  -5   19.95    0.98
  -9   7   5   18.23    0.71
   7  -7  -5   53.29    1.87
   7  -7  -5   54.03    2.11
   7  -7  -5   53.08    1.65
  -7  -7   5   54.84    1.78
  -7  -7   5   50.53    1.79
  -7  -7   5   54.08    1.99
   7  -7  -5   52.75    1.88
  -7   7   5   53.40    1.65
  -5  -7   5   61.32    2.23
   5  -7  -5   60.47    2.08
   5  -7  -5   64.53    2.29
   5  -7  -5   63.89    2.13
   5  -7  -5   59.90    1.90
  -5  -7   5   61.52    2.05
   5   7  -5   61.91    2.06
  -5   7   5   62.29    1.93
  -3  -7   5   32.45    1.32
   3  -7  -5   32.13    1.35
  -3  -7   5   32.61    1.50
   3  -7  -5   31.80    1.45
   3  -7  -5   31.59    1.20
  -3   7   5   32.19    1.33
   3   7  -5   30.53    1.34
  -3   7   5   31.93    1.23
  -1  -7   5   60.65    2.09
   1  -7  -5   62.24    2.08
  -1  -7   5   62.33    2.32
   1  -7  -5   62.46    2.19
   1  -7  -5   59.51    1.98
   1   7  -5   58.89    2.12
  -1   7   5   57.97    2.20
  -1   7   5   62.94    2.14
  -1  -7  -5   48.22    1.71
  -1  -7  -5   49.91    1.84
   1  -7   5   50.35    1.84
  -1  -7  -5   49.25    1.83
   1  -7   5   50.21    2.02
   1   7   5   49.82    1.79
  -1   7  -5   50.16    1.90
   1   7   5   41.97    2.38
  -3  -7  -5   50.91    1.80
  -3  -7  -5   50.62    1.84
   3  -7   5   48.91    1.90
  -3  -7  -5   50.00    1.84
   3   7   5   50.44    1.92
   3   7   5   51.14    1.88
  -3   7  -5   49.12    1.99
  -5  -7  -5   22.75    1.10
  -5  -7  -5   21.03    1.16
   5  -7   5   23.57    1.25
  -5  -7  -5   22.16    1.12
   5   7   5   20.06    1.18
   5   7   5   23.88    1.25
  -5   7  -5   21.66    1.33
  -7  -7  -5   43.59    1.70
  -7  -7  -5   41.47    1.57
   7  -7   5   40.90    1.77
  -7  -7  -5   40.93    1.70
   7   7   5   43.25    1.81
  -7   7  -5   42.41    1.94
   7   7   5   44.04    1.83
  -9  -7  -5   10.77    0.95
   9  -7   5   10.75    0.97
  -9  -7  -5    9.64    0.94
  -9  -7  -5   10.15    0.69
   9   7   5    8.22    0.96
   9   7   5   10.84    1.03
  -9   7  -5   10.87    1.17
 -11  -7  -5   15.73    1.19
 -11  -7  -5   14.20    0.76
 -11  -7  -5   16.21    1.17
  11  -7   5   18.31    1.39
  11   7   5   15.80    1.26
  11   7   5   16.40    1.34
 -11   7  -5   16.95    1.43
  13  -7   5   11.43    1.17
 -13   7  -5   10.19    1.56
 -18  -8   5    6.47    0.51
 -18  -8   5    6.90    0.93
 -18  -8   5    5.88    0.95
 -16  -8   5    7.99    0.89
  16  -8  -5    9.86    1.03
  16  -8  -5    7.60    1.17
  16  -8  -5    8.27    0.84
 -16  -8   5    7.22    0.54
 -16  -8   5    7.49    0.97
 -14  -8   5    3.79    0.51
  14  -8  -5    3.20    0.78
 -14  -8   5    5.61    0.50
 -14  -8   5    3.69    0.64
  14  -8  -5    5.29    0.71
  14  -8  -5    5.36    0.79
 -12  -8   5   17.08    1.04
  12  -8  -5   17.29    1.06
  12  -8  -5   17.49    0.98
 -12  -8   5   14.91    0.84
  12  -8  -5   15.85    0.63
 -12  -8   5   16.43    0.79
  12  -8  -5   18.13    1.34
  10  -8  -5    5.81    0.48
  10  -8  -5    7.00    0.80
 -10  -8   5    6.52    0.59
 -10  -8   5    6.62    0.62
  10  -8  -5    6.36    0.94
 -10  -8   5    6.57    0.75
   8  -8  -5   20.06    1.09
   8  -8  -5   18.63    0.83
  -8  -8   5   19.74    0.98
  -8  -8   5   20.70    0.96
   8  -8  -5   19.84    1.27
  -8  -8   5   19.98    1.16
  -8   8   5   19.27    0.83
   6  -8  -5   10.37    0.67
   6  -8  -5   12.12    0.91
   6  -8  -5   11.25    0.97
  -6  -8   5   11.28    0.78
  -6  -8   5   11.73    0.77
  -6  -8   5   11.04    0.94
   6   8  -5   11.18    0.85
  -6   8   5   11.56    0.67
  -4  -8   5   20.47    1.08
   4  -8  -5   22.42    1.26
   4  -8  -5   22.48    1.01
   4  -8  -5   22.88    1.17
  -4  -8   5   23.65    1.30
  -4   8   5   22.60    1.02
   4   8  -5   22.59    1.16
  -2  -8   5   11.73    0.82
   2  -8  -5   10.73    0.88
  -2  -8   5   10.52    0.99
   2  -8  -5   10.83    0.75
   2  -8  -5   10.74    0.92
   2   8  -5    9.49    0.86
  -2   8   5   10.60    0.77
   0  -8   5   37.16    1.54
   0  -8   5   36.94    1.78
   0  -8  -5   37.04    1.55
   0  -8  -5   39.19    1.62
   0  -8  -5   35.92    1.44
   0   8   5   37.38    1.60
   0   8   5   36.67    1.49
   0   8  -5   37.46    1.62
  -2  -8  -5    8.87    0.79
  -2  -8  -5    8.55    0.84
   2  -8   5    6.36    0.93
  -2  -8  -5    8.01    0.75
   2   8   5    9.15    0.79
  -2   8  -5    7.74    0.97
   2   8   5    9.12    0.82
  -4  -8  -5   15.17    1.02
   4  -8   5   14.97    1.03
  -4  -8  -5   14.86    0.98
   4  -8   5   13.67    1.20
  -4  -8  -5   14.69    0.93
  -4   8  -5   16.12    1.22
   4   8   5   13.55    1.06
   4   8   5   14.76    1.01
  -6  -8  -5   19.28    1.03
  -6  -8  -5   18.85    1.15
  -6  -8  -5   17.72    1.09
   6  -8   5   19.45    1.21
   6   8   5   17.87    1.17
  -6   8  -5   19.53    1.37
   6   8   5   21.36    1.26
  -8  -8  -5   10.80    0.93
  -8  -8  -5    9.64    0.93
  -8  -8  -5   10.66    0.89
   8  -8   5   11.01    1.00
   8   8   5   10.06    1.02
  -8   8  -5   10.67    1.24
   8   8   5    9.17    0.98
 -10  -8  -5    3.74    0.68
  10  -8   5    5.06    0.75
 -10  -8  -5    4.13    0.54
 -10  -8  -5    3.45    0.71
  10   8   5    4.67    0.78
 -10   8  -5    4.63    0.94
  10   8   5    5.97    1.13
  12  -8   5    7.49    1.15
 -12   8  -5    6.65    1.24
 -15  -9   5   10.01    0.68
 -15  -9   5    9.20    1.03
  15  -9  -5   10.78    1.43
 -13  -9   5   11.89    0.76
 -13  -9   5   10.96    1.04
  13  -9  -5   13.05    1.12
  13  -9  -5   11.67    0.70
  13  -9  -5   11.31    1.08
  11  -9  -5   16.46    1.36
 -11  -9   5   16.71    1.31
  11  -9  -5   15.56    0.75
  11  -9  -5   17.27    1.21
  11  -9  -5   17.30    1.06
 -11  -9   5   16.96    0.89
 -11  -9   5   14.87    1.13
   9  -9  -5   12.14    1.17
   9  -9  -5   13.21    1.08
   9  -9  -5   12.14    0.90
  -9  -9   5   13.24    0.80
  -9  -9   5   12.03    1.01
  -9  -9   5   12.33    0.85
   9  -9  -5   12.87    0.73
   7  -9  -5   23.32    1.04
   7  -9  -5   24.67    1.45
  -7  -9   5   21.35    1.12
  -7  -9   5   23.41    1.33
   7  -9  -5   25.22    1.39
  -7  -9   5   24.06    1.14
  -7   9   5   23.38    1.01
   5  -9  -5   22.00    1.33
  -5  -9   5   22.17    1.34
  -5  -9   5   23.45    1.16
   5  -9  -5   21.74    1.24
  -5  -9   5   21.76    1.14
  -5   9   5   22.06    1.21
   5   9  -5   22.28    1.22
   3  -9  -5   16.39    1.12
  -3  -9   5   16.60    1.24
   3  -9  -5   17.60    0.97
  -3  -9   5   17.14    1.03
   3  -9  -5   16.51    1.13
  -3   9   5   16.86    0.95
   3   9  -5   16.24    1.11
   1  -9  -5   30.47    1.45
  -1  -9   5   26.86    1.34
  -1  -9   5   27.90    1.62
   1  -9  -5   27.95    1.40
   1  -9  -5   28.94    1.28
   1   9  -5   28.91    1.46
  -1   9   5   28.21    1.38
  -1   9   5   26.61    1.28
  -1  -9  -5   22.24    1.27
   1  -9   5   22.17    1.46
  -1  -9  -5   23.72    1.25
   1  -9   5   23.35    1.27
  -1  -9  -5   21.85    1.13
   1   9   5   21.81    1.26
   1   9   5   22.63    1.18
  -1   9  -5   22.01    1.35
  -3  -9  -5   19.20    1.11
   3  -9   5   16.77    1.41
  -3  -9  -5   19.59    1.17
   3  -9   5   21.25    1.22
  -3  -9  -5   20.07    1.14
   3   9   5   21.03    1.17
  -3   9  -5   19.57    1.34
   3   9   5   19.18    1.22
   5  -9   5   12.43    1.04
  -5  -9  -5   12.04    0.98
  -5  -9  -5   13.73    0.96
   5  -9   5   11.69    1.25
  -5  -9  -5   13.52    1.05
   5   9   5   13.82    1.03
   5   9   5   14.32    1.11
  -5   9  -5   12.26    1.18
  -7  -9  -5   15.48    1.16
   7  -9   5   13.00    1.39
  -7  -9  -5   16.60    0.97
  -7  -9  -5   17.28    1.18
   7  -9   5   17.62    1.19
  -7   9  -5   17.54    1.45
   7   9   5   15.91    1.21
   7   9   5   15.99    1.23
  -9  -9  -5    4.98    0.80
  -9  -9  -5    6.06    0.67
   9  -9   5    7.70    1.02
   9   9   5    5.96    0.97
  -9   9  -5    7.50    1.09
 -12 -10   5   21.65    1.10
  12 -10  -5   21.17    1.49
 -10 -10   5   10.13    0.86
  10 -10  -5   12.39    0.80
  10 -10  -5   12.00    1.19
 -10 -10   5   11.64    1.06
 -10 -10   5   10.87    1.17
   8 -10  -5   17.68    1.52
   8 -10  -5   21.42    1.30
  -8 -10   5   18.80    1.10
   8 -10  -5   20.62    1.50
  -8 -10   5   19.53    1.12
  -8 -10   5   19.46    1.37
  -6 -10   5   27.57    1.35
   6 -10  -5   28.65    1.24
  -6 -10   5   27.55    1.59
   6 -10  -5   27.39    1.62
  -6 -10   5   28.87    1.35
   6 -10  -5   27.85    1.48
  -6  10   5   25.52    1.17
   4 -10  -5   30.75    1.62
  -4 -10   5   28.62    1.45
  -4 -10   5   28.39    1.41
  -4 -10   5   29.46    1.66
   4 -10  -5   28.74    1.31
   4 -10  -5   29.91    1.50
  -4  10   5   29.90    1.30
  -2 -10   5   15.99    1.67
   2 -10  -5   17.63    1.21
   2 -10  -5   15.22    1.15
   2 -10  -5   14.61    1.15
   2 -10  -5   18.16    1.05
  -2 -10   5   17.04    1.39
   2  10  -5   15.95    1.25
  -2  10   5   15.01    1.29
   0 -10  -5   32.01    1.68
   0 -10  -5   33.39    1.49
   0 -10   5   34.87    1.58
   0 -10  -5   36.37    1.65
   0 -10  -5   34.18    1.62
   0 -10   5   31.98    1.86
   0  10   5   36.68    1.54
   0  10  -5   34.06    1.70
  -2 -10  -5   19.72    1.26
   2 -10   5   21.11    1.28
   2 -10   5   17.83    1.57
  -2 -10  -5   21.32    1.19
  -2 -10  -5   18.56    1.17
   2  10   5   20.54    1.26
   2  10   5   21.07    1.21
  -2  10  -5   18.94    1.37
   4 -10   5   15.41    1.17
  -4 -10  -5   18.37    1.25
  -4 -10  -5   17.45    1.16
   4 -10   5   15.86    1.72
  -4 -10  -5   18.32    1.11
   4  10   5   18.31    1.25
  -4  10  -5   16.52    1.37
   4  10   5   17.19    1.18
  -6 -10  -5   16.56    1.25
   6 -10   5   19.28    1.30
  -6 -10  -5   18.16    1.09
  -6 -10  -5   18.01    1.30
   6  10   5   18.16    1.30
   6  10   5   18.89    1.61
  -6  10  -5   19.64    1.55
  -8 -10  -5   10.19    0.84
   8 -10   5   10.76    1.12
  -8  10  -5   12.81    1.57
   9 -11  -5    6.46    0.90
   9 -11  -5    6.49    0.85
   7 -11  -5    9.38    0.90
  -7 -11   5   10.23    1.34
   7 -11  -5   10.34    1.15
  -7  11   5    9.52    0.75
   5 -11  -5    6.41    0.81
   5 -11  -5    8.13    1.07
  -5 -11   5    6.61    0.96
  -5  11   5    7.25    0.73
   3 -11  -5    8.27    1.63
  -3 -11   5    7.78    0.95
   3 -11  -5    9.94    1.09
   3 -11  -5    8.22    0.91
  -3  11   5    8.21    0.82
  -1 -11   5   12.28    1.07
   1 -11  -5   14.43    1.08
   1 -11  -5   13.16    1.21
   1 -11  -5   13.04    1.19
   1  11  -5   13.71    1.30
  -1  11   5   13.56    1.01
  -1 -11  -5    8.08    0.98
  -1 -11  -5    9.58    1.14
   1 -11   5    7.89    0.96
  -1 -11  -5    8.37    1.02
  -1  11  -5    8.39    1.05
   1  11   5    9.35    0.94
   3 -11   5    7.09    1.02
  -3 -11  -5    6.37    0.91
  -3 -11  -5    5.15    0.84
  -3 -11  -5    5.46    0.79
  -3  11  -5    8.26    1.22
   3  11   5    8.00    1.01
   3  11   5    6.95    0.90
  -5 -11  -5    6.68    0.90
   5 -11   5    7.72    1.02
  -5  11  -5    6.00    1.05
 -22   0   6   14.78    1.03
 -20   0   6    9.87    0.92
 -18   0   6   46.62    1.86
 -16   0   6   14.28    0.96
 -14   0   6   74.31    2.54
 -12   0   6   57.18    1.59
 -12   0   6   56.04    2.08
 -10   0   6   37.66    1.17
 -10   0   6   37.43    1.60
   8   0  -6   98.27    2.69
  -8   0   6  101.20    3.23
   6   0  -6   56.40    1.73
  -6   0   6   56.86    2.13
   4   0  -6  109.52    3.12
  -4   0   6  110.82    3.04
   2   0  -6   29.03    1.12
  -2   0   6   27.34    1.06
  -2   0   6   26.44    1.34
  -2   0   6   27.13    1.12
   0   0   6  165.26    5.11
   0   0  -6  180.09    4.87
   0   0   6  181.10    4.86
   0   0   6  175.45    4.89
  -2   0  -6   14.91    0.87
   2   0   6   11.96    0.90
   2   0   6   12.83    0.98
   2   0   6   14.01    0.84
   4   0   6  120.08    3.75
   4   0   6  134.45    3.75
  -4   0  -6  127.08    3.73
   4   0   6  116.33    3.78
   6   0   6   18.30    1.03
  -6   0  -6   17.45    1.09
   6   0   6   15.97    1.06
   6   0   6   16.03    1.00
   8   0   6   52.81    2.07
  -8   0  -6   53.66    2.04
   8   0   6   49.71    1.90
  10   0   6   16.94    1.01
  10   0   6   20.30    1.23
 -10   0  -6   18.73    1.23
 -12   0  -6   28.08    1.54
  12   0   6   27.22    1.22
  12   0   6   30.50    1.54
 -14   0  -6    4.00    0.78
  14   0   6    4.78    0.75
  14   0   6    5.16    0.81
  14   0   6    4.76    0.60
 -21  -1   6    7.65    0.87
 -21   1   6    6.13    0.79
 -19  -1   6   28.61    1.34
 -19  -1   6   25.16    0.83
 -19   1   6   29.91    1.38
 -17  -1   6    5.47    0.69
  17  -1  -6    5.75    0.88
 -17  -1   6    4.24    0.30
 -17   1   6    5.59    0.76
 -15  -1   6   53.88    2.06
  15  -1  -6   61.61    2.35
 -15  -1   6   53.39    1.59
 -15   1   6   54.11    2.09
  13  -1  -6    7.13    0.87
 -13  -1   6    6.79    0.74
 -13  -1   6    6.58    0.40
 -13   1   6    5.87    0.70
 -11  -1   6   86.63    2.45
 -11  -1   6   89.86    2.94
  11  -1  -6   94.07    3.16
 -11   1   6   85.81    2.87
 -11   1   6   85.99    2.30
 -11   1   6   82.75    2.29
  -9  -1   6    4.23    0.39
  -9  -1   6    3.87    0.62
   9  -1  -6    4.82    0.35
   9  -1  -6    4.36    0.69
  -9   1   6    4.48    0.61
  -9   1   6    4.78    0.31
  -7  -1   6  135.74    3.45
   7  -1  -6  139.09    4.05
   7  -1  -6  128.51    3.69
  -7   1   6  134.93    3.50
  -7   1   6  131.47    4.02
  -7   1   6  123.27    3.57
  -5  -1   6    3.10    0.34
   5  -1  -6    3.81    0.65
   5  -1  -6    3.79    0.41
  -5  -1   6    3.57    0.62
  -5   1   6    3.39    0.34
   5   1  -6    3.41    0.41
  -5   1   6    3.09    0.53
  -5   1   6    3.27    0.38
  -3  -1   6   84.72    2.41
   3  -1  -6   85.28    2.41
   3   1  -6   81.37    2.44
  -3   1   6   74.29    2.97
  -3   1   6   82.42    2.38
  -3   1   6   79.59    2.45
   1  -1  -6   31.32    1.18
  -1  -1   6   28.16    1.48
  -1  -1   6   28.35    1.18
  -1   1   6   29.36    1.39
  -1   1   6   28.62    1.18
   1   1  -6   31.58    1.24
  -1   1   6   30.59    1.16
  -1  -1  -6   51.76    1.73
   1  -1   6   49.19    1.76
   1  -1   6   45.56    1.95
   1   1   6   50.84    1.77
   1   1   6   48.53    1.90
  -1   1  -6   50.81    1.81
   1   1   6   49.99    1.74
  -3  -1  -6   21.17    1.04
   3  -1   6   20.73    1.06
   3  -1   6   20.03    1.05
   3  -1   6   18.20    1.15
   3   1   6   19.42    1.09
   3   1   6   20.48    1.04
  -3   1  -6   21.17    1.12
   3   1   6   21.98    1.06
  -5  -1  -6   49.36    1.85
   5  -1   6   51.40    1.87
   5  -1   6   46.51    1.86
   5  -1   6   50.18    1.97
   5   1   6   54.93    1.91
  -5   1  -6   52.87    1.96
   5   1   6   48.16    1.87
   5   1   6   47.64    1.90
   7  -1   6   35.54    1.84
   7  -1   6   36.07    1.57
  -7  -1  -6   37.07    1.57
  -7   1  -6   36.97    1.67
   7   1   6   34.20    1.60
   7   1   6   39.98    1.62
   7   1   6   37.00    1.51
   9  -1   6    3.82    0.64
   9  -1   6    5.40    0.79
  -9  -1  -6    4.64    0.67
   9   1   6    4.32    0.63
   9   1   6    4.74    0.68
  -9   1  -6    3.68    0.67
 -11  -1  -6   28.23    1.50
  11  -1   6   28.21    1.33
  11  -1   6   31.47    1.54
  11   1   6   30.73    1.54
  11   1   6   30.57    1.26
 -11   1  -6   30.16    1.60
  13  -1   6    5.97    0.92
 -13  -1  -6    5.64    0.85
  13  -1   6    7.49    1.22
  13  -1   6    5.99    0.71
  13   1   6    6.73    0.94
  13   1   6    6.13    0.61
 -13   1  -6    6.60    0.95
  15  -1   6    4.78    0.78
 -15  -1  -6    5.21    0.92
  15  -1   6    6.52    0.74
  15   1   6    5.67    0.85
 -15   1  -6    5.62    0.92
 -22  -2   6   10.79    0.95
  22  -2  -6   10.09    1.31
 -22   2   6    9.88    0.89
  20  -2  -6    5.09    0.88
 -20  -2   6    5.60    0.40
 -20  -2   6    4.61    0.66
 -20   2   6    4.75    0.70
 -18  -2   6   23.32    0.88
 -18  -2   6   24.73    1.27
  18  -2  -6   24.46    1.52
 -18   2   6   26.18    1.31
 -16  -2   6    4.50    0.72
 -16  -2   6    4.71    0.40
  16  -2  -6    5.12    0.85
 -16   2   6    4.57    0.70
 -14  -2   6   46.46    1.88
 -14  -2   6   44.40    1.47
  14  -2  -6   49.01    2.05
 -14   2   6   47.61    1.87
  12  -2  -6   26.64    0.85
 -12  -2   6   25.12    1.32
  12  -2  -6   27.11    1.42
 -12  -2   6   26.01    0.98
  12  -2  -6   25.05    0.82
 -12   2   6   26.56    1.29
  10  -2  -6   19.25    1.15
  10  -2  -6   17.08    0.66
 -10  -2   6   15.98    0.76
 -10  -2   6   16.70    1.05
  10  -2  -6   16.59    0.64
 -10   2   6   16.15    1.00
   8  -2  -6   52.18    1.55
  -8  -2   6   50.97    2.07
  -8  -2   6   51.36    1.97
   8  -2  -6   56.81    2.05
  -8   2   6   51.24    1.98
   8   2  -6   52.86    1.50
  -8   2   6   51.32    1.50
   6  -2  -6   13.20    0.61
   6  -2  -6   13.74    0.93
  -6  -2   6   12.75    0.59
  -6  -2   6   13.32    1.03
  -6   2   6   12.70    0.89
  -6   2   6   12.01    0.58
   6   2  -6   12.75    0.61
  -6   2   6   12.77    0.59
  -4  -2   6   47.32    2.00
   4  -2  -6   46.22    1.51
   4  -2  -6   48.11    1.84
  -4  -2   6   47.40    1.53
  -4   2   6   48.18    1.52
  -4   2   6   48.52    1.54
   4   2  -6   44.48    1.50
  -4   2   6   46.43    1.84
  -2  -2   6   16.02    1.13
   2  -2  -6   15.64    0.78
   2  -2  -6   17.63    1.06
  -2  -2   6   16.10    0.82
  -2   2   6   13.21    1.21
  -2   2   6   17.03    0.82
  -2   2   6   16.48    0.78
   2   2  -6   16.79    0.83
   0  -2  -6  100.56    3.07
   0  -2   6   95.00    2.99
   0  -2  -6  101.18    2.91
   0   2  -6  100.20    3.00
   0   2   6   98.28    2.94
   0   2   6  101.40    2.99
   0   2   6   94.84    3.15
   2  -2   6    0.40    0.30
  -2  -2  -6   -0.08    0.30
   2   2   6    0.79    0.33
  -2   2  -6    0.12    0.35
   2   2   6    0.08    0.36
   2   2   6    0.57    0.35
  -4  -2  -6   74.10    2.42
   4  -2   6   77.80    2.55
   4  -2   6   63.45    3.43
   4   2   6   73.40    2.59
  -4   2  -6   79.09    2.59
   4   2   6   80.59    2.54
   4   2   6   78.19    2.55
   6  -2   6   10.18    0.86
   6  -2   6   10.46    1.08
   6  -2   6    9.42    0.80
  -6   2  -6   10.19    0.94
   6   2   6    9.59    0.78
   6   2   6    9.18    0.83
  -8  -2  -6   27.36    1.40
   8  -2   6   28.74    1.43
   8  -2   6   28.65    1.48
  -8   2  -6   30.41    1.53
   8   2   6   29.29    1.27
   8   2   6   27.27    1.45
   8   2   6   31.90    1.47
  10  -2   6    9.62    0.90
 -10  -2  -6    8.59    0.98
  10  -2   6   10.01    0.97
 -10   2  -6    8.29    1.05
  10   2   6    9.84    0.73
  10   2   6    9.35    0.99
  12  -2   6   17.91    1.14
  12  -2   6   21.04    1.27
 -12  -2  -6   19.00    1.26
  12   2   6   17.81    1.30
 -12   2  -6   18.12    1.32
  12   2   6   20.59    0.95
 -14  -2  -6    1.37    0.67
  14  -2   6    2.90    0.88
  14  -2   6    1.87    0.57
  14  -2   6    1.87    0.51
  14   2   6    2.87    0.48
 -14   2  -6    1.72    0.69
  14   2   6    0.79    0.59
  21  -3  -6    7.54    1.20
 -21  -3   6    7.50    0.82
 -21  -3   6    7.57    0.63
  19  -3  -6   33.40    1.81
 -19  -3   6   29.55    1.11
 -19  -3   6   30.47    1.46
 -19   3   6   31.49    1.50
 -17  -3   6   14.61    1.02
 -17  -3   6   12.59    0.68
  17  -3  -6   14.69    1.27
 -17   3   6   12.98    0.98
 -15  -3   6   58.97    2.22
 -15  -3   6   58.84    1.84
  15  -3  -6   57.07    1.69
  15  -3  -6   54.55    1.66
  15  -3  -6   63.92    2.44
 -15   3   6   58.65    2.20
 -13  -3   6   17.03    0.81
  13  -3  -6   19.88    1.26
 -13  -3   6   17.36    1.11
  13  -3  -6   17.42    0.69
  13  -3  -6   18.50    0.73
 -13   3   6   16.11    1.05
  11  -3  -6   99.48    3.20
 -11  -3   6   92.88    2.76
  11  -3  -6   94.29    2.62
 -11  -3   6   91.87    3.17
 -11   3   6   92.25    3.08
   9  -3  -6   12.35    0.60
  -9  -3   6   12.84    0.73
   9  -3  -6   12.65    0.64
  -9  -3   6   14.38    1.03
   9  -3  -6   13.71    0.99
   9   3  -6   12.70    0.53
  -9   3   6   11.85    0.88
  -9   3   6   12.65    0.47
   7  -3  -6  158.81    4.35
   7  -3  -6  169.65    4.82
  -7  -3   6  162.40    5.04
  -7  -3   6  163.81    4.32
  -7  -3   6  171.08    4.58
  -7   3   6  161.01    4.37
  -7   3   6  160.30    4.80
  -7   3   6  159.60    4.29
  -5  -3   6   27.30    1.08
   5  -3  -6   30.48    1.35
  -5  -3   6   28.76    1.55
   5  -3  -6   30.52    1.07
   5   3  -6   27.61    1.37
  -5   3   6   29.15    1.07
  -5   3   6   27.21    1.35
  -5   3   6   30.06    1.03
  -3  -3   6   77.66    2.92
   3  -3  -6   78.95    2.33
   3  -3  -6   81.35    2.60
  -3  -3   6   72.44    2.39
  -3   3   6   81.90    2.35
   3   3  -6   77.22    2.35
  -3   3   6   79.29    2.36
  -3   3   6   76.25    2.65
  -1  -3   6   30.81    1.30
   1  -3  -6   33.50    1.23
   1   3  -6   31.60    1.27
  -1   3   6   33.17    1.25
  -1   3   6   33.17    1.25
  -1   3   6   29.05    1.70
  -1  -3  -6   89.37    2.74
   1  -3   6   84.11    2.78
  -1  -3  -6   91.41    2.81
   1   3   6   89.53    2.75
   1   3   6   88.90    2.73
   1   3   6   84.18    2.87
  -1   3  -6   89.54    2.78
  -3  -3  -6   44.93    1.65
   3  -3   6   45.02    1.73
  -3  -3  -6   45.88    1.63
   3   3   6   42.62    1.73
   3   3   6   43.15    1.69
   3   3   6   43.88    1.70
  -3   3  -6   43.56    1.74
  -5  -3  -6   44.51    1.94
   5  -3   6   51.08    1.91
   5   3   6   48.41    1.89
  -5   3  -6   49.31    1.95
   5   3   6   48.06    1.83
   5   3   6   51.91    1.91
  -7  -3  -6   39.28    1.66
   7  -3   6   41.04    1.73
   7   3   6   43.44    1.77
   7   3   6   39.56    1.74
   7   3   6   41.23    1.60
  -7   3  -6   40.14    1.81
   9  -3   6   11.99    0.99
  -9  -3  -6   10.77    0.98
   9   3   6    9.81    1.01
   9   3   6   11.50    0.80
   9   3   6    9.82    0.94
  -9   3  -6   11.76    1.10
  11  -3   6   31.82    1.57
 -11  -3  -6   28.02    1.51
  11   3   6   30.69    1.64
  11   3   6   31.19    1.24
 -11   3  -6   31.41    1.69
  13  -3   6    8.98    1.00
  13  -3   6    8.95    0.91
  13  -3   6    8.77    1.03
 -13  -3  -6    7.58    1.10
 -13   3  -6    8.59    1.17
  13   3   6    9.22    1.06
  15  -3   6    7.66    0.93
  20  -4  -6    8.48    0.63
 -20  -4   6    8.51    0.89
 -20  -4   6    8.00    0.65
  20  -4  -6    8.14    1.32
 -18  -4   6   21.86    1.24
  18  -4  -6   22.51    1.57
  18  -4  -6   19.52    0.86
  18  -4  -6   19.91    0.85
 -16  -4   6    8.77    0.86
  16  -4  -6    8.88    1.14
  16  -4  -6    7.90    0.57
 -16  -4   6    7.80    0.63
 -16   4   6    8.62    0.85
 -14  -4   6   48.42    1.69
  14  -4  -6   50.93    2.18
 -14  -4   6   47.43    2.01
  14  -4  -6   48.16    1.56
 -14   4   6   51.21    1.99
  12  -4  -6   36.18    1.68
  12  -4  -6   31.87    1.15
  12  -4  -6   32.40    1.17
 -12  -4   6   32.39    1.29
 -12  -4   6   33.33    1.63
 -12   4   6   33.56    1.53
  10  -4  -6   29.20    1.46
 -10  -4   6   27.49    1.17
  10  -4  -6   28.39    1.04
 -10  -4   6   30.11    1.54
  10  -4  -6   28.76    1.07
 -10   4   6   23.19    1.43
  -8  -4   6   56.27    2.38
   8  -4  -6   59.38    1.83
  -8  -4   6   55.40    1.84
   8  -4  -6   61.36    2.23
  -8  -4   6   60.87    1.71
  -8  -4   6   61.36    2.02
  -8   4   6   59.11    1.86
  -6  -4   6   20.71    1.02
   6  -4  -6   19.27    0.87
  -6  -4   6   17.28    1.27
   6  -4  -6   19.26    1.11
  -6  -4   6   16.15    0.85
  -6   4   6   20.09    0.86
  -6   4   6   19.37    0.75
  -6   4   6   19.77    1.13
  -4  -4   6   46.94    1.73
   4  -4  -6   53.54    2.00
   4  -4  -6   51.74    1.66
  -4   4   6   50.71    1.60
  -4   4   6   51.73    1.69
  -4   4   6   50.22    1.97
   4   4  -6   48.28    1.64
   2  -4  -6   44.44    1.54
  -2  -4   6   44.01    1.64
   2  -4  -6   44.67    1.74
  -2   4   6   44.46    1.57
   2   4  -6   43.09    1.57
  -2   4   6   45.15    1.54
  -2   4   6   45.01    1.82
   0  -4  -6   90.57    2.86
   0  -4  -6   90.26    2.71
   0  -4   6   91.60    2.87
   0   4  -6   86.23    2.79
   0   4   6   93.04    2.78
   0   4   6   88.88    2.98
   0   4   6   91.07    2.79
  -2  -4  -6    2.05    0.42
   2  -4   6    2.31    0.46
   2   4   6    2.40    0.47
   2   4   6    1.87    0.44
  -2   4  -6    2.55    0.52
   4  -4   6   73.97    2.52
  -4  -4  -6   70.14    2.49
  -4  -4  -6   71.26    2.37
   4   4   6   70.13    2.47
   4   4   6   74.40    2.51
   4   4   6   74.73    2.51
  -4   4  -6   78.09    2.60
  -6  -4  -6   19.54    0.99
  -6  -4  -6   21.27    1.15
   6  -4   6   18.58    1.17
  -6   4  -6   21.76    1.32
   6   4   6   20.51    1.10
   6   4   6   19.30    1.18
   6   4   6   20.34    1.19
   8  -4   6   29.12    1.42
  -8  -4  -6   25.89    1.35
   8   4   6   28.21    1.26
   8   4   6   25.45    1.43
  -8   4  -6   28.96    1.57
   8   4   6   25.95    1.43
 -10  -4  -6   11.52    1.02
  10  -4   6   12.72    1.46
  10   4   6   11.75    1.11
 -10   4  -6    9.80    1.20
  10   4   6   11.57    1.05
  12  -4   6   18.92    1.24
 -12  -4  -6   15.64    1.26
  12  -4   6   17.91    1.22
 -12   4  -6   17.84    1.48
  12   4   6   17.55    1.34
  12   4   6   16.59    1.35
 -14  -4  -6    3.31    1.10
  14  -4   6    3.83    0.74
 -14   4  -6    2.66    0.89
  19  -5  -6   15.68    1.56
 -19  -5   6   12.49    0.82
 -19  -5   6   13.08    1.05
 -17  -5   6    5.50    0.64
  17  -5  -6    5.22    0.57
  17  -5  -6    5.47    0.69
 -17  -5   6    4.32    0.77
  17  -5  -6    6.60    1.02
 -15  -5   6   22.32    1.11
 -15  -5   6   21.52    1.32
  15  -5  -6   24.96    1.29
  15  -5  -6   27.41    1.59
  15  -5  -6   23.31    1.00
 -13  -5   6    5.16    0.82
  13  -5  -6    5.60    0.56
  13  -5  -6    5.56    0.57
 -13  -5   6    6.36    0.65
  13  -5  -6    5.31    0.92
 -13   5   6    6.23    0.76
 -11  -5   6   32.19    1.69
  11  -5  -6   32.59    1.22
  11  -5  -6   34.83    1.67
 -11  -5   6   32.93    1.38
  11  -5  -6   32.43    1.24
  -9  -5   6    3.18    0.40
   9  -5  -6    4.05    0.52
  -9  -5   6    4.51    0.78
  -9  -5   6    4.48    0.37
   9  -5  -6    3.55    0.50
  -9  -5   6    3.91    0.59
   9  -5  -6    4.45    0.76
   9   5  -6    3.96    0.59
  -9   5   6    4.43    0.30
  -7  -5   6   53.13    1.93
  -7  -5   6   62.70    2.12
   7  -5  -6   60.63    1.92
   7  -5  -6   62.23    2.27
  -7   5   6   61.42    1.77
   7   5  -6   59.47    1.97
   5  -5  -6    6.60    0.59
   5  -5  -6    6.64    0.74
  -5  -5   6    6.40    0.72
  -5  -5   6    6.30    0.59
  -5   5   6    7.18    0.50
  -5   5   6    6.51    0.57
  -5   5   6    6.47    0.75
   5   5  -6    6.04    0.56
  -3  -5   6   25.72    1.29
  -3  -5   6   25.88    1.19
   3  -5  -6   27.15    1.30
   3  -5  -6   28.11    1.13
   3  -5  -6   26.30    1.11
   3   5  -6   25.22    1.13
  -3   5   6   25.80    1.12
  -3   5   6   26.39    1.06
  -3   5   6   27.15    1.36
   1  -5  -6   12.65    0.87
   1  -5  -6   11.26    0.76
  -1  -5   6   12.41    0.83
   1  -5  -6   13.06    0.80
  -1   5   6   11.81    0.73
   1   5  -6   11.17    0.80
  -1   5   6   11.82    0.78
  -1   5   6   11.27    0.93
  -1  -5  -6   30.72    1.35
   1  -5   6   30.90    1.38
  -1  -5  -6   31.06    1.30
  -1  -5  -6   32.38    1.30
   1   5   6   30.10    1.34
  -1   5  -6   29.62    1.38
   1   5   6   32.16    1.48
   1   5   6   30.33    1.30
  -3  -5  -6   15.15    0.92
  -3  -5  -6   13.96    0.87
   3  -5   6   13.86    0.96
   3   5   6   14.39    1.00
   3   5   6   12.18    1.07
   3   5   6   14.80    0.94
  -3   5  -6   12.80    1.02
  -5  -5  -6   23.47    1.19
  -5  -5  -6   21.99    1.18
  -5  -5  -6   19.66    1.49
  -5   5  -6   23.56    1.39
   5   5   6   24.02    1.26
   5   5   6   21.68    1.24
  -7  -5  -6   15.89    1.04
  -7  -5  -6   14.72    0.87
  -7  -5  -6   15.66    1.06
   7  -5   6   16.63    1.12
   7   5   6   15.70    1.08
   7   5   6   15.83    1.12
  -7   5  -6   15.83    1.26
  -9  -5  -6    4.10    0.70
  -9  -5  -6    4.65    0.69
   9  -5   6    3.62    0.66
  -9   5  -6    4.71    0.83
   9   5   6    3.88    0.69
   9   5   6    5.19    0.82
 -11  -5  -6   15.41    1.18
  11  -5   6   16.89    1.18
 -11  -5  -6   17.04    1.35
  11   5   6   15.53    1.26
  11   5   6   11.20    1.18
 -11   5  -6   14.12    1.39
 -13  -5  -6    2.80    0.81
 -13   5  -6    3.91    0.98
  13   5   6    3.90    0.90
  18  -6  -6   16.55    1.63
  18  -6  -6   16.59    0.92
 -18  -6   6   16.90    1.00
 -18  -6   6   17.13    1.19
 -16  -6   6   10.51    1.01
  16  -6  -6    8.76    0.81
  16  -6  -6    7.97    1.22
 -16  -6   6    8.69    0.81
  14  -6  -6   32.42    1.35
  14  -6  -6   38.21    1.92
 -14  -6   6   33.90    1.72
  14  -6  -6   36.46    1.39
 -14  -6   6   34.80    1.46
 -12  -6   6   28.17    1.56
  12  -6  -6   26.80    1.19
  12  -6  -6   29.76    1.19
 -12  -6   6   28.32    0.92
 -12  -6   6   28.25    1.30
  12  -6  -6   30.80    1.65
  10  -6  -6   22.66    1.35
  10  -6  -6   21.02    1.01
 -10  -6   6   20.97    0.81
 -10  -6   6   20.85    1.10
 -10  -6   6   16.90    0.89
  10  -6  -6   21.94    1.01
  -8  -6   6   42.26    1.42
   8  -6  -6   41.34    1.52
  -8  -6   6   43.16    1.69
   8  -6  -6   42.97    1.56
   8  -6  -6   45.79    1.90
  -8  -6   6   36.83    1.50
  -8   6   6   41.65    1.31
   8   6  -6   41.59    1.46
  -6  -6   6   31.37    1.37
   6  -6  -6   34.24    1.57
   6  -6  -6   32.35    1.31
  -6  -6   6   33.21    1.48
   6  -6  -6   33.41    1.21
   6   6  -6   32.22    1.27
  -6   6   6   31.83    1.96
  -6   6   6   32.72    1.15
   4  -6  -6   40.31    1.70
  -4  -6   6   39.79    1.57
  -4  -6   6   41.54    1.73
   4  -6  -6   43.35    1.47
   4  -6  -6   40.30    1.72
   4   6  -6   38.27    1.50
  -4   6   6   38.86    1.40
  -4   6   6   38.99    1.74
  -4   6   6   38.83    1.51
   2  -6  -6   28.51    1.23
   2  -6  -6   28.81    1.37
  -2  -6   6   28.23    1.29
  -2  -6   6   28.15    1.42
   2  -6  -6   29.52    1.21
  -2   6   6   26.81    1.23
   2   6  -6   28.30    1.27
  -2   6   6   27.30    1.18
  -2   6   6   27.70    1.43
   0  -6  -6   62.42    2.19
   0  -6  -6   61.44    2.06
   0  -6   6   61.56    2.18
   0  -6  -6   60.53    2.07
   0   6   6   58.70    2.11
   0   6   6   62.96    2.09
   0   6  -6   58.50    2.17
  -2  -6  -6   10.45    0.87
  -2  -6  -6   11.17    0.87
   2  -6   6   10.49    0.87
  -2  -6  -6   11.86    0.85
   2   6   6   12.73    0.86
  -2   6  -6   12.27    0.97
   2   6   6   11.39    0.92
  -4  -6  -6   45.45    1.73
  -4  -6  -6   44.25    1.71
  -4  -6  -6   43.83    1.69
   4   6   6   41.36    1.79
  -4   6  -6   45.90    1.95
   4   6   6   45.54    1.81
  -6  -6  -6   15.27    0.92
  -6  -6  -6   15.91    1.05
  -6  -6  -6   16.16    1.03
   6  -6   6   16.10    1.11
   6   6   6   16.63    1.13
  -6   6  -6   16.65    1.29
   6   6   6   14.75    1.10
   8  -6   6   20.08    1.24
  -8  -6  -6   19.38    1.19
  -8  -6  -6   18.10    1.19
  -8  -6  -6   18.27    1.00
  -8   6  -6   18.23    1.42
   8   6   6   20.57    1.32
   8   6   6   19.62    1.27
  10  -6   6   10.77    1.06
 -10  -6  -6   11.45    1.11
 -10  -6  -6   10.74    1.07
 -10   6  -6   12.73    1.34
  10   6   6   11.11    1.17
 -12  -6  -6   10.54    1.38
  12  -6   6   15.40    1.22
  12   6   6   12.49    1.54
 -12   6  -6   13.08    1.58
 -17  -7   6    9.49    0.87
  17  -7  -6    8.01    0.81
 -17  -7   6    8.47    1.01
 -15  -7   6   21.83    1.41
  15  -7  -6   22.09    1.20
 -15  -7   6   21.98    1.19
  15  -7  -6   21.67    1.11
  15  -7  -6   24.44    1.69
 -13  -7   6   13.06    1.17
  13  -7  -6   16.69    1.36
  13  -7  -6   14.38    0.94
 -13  -7   6   13.46    0.68
 -13  -7   6   14.56    0.98
  13  -7  -6   13.56    1.03
 -11  -7   6   34.56    1.52
 -11  -7   6   34.84    1.18
  11  -7  -6   38.50    1.86
 -11  -7   6   28.10    1.57
  11  -7  -6   33.48    1.41
   9  -7  -6   19.09    1.05
   9  -7  -6   19.88    0.82
  -9  -7   6   21.18    1.15
  -9  -7   6   18.38    0.98
   9  -7  -6   21.31    1.34
  -9  -7   6   20.05    0.89
  -9   7   6   19.50    0.75
  -7  -7   6   53.58    1.73
   7  -7  -6   52.28    2.11
  -7  -7   6   46.79    1.79
  -7  -7   6   48.38    1.95
   7  -7  -6   48.60    1.62
   7  -7  -6   51.23    1.81
   7   7  -6   49.07    1.74
  -7   7   6   49.05    1.59
  -5  -7   6   14.68    0.91
   5  -7  -6   15.36    1.09
   5  -7  -6   14.26    0.81
  -5  -7   6   13.95    1.05
   5  -7  -6   15.35    0.94
   5   7  -6   13.95    0.90
  -5   7   6   14.72    0.78
   3  -7  -6   43.92    1.67
  -3  -7   6   46.06    1.91
  -3  -7   6   41.72    1.69
   3  -7  -6   42.94    1.82
   3  -7  -6   44.93    1.59
  -3   7   6   42.57    1.67
  -3   7   6   41.73    1.57
   3   7  -6   43.12    1.68
   1  -7  -6   33.64    1.51
   1  -7  -6   34.38    1.37
  -1  -7   6   34.75    1.48
  -1  -7   6   32.21    1.60
   1   7  -6   32.35    1.47
  -1   7   6   32.16    1.47
  -1   7   6   31.83    1.37
  -1  -7  -6   27.51    1.26
  -1  -7  -6   27.48    1.31
  -1  -7  -6   28.86    1.36
   1  -7   6   27.95    1.37
   1  -7   6   25.72    1.46
   1   7   6   28.22    1.29
   1   7   6   27.41    1.37
  -1   7  -6   28.26    1.42
  -3  -7  -6   18.59    1.10
  -3  -7  -6   18.46    1.08
  -3  -7  -6   17.44    1.02
   3  -7   6   15.60    1.31
   3   7   6   16.50    1.12
  -3   7  -6   16.88    1.26
   3   7   6   19.02    1.12
  -5  -7  -6   29.96    1.43
  -5  -7  -6   30.94    1.37
   5  -7   6   31.93    1.53
  -5  -7  -6   33.05    1.46
  -5   7  -6   29.34    1.64
   5   7   6   29.66    1.51
   5   7   6   31.41    1.52
  -7  -7  -6   19.17    1.23
  -7  -7  -6   16.63    1.13
   7  -7   6   18.43    1.22
  -7  -7  -6   16.67    0.98
   7   7   6   17.12    1.23
   7   7   6   20.35    1.28
  -7   7  -6   20.44    1.42
  -9  -7  -6    7.20    1.00
  -9  -7  -6    6.82    0.67
  -9  -7  -6    6.67    0.96
   9  -7   6    6.07    0.96
   9   7   6    6.40    0.86
   9   7   6    6.20    0.91
  -9   7  -6    8.32    1.10
  11  -7   6   15.57    1.25
 -11   7  -6   12.20    1.59
 -16  -8   6    3.68    0.66
 -16  -8   6    4.37    0.79
  14  -8  -6   11.70    1.02
 -14  -8   6   11.03    1.12
  14  -8  -6   12.35    0.93
 -14  -8   6   11.36    0.97
 -14  -8   6   13.00    0.98
  12  -8  -6   10.84    1.30
 -12  -8   6   10.32    0.63
  12  -8  -6    9.34    0.82
  12  -8  -6   10.16    1.31
 -12  -8   6    9.23    0.90
 -10  -8   6    6.92    0.82
 -10  -8   6    7.14    0.58
  10  -8  -6    6.13    0.71
  10  -8  -6    6.95    0.53
  10  -8  -6    6.30    1.07
  10  -8  -6    6.48    0.84
 -10  -8   6    6.63    0.70
   8  -8  -6   13.74    0.98
  -8  -8   6   13.56    1.05
   8  -8  -6   15.36    0.96
   8  -8  -6   13.73    0.82
  -8  -8   6   16.40    0.97
  -8  -8   6   13.30    0.88
   8  -8  -6   14.62    1.22
  -8   8   6   14.97    0.72
  -6  -8   6   11.76    1.03
  -6  -8   6   13.36    0.83
  -6  -8   6   13.24    0.88
   6  -8  -6   12.55    1.11
   6  -8  -6   12.92    0.78
   6  -8  -6   11.09    0.90
   6  -8  -6   13.73    0.99
  -6   8   6   12.62    0.73
   6   8  -6   12.91    0.93
  -4  -8   6   11.48    0.87
   4  -8  -6   10.26    0.96
   4  -8  -6   11.82    1.02
  -4  -8   6    9.90    1.02
   4   8  -6   11.36    0.93
  -4   8   6    9.64    0.77
   2  -8  -6    9.58    0.90
  -2  -8   6    9.48    0.85
   2  -8  -6   10.24    0.88
  -2  -8   6    7.91    0.98
   2  -8  -6    9.58    0.80
  -2   8   6    9.29    0.85
   2   8  -6    8.42    0.92
  -2   8   6    9.81    0.78
   0  -8  -6   19.24    1.14
   0  -8   6   18.62    1.15
   0  -8  -6   17.90    1.12
   0  -8   6   18.97    1.52
   0  -8  -6   18.10    1.04
   0   8   6   16.70    1.12
   0   8   6   19.48    1.07
   0   8  -6   18.16    1.25
  -2  -8  -6    5.30    0.71
  -2  -8  -6    5.97    0.77
   2  -8   6    5.80    0.86
   2  -8   6    3.69    0.76
  -2  -8  -6    7.39    0.86
  -2   8  -6    7.32    0.90
   2   8   6    6.68    0.87
   2   8   6    5.95    0.79
  -4  -8  -6   16.90    1.13
  -4  -8  -6   16.71    1.07
  -4  -8  -6   15.60    1.02
   4  -8   6   12.88    1.24
   4  -8   6   13.34    1.11
   4   8   6   16.03    1.11
  -4   8  -6   15.28    1.29
   4   8   6   16.82    1.17
  -6  -8  -6    6.41    0.93
  -6  -8  -6    6.07    0.71
   6  -8   6    6.01    0.81
  -6  -8  -6    7.66    0.92
  -6   8  -6    5.83    0.93
   6   8   6    5.59    0.80
   6   8   6    6.93    0.93
  -8  -8  -6    9.00    1.05
  -8  -8  -6    7.10    0.72
   8  -8   6    6.57    0.98
  -8  -8  -6    8.35    1.11
  -8   8  -6    8.27    1.30
   8   8   6    6.69    1.03
 -10  -8  -6    4.38    0.65
 -10   8  -6    4.73    1.08
 -13  -9   6    8.05    1.03
 -13  -9   6    9.06    0.68
  11  -9  -6   15.85    1.21
 -11  -9   6   14.94    0.85
 -11  -9   6   13.65    1.18
  11  -9  -6   16.16    1.11
   9  -9  -6    9.98    0.69
  -9  -9   6    9.72    0.83
  -9  -9   6    9.38    0.76
   9  -9  -6    9.91    1.27
   9  -9  -6   10.20    0.95
   9  -9  -6    8.56    1.23
  -9  -9   6    9.08    1.05
  -9   9   6    9.26    0.60
  -7  -9   6   22.27    1.19
   7  -9  -6   22.29    1.30
   7  -9  -6   22.09    1.25
  -7  -9   6   22.92    1.13
   7  -9  -6   21.48    1.03
  -7  -9   6   21.83    1.41
   7  -9  -6   22.80    1.47
  -7   9   6   22.30    1.00
  -5  -9   6    9.39    1.14
  -5  -9   6   11.34    0.90
   5  -9  -6   10.28    1.07
  -5  -9   6   11.88    0.94
   5  -9  -6   10.61    0.99
   5  -9  -6   10.54    0.80
   5  -9  -6    9.44    1.11
   5   9  -6   10.62    1.00
  -5   9   6   12.23    0.80
  -3  -9   6   17.14    1.09
   3  -9  -6   16.56    1.15
   3  -9  -6   15.78    0.96
  -3  -9   6   17.12    1.33
   3  -9  -6   16.33    1.18
   3   9  -6   16.68    1.17
  -3   9   6   16.70    0.98
   1  -9  -6   15.26    0.97
   1  -9  -6   16.96    1.31
   1  -9  -6   14.99    1.09
  -1  -9   6   14.51    1.10
  -1  -9   6   12.60    1.35
  -1   9   6   14.14    1.01
   1   9  -6   13.38    1.94
  -1   9   6   14.46    1.09
  -1  -9  -6   14.81    1.10
  -1  -9  -6   14.40    0.99
   1  -9   6   13.65    1.11
  -1  -9  -6   14.79    1.06
   1  -9   6   12.45    1.39
  -1   9  -6   15.70    1.26
   1   9   6   15.18    1.02
   1   9   6   16.46    1.19
  -3  -9  -6   10.97    1.00
  -3  -9  -6    9.21    0.90
   3  -9   6    8.78    0.99
   3  -9   6    7.32    1.20
  -3  -9  -6    8.57    0.87
  -3   9  -6    8.74    1.17
   3   9   6   10.46    1.05
   3   9   6   10.60    0.95
  -5  -9  -6   14.10    1.00
   5  -9   6   16.64    1.23
  -5  -9  -6   14.61    1.17
  -5  -9  -6   14.98    1.21
   5   9   6   15.30    1.23
  -5   9  -6   12.53    1.37
   5   9   6   14.37    1.13
  -7  -9  -6    7.27    1.13
  -7  -9  -6    6.69    0.78
   7  -9   6   10.72    1.09
   7   9   6    8.93    1.19
  10 -10  -6   12.23    1.29
 -10 -10   6   13.65    0.96
   8 -10  -6   19.97    1.33
  -8 -10   6   17.58    1.11
  -8  10   6   16.28    1.11
   6 -10  -6   13.45    0.95
  -6 -10   6   11.45    1.05
  -6 -10   6   14.09    1.08
   6 -10  -6   16.39    1.22
  -6  10   6   14.19    0.89
   4 -10  -6   16.61    1.25
   4 -10  -6   16.02    1.06
  -4 -10   6   16.98    1.23
   4 -10  -6   15.61    1.43
  -4 -10   6   14.91    1.15
  -4  10   6   15.84    0.98
   4  10  -6   15.81    1.28
  -2 -10   6   22.01    1.34
   2 -10  -6   19.47    1.17
   2 -10  -6   21.03    1.39
   2 -10  -6   20.08    1.31
   2  10  -6   20.33    1.42
  -2  10   6   21.14    1.16
   0 -10  -6   18.19    1.18
   0 -10   6   19.50    1.29
   0 -10  -6   18.51    1.29
   0 -10  -6   18.72    1.29
   0  10  -6   18.92    1.40
   0  10   6   21.08    1.20
   0  10   6   18.29    1.29
  -2 -10  -6    6.55    1.02
  -2 -10  -6    9.40    1.00
  -2 -10  -6    8.89    0.98
   2 -10   6    7.05    1.03
  -2  10  -6    8.75    1.24
   2  10   6   10.17    0.98
   2  10   6    8.66    1.06
   4 -10   6   16.13    1.23
  -4 -10  -6   14.68    1.18
  -4 -10  -6   15.94    1.33
  -4 -10  -6   14.85    1.22
  -4  10  -6   17.55    1.55
   4  10   6   15.25    1.28
   4  10   6   17.83    1.78
   3 -11  -6    4.77    0.71
   3 -11  -6    4.29    0.83
   3  11  -6    5.93    0.96
  -3  11   6    5.75    0.78
 -20   0   7   10.46    1.00
 -18   0   7   25.00    1.35
 -16   0   7    8.61    0.87
 -14   0   7   71.62    2.11
 -14   0   7   78.51    2.09
 -14   0   7   83.95    2.80
 -12   0   7    7.99    0.49
 -12   0   7   10.35    0.89
 -12   0   7    9.76    0.48
 -10   0   7  112.02    3.09
 -10   0   7  110.62    3.64
   8   0  -7   14.72    0.68
  -6   0   7   73.30    2.09
  -6   0   7   64.67    2.21
   6   0  -7   72.45    2.19
  -6   0   7   78.59    3.42
   4   0  -7   34.72    1.29
  -4   0   7   31.29    1.28
  -4   0   7   32.35    1.18
  -4   0   7   32.99    1.62
  -2   0   7   82.38    2.65
   2   0  -7   88.54    2.67
  -2   0   7   81.72    2.97
  -2   0   7   87.43    2.61
   0   0   7   36.52    1.49
   0   0   7   35.97    1.72
   0   0  -7   38.61    1.52
   0   0   7   37.75    1.47
  -2   0  -7   24.17    1.21
   2   0   7   21.46    1.29
   2   0   7   23.59    1.17
   2   0   7   23.82    1.17
  -4   0  -7   62.04    2.20
   4   0   7   55.03    2.15
   4   0   7   56.47    2.24
   4   0   7   61.74    2.15
   6   0   7   13.11    1.02
   6   0   7   14.06    1.00
  -6   0  -7   12.59    1.06
   6   0   7   13.25    1.05
  -8   0  -7   23.97    1.44
   8   0   7   23.54    1.40
   8   0   7   24.47    1.32
   8   0   7   27.13    1.36
  10   0   7    9.98    1.03
  10   0   7    7.54    0.99
 -10   0  -7    8.32    1.09
  12   0   7   15.26    1.23
  12   0   7   16.18    1.05
 -12   0  -7   16.71    1.41
 -21  -1   7   10.33    1.03
 -21   1   7    9.38    0.99
 -19  -1   7    7.69    0.86
 -19   1   7    7.43    0.93
 -17  -1   7   16.20    0.61
 -17  -1   7   19.26    1.17
 -17   1   7   18.40    1.18
 -15  -1   7   21.30    0.76
 -15  -1   7   20.89    1.26
 -15   1   7   21.45    1.24
 -13  -1   7   22.61    0.86
 -13  -1   7   22.31    1.31
 -13   1   7   24.23    1.31
 -11  -1   7   34.32    1.65
 -11  -1   7   34.42    1.19
 -11   1   7   33.87    1.59
 -11   1   7   33.97    1.05
 -11   1   7   33.16    1.20
   9  -1  -7   15.95    0.72
  -9  -1   7   17.68    1.16
   9   1  -7   15.04    0.60
  -9   1   7   15.09    0.68
  -7  -1   7   81.35    2.28
   7  -1  -7   86.83    2.44
  -7   1   7   80.18    2.44
   5  -1  -7    5.94    0.63
  -5  -1   7    5.36    0.75
  -5  -1   7    5.20    0.45
  -5   1   7    4.21    0.50
  -5   1   7    5.53    0.77
  -5   1   7    5.19    0.44
   5   1  -7    4.50    0.52
   3  -1  -7   88.00    2.61
  -3  -1   7   80.64    3.01
  -3  -1   7   83.62    2.56
  -3   1   7   83.98    2.63
  -3   1   7   83.12    2.96
  -3   1   7   88.72    2.57
   3   1  -7   87.52    2.64
  -1  -1   7    6.49    0.61
   1  -1  -7    6.91    0.67
  -1  -1   7    6.21    0.82
  -1   1   7    5.14    0.82
  -1   1   7    6.15    0.79
  -1   1   7    7.52    0.62
   1   1  -7    6.46    0.72
   1  -1   7   49.33    1.80
   1  -1   7   46.60    1.81
   1  -1   7   43.00    1.98
  -1  -1  -7   49.05    1.77
   1   1   7   48.01    1.78
   1   1   7   47.13    1.98
  -1   1  -7   48.33    1.84
   1   1   7   47.60    1.78
  -3  -1  -7    5.47    0.76
   3  -1   7    5.86    0.72
   3  -1   7    6.87    0.72
   3  -1   7    6.62    0.84
  -3   1  -7    7.44    0.87
   3   1   7    6.00    0.74
   3   1   7    6.71    0.81
   3   1   7    6.61    0.72
  -5  -1  -7   39.97    1.91
   5  -1   7   39.96    1.76
   5  -1   7   39.10    1.79
   5  -1   7   44.44    1.75
   5   1   7   39.91    1.75
  -5   1  -7   41.18    2.20
   5   1   7   36.67    2.40
   5   1   7   46.06    1.77
   7  -1   7    3.75    0.65
   7  -1   7    3.05    0.64
   7  -1   7    3.14    0.58
  -7  -1  -7    2.78    0.62
  -7   1  -7    2.74    0.65
   7   1   7    4.11    0.65
   7   1   7    3.06    0.62
   7   1   7    3.09    0.58
   9  -1   7   20.04    1.21
   9  -1   7   19.90    1.31
  -9  -1  -7   20.32    1.31
   9   1   7   19.69    1.32
  -9   1  -7   19.10    1.36
   9   1   7   22.77    1.30
  11  -1   7    8.99    0.92
 -11  -1  -7    9.43    1.17
  11  -1   7   10.34    1.07
  11  -1   7    9.73    1.33
  11   1   7   10.60    1.11
 -11   1  -7    9.16    1.21
  11   1   7   12.46    1.17
  11   1   7    9.99    0.92
  13  -1   7    2.89    0.69
  13  -1   7    2.96    0.66
 -13  -1  -7    1.51    0.74
 -13   1  -7    2.41    0.78
  13   1   7    2.74    0.54
  13   1   7    2.94    0.69
 -20  -2   7    3.34    0.63
 -18  -2   7   17.14    0.70
 -18  -2   7   17.70    1.16
  18  -2  -7   17.93    1.49
 -18   2   7   18.09    1.17
 -16  -2   7    3.69    0.65
  16  -2  -7    3.32    0.73
 -16  -2   7    2.79    0.39
 -16   2   7    3.09    0.62
 -14  -2   7   46.04    2.00
  14  -2  -7   50.11    2.16
 -14  -2   7   43.10    1.49
 -14   2   7   47.23    1.95
  12  -2  -7    3.80    0.71
  12  -2  -7    3.23    0.35
 -12  -2   7    2.78    0.40
 -12  -2   7    1.77    0.49
  12  -2  -7    2.42    0.34
 -12   2   7    3.02    0.58
  10  -2  -7   55.48    1.86
 -10  -2   7   67.11    2.54
  10  -2  -7   72.63    2.55
 -10  -2   7   65.68    2.10
 -10   2   7   65.03    1.81
  -8  -2   7   13.58    0.56
   8  -2  -7   15.12    1.08
   8  -2  -7   13.29    0.69
  -8  -2   7   14.25    0.78
  -8   2   7   13.49    0.62
   8   2  -7   13.03    0.62
   6  -2  -7   44.01    1.81
  -6  -2   7   41.12    1.39
   6  -2  -7   41.92    1.42
  -6   2   7   42.08    1.39
  -6   2   7   42.65    1.41
  -6   2   7   41.40    1.91
   6   2  -7   39.22    1.37
   4  -2  -7   12.02    0.95
  -4  -2   7   11.87    0.70
   4  -2  -7   12.21    0.72
  -4  -2   7   12.03    1.05
   4   2  -7   10.78    0.69
  -4   2   7   12.65    0.98
  -4   2   7   11.56    0.67
  -4   2   7   13.06    0.73
  -2  -2   7   35.89    1.45
  -2  -2   7   35.60    1.79
   2  -2  -7   34.94    1.35
  -2   2   7   34.76    1.65
   2   2  -7   36.03    1.41
  -2   2   7   37.55    1.42
  -2   2   7   34.28    1.35
   0  -2   7   18.53    1.02
   0  -2  -7   17.56    0.96
   0  -2   7   16.80    1.23
   0   2   7   18.32    1.17
   0   2  -7   16.98    1.02
   0   2   7   19.18    1.01
   0   2   7   18.33    0.98
   2  -2   7   14.33    0.98
   2  -2   7   15.28    1.18
  -2  -2  -7   15.08    0.95
   2   2   7   17.51    1.02
   2   2   7   15.52    0.97
   2   2   7   15.65    1.09
  -2   2  -7   16.81    1.07
   4  -2   7   30.09    1.61
  -4  -2  -7   30.67    1.44
   4  -2   7   29.62    1.45
   4  -2   7   31.54    1.43
  -4   2  -7   29.17    1.49
   4   2   7   31.64    1.46
   4   2   7   28.66    1.43
   4   2   7   29.32    1.46
   6  -2   7    3.38    0.59
   6  -2   7    3.78    0.71
  -6  -2  -7    3.32    0.66
   6  -2   7    3.81    0.63
   6   2   7    5.16    0.73
   6   2   7    4.07    0.73
   6   2   7    4.60    0.75
  -6   2  -7    3.52    0.73
   8  -2   7   16.74    1.17
  -8  -2  -7   15.68    1.18
   8  -2   7   15.00    1.15
  -8   2  -7   16.45    1.28
   8   2   7   14.36    1.19
   8   2   7   19.22    1.20
 -10  -2  -7    5.61    0.81
  10  -2   7    5.41    0.86
  10  -2   7    6.57    0.94
  10   2   7    6.26    0.78
  10   2   7    6.39    0.95
 -10   2  -7    5.23    0.83
  10   2   7    5.69    0.86
 -12  -2  -7    8.12    1.18
  12  -2   7   12.07    1.13
  12  -2   7   10.04    1.00
  12   2   7   11.10    0.87
  12   2   7   11.76    1.21
 -12   2  -7   10.45    1.28
 -19  -3   7    8.93    0.71
 -19  -3   7    7.27    0.92
  19  -3  -7    8.88    1.41
 -19   3   7    8.95    0.98
 -17  -3   7   15.59    0.78
  17  -3  -7   16.99    1.44
 -17  -3   7   18.64    1.24
 -17   3   7   18.09    1.20
  15  -3  -7   29.94    1.00
  15  -3  -7   34.50    1.82
 -15  -3   7   31.93    1.63
 -15  -3   7   29.88    1.18
 -15   3   7   34.36    1.70
  13  -3  -7   40.50    1.90
 -13  -3   7   36.33    1.35
  13  -3  -7   35.27    1.16
 -13  -3   7   33.57    1.72
  13  -3  -7   36.47    1.20
 -13   3   7   37.96    1.71
  11  -3  -7   46.51    1.99
  11  -3  -7   42.12    1.38
 -11  -3   7   40.89    1.52
 -11  -3   7   41.17    1.94
  -9  -3   7   30.27    1.26
  -9  -3   7   29.58    1.62
   9  -3  -7   32.32    1.59
   9  -3  -7   30.48    1.09
  -9   3   7   30.25    0.97
   9   3  -7   29.83    1.01
   7  -3  -7   86.26    2.49
  -7  -3   7   84.97    2.42
  -7  -3   7   81.10    2.91
   7  -3  -7   90.37    2.97
  -7   3   7   87.59    2.44
   7   3  -7   82.84    2.44
  -7   3   7   83.95    2.48
  -5  -3   7   12.28    0.71
   5  -3  -7   13.18    0.72
   5  -3  -7   13.17    0.97
   5   3  -7   12.15    0.71
  -5   3   7   12.64    0.71
  -5   3   7   13.48    0.99
  -5   3   7   13.81    0.69
  -3  -3   7  103.57    3.20
  -3  -3   7  104.23    3.78
   3  -3  -7  110.75    3.43
   3  -3  -7  108.56    3.11
  -3   3   7  103.68    3.49
  -3   3   7  107.95    3.14
   3   3  -7  104.95    3.13
  -3   3   7  108.61    3.15
  -1  -3   7   22.39    1.13
   1  -3  -7   23.10    1.07
   1  -3  -7   23.36    1.21
  -1  -3   7   21.28    1.45
  -1   3   7   22.97    1.08
  -1   3   7   22.49    1.30
   1   3  -7   21.98    1.11
   1  -3   7   36.33    1.90
  -1  -3  -7   38.23    1.60
   1  -3   7   36.29    1.57
  -1  -3  -7   39.18    1.51
   1   3   7   40.39    1.73
   1   3   7   38.00    1.55
   1   3   7   37.00    1.54
  -1   3  -7   37.99    1.64
   3  -3   7   11.55    0.93
   3  -3   7   11.19    1.13
  -3  -3  -7   10.28    0.88
   3   3   7   10.27    0.92
  -3   3  -7   11.62    1.00
   3   3   7   11.63    0.90
   3   3   7   12.09    0.96
   5  -3   7   59.13    2.44
  -5  -3  -7   58.01    2.14
   5   3   7   57.51    2.19
  -5   3  -7   60.95    2.34
   5   3   7   60.56    2.25
   5   3   7   56.98    2.24
   7  -3   7    5.66    0.94
   7  -3   7    6.95    0.90
  -7  -3  -7    7.84    0.92
   7   3   7    7.49    0.84
   7   3   7    7.75    0.90
   7   3   7    5.69    0.90
  -7   3  -7    6.82    1.02
   9  -3   7   18.59    1.24
  -9  -3  -7   17.06    1.26
   9  -3   7   16.03    1.24
   9   3   7   17.22    1.15
   9   3   7   19.28    1.25
  -9   3  -7   14.80    1.29
   9   3   7   15.49    1.24
  11  -3   7    8.82    1.08
 -11  -3  -7   10.71    1.17
 -11   3  -7   10.62    1.25
  11   3   7   11.95    0.90
  11   3   7   10.30    1.21
  13  -3   7    4.00    0.74
  13  -3   7    4.96    0.77
 -13   3  -7    3.05    0.87
 -20  -4   7    4.37    0.74
 -18  -4   7   18.58    1.26
 -18  -4   7   18.75    0.92
  18  -4  -7   18.44    1.69
  18  -4  -7   17.18    0.77
 -18   4   7   18.56    1.26
  16  -4  -7    7.17    0.55
 -16  -4   7    7.00    0.90
  16  -4  -7    6.74    0.51
 -16  -4   7    5.25    0.61
  16  -4  -7    8.21    1.27
 -16   4   7    7.62    0.91
  14  -4  -7   39.65    1.96
 -14  -4   7   36.66    1.44
 -14  -4   7   38.20    1.83
  14  -4  -7   37.65    1.29
 -14   4   7   37.41    1.74
  12  -4  -7    7.26    0.58
 -12  -4   7    7.23    0.67
  12  -4  -7    7.00    0.58
 -12  -4   7    9.05    0.98
  12  -4  -7    8.28    1.06
 -12   4   7    8.60    0.90
  10  -4  -7   61.46    1.94
 -10  -4   7   65.62    2.17
  10  -4  -7   63.27    1.99
  10  -4  -7   67.94    2.51
 -10  -4   7   62.43    2.60
  10   4  -7   62.62    1.83
  -8  -4   7   21.02    0.85
  -8  -4   7   20.57    1.27
   8  -4  -7   21.92    0.95
  -8  -4   7   22.59    1.53
   8  -4  -7   24.06    1.35
  -8   4   7   23.45    0.83
  -6  -4   7   42.00    1.60
   6  -4  -7   48.86    1.96
  -6  -4   7   49.29    1.92
   6  -4  -7   47.14    1.59
  -6   4   7   47.96    2.32
   6   4  -7   45.58    1.57
  -6   4   7   47.65    1.51
  -6   4   7   46.64    1.60
   4  -4  -7   18.87    0.91
  -4  -4   7   16.06    0.94
   4  -4  -7   18.57    1.13
   4   4  -7   17.55    0.91
  -4   4   7   18.30    1.19
  -4   4   7   18.59    0.92
  -4   4   7   19.10    0.87
   2  -4  -7   35.04    1.35
  -2  -4   7   31.50    1.43
   2  -4  -7   35.32    1.55
  -2  -4   7   33.72    1.92
  -2   4   7   37.23    1.40
  -2   4   7   34.78    1.66
  -2   4   7   33.74    1.38
   2   4  -7   31.85    1.38
   0  -4  -7   24.68    1.26
   0  -4  -7   23.67    1.15
   0  -4   7   24.46    1.24
   0   4   7   23.53    1.35
   0   4   7   24.96    1.19
   0   4   7   25.92    1.19
   0   4  -7   22.67    1.20
  -2  -4  -7   27.74    1.31
   2  -4   7   29.52    1.40
  -2  -4  -7   27.25    1.28
   2   4   7   27.95    1.34
   2   4   7   27.18    1.43
   2   4   7   25.22    1.32
  -2   4  -7   27.07    1.39
   4  -4   7   29.07    1.45
  -4  -4  -7   28.49    1.38
   4   4   7   28.66    1.43
   4   4   7   26.83    1.41
   4   4   7   28.96    1.48
   6  -4   7    6.03    0.87
  -6  -4  -7    5.03    0.72
   6   4   7    6.00    0.84
  -6   4  -7    4.09    0.78
   6   4   7    4.59    0.73
   6   4   7    4.81    0.75
   8  -4   7   18.31    1.23
  -8  -4  -7   15.96    1.19
   8   4   7   16.65    1.24
   8   4   7   17.12    1.12
  -8   4  -7   17.26    1.37
   8   4   7   18.72    1.27
 -10  -4  -7    9.95    1.13
  10  -4   7    8.84    1.04
 -10   4  -7    8.55    1.26
  10   4   7    6.56    1.11
  10   4   7    8.18    1.12
  10   4   7    9.40    0.90
 -12  -4  -7    8.46    1.33
  12  -4   7    9.81    1.11
  12  -4   7    7.25    1.08
 -12   4  -7    8.73    1.16
  12   4   7    6.39    1.05
 -19  -5   7    3.16    0.70
 -19  -5   7    3.59    0.51
  17  -5  -7    7.07    1.21
  17  -5  -7    7.34    0.65
 -17  -5   7    7.95    0.71
 -17  -5   7    8.21    1.00
  15  -5  -7   11.80    0.80
 -15  -5   7   12.50    1.18
 -15  -5   7   12.76    0.83
  15  -5  -7   13.73    0.77
  15  -5  -7   15.60    1.46
 -15   5   7   12.27    1.07
  13  -5  -7   13.76    1.10
 -13  -5   7   13.38    0.90
  13  -5  -7   14.94    0.81
 -13  -5   7   14.68    1.21
  13  -5  -7   16.93    1.38
 -13   5   7   16.33    1.15
 -11  -5   7   13.42    1.22
  11  -5  -7   14.95    0.82
  11  -5  -7   12.77    0.79
 -11  -5   7   15.37    0.93
  11  -5  -7   17.34    1.32
  -9  -5   7   10.48    1.12
  -9  -5   7    8.95    0.64
  -9  -5   7    9.70    0.83
  -9  -5   7   10.03    0.69
   9  -5  -7   11.32    0.74
   9  -5  -7   11.76    1.10
   9  -5  -7   11.00    0.71
  -9   5   7   11.08    0.50
   7  -5  -7   33.87    1.30
   7  -5  -7   37.25    1.69
  -7  -5   7   32.83    1.49
  -7  -5   7   28.33    1.29
   7   5  -7   33.71    1.26
  -7   5   7   34.65    1.17
   5  -5  -7    4.69    0.61
  -5  -5   7    4.25    0.55
  -5  -5   7    4.72    0.71
   5  -5  -7    5.14    0.75
   5   5  -7    4.89    0.60
  -5   5   7    4.97    0.78
  -5   5   7    4.96    0.50
  -5   5   7    5.11    0.58
  -3  -5   7   39.85    1.65
   3  -5  -7   42.39    1.78
   3  -5  -7   39.40    1.52
  -3   5   7   41.45    1.51
  -3   5   7   40.10    1.84
   3   5  -7   40.38    1.57
  -3   5   7   43.57    1.60
   1  -5  -7    7.99    0.80
  -1  -5   7    8.98    0.84
   1  -5  -7    7.75    0.74
  -1   5   7    8.44    0.88
  -1   5   7    5.72    0.72
   1   5  -7    6.64    0.77
  -1   5   7    9.11    0.73
  -1  -5  -7   14.98    0.99
  -1  -5  -7   14.41    0.99
   1  -5   7   16.18    1.08
  -1   5  -7   13.99    1.05
   1   5   7   15.50    1.11
   1   5   7   12.30    0.96
   1   5   7   14.86    0.94
  -3  -5  -7    5.16    0.70
   3  -5   7    6.76    0.89
  -3  -5  -7    4.54    0.65
  -3   5  -7    5.50    0.79
   3   5   7    5.79    0.84
   3   5   7    6.07    0.77
   3   5   7    5.23    0.83
  -5  -5  -7   21.85    1.17
  -5  -5  -7   23.82    1.30
   5  -5   7   27.57    1.45
   5   5   7   26.02    1.41
   5   5   7   25.45    1.38
   5   5   7   25.59    1.43
  -5   5  -7   24.11    1.52
   7  -5   7    3.31    0.66
  -7  -5  -7    2.63    0.62
   7   5   7    2.88    0.68
   7   5   7    4.05    0.66
  -7   5  -7    3.74    0.81
   7   5   7    2.97    0.64
  -9  -5  -7    8.37    1.08
   9  -5   7    9.02    1.02
  -9   5  -7    8.12    1.29
   9   5   7    9.51    1.17
   9   5   7    9.81    1.15
 -11  -5  -7    3.84    0.83
  11  -5   7    7.31    1.05
 -11   5  -7    4.62    0.98
  11   5   7    5.40    0.91
  16  -6  -7    6.94    0.71
 -16  -6   7    6.45    0.79
 -16  -6   7    8.27    1.03
 -14  -6   7   25.62    1.60
 -14  -6   7   28.17    1.33
  14  -6  -7   32.87    1.89
  14  -6  -7   27.29    1.23
 -12  -6   7   10.31    0.86
 -12  -6   7    8.42    1.08
  12  -6  -7    8.51    0.75
  12  -6  -7   10.63    1.31
 -10  -6   7   44.07    1.74
 -10  -6   7   35.25    1.73
 -10  -6   7   39.52    2.08
  10  -6  -7   46.25    2.01
  10  -6  -7   42.13    1.55
 -10  -6   7   43.82    1.36
 -10   6   7   40.55    1.21
   8  -6  -7   22.69    1.09
  -8  -6   7   23.07    1.10
  -8  -6   7   21.52    1.22
   8  -6  -7   23.82    1.40
  -8   6   7   22.16    0.87
   8   6  -7   22.67    1.04
  -6  -6   7   28.66    1.43
  -6  -6   7   25.63    1.27
   6  -6  -7   30.93    1.27
   6  -6  -7   29.82    1.53
  -6   6   7   27.30    1.23
  -6   6   7   30.18    1.12
   6   6  -7   27.57    1.22
   4  -6  -7   19.07    1.02
   4  -6  -7   20.74    1.21
  -4  -6   7   18.09    1.20
  -4  -6   7   18.52    1.10
  -4   6   7   18.92    0.95
  -4   6   7   17.33    1.00
   4   6  -7   19.27    1.06
  -2  -6   7   39.93    1.66
  -2  -6   7   31.80    1.65
   2  -6  -7   38.80    1.52
   2  -6  -7   37.87    1.67
   2   6  -7   34.78    1.53
  -2   6   7   37.35    1.47
  -2   6   7   34.80    1.78
  -2   6   7   36.59    1.53
   0  -6  -7   17.31    1.13
   0  -6  -7   20.02    1.12
   0  -6  -7   19.40    1.16
   0  -6   7   19.55    1.17
   0   6   7   17.62    1.16
   0   6  -7   16.98    1.14
   0   6   7   19.33    1.25
   0   6   7   18.35    1.04
   2  -6   7   18.44    1.20
  -2  -6  -7   17.19    1.08
  -2  -6  -7   17.31    1.09
  -2  -6  -7   16.39    1.05
  -2   6  -7   15.02    1.18
   2   6   7   18.16    1.22
   2   6   7   16.20    1.09
   2   6   7   16.64    1.06
   4  -6   7   25.61    1.43
  -4  -6  -7   22.08    1.27
  -4  -6  -7   23.86    1.31
  -4  -6  -7   23.22    1.21
  -4   6  -7   24.95    1.50
   4   6   7   24.68    1.34
   4   6   7   22.14    1.35
  -6  -6  -7    7.78    0.76
  -6  -6  -7    8.42    0.95
   6  -6   7   10.80    1.08
  -6  -6  -7    8.52    1.06
   6   6   7    8.34    0.97
   6   6   7    7.86    1.01
  -6   6  -7    8.06    1.19
   8  -6   7   12.28    1.19
  -8  -6  -7   12.04    1.15
   8   6   7   10.49    1.24
   8   6   7   10.19    1.14
  -8   6  -7    8.98    1.17
 -10  -6  -7    6.01    0.94
  10  -6   7    7.58    1.08
 -10   6  -7    4.81    1.05
  10   6   7    4.54    0.93
 -15  -7   7   13.01    1.28
 -15  -7   7   12.77    0.99
  15  -7  -7   13.55    0.95
  13  -7  -7   17.75    1.30
 -13  -7   7   15.36    1.35
 -13  -7   7   15.79    1.10
  13  -7  -7   15.95    0.98
  11  -7  -7   18.93    1.03
  11  -7  -7   18.85    1.55
  11  -7  -7   18.53    1.07
 -11  -7   7   18.80    0.79
 -11  -7   7   19.01    1.14
 -11  -7   7   16.41    1.40
  -9  -7   7   18.81    0.92
   9  -7  -7   20.18    1.07
  -9  -7   7   19.96    1.23
   9  -7  -7   20.15    1.44
   9  -7  -7   20.91    1.10
  -9   7   7   18.50    0.76
   7  -7  -7   36.10    1.50
  -7  -7   7   35.91    1.37
   7  -7  -7   35.17    1.47
  -7  -7   7   35.57    1.66
   7  -7  -7   38.73    1.83
  -7  -7   7   29.98    1.44
  -7   7   7   35.50    1.26
   7   7  -7   32.78    1.41
  -5  -7   7   14.74    1.04
   5  -7  -7   15.83    1.00
   5  -7  -7   17.41    1.22
  -5  -7   7   16.46    1.19
   5  -7  -7   17.19    0.98
  -5   7   7   16.66    1.01
   5   7  -7   14.37    1.01
  -5   7   7   17.24    0.89
   3  -7  -7   33.04    1.61
  -3  -7   7   32.35    1.52
   3  -7  -7   31.91    1.44
  -3  -7   7   33.04    1.69
   3  -7  -7   32.89    1.40
  -3   7   7   32.12    1.36
   3   7  -7   32.13    1.48
  -3   7   7   32.12    1.47
   1  -7  -7   14.67    0.98
  -1  -7   7   14.63    1.07
   1  -7  -7   12.66    1.01
  -1  -7   7   12.24    1.15
   1  -7  -7   14.33    1.02
   1   7  -7   13.67    1.09
  -1   7   7   14.53    1.04
  -1   7   7   13.26    0.92
  -1  -7  -7   21.59    1.21
  -1  -7  -7   22.37    1.24
   1  -7   7   23.01    1.34
  -1  -7  -7   21.63    1.19
   1   7   7   22.02    1.22
   1   7   7   21.43    1.30
  -1   7  -7   18.75    1.57
   3  -7   7   12.65    1.11
  -3  -7  -7   14.09    1.04
  -3  -7  -7   13.64    1.04
  -3  -7  -7   13.46    0.97
  -3   7  -7   11.41    1.21
   3   7   7   13.59    1.11
   3   7   7   14.23    1.08
   5  -7   7   18.98    1.27
  -5  -7  -7   17.20    1.05
  -5  -7  -7   16.42    1.19
  -5  -7  -7   14.87    1.16
   5   7   7   17.68    1.24
  -5   7  -7   16.22    1.43
   5   7   7   18.34    1.25
  -7  -7  -7    3.87    0.82
   7  -7   7    5.39    0.79
  -7  -7  -7    4.19    0.71
  -7  -7  -7    4.80    0.77
  -7   7  -7    4.48    0.89
   7   7   7    4.13    0.72
  -9  -7  -7   10.59    1.51
   9  -7   7   12.53    1.21
  -9   7  -7   10.64    1.62
   9   7   7   12.91    1.50
 -14  -8   7   11.65    1.11
 -12  -8   7    4.94    0.51
 -12  -8   7    3.50    0.68
  10  -8  -7   14.73    1.04
  10  -8  -7   15.01    1.09
 -10  -8   7   12.78    1.12
 -10  -8   7   13.56    0.79
 -10   8   7   13.44    0.67
   8  -8  -7    9.63    0.93
   8  -8  -7    9.41    0.90
  -8  -8   7    9.33    0.73
  -8  -8   7    7.37    1.01
  -8  -8   7    6.67    0.80
   8  -8  -7    8.73    1.17
  -8   8   7    8.35    0.60
  -6  -8   7    9.21    1.09
  -6  -8   7    8.67    0.82
  -6  -8   7    9.75    0.90
   6  -8  -7    9.24    1.13
   6  -8  -7   11.81    0.98
   6  -8  -7    9.23    0.93
   6  -8  -7   10.98    0.85
   6   8  -7    9.62    0.95
  -6   8   7    9.73    0.73
  -4  -8   7    8.20    1.05
   4  -8  -7    7.27    0.90
   4  -8  -7    8.20    0.85
   4  -8  -7    6.90    1.02
  -4  -8   7    7.19    1.07
   4   8  -7    7.92    0.99
  -4   8   7    8.07    0.73
   2  -8  -7   12.98    1.00
  -2  -8   7   12.71    1.30
  -2  -8   7   14.96    1.11
   2  -8  -7   15.52    1.08
   2  -8  -7   15.09    1.15
   2   8  -7   13.82    1.16
  -2   8   7   14.31    0.95
  -2   8   7   14.95    1.08
   0  -8  -7    7.32    0.86
   0  -8   7    8.30    1.00
   0  -8  -7    7.32    0.91
   0  -8  -7    6.84    0.88
   0   8  -7    5.30    0.98
   0   8   7    7.21    0.94
   0   8   7    6.25    0.82
  -2  -8  -7    5.27    0.81
   2  -8   7    6.74    0.99
   2  -8   7    3.63    1.12
  -2  -8  -7    7.43    0.96
  -2  -8  -7    7.46    0.92
   2   8   7    6.89    0.88
   2   8   7    7.04    0.94
  -2   8  -7    7.75    1.15
  -4  -8  -7    9.19    0.89
  -4  -8  -7    7.47    0.99
  -4  -8  -7    8.72    1.04
   4  -8   7   10.53    1.12
   4   8   7    8.30    1.01
  -4   8  -7    9.50    1.17
   4   8   7    9.37    1.06
  -6  -8  -7    4.18    0.64
   6  -8   7    4.46    0.78
  -6  -8  -7    4.59    0.81
  -6   8  -7    2.96    0.89
   6   8   7    2.92    0.73
 -11  -9   7    9.42    0.75
  -9  -9   7   12.41    0.90
  -7  -9   7   13.83    1.01
   7  -9  -7   14.47    1.18
  -5  -9   7    7.95    0.95
   5  -9  -7    8.38    0.90
   5  -9  -7    6.92    1.00
  -5   9   7    9.19    0.77
   5   9  -7    7.59    1.04
   3  -9  -7   16.26    1.14
  -3  -9   7   13.68    1.16
   3  -9  -7   14.35    1.24
   3  -9  -7   14.82    1.16
   3   9  -7   14.04    1.23
  -3   9   7   16.64    1.01
   1  -9  -7    6.69    1.02
   1  -9  -7    8.82    0.96
   1  -9  -7   10.23    1.06
   1   9  -7    8.24    1.03
  -1   9   7    8.25    0.98
  -1   9   7   10.16    0.90
  -1  -9  -7    9.47    1.03
  -1  -9  -7    9.03    1.02
   1  -9   7    7.49    1.09
  -1  -9  -7    7.92    1.00
   1   9   7   10.57    1.08
   1   9   7   10.06    0.94
  -1   9  -7    9.51    1.25
  -3  -9  -7    5.97    0.90
   3  -9   7    6.86    1.03
  -3  -9  -7    6.54    0.86
  -3  -9  -7    4.68    0.80
   3   9   7    8.74    0.99
   3   9   7    5.47    0.79
  -3   9  -7    7.29    1.05
 -18   0   8   14.74    1.24
 -16   0   8   13.86    1.15
 -14   0   8   22.41    1.35
 -14   0   8   21.99    0.78
 -14   0   8   22.31    0.77
 -12   0   8   10.57    1.00
 -12   0   8    9.73    0.58
 -12   0   8   10.82    0.57
 -10   0   8   55.73    1.89
 -10   0   8   65.21    1.91
  10   0  -8   59.17    1.72
  -8   0   8   14.40    0.71
  -8   0   8   12.26    0.76
  -6   0   8   74.47    2.17
  -6   0   8   67.79    2.32
   6   0  -8   74.18    2.28
  -4   0   8   15.46    1.22
   4   0  -8   17.46    0.98
  -4   0   8   15.14    0.93
  -4   0   8   16.22    0.83
  -2   0   8   64.95    2.24
  -2   0   8   62.68    2.58
  -2   0   8   64.23    2.18
   2   0  -8   68.09    2.26
   0   0  -8   10.85    0.94
   0   0   8   11.46    0.89
   0   0   8   12.89    1.12
   0   0   8   11.37    0.90
   2   0   8   52.40    1.96
   2   0   8   46.70    2.13
  -2   0  -8   52.74    2.01
   2   0   8   49.16    1.99
   4   0   8   12.46    1.16
  -4   0  -8   13.05    1.17
   4   0   8   13.13    1.00
  -6   0  -8   14.38    1.22
   6   0   8   13.15    1.10
   6   0   8   11.73    1.18
   6   0   8   11.65    1.00
  -8   0  -8   10.02    1.16
   8   0   8   11.15    1.05
   8   0   8   14.60    1.18
   8   0   8   12.80    1.20
  10   0   8    8.95    1.19
 -10   0  -8    9.56    1.22
  10   0   8   10.21    1.05
 -17  -1   8   16.14    1.20
 -17   1   8   15.12    1.26
 -15  -1   8    5.56    0.42
 -15  -1   8    4.92    0.79
 -15   1   8    6.33    0.87
 -13  -1   8   29.49    1.59
 -13  -1   8   29.18    1.06
 -13   1   8   28.49    1.55
 -11  -1   8    6.29    0.55
 -11  -1   8    5.95    0.91
  11  -1  -8    6.37    0.45
 -11   1   8    6.00    0.44
 -11   1   8    7.44    0.47
  -9  -1   8   42.48    1.50
   9   1  -8   38.65    1.28
  -9   1   8   41.31    1.25
  -9   1   8   40.71    1.40
  -7  -1   8   10.97    0.57
  -7   1   8   11.74    0.65
   7   1  -8   10.34    0.68
  -7   1   8   11.32    0.71
  -5  -1   8   23.73    0.97
   5  -1  -8   24.58    1.10
  -5   1   8   20.04    1.46
  -5   1   8   22.52    1.09
   5   1  -8   22.02    1.05
  -5   1   8   23.00    0.97
  -3  -1   8   39.58    1.51
   3  -1  -8   41.80    1.57
  -3  -1   8   37.06    1.56
  -3  -1   8   37.36    1.91
  -3   1   8   39.15    1.56
  -3   1   8   39.90    1.89
   3   1  -8   41.20    1.60
  -3   1   8   39.54    1.48
  -1  -1   8   11.81    0.89
  -1  -1   8   11.93    0.88
  -1  -1   8   12.78    1.12
   1  -1  -8   12.74    0.92
  -1   1   8   13.24    1.10
  -1   1   8   11.64    0.84
   1   1  -8   13.14    0.99
  -1   1   8   12.43    0.89
   1  -1   8   25.93    1.29
   1  -1   8   26.65    1.33
   1  -1   8   23.60    1.48
  -1  -1  -8   26.25    1.32
   1   1   8   25.19    1.48
   1   1   8   28.45    1.33
  -1   1  -8   26.92    1.38
   1   1   8   25.86    1.32
   3  -1   8   11.21    0.93
   3  -1   8   10.28    1.02
   3  -1   8   11.43    1.03
  -3  -1  -8   11.52    1.17
   3   1   8   10.76    1.03
   3   1   8   10.69    0.95
  -3   1  -8   11.44    1.11
   3   1   8   10.17    1.02
  -5  -1  -8   17.83    1.26
   5  -1   8   20.69    1.18
   5  -1   8   16.04    1.24
   5  -1   8   17.20    1.27
  -5   1  -8   18.55    1.32
   5   1   8   17.27    1.23
   5   1   8   19.41    1.24
   5   1   8   17.36    1.28
   7  -1   8    2.21    0.65
  -7  -1  -8    2.71    0.64
   7  -1   8    2.03    0.56
   7  -1   8    2.42    0.65
  -7   1  -8    2.64    0.95
   7   1   8    1.81    0.59
   7   1   8    1.47    0.55
   7   1   8    2.52    0.69
   9  -1   8   16.37    1.29
   9  -1   8   16.11    1.24
  -9  -1  -8   15.40    1.37
   9   1   8   15.70    1.33
  -9   1  -8   14.68    1.33
   9   1   8   15.19    1.17
  11  -1   8    2.04    0.68
  11  -1   8    1.76    0.68
 -11  -1  -8    1.34    0.79
 -11   1  -8    1.18    0.79
  11   1   8    2.23    0.74
  11   1   8    1.69    0.64
 -18  -2   8    6.02    0.89
 -16  -2   8    6.76    1.01
 -16   2   8    8.09    1.07
 -14  -2   8   14.02    0.86
 -14  -2   8   17.04    1.29
  14  -2  -8   18.61    1.50
 -14   2   8   19.05    1.27
 -12  -2   8    3.54    0.52
  12  -2  -8    4.17    0.45
 -12  -2   8    5.04    0.85
  12  -2  -8    5.35    0.91
  12  -2  -8    3.38    0.45
 -12   2   8    4.34    0.75
 -10  -2   8   35.60    1.38
  10  -2  -8   41.04    1.90
 -10  -2   8   32.56    1.84
 -10   2   8   34.45    1.15
  10   2  -8   34.55    1.10
   8  -2  -8    6.46    0.94
  -8  -2   8    4.73    0.37
  -8  -2   8    5.17    0.76
  -8   2   8    5.69    0.64
   6  -2  -8   45.52    1.59
  -6  -2   8   43.13    1.50
  -6   2   8   45.85    1.58
  -6   2   8   44.35    1.51
   6   2  -8   45.55    1.66
   4  -2  -8    6.88    0.70
  -4  -2   8    5.48    0.59
  -4   2   8    4.98    0.89
   4   2  -8    6.96    0.68
  -4   2   8    6.71    0.61
  -4   2   8    6.33    0.78
  -2  -2   8   37.02    2.45
  -2  -2   8   42.89    1.67
   2  -2  -8   42.63    1.63
   2   2  -8   42.99    1.66
  -2   2   8   43.30    1.62
  -2   2   8   43.26    1.68
  -2   2   8   42.30    1.94
   0  -2   8    3.88    0.58
   0  -2   8    3.59    0.74
   0  -2  -8    2.50    0.54
   0   2   8    3.19    0.56
   0   2   8    3.13    0.67
   0   2  -8    2.48    0.56
   0   2   8    3.67    0.56
  -2  -2  -8   26.50    1.38
   2  -2   8   25.61    1.40
   2  -2   8   24.25    1.54
   2  -2   8   29.69    1.39
  -2   2  -8   26.76    1.44
   2   2   8   25.43    1.49
   2   2   8   25.13    1.35
   2   2   8   26.82    1.35
  -4  -2  -8    8.94    1.00
   4  -2   8    8.01    0.99
   4  -2   8   10.49    0.91
   4   2   8    7.30    0.99
  -4   2  -8    8.24    1.03
   4   2   8    6.75    0.98
   4   2   8    7.74    0.90
  -6  -2  -8    9.22    1.16
   6  -2   8   12.03    1.02
   6  -2   8   10.96    1.10
   6  -2   8   10.68    1.11
   6   2   8   10.56    1.09
   6   2   8   10.50    1.07
   6   2   8   11.08    1.15
  -6   2  -8    9.62    1.10
  -8  -2  -8    4.94    0.80
   8  -2   8    6.51    1.00
   8  -2   8    5.30    0.88
  -8   2  -8    4.96    0.84
   8   2   8    5.03    0.81
   8   2   8    6.71    1.07
   8   2   8    5.12    0.78
  10  -2   8    7.76    1.10
 -10  -2  -8    3.54    0.85
  10  -2   8    6.12    0.98
 -10   2  -8    5.24    0.92
  10   2   8    3.51    0.84
  10   2   8    5.38    0.91
 -17  -3   8   19.13    0.98
 -17  -3   8   19.69    1.43
 -15  -3   8    7.38    0.61
  15  -3  -8    7.50    1.32
 -15  -3   8    7.39    1.07
 -15   3   8    7.12    0.99
  13  -3  -8   33.17    1.84
  13  -3  -8   29.61    1.05
 -13  -3   8   28.18    1.65
 -13  -3   8   23.69    1.63
  13  -3  -8   29.00    1.07
 -13   3   8   29.68    1.60
  11  -3  -8   16.01    0.79
 -11  -3   8   17.36    1.30
  11  -3  -8   17.62    1.40
 -11  -3   8   14.62    0.91
 -11   3   8   15.95    0.57
  -9  -3   8   51.03    1.90
   9  -3  -8   56.05    2.27
  -9   3   8   49.49    1.56
   9   3  -8   50.86    1.59
   7  -3  -8   17.61    1.25
  -7  -3   8   17.91    1.01
   7  -3  -8   17.13    0.87
  -7  -3   8   16.04    0.76
  -7   3   8   16.40    0.81
  -7   3   8   18.14    0.81
   7   3  -8   15.81    0.83
   5  -3  -8   33.03    1.31
   5  -3  -8   33.16    1.62
  -5  -3   8   31.67    1.27
  -5   3   8   32.85    1.29
  -5   3   8   31.96    1.27
   5   3  -8   30.69    1.27
   3  -3  -8   43.95    1.87
   3  -3  -8   43.01    1.60
  -3  -3   8   40.59    1.64
   3   3  -8   40.79    1.62
  -3   3   8   43.10    1.63
  -3   3   8   42.79    1.60
   1  -3  -8   17.32    1.03
  -1  -3   8   17.19    1.08
  -1   3   8   18.71    1.06
  -1   3   8   16.48    1.02
  -1   3   8   16.02    1.21
   1   3  -8   17.13    1.07
   1  -3   8   34.18    1.62
  -1  -3  -8   35.45    1.54
   1   3   8   34.87    1.71
  -1   3  -8   33.74    1.61
   1   3   8   37.05    1.60
   1   3   8   34.95    1.57
   3  -3   8   14.68    1.17
  -3  -3  -8   16.39    1.14
   3   3   8   16.82    1.21
  -3   3  -8   14.49    1.40
   3   3   8   15.26    1.11
   3   3   8   14.80    1.14
  -5  -3  -8   12.76    1.12
   5  -3   8   16.54    1.13
   5  -3   8   13.39    1.17
   5   3   8   16.01    1.18
  -5   3  -8   11.95    1.21
   5   3   8   13.76    1.21
   5   3   8   14.86    1.15
   7  -3   8    4.39    1.17
  -7  -3  -8    4.48    0.72
   7  -3   8    5.62    0.82
   7   3   8    3.98    0.76
  -7   3  -8    3.82    0.80
   7   3   8    6.58    0.92
   7   3   8    6.12    0.93
  -9  -3  -8   19.44    1.45
   9  -3   8   20.88    1.41
   9   3   8   19.95    1.31
  -9   3  -8   18.81    1.50
   9   3   8   16.64    1.45
 -16  -4   8   10.28    1.22
 -16  -4   8    8.33    0.83
  16  -4  -8   10.15    0.64
  14  -4  -8   18.15    0.87
  14  -4  -8   21.30    1.17
  14  -4  -8   20.33    1.66
 -14  -4   8   18.44    1.01
 -14  -4   8   18.74    1.40
 -12  -4   8    7.53    0.70
  12  -4  -8    7.30    1.25
  12  -4  -8    7.73    0.68
 -12  -4   8    5.85    1.03
  12  -4  -8    7.62    0.63
 -12   4   8    8.03    1.01
  10  -4  -8   28.27    1.15
  10  -4  -8   30.40    1.69
 -10  -4   8   30.15    1.35
 -10  -4   8   28.42    1.72
  10  -4  -8   29.86    1.18
 -10   4   8   29.54    0.95
  10   4  -8   29.38    1.03
   8  -4  -8   13.06    1.27
   8  -4  -8   10.57    0.74
  -8  -4   8   11.03    0.60
  -8  -4   8   12.35    0.93
  -8   4   8   11.68    0.62
   8   4  -8   11.01    0.74
   6  -4  -8   42.54    1.54
  -6  -4   8   37.49    1.50
   6  -4  -8   44.09    1.93
  -6  -4   8   42.24    1.75
  -6   4   8   43.73    1.48
  -6   4   8   45.83    2.09
  -6   4   8   40.07    1.51
   6   4  -8   41.09    1.51
   4  -4  -8   13.54    0.87
   4  -4  -8   13.88    1.08
  -4  -4   8   11.48    0.88
   4   4  -8   11.38    0.86
  -4   4   8   14.08    0.85
  -2  -4   8   37.54    1.67
   2  -4  -8   40.47    1.77
   2  -4  -8   39.69    1.57
  -2  -4   8   36.99    2.26
  -2   4   8   38.98    1.59
   2   4  -8   39.36    1.63
  -2   4   8   43.91    1.64
   0  -4  -8    6.68    0.83
   0  -4   8    6.05    0.85
   0  -4   8    5.69    1.28
   0  -4  -8    6.69    0.82
   0   4   8    8.27    0.82
   0   4   8    6.46    1.08
   0   4  -8    4.82    0.73
   0   4   8    7.04    0.83
  -2  -4  -8   23.53    1.28
   2  -4   8   21.74    1.97
   2  -4   8   22.95    1.35
   2   4   8   21.47    1.32
   2   4   8   25.09    1.46
  -2   4  -8   21.01    1.40
   2   4   8   20.83    1.27
   4  -4   8   14.65    1.15
   4  -4   8   11.53    1.32
  -4  -4  -8   12.58    1.09
   4   4   8   13.21    1.11
  -4   4  -8   12.11    1.27
   4   4   8   12.11    1.13
   4   4   8   13.66    1.16
   6  -4   8   13.39    1.36
  -6  -4  -8   11.79    1.13
   6  -4   8   16.71    1.24
  -6   4  -8   12.45    1.30
   6   4   8   14.89    1.20
   6   4   8   12.77    1.19
   6   4   8   13.22    1.17
  -8  -4  -8    5.69    0.87
   8  -4   8    8.46    1.06
   8  -4   8    4.78    0.88
   8   4   8    5.82    0.98
   8   4   8    4.28    0.85
  -8   4  -8    5.16    0.97
  10   4   8    3.45    0.91
 -15  -5   8    3.51    0.55
 -13  -5   8   11.46    1.27
 -13  -5   8   10.93    0.87
 -11  -5   8    6.62    0.80
  11  -5  -8    6.55    0.68
 -11  -5   8    6.94    1.14
  11  -5  -8    7.64    1.12
 -11   5   8    4.87    1.06
  -9  -5   8   23.15    1.25
   9  -5  -8   24.19    1.54
  -9  -5   8   21.69    1.01
  -9  -5   8   20.00    1.60
   9  -5  -8   23.13    1.05
  -9  -5   8   19.95    1.01
  -9   5   8   22.26    0.84
  -7  -5   8    4.90    0.65
   7  -5  -8    6.93    0.99
  -7  -5   8    6.02    0.82
   7  -5  -8    6.84    0.81
  -7   5   8    6.53    0.64
  -7   5   8    6.34    0.57
   7   5  -8    5.19    0.67
  -7   5   8    6.51    0.94
  -5  -5   8   12.61    1.01
   5  -5  -8   13.13    0.89
   5  -5  -8   12.76    1.11
  -5  -5   8   11.57    0.87
  -5   5   8   14.34    0.82
   5   5  -8   11.79    0.88
  -5   5   8   12.29    0.85
  -5   5   8   13.60    1.17
   3  -5  -8   19.11    1.07
   3  -5  -8   20.37    1.27
  -3  -5   8   15.04    1.08
   3   5  -8   18.59    1.09
  -3   5   8   19.22    1.01
  -3   5   8   17.84    1.05
  -3   5   8   19.08    1.42
  -1  -5   8    7.05    1.24
   1  -5  -8    8.43    0.91
  -1  -5   8    7.97    0.91
   1  -5  -8    8.35    0.89
   1   5  -8    7.31    0.91
  -1   5   8    7.97    0.80
  -1   5   8    7.33    0.82
   1  -5   8   14.98    1.16
  -1  -5  -8   14.75    1.07
   1  -5   8   17.04    1.51
  -1  -5  -8   14.11    1.03
   1   5   8   15.50    1.03
   1   5   8   14.49    1.12
  -1   5  -8   12.71    1.15
  -3  -5  -8    7.12    1.00
  -3  -5  -8    8.18    0.85
   3  -5   8    9.06    1.04
   3   5   8    9.98    1.02
   3   5   8    8.82    1.06
   3   5   8    9.17    1.09
  -3   5  -8    7.92    1.17
  -5  -5  -8    7.42    1.02
   5  -5   8    7.62    1.10
   5   5   8    7.84    1.05
  -5   5  -8    7.52    1.04
   5   5   8    5.27    0.80
   5   5   8    7.58    1.02
   7  -5   8    3.48    0.71
  -7  -5  -8    3.01    0.70
  -7   5  -8    1.64    0.82
   7   5   8    3.01    0.76
   7   5   8    3.05    0.71
 -14  -6   8   11.42    0.96
  14  -6  -8   10.79    0.84
  12  -6  -8    9.66    0.80
 -12  -6   8    9.39    0.91
 -10  -6   8   24.86    0.87
 -10  -6   8   23.23    1.30
  10  -6  -8   22.53    1.14
 -10  -6   8   19.23    0.95
  10  -6  -8   23.41    1.16
 -10  -6   8   21.22    1.98
 -10   6   8   22.99    0.79
   8  -6  -8   11.82    0.90
  -8  -6   8   13.66    1.06
   8  -6  -8   14.39    1.33
  -8  -6   8    8.58    1.40
   8   6  -8   12.64    0.86
  -8   6   8   12.38    1.26
  -8   6   8   12.36    0.67
   6  -6  -8   30.81    1.67
   6  -6  -8   30.18    1.37
  -6  -6   8   29.25    1.56
  -6   6   8   29.72    1.37
   6   6  -8   27.87    1.32
  -6   6   8   30.68    1.21
  -6   6   8   31.17    1.76
  -4  -6   8   11.48    0.98
   4  -6  -8   14.63    0.97
   4  -6  -8   14.56    1.17
  -4  -6   8   11.13    1.08
  -4   6   8   14.31    0.88
  -4   6   8   13.40    0.96
  -4   6   8   12.85    1.20
   4   6  -8   14.07    1.00
   2  -6  -8   25.02    1.41
  -2  -6   8   23.89    1.47
  -2  -6   8   19.00    1.36
  -2   6   8   26.05    1.24
   2   6  -8   21.61    1.46
  -2   6   8   23.51    1.28
  -2   6   8   27.47    1.59
   0  -6  -8    9.28    0.97
   0  -6   8    8.92    1.02
   0  -6  -8    8.07    0.93
   0   6   8    8.46    0.97
   0   6  -8    8.63    1.04
   0   6   8    9.96    1.10
   0   6   8    9.26    0.89
  -2  -6  -8   21.53    1.27
  -2  -6  -8   18.62    1.19
   2   6   8   19.29    1.23
   2   6   8   17.84    1.28
  -2   6  -8   20.41    1.47
   4  -6   8    9.75    1.14
  -4  -6  -8    8.88    0.86
  -4  -6  -8    8.50    1.06
  -4   6  -8    7.85    1.07
   4   6   8    8.70    1.03
   4   6   8    6.91    1.08
   6  -6   8    9.40    1.16
  -6  -6  -8    9.30    1.35
  -6   6  -8    7.55    1.09
   6   6   8    7.55    1.15
 -13  -7   8   13.73    1.15
  13  -7  -8   16.73    1.66
  11  -7  -8    9.98    0.96
 -11  -7   8    8.67    0.55
 -11  -7   8    9.77    1.04
   9  -7  -8   21.76    1.32
   9  -7  -8   20.97    1.20
  -9  -7   8   21.51    0.96
  -9  -7   8   20.95    1.35
   7  -7  -8   11.89    1.00
  -7  -7   8   10.66    1.12
  -7   7   8   11.50    0.75
  -5  -7   8   14.61    1.30
   5  -7  -8   16.48    1.13
  -5  -7   8   15.47    1.16
   5  -7  -8   16.49    1.36
   5   7  -8   17.00    1.14
  -5   7   8   16.84    0.95
  -5   7   8   16.88    1.06
  -3  -7   8   22.36    1.37
   3  -7  -8   21.54    1.26
   3  -7  -8   22.70    1.46
  -3  -7   8   19.09    1.47
  -3   7   8   21.99    1.15
  -3   7   8   19.02    1.51
   3   7  -8   21.41    1.33
  -1  -7   8   15.59    1.25
  -1  -7   8    8.21    1.17
   1  -7  -8   14.42    1.07
   1  -7  -8   10.49    1.10
   1   7  -8   11.06    1.19
  -1   7   8   11.20    1.04
  -1   7   8   13.04    0.98
  -1  -7  -8   12.85    1.06
  -1  -7  -8   11.98    1.10
   1  -7   8   10.66    1.71
   1   7   8   10.17    1.10
  -1   7  -8   10.06    1.28
   1   7   8   13.78    1.10
  -3  -7  -8   12.40    1.16
   3  -7   8   11.12    1.25
  -3  -7  -8    9.58    1.15
   3   7   8   10.42    1.16
  -3   7  -8   10.06    1.34
   3   7   8    9.25    1.07
  -5  -7  -8    7.51    0.86
  -5  -7  -8    9.52    1.16
   5  -7   8    7.96    1.19
  -5   7  -8    9.40    1.45
   5   7   8    6.00    0.88
  -8  -8   8    6.60    0.77
   6  -8  -8   11.37    1.11
  -6   8   8    9.55    0.78
   4  -8  -8    5.41    0.79
  -4   8   8    5.93    0.94
  -4   8   8    5.95    0.76
   2  -8  -8   10.44    1.08
   2   8  -8    9.10    1.37
  -2   8   8   10.74    0.89
  -2   8   8    8.43    1.06
   0  -8  -8    4.51    0.81
   0  -8  -8    3.21    0.70
   0   8  -8    5.44    0.94
   0   8   8    4.89    0.74
   0   8   8    5.82    0.89
  -2  -8  -8    8.04    1.07
  -2  -8  -8    8.58    1.14
   2  -8   8   10.87    1.38
   2   8   8   10.20    1.13
 -12   0   9   17.72    0.83
 -12   0   9   16.06    0.81
  10   0  -9   12.21    0.79
 -10   0   9   11.58    1.74
 -10   0   9   11.47    0.71
 -10   0   9   10.86    0.75
  -8   0   9   15.90    0.72
   8   0  -9   15.24    0.92
  -8   0   9   14.16    1.02
  -6   0   9   22.84    1.00
  -6   0   9   23.80    1.17
  -6   0   9   23.47    1.55
   6   0  -9   23.70    1.18
   4   0  -9   17.20    1.10
  -4   0   9   16.54    1.05
  -4   0   9   17.88    1.37
  -4   0   9   17.95    0.94
   2   0  -9   32.06    1.50
  -2   0   9   31.38    1.43
  -2   0   9   31.10    1.45
  -2   0   9   26.98    1.68
   0   0   9    6.92    0.91
   0   0   9    7.56    0.87
   0   0  -9    6.62    0.93
   0   0   9    8.14    1.06
   2   0   9   27.80    1.62
   2   0   9   25.88    1.56
   2   0   9   28.76    1.44
  -4   0  -9    5.68    0.89
   4   0   9    6.36    0.94
   4   0   9    4.76    0.75
   4   0   9    4.18    0.80
   6   0   9   14.78    1.38
  -6   0  -9   14.51    1.38
 -13  -1   9   13.25    0.74
 -13  -1   9   11.19    0.77
 -13   1   9   12.69    0.63
 -13   1   9   15.22    0.83
 -11  -1   9    4.43    0.67
  11  -1  -9    4.57    0.49
 -11  -1   9    5.46    0.58
 -11  -1   9    6.31    1.12
 -11   1   9    5.75    0.49
 -11   1   9    4.19    0.54
 -11   1   9    7.32    1.17
  -9  -1   9   25.31    1.13
  -9  -1   9   22.53    1.15
  -9   1   9   24.24    0.90
  -9   1   9   26.22    1.10
   9   1  -9   24.04    0.97
   7  -1  -9    2.17    0.52
  -7  -1   9    2.35    0.49
  -7  -1   9    2.06    0.36
  -7   1   9    2.05    0.37
   7   1  -9    2.30    0.53
  -7   1   9    2.25    0.59
  -7   1   9    1.61    0.65
   5  -1  -9   33.03    1.40
  -5  -1   9   32.57    1.85
  -5  -1   9   31.68    1.26
  -5  -1   9   30.03    1.39
  -5   1   9   31.55    1.74
  -5   1   9   31.33    1.39
  -5   1   9   30.88    1.25
   5   1  -9   30.32    1.36
  -3  -1   9    4.43    0.83
   3  -1  -9    4.68    0.67
  -3  -1   9    4.43    0.58
  -3  -1   9    4.91    0.70
  -3   1   9    5.03    0.67
   3   1  -9    4.61    0.71
  -3   1   9    4.09    0.56
  -3   1   9    2.85    0.71
  -1  -1   9   17.46    1.11
  -1  -1   9   15.24    1.36
   1  -1  -9   17.68    1.18
  -1  -1   9   17.79    1.15
   1   1  -9   19.44    1.51
  -1   1   9   18.29    1.13
  -1   1   9   16.79    1.10
  -1   1   9   18.23    1.35
   1  -1   9    9.89    1.18
   1  -1   9   11.83    1.08
  -1  -1  -9   12.18    1.12
   1  -1   9   13.53    1.31
   1   1   9   12.44    1.20
   1   1   9   14.02    1.11
  -1   1  -9   11.03    1.19
   1   1   9   11.03    1.04
   3  -1   9    9.77    1.01
   3  -1   9   13.72    1.29
  -3  -1  -9   12.93    1.21
   3  -1   9   11.21    1.21
   3   1   9   11.54    1.18
  -3   1  -9   14.14    1.30
   3   1   9   14.09    1.12
   3   1   9   10.90    1.29
   5  -1   9    4.67    0.79
   5  -1   9    5.28    0.88
  -5  -1  -9    4.26    0.84
   5   1   9    4.38    0.84
   5   1   9    4.50    0.86
  -5   1  -9    5.66    0.96
   7  -1   9    4.95    0.89
  -7  -1  -9    5.50    0.92
   7  -1   9    4.27    0.89
  -7   1  -9    5.71    0.98
   7   1   9    5.15    0.89
 -14  -2   9    3.18    0.47
 -12  -2   9   11.38    0.84
  12  -2  -9   10.54    0.69
 -12   2   9   10.74    0.52
 -12   2   9   11.59    0.55
 -10  -2   9    7.59    1.29
 -10  -2   9    6.27    0.71
 -10   2   9    8.69    0.55
 -10   2   9    8.41    1.29
  10   2  -9    7.46    0.52
  -8  -2   9    7.77    0.74
  -8  -2   9    6.16    0.48
   8  -2  -9    8.30    0.80
  -8   2   9    6.97    0.70
  -8   2   9    7.62    1.08
  -8   2   9    7.86    0.65
  -6  -2   9   11.68    0.79
   6  -2  -9   13.97    0.93
  -6   2   9   12.56    0.86
  -6   2   9   11.57    1.20
   6   2  -9   11.09    0.84
  -6   2   9   11.70    0.73
  -4  -2   9   10.44    1.23
  -4  -2   9   10.14    0.78
   4  -2  -9   11.41    0.93
  -4   2   9    8.94    0.76
  -4   2   9    9.68    1.14
  -4   2   9   11.14    0.88
   4   2  -9   12.25    0.90
   2  -2  -9   20.24    1.29
  -2  -2   9   17.51    1.12
  -2  -2   9   19.07    1.12
  -2  -2   9   16.87    1.42
   2   2  -9   17.99    1.17
  -2   2   9   17.30    1.07
  -2   2   9   18.26    1.27
  -2   2   9   17.35    1.39
   0  -2   9    2.53    0.64
   0  -2   9    5.50    0.93
   0  -2   9    2.27    0.72
   0  -2  -9    4.44    0.73
   0   2  -9    3.99    0.74
   0   2   9    5.33    0.81
   0   2   9    3.59    0.64
   0   2   9    3.08    0.74
   2  -2   9   16.08    1.39
  -2  -2  -9   20.76    1.34
   2  -2   9   20.11    1.22
   2  -2   9   19.39    1.38
   2   2   9   18.15    1.54
   2   2   9   18.51    1.42
   2   2   9   23.19    1.33
   4  -2   9    1.81    0.70
   4  -2   9    2.53    0.70
  -4  -2  -9    3.32    0.74
   4   2   9    3.76    0.75
  -4   2  -9    3.06    0.74
   4   2   9    2.06    0.63
   6  -2   9    8.88    1.19
  -6  -2  -9   10.73    1.24
   6  -2   9    8.94    1.21
   6   2   9    7.65    1.06
  -6   2  -9    8.01    1.22
 -15  -3   9    5.10    0.76
  13  -3  -9   17.43    0.83
 -13  -3   9   15.38    1.09
  11  -3  -9    6.13    0.62
 -11  -3   9    6.14    0.73
 -11   3   9    5.40    0.44
  -9  -3   9   26.98    1.32
   9  -3  -9   28.35    1.24
  -9  -3   9   28.95    2.34
   9  -3  -9   28.07    1.74
  -9   3   9   27.34    1.05
  -9   3   9   31.96    2.30
   9   3  -9   24.90    1.06
   7  -3  -9    8.26    0.79
  -7  -3   9    7.12    0.60
  -7  -3   9    7.66    0.80
  -7   3   9    7.91    1.11
  -7   3   9    6.88    0.67
  -7   3   9    9.01    0.69
   5  -3  -9   32.99    1.43
  -5  -3   9   29.63    1.99
  -5  -3   9   33.38    1.36
   5   3  -9   31.81    1.39
  -5   3   9   35.68    1.41
  -5   3   9   33.09    1.80
  -5   3   9   33.30    1.35
  -3  -3   9    4.24    0.85
  -3  -3   9    5.65    0.79
   3  -3  -9    6.56    1.04
   3   3  -9    7.47    0.87
  -3   3   9    7.95    1.08
  -3   3   9    6.28    0.79
  -3   3   9    7.43    0.82
  -1  -3   9   18.86    1.56
  -1  -3   9   18.51    1.47
   1  -3  -9   21.59    1.27
   1   3  -9   19.60    1.27
  -1   3   9   21.42    1.46
  -1   3   9   20.52    1.21
  -1   3   9   22.26    1.24
   1  -3   9   10.53    1.03
  -1  -3  -9   12.56    1.15
   1  -3   9   12.85    1.37
   1  -3   9   13.60    1.20
   1   3   9   12.91    1.22
  -1   3  -9   13.71    1.23
   1   3   9   10.89    1.37
   1   3   9   12.97    1.09
   3  -3   9   13.53    1.42
  -3  -3  -9   12.32    1.23
   3  -3   9   15.13    1.31
   3   3   9   13.40    1.24
   3   3   9   14.58    1.26
  -3   3  -9   14.99    1.38
   3   3   9   16.18    1.21
   5  -3   9   10.65    1.22
   5  -3   9    6.96    1.21
  -5  -3  -9    8.71    1.18
  -5   3  -9   10.16    1.33
   5   3   9    8.33    1.17
 -14  -4   9    2.47    0.58
 -12  -4   9   10.64    0.92
 -10  -4   9   10.49    0.89
 -10   4   9   11.53    0.75
   8  -4  -9   10.48    0.86
   8  -4  -9   10.00    1.67
  -8  -4   9    8.31    0.89
  -8   4   9    9.69    0.86
  -8   4   9    9.20    0.65
   6  -4  -9   12.24    0.92
  -6  -4   9    9.94    0.79
   6  -4  -9   12.17    1.24
  -6  -4   9   11.45    0.97
  -6   4   9   11.44    1.29
   6   4  -9   11.77    0.88
  -6   4   9   11.23    0.82
  -6   4   9   11.65    0.81
   4  -4  -9   14.68    1.09
   4  -4  -9   13.08    1.22
  -4  -4   9   10.70    0.94
  -4  -4   9   12.89    1.85
   4   4  -9   12.41    1.00
  -4   4   9   14.38    0.97
  -4   4   9   13.45    1.29
  -4   4   9   15.82    0.97
  -2  -4   9   16.57    1.19
   2  -4  -9   19.23    1.17
  -2  -4   9   16.66    1.71
  -2   4   9   16.75    1.11
  -2   4   9   16.52    1.39
   2   4  -9   16.71    1.20
  -2   4   9   18.25    1.11
   0  -4   9    5.42    1.12
   0  -4  -9    7.07    0.99
   0  -4   9    6.09    0.86
   0   4   9    7.11    1.00
   0   4  -9    5.47    0.86
   0   4   9    6.45    1.00
   0   4   9    7.26    0.93
   2  -4   9   16.87    1.69
  -2  -4  -9   18.66    1.33
   2  -4   9   15.81    1.69
   2   4   9   19.43    1.47
   2   4   9   18.55    1.37
   2   4   9   20.03    1.32
  -2   4  -9   18.32    1.56
  -4  -4  -9    3.00    0.74
   4  -4   9    3.56    0.77
   4  -4   9    4.09    1.08
   4   4   9    4.65    0.87
   4   4   9    3.15    0.73
   4   4   9    2.48    0.72
  -4   4  -9    2.72    0.87
 -11  -5   9    2.62    0.59
  11  -5  -9    2.83    0.52
  -9  -5   9    9.66    1.00
  -9  -5   9   11.29    0.60
  -7  -5   9    2.32    0.65
   7  -5  -9    3.34    0.71
  -7   5   9    3.32    0.49
   5  -5  -9   15.37    1.48
  -5  -5   9   13.30    1.15
   5  -5  -9   15.41    1.06
  -5   5   9   16.62    0.95
  -5   5   9   15.49    0.99
   3  -5  -9    2.82    0.68
   3  -5  -9    2.82    0.64
   3   5  -9    2.96    0.65
  -3   5   9    3.10    0.60
  -3   5   9    3.17    0.55
  -3   5   9    2.55    0.86
  -1  -5   9    8.00    1.16
   1  -5  -9    7.76    1.05
   1  -5  -9   10.62    1.20
  -1   5   9    8.20    1.26
   1   5  -9    8.80    1.14
  -1   5   9    8.29    0.92
   1  -5   9    6.62    0.94
  -1  -5  -9    8.36    1.06
  -1   5  -9    5.86    1.00
   1   5   9    7.50    1.20
   1   5   9    7.07    0.95
   1   5   9    5.49    0.84
   3  -5   9    7.67    1.17
  -3  -5  -9    9.53    1.19
  -3   5  -9    6.20    1.07
   3   5   9    7.60    1.17
   3   5   9    7.41    1.14
   3   5   9    7.02    1.10
 -10  -6   9    9.34    0.83
 -10  -6   9    7.09    1.19
  -8  -6   9    9.75    1.16
  -6  -6   9   10.07    1.20
  -6   6   9   10.61    0.80
   4  -6  -9   11.31    1.14
  -4  -6   9    9.64    1.23
  -4   6   9   11.93    0.92
   2  -6  -9   14.26    1.18
  -2   6   9   12.72    1.41
  -2   6   9   13.76    1.02
   0  -6  -9    4.89    0.80
   0  -6  -9    5.95    0.89
   0   6   9    7.95    0.95
   0   6   9    5.30    0.77
   0   6   9    5.60    1.20
 -10   0  10    5.44    0.74
 -10   0  10    4.86    0.67
  -8   0  10   12.37    0.93
  -6   0  10    5.28    0.77
  -4   0  10   15.03    1.05
  -2   0  10    7.09    0.90
   0   0 -10   14.33    1.86
   0   0  10   10.40    1.04
  -2   0 -10    8.39    1.15
 -11  -1  10    2.70    0.61
  -9  -1  10    7.21    0.84
  -9  -1  10    6.71    0.74
  -9   1  10    8.81    0.78
  -7  -1  10    3.73    0.60
  -7   1  10    5.55    0.83
  -5  -1  10   11.52    0.98
  -5   1  10   13.70    1.02
  -3  -1  10    1.92    0.55
  -3   1  10    2.17    0.59
  -1  -1  10   14.38    1.12
  -1   1  10   11.94    1.09
  -1  -1 -10    1.53    0.82
   1   1  10    2.05    0.70
 -10  -2  10    2.87    0.56
 -10  -2  10    3.74    0.62
  -8  -2  10    7.82    0.83
  -8  -2  10    8.09    1.05
  -8   2  10   10.05    0.82
  -6  -2  10    2.00    0.54
  -6   2  10    2.50    0.54
  -4  -2  10    9.08    0.95
  -4   2  10    8.53    0.92
  -2  -2  10    2.14    0.51
  -2   2  10    2.88    0.61
   0   2  10    9.18    1.04
  -9  -3  10    7.89    0.89
  -7  -3  10    6.18    0.83
  -7   3  10    6.41    0.74
  -5   3  10   15.93    1.04
  -3  -3  10    5.95    0.92
  -3   3  10    4.91    0.71
  -1   3  10   12.04    1.07
   0   0   0    0.00    0.00
;
_shelx_hkl_checksum              18613
loop_
_space_group_symop_operation_xyz
'x, y, z'
'-x, y, -z'
'x+1/2, y+1/2, z'
'-x+1/2, y+1/2, -z'
'-x, -y, -z'
'x, -y, z'
'-x+1/2, -y+1/2, -z'
'x+1/2, -y+1/2, z'
loop_
_atom_site_label
_atom_site_type_symbol
_atom_site_fract_x
_atom_site_fract_y
_atom_site_fract_z
_atom_site_U_iso_or_equiv
_atom_site_adp_type
_atom_site_occupancy
_atom_site_site_symmetry_order
_atom_site_calc_flag
_atom_site_refinement_flags_posn
_atom_site_refinement_flags_adp
_atom_site_refinement_flags_occupancy
C1 C 0.6106(2) 0.8657(4) 0.6218(5) 0.0516(7) Uani 1 1 d . . .
H1 H 0.5965 0.7747 0.6781 0.062 Uiso 1 1 calc R U .
C2 C 0.6510(2) 0.8624(4) 0.4621(5) 0.0471(6) Uani 1 1 d . . .
H2 H 0.6636 0.7699 0.4069 0.056 Uiso 1 1 calc R U .
C3 C 0.6725(2) 1.0000 0.3856(6) 0.0417(8) Uani 1 2 d S T P
N1 N 0.5915(2) 1.0000 0.6961(5) 0.0486(8) Uani 1 2 d S T P
HN1 H 0.5659 1.0000 0.7956 0.058 Uiso 1 2 calc R U P
O1 O 0.4674(2) 0.5000 0.2293(4) 0.0427(6) Uani 1 2 d S T P
Cl1 Cl 0.5000 0.19473(9) 0.0000 0.04197(19) Uani 1 2 d S T P
Cl2 Cl 0.66055(6) 0.5000 0.19177(18) 0.0487(2) Uani 1 2 d S T P
Br1 Br 0.73326(3) 1.0000 0.17896(7) 0.06295(14) Uani 1 2 d S T P
Pu1 Pu 0.5000 0.5000 0.0000 0.02245(7) Uani 1 4 d S T P
loop_
_atom_site_aniso_label
_atom_site_aniso_U_11
_atom_site_aniso_U_22
_atom_site_aniso_U_33
_atom_site_aniso_U_23
_atom_site_aniso_U_13
_atom_site_aniso_U_12
C1 0.0520(16) 0.0520(17) 0.0509(16) 0.0065(13) 0.0110(13) -0.0044(13)
C2 0.0466(14) 0.0459(15) 0.0483(14) -0.0066(12) 0.0088(12) -0.0006(12)
C3 0.0358(17) 0.058(2) 0.0305(15) 0.000 0.0044(13) 0.000
N1 0.0497(19) 0.061(2) 0.0374(16) 0.000 0.0143(15) 0.000
O1 0.0537(16) 0.0414(14) 0.0384(13) 0.000 0.0217(12) 0.000
Cl1 0.0555(5) 0.0229(3) 0.0505(5) 0.000 0.0179(4) 0.000
Cl2 0.0367(4) 0.0489(5) 0.0565(6) 0.000 0.0000(4) 0.000
Br1 0.0502(2) 0.0975(4) 0.0446(2) 0.000 0.01774(19) 0.000
Pu1 0.02768(9) 0.01748(8) 0.02337(9) 0.000 0.00803(6) 0.000
loop_
_atom_type_symbol
_atom_type_description
_atom_type_scat_dispersion_real
_atom_type_scat_dispersion_imag
_atom_type_scat_source
C C 0.0015 0.0009 'International Tables Vol C Tables 4.2.6.8 and 6.1.1.4'
H H 0.0000 0.0000 'International Tables Vol C Tables 4.2.6.8 and 6.1.1.4'
N N 0.0030 0.0019 'International Tables Vol C Tables 4.2.6.8 and 6.1.1.4'
O O 0.0056 0.0036 'International Tables Vol C Tables 4.2.6.8 and 6.1.1.4'
Cl Cl 0.0998 0.0984 'International Tables Vol C Tables 4.2.6.8 and 6.1.1.4'
Br Br 0.1811 1.6452 'International Tables Vol C Tables 4.2.6.8 and 6.1.1.4'
Pu Pu -13.5905 6.9468 'International Tables Vol C Tables 4.2.6.8 and 6.1.1.4'
loop_
_geom_angle_atom_site_label_1
_geom_angle_atom_site_label_2
_geom_angle_atom_site_label_3
_geom_angle
_geom_angle_site_symmetry_1
_geom_angle_site_symmetry_3
N1 C1 C2 119.9(3) . .
N1 C1 H1 120.1 . .
C2 C1 H1 120.1 . .
C1 C2 C3 118.3(3) . .
C1 C2 H2 120.8 . .
C3 C2 H2 120.8 . .
C2 C3 C2 120.9(4) . 6_575
C2 C3 Br1 119.54(19) . .
C2 C3 Br1 119.54(19) 6_575 .
C1 N1 C1 122.6(4) . 6_575
C1 N1 HN1 118.7 . .
C1 N1 HN1 118.7 6_575 .
O1 Pu1 O1 180.0 5_665 .
O1 Pu1 Cl2 90.46(11) 5_665 5_665
O1 Pu1 Cl2 89.54(11) . 5_665
O1 Pu1 Cl2 89.54(11) 5_665 .
O1 Pu1 Cl2 90.46(11) . .
Cl2 Pu1 Cl2 180.0 5_665 .
O1 Pu1 Cl1 90.0 5_665 .
O1 Pu1 Cl1 90.0 . .
Cl2 Pu1 Cl1 90.0 5_665 .
Cl2 Pu1 Cl1 90.0 . .
O1 Pu1 Cl1 90.0 5_665 5_665
O1 Pu1 Cl1 90.0 . 5_665
Cl2 Pu1 Cl1 90.0 5_665 5_665
Cl2 Pu1 Cl1 90.0 . 5_665
Cl1 Pu1 Cl1 180.0 . 5_665
loop_
_geom_bond_atom_site_label_1
_geom_bond_atom_site_label_2
_geom_bond_distance
_geom_bond_site_symmetry_2
C1 N1 1.337(4) .
C1 C2 1.375(5) .
C1 H1 0.9300 .
C2 C3 1.381(4) .
C2 H2 0.9300 .
C3 C2 1.381(4) 6_575
C3 Br1 1.868(4) .
N1 C1 1.337(4) 6_575
N1 HN1 0.8600 .
O1 Pu1 1.740(3) .
Cl1 Pu1 2.6662(8) .
Cl2 Pu1 2.6495(10) .
Pu1 O1 1.740(3) 5_665
Pu1 Cl2 2.6495(10) 5_665
Pu1 Cl1 2.6663(8) 5_665
loop_
_geom_hbond_atom_site_label_D
_geom_hbond_atom_site_label_H
_geom_hbond_atom_site_label_A
_geom_hbond_distance_DH
_geom_hbond_distance_HA
_geom_hbond_distance_DA
_geom_hbond_angle_DHA
_geom_hbond_site_symmetry_A
C1 H1 Cl1 0.93 2.94 3.453(3) 116.0 5_666
C2 H2 Cl2 0.93 2.77 3.676(3) 166.0 .
N1 HN1 Cl1 0.86 2.56 3.251(3) 138.1 1_566
N1 HN1 Cl1 0.86 2.56 3.251(3) 138.1 5_666
C1 H1 Cl1 0.93 2.94 3.453(3) 116.0 5_666
C2 H2 Cl2 0.93 2.77 3.676(3) 166.0 .
N1 HN1 Cl1 0.86 2.56 3.251(3) 138.1 1_566
N1 HN1 Cl1 0.86 2.56 3.251(3) 138.1 5_666
loop_
_geom_torsion_atom_site_label_1
_geom_torsion_atom_site_label_2
_geom_torsion_atom_site_label_3
_geom_torsion_atom_site_label_4
_geom_torsion
_geom_torsion_site_symmetry_4
N1 C1 C2 C3 1.4(5) .
C1 C2 C3 C2 -2.6(6) 6_575
C1 C2 C3 Br1 176.3(3) .
C2 C1 N1 C1 -0.4(7) 6_575
