#------------------------------------------------------------------------------
#$Date: 2017-07-27 01:34:31 +0300 (Thu, 27 Jul 2017) $
#$Revision: 199346 $
#$URL: file:///home/coder/svn-repositories/cod/cif/4/12/63/4126315.cif $
#------------------------------------------------------------------------------
#
# This file is available in the Crystallography Open Database (COD),
# http://www.crystallography.net/
#
# All data on this site have been placed in the public domain by the
# contributors.
#
data_4126315
loop_
_publ_author_name
'Surbella, Robert G.'
'Ducati, Lucas Colucci'
'Pellegrini, Kristi L.'
'McNamara, Bruce K.'
'Autschbach, Jochen'
'Schwantes, Jon Michael'
'Cahill, Christopher L.'
_publ_section_title
;
 Transuranic Hybrid Materials: Crystallographic and Computational Metrics
 of Supramolecular Assembly.
;
_journal_name_full               'Journal of the American Chemical Society'
_journal_paper_doi               10.1021/jacs.7b05689
_journal_year                    2017
_chemical_formula_moiety         '(C5 H5 N Cl 1+)2, (Pu O2 Cl4 2-)'
_chemical_formula_sum            'C10 H10 Cl6 N2 O2 Pu'
_chemical_formula_weight         644.90
_space_group_crystal_system      monoclinic
_space_group_IT_number           12
_space_group_name_Hall           '-C 2y'
_space_group_name_H-M_alt        'C 1 2/m 1'
_symmetry_cell_setting           monoclinic
_symmetry_Int_Tables_number      12
_symmetry_space_group_name_Hall  '-C 2y'
_symmetry_space_group_name_H-M   'C 1 2/m 1'
_atom_sites_solution_hydrogens   mixed
_audit_creation_method           SHELXL-2014/7
_cell_angle_alpha                90
_cell_angle_beta                 105.384(2)
_cell_angle_gamma                90
_cell_formula_units_Z            2
_cell_length_a                   15.8025(11)
_cell_length_b                   6.7045(5)
_cell_length_c                   9.1106(6)
_cell_measurement_reflns_used    6592
_cell_measurement_temperature    296(2)
_cell_measurement_theta_max      55.313
_cell_measurement_theta_min      4.796
_cell_volume                     930.66(11)
_computing_cell_refinement       'SAINT, Bruker-AXS'
_computing_data_collection       'APEX, Bruker-AXS'
_computing_data_reduction        'SAINT, Bruker-AXS'
_computing_molecular_graphics    'WINGX (Farrugia, 2012)'
_computing_publication_material  'Crystal Maker (Palmer, 2009)'
_computing_structure_refinement  'SHELXL-2014/7 (Sheldrick, 2014)'
_computing_structure_solution    'SIR92 (Gualardi, 1994)'
_diffrn_ambient_temperature      296(2)
_diffrn_measured_fraction_theta_full 0.998
_diffrn_measured_fraction_theta_max 0.994
_diffrn_measurement_device_type  'Bruker D8 Venture, Photon CCD'
_diffrn_measurement_method       'Omega and Phi Scans'
_diffrn_radiation_probe          x-ray
_diffrn_radiation_type           AgK\a
_diffrn_radiation_wavelength     0.56086
_diffrn_reflns_av_R_equivalents  0.0396
_diffrn_reflns_av_unetI/netI     0.0296
_diffrn_reflns_Laue_measured_fraction_full 0.998
_diffrn_reflns_Laue_measured_fraction_max 0.994
_diffrn_reflns_limit_h_max       26
_diffrn_reflns_limit_h_min       -23
_diffrn_reflns_limit_k_max       11
_diffrn_reflns_limit_k_min       -10
_diffrn_reflns_limit_l_max       14
_diffrn_reflns_limit_l_min       -15
_diffrn_reflns_number            12508
_diffrn_reflns_point_group_measured_fraction_full 0.998
_diffrn_reflns_point_group_measured_fraction_max 0.994
_diffrn_reflns_theta_full        25.500
_diffrn_reflns_theta_max         27.936
_diffrn_reflns_theta_min         2.110
_diffrn_source                   'Silver microfocus'
_exptl_absorpt_coefficient_mu    5.348
_exptl_absorpt_correction_T_max  0.7456
_exptl_absorpt_correction_T_min  0.4087
_exptl_absorpt_correction_type   multi-scan
_exptl_absorpt_process_details   'Krause et. al 2015'
_exptl_crystal_colour            Yellow-Orange
_exptl_crystal_density_diffrn    2.301
_exptl_crystal_description       Prismatic
_exptl_crystal_F_000             592
_exptl_crystal_recrystallization_method 'Acidic (HCl) aqueous evaporation'
_exptl_crystal_size_max          0.253
_exptl_crystal_size_mid          0.088
_exptl_crystal_size_min          0.062
_refine_diff_density_max         1.016
_refine_diff_density_min         -1.299
_refine_diff_density_rms         0.137
_refine_ls_extinction_method     none
_refine_ls_goodness_of_fit_ref   1.082
_refine_ls_hydrogen_treatment    mixed
_refine_ls_matrix_type           full
_refine_ls_number_parameters     67
_refine_ls_number_reflns         2407
_refine_ls_number_restraints     1
_refine_ls_restrained_S_all      1.082
_refine_ls_R_factor_all          0.0412
_refine_ls_R_factor_gt           0.0322
_refine_ls_shift/su_max          0.000
_refine_ls_shift/su_mean         0.000
_refine_ls_structure_factor_coef Fsqd
_refine_ls_weighting_details
'w=1/[\s^2^(Fo^2^)+(0.0285P)^2^+1.5201P] where P=(Fo^2^+2Fc^2^)/3'
_refine_ls_weighting_scheme      calc
_refine_ls_wR_factor_gt          0.0671
_refine_ls_wR_factor_ref         0.0697
_reflns_Friedel_coverage         0.000
_reflns_number_gt                2138
_reflns_number_total             2407
_reflns_threshold_expression     'I > 2\s(I)'
_cod_data_source_file            ja7b05689_si_002.cif
_cod_data_source_block           Compound_10
_cod_original_sg_symbol_H-M      'C 2/m'
_cod_database_code               4126315
_shelx_shelxl_version_number     2014/7
_shelx_space_group_comment
;
The symmetry employed for this shelxl refinement is uniquely defined
by the following loop, which should always be used as a source of
symmetry information in preference to the above space-group names.
They are only intended as comments.
;
_shelx_estimated_absorpt_t_min   0.345
_shelx_estimated_absorpt_t_max   0.733
_shelx_res_file
;

    shelx.res created by SHELXL-2014/7

TITL SIR92 run in space group C 2/m
CELL  0.56086  15.8025   6.7045   9.1106   90.000  105.384   90.000
ZERR     2.00   0.0011   0.0005   0.0006    0.000    0.002    0.000
LATT   7
SYMM  - X,   Y, - Z
SFAC  C    H    N    O    CL   PU
UNIT  20 20 4 4 12 2
MERG   2
OMIT     0   0   1
EADP Cl1a Cl1b
DFIX 0.86 0.02 HN1 N1
EQIV $1 x-1/2, y-1/2, z-1
HTAB C4 Cl2_$1
EQIV $2 x-1/2, y-1/2, z
HTAB C5 Cl1A_$2
EQIV $3 -x+3/2, -y+1/2, -z
HTAB C5 Cl1A_$3
HTAB C5 Cl1B_$2
HTAB C5 Cl1B_$3
EQIV $4 -x+3/2, y-1/2, -z
HTAB C5 Cl1B_$4
EQIV $5 x-1/2, -y+1/2, z
HTAB C5 Cl1B_$5
HTAB N1 Cl2_$2
HTAB N1 Cl1A_$2
HTAB C4 Cl2_$1
HTAB C5 Cl1A_$2
HTAB C5 Cl1A_$3
HTAB C5 Cl1B_$2
HTAB C5 Cl1B_$3
HTAB C5 Cl1B_$4
HTAB C5 Cl1B_$5
HTAB N1 Cl2_$2
HTAB N1 Cl1A_$2
FMAP   2
PLAN    5
SIZE     0.062   0.088   0.253
ACTA    51.00
BOND   $H
CONF
L.S.  24
TEMP    23.00
WGHT    0.028500    1.520100
FVAR       0.12939   0.49142
C1    1    0.815528    0.000000    0.305697    10.50000    0.08228    0.06741 =
         0.05027    0.00000   -0.00030    0.00000
AFIX  43
H1    2    0.842159    0.000000    0.409802    10.50000   -1.20000
AFIX   0
C2    1    0.866275    0.000000    0.205232    10.50000    0.04677    0.06699 =
         0.06374    0.00000   -0.00540    0.00000
AFIX  43
H2    2    0.927219    0.000000    0.238932    10.50000   -1.20000
AFIX   0
C3    1    0.823799    0.000000    0.052511    10.50000    0.03848    0.05214 =
         0.05730    0.00000    0.00965    0.00000
C4    1    0.732982    0.000000    0.000628    10.50000    0.03752    0.06517 =
         0.05056    0.00000    0.00849    0.00000
AFIX  43
H4    2    0.704895    0.000000   -0.102926    10.50000   -1.20000
AFIX   0
C5    1    0.686030    0.000000    0.107634    10.50000    0.04172    0.06562 =
         0.06265    0.00000    0.01519    0.00000
AFIX  43
H5    2    0.625013    0.000000    0.076826    10.50000   -1.20000
AFIX   0
N1    3    0.727501    0.000000    0.255320    10.50000    0.07671    0.05937 =
         0.05822    0.00000    0.02757    0.00000
O1    4    1.000000    0.241661    0.500000    10.50000    0.06009    0.05693 =
         0.09590    0.00000   -0.00213    0.00000
CL2   5    1.175843    0.500000    0.568867    10.50000    0.03801    0.09312 =
         0.04637    0.00000    0.00610    0.00000
CL3   5    0.883691    0.000000   -0.077980    10.50000    0.05490    0.11360 =
         0.09659    0.00000    0.03850    0.00000
PU1   6    1.000000    0.500000    0.500000    10.25000    0.02982    0.04698 =
         0.03182    0.00000    0.00352    0.00000
PART    1
CL1A  5    0.992568    0.500000    0.207712    20.50000    0.04504
PART    2
CL1B  5    0.994638    0.576161    0.211894   -20.50000    0.04504
PART    0
HN1   2    0.688178    0.000000    0.307905    10.50000   -1.20000
HKLF    4

REM  SIR92 run in space group C 2/m
REM R1 =  0.0322 for    2138 Fo > 4sig(Fo)  and  0.0412 for all    2407 data
REM     67 parameters refined using      1 restraints

END

WGHT      0.0282      1.5314

REM Highest difference peak  1.016,  deepest hole -1.299,  1-sigma level  0.137
Q1    1   1.0000  0.3658  0.5000  10.50000  0.05    1.02
Q2    1   0.9987  0.6725  0.2388  11.00000  0.05    0.67
Q3    1   0.9787  0.0000  0.3757  10.50000  0.05    0.50
Q4    1   0.7231  0.0000  0.0741  10.50000  0.05    0.46
Q5    1   0.9595  0.5541  0.3390  11.00000  0.05    0.42
;
_shelx_res_checksum              32132
_shelx_hkl_file
;
  -2   0   0  241.45    8.19
  -4   0   0  407.38   13.56
   4   0   0  411.33   13.39
   4   0   0  408.45   13.58
   6   0   0  790.12   26.46
  -6   0   0  820.27   26.47
   6   0   0  820.33   26.39
  -8   0   0  329.99   10.72
   8   0   0  318.51   10.69
 -10   0   0  283.76    9.40
  10   0   0  277.84    9.36
 -12   0   0  163.47    5.51
  12   0   0  149.71    5.55
  12   0   0  156.61    5.45
 -14   0   0   31.96    1.54
  14   0   0   30.12    1.47
  14   0   0   29.58    1.61
  16   0   0   74.64    3.22
  16   0   0   81.83    3.12
  18   0   0   44.12    2.29
  18   0   0   44.73    2.11
  20   0   0    6.23    1.19
  20   0   0    5.89    0.98
  22   0   0   12.08    1.28
  22   0   0   12.17    1.53
  24   0   0    3.78    1.25
  24   0   0    6.99    1.60
   1  -1   0  399.30   14.76
  -1  -1   0  450.30   14.65
   1   1   0  454.66   14.48
  -1   1   0  457.50   14.50
  -3  -1   0  521.23   16.87
   3  -1   0  502.55   16.92
   3  -1   0  514.46   16.95
  -3   1   0  497.97   17.03
   3   1   0  520.87   17.02
  -3   1   0  516.52   16.98
  -5  -1   0 1000.00   31.44
   5  -1   0  829.37   31.91
   5  -1   0  975.48   31.23
  -5   1   0  918.67   31.21
  -5   1   0  985.91   31.30
   5   1   0  994.84   31.52
  -7  -1   0  184.16    6.11
   7  -1   0  179.86    6.07
  -7   1   0  182.28    6.08
   7   1   0  177.82    6.08
   9  -1   0  125.57    4.61
  -9  -1   0  134.96    4.61
   9  -1   0  128.54    4.55
   9   1   0  134.18    4.56
  -9   1   0  135.41    4.58
  11  -1   0  179.70    6.60
  11  -1   0  188.62    6.53
 -11  -1   0  198.52    6.62
  11   1   0  190.21    6.55
 -11   1   0  200.21    6.58
 -13  -1   0  133.31    4.85
  13  -1   0  123.31    4.81
  13  -1   0  129.49    4.72
 -13   1   0  136.12    4.78
  13   1   0  140.82    4.82
  13   1   0  134.90    4.75
  15  -1   0   32.70    1.77
  15  -1   0   35.24    1.65
 -15  -1   0   34.90    1.72
  15   1   0   34.88    1.65
 -15   1   0   32.85    1.63
  17  -1   0   41.18    1.91
  17  -1   0   37.46    2.00
  17   1   0   36.78    1.88
  19  -1   0   10.93    1.22
  19  -1   0   10.96    1.11
  19   1   0   10.67    1.31
  19   1   0   10.32    1.09
  21  -1   0   13.39    1.42
  21  -1   0   11.68    1.27
  21   1   0   10.44    1.47
  21   1   0   11.04    1.22
  23  -1   0    7.59    1.41
  23  -1   0    7.59    1.24
  23   1   0    8.91    1.55
  23   1   0    8.58    1.16
  25  -1   0    3.13    1.44
  25   1   0    0.16    1.31
   2  -2   0   56.90    1.98
  -2  -2   0   54.43    2.02
   2  -2   0   56.56    2.01
  -2   2   0   56.96    1.98
   2   2   0   53.75    2.05
   4  -2   0  131.20    4.43
   4  -2   0  129.83    4.42
  -4  -2   0  130.17    4.52
  -4   2   0  133.44    4.45
  -4   2   0  132.99    4.43
   4   2   0  130.58    4.50
   6  -2   0  342.10   11.38
   6  -2   0  344.21   11.38
  -6  -2   0  352.76   11.48
  -6   2   0  349.89   11.38
   6   2   0  349.22   11.44
  -6   2   0  338.51   11.41
  -8  -2   0  145.10    5.01
   8  -2   0  140.38    4.94
   8  -2   0  143.75    4.92
  -8   2   0  138.44    4.75
   8   2   0  147.82    4.97
  -8   2   0  145.34    4.93
  -8   2   0  141.82    4.97
  10  -2   0  144.78    5.17
 -10  -2   0  152.67    5.25
  10  -2   0  145.02    5.14
  10   2   0  149.37    5.17
 -10   2   0  149.02    5.15
  12  -2   0   86.92    3.28
  12  -2   0   86.73    3.33
  12   2   0   89.68    3.31
  14  -2   0   14.64    1.10
 -14  -2   0   15.49    1.11
  14  -2   0   15.48    1.04
 -14   2   0   15.59    1.04
  14   2   0   15.53    1.07
  16  -2   0   51.05    2.37
  16  -2   0   50.94    2.88
  16   2   0   51.30    2.33
  16   2   0   54.10    2.26
  18  -2   0   27.90    1.61
  18  -2   0   27.76    1.76
  18   2   0   29.16    1.41
  18   2   0   28.59    1.66
  20  -2   0    2.23    0.80
  20  -2   0    4.28    0.98
 -20  -2   0    3.94    0.99
  20   2   0    3.41    0.85
  22  -2   0    8.60    1.44
  22  -2   0    9.88    1.27
  22   2   0    9.38    1.28
  22   2   0    7.84    1.41
  24  -2   0    2.46    1.19
  24  -2   0    2.40    1.09
  24   2   0    2.21    1.05
  24   2   0    2.88    1.28
   1  -3   0  197.42    6.45
  -1  -3   0  167.48    6.60
   1  -3   0  183.46    6.67
  -1   3   0  211.23    6.53
   1   3   0  189.72    6.55
   1   3   0  198.45    6.45
   1   3   0  196.24    6.52
  -1   3   0  203.26    6.46
  -3  -3   0  210.26    7.29
   3  -3   0  214.36    7.21
   3  -3   0  219.14    7.30
  -3   3   0  227.79    7.25
   3   3   0  203.26    7.33
   3   3   0  222.76    7.34
  -3   3   0  219.24    7.22
  -5  -3   0  385.67   12.89
   5  -3   0  383.87   12.76
   5  -3   0  386.45   12.76
  -5   3   0  395.78   12.80
  -5   3   0  392.18   12.77
   5   3   0  386.22   12.88
   7  -3   0   87.14    3.15
  -7  -3   0   88.42    3.32
   7  -3   0   85.76    3.17
  -7   3   0   91.32    3.23
   7   3   0   88.79    3.27
  -7   3   0   88.30    3.18
   9  -3   0   66.36    2.59
  -9  -3   0   66.17    2.73
   9  -3   0   70.50    2.59
  -9   3   0   69.88    2.65
  -9   3   0   70.64    2.60
   9   3   0   66.76    2.64
  11  -3   0   96.68    3.59
  11  -3   0   96.94    3.58
  11   3   0   98.72    3.65
 -11   3   0   93.84    3.34
 -11   3   0  100.55    3.67
  13  -3   0   69.25    2.74
 -13  -3   0   68.23    2.90
  13  -3   0   66.84    2.78
  13   3   0   70.13    2.78
 -13   3   0   69.61    2.74
  15  -3   0   18.00    1.23
 -15  -3   0   16.43    1.33
  15  -3   0   17.64    1.18
  15   3   0   19.38    1.28
 -15   3   0   18.52    1.43
  17  -3   0   20.89    1.36
  17  -3   0   21.34    1.75
  17   3   0   21.05    1.44
  19  -3   0    7.28    1.03
 -19  -3   0    7.26    1.12
  19  -3   0    6.25    1.02
  19   3   0    8.07    1.12
  19   3   0    7.62    1.08
  21  -3   0    9.00    1.22
  21  -3   0    8.36    1.31
  21   3   0    7.36    0.94
  21   3   0    7.91    1.15
  23  -3   0    4.93    1.24
  23  -3   0    4.93    1.09
  23   3   0    2.62    1.07
   0  -4   0  424.10   16.27
   0   4   0  516.74   16.14
   0   4   0  517.55   16.04
   0   4   0  499.08   16.11
   2  -4   0   54.41    2.50
   2  -4   0   61.96    2.31
  -2  -4   0   61.52    2.37
  -2   4   0   64.94    2.36
   2   4   0   63.16    2.31
   2   4   0   62.07    2.44
   2   4   0   61.71    2.43
  -2   4   0   65.61    2.33
  -4  -4   0   89.02    3.46
   4  -4   0   91.76    3.48
   4  -4   0   94.94    3.37
   4   4   0   92.35    3.54
   4   4   0   94.42    3.52
  -4   4   0  101.13    3.43
  -4   4   0   97.26    3.39
   6  -4   0  158.60    5.60
   6  -4   0  163.18    5.59
  -6  -4   0  159.72    5.74
   6   4   0  158.96    5.72
  -6   4   0  165.55    5.61
  -6   4   0  166.64    5.64
  -8  -4   0   75.21    3.03
   8  -4   0   75.60    2.86
   8  -4   0   76.48    2.84
  -8   4   0   79.89    2.94
   8   4   0   72.81    2.96
  -8   4   0   74.94    2.86
 -10  -4   0   71.96    2.97
  10  -4   0   71.40    2.72
  10  -4   0   70.05    2.76
 -10   4   0   71.37    2.83
  10   4   0   71.93    2.86
 -10   4   0   67.71    2.78
 -12  -4   0   45.59    2.22
  12  -4   0   44.84    2.01
  12  -4   0   46.31    1.99
 -12   4   0   46.64    2.03
  12   4   0   45.13    2.08
 -12   4   0   45.01    2.07
 -12   4   0   42.74    1.76
 -14  -4   0   12.09    1.19
  14  -4   0   10.77    1.00
  14  -4   0    9.91    1.08
 -14   4   0   10.40    1.07
 -14   4   0    9.65    0.96
  14   4   0    9.61    1.07
 -14   4   0    9.41    0.66
  16  -4   0   23.99    1.55
  16   4   0   26.66    1.58
  18  -4   0   13.84    1.26
 -18  -4   0   15.25    1.45
  18  -4   0   13.89    1.45
 -18   4   0   13.69    1.25
  18   4   0   16.21    1.39
  20  -4   0    1.01    0.85
  20  -4   0    1.58    0.92
  20   4   0    1.30    0.85
  20   4   0    3.50    1.12
  22  -4   0    6.67    1.25
  22   4   0    5.36    1.12
  22   4   0    7.21    1.31
   1  -5   0   43.17    2.34
   1   5   0   53.54    2.07
  -1   5   0   52.21    2.14
   1   5   0   52.04    2.15
  -1   5   0   56.22    2.14
   1   5   0   51.54    2.19
  -1   5   0   52.49    2.07
   3  -5   0   54.64    2.19
   3  -5   0   50.40    2.42
  -3   5   0   58.02    2.22
   3   5   0   57.02    2.19
   3   5   0   55.18    2.34
  -3   5   0   56.05    2.20
   3   5   0   55.50    2.35
   5  -5   0   90.78    3.54
  -5  -5   0   88.57    3.49
   5  -5   0   88.43    3.35
  -5   5   0   98.17    3.43
   5   5   0   88.64    3.57
  -5   5   0   92.83    3.39
   5   5   0   90.89    3.55
  -7  -5   0   24.34    1.47
   7  -5   0   26.80    1.40
   7  -5   0   25.58    1.33
   7   5   0   26.61    1.57
  -7   5   0   27.02    1.40
  -7   5   0   26.23    1.34
   7   5   0   27.68    1.52
  -9  -5   0   26.21    1.53
   9  -5   0   23.89    1.32
   9  -5   0   24.48    1.32
   9   5   0   24.76    1.48
  -9   5   0   23.54    1.49
  -9   5   0   23.65    1.31
  11  -5   0   29.04    1.58
  11  -5   0   31.35    1.55
 -11  -5   0   28.87    1.74
 -11   5   0   29.60    1.59
 -11   5   0   29.37    1.54
  11   5   0   29.24    1.68
  13  -5   0   21.01    1.99
  13  -5   0   23.14    1.40
 -13   5   0   19.46    1.28
  13   5   0   21.02    1.45
 -13   5   0   21.05    1.39
 -13   5   0   19.66    1.09
  15  -5   0    7.22    1.00
  15  -5   0    7.19    1.05
 -15   5   0    6.81    0.97
  15   5   0    7.58    1.10
 -15   5   0    6.01    0.67
 -15   5   0    8.45    1.10
 -17  -5   0    6.74    1.31
  17  -5   0    8.92    1.21
  17  -5   0    9.60    1.25
  17   5   0   10.66    1.53
 -17   5   0    6.83    1.02
  19  -5   0    3.84    0.97
  19  -5   0    2.35    0.96
  19   5   0    4.60    1.02
  21  -5   0    3.59    1.05
  21  -5   0    0.85    1.01
  21   5   0    1.88    1.01
  21   5   0    3.96    1.43
   0  -6   0   63.72    3.28
   0   6   0   81.42    3.10
   0   6   0   79.75    2.92
   0   6   0   75.23    3.26
   2  -6   0    6.59    1.18
   2   6   0   11.91    0.95
  -2   6   0   10.24    0.85
   2   6   0    9.67    0.82
   2   6   0   10.17    1.06
  -2   6   0   10.16    0.94
   4  -6   0   18.45    1.14
   4  -6   0   18.17    1.48
   4   6   0   16.62    1.28
   4   6   0   19.37    1.11
  -4   6   0   19.30    1.14
  -4   6   0   17.98    1.14
  -6  -6   0   29.26    1.63
   6  -6   0   32.93    1.81
   6  -6   0   29.46    1.53
   6   6   0   30.28    1.73
  -6   6   0   30.12    1.55
  -6   6   0   31.53    1.60
   8  -6   0   15.69    1.14
   8  -6   0   15.39    1.21
  -8  -6   0   13.67    1.19
   8   6   0   16.34    1.34
  -8   6   0   14.04    1.06
  -8   6   0   13.86    1.11
   8   6   0   16.15    1.33
  10  -6   0   14.65    1.19
  10  -6   0   16.10    1.30
 -10   6   0   15.04    1.16
 -10   6   0   14.89    1.20
  10   6   0   14.51    1.42
  12  -6   0   12.61    1.35
  12  -6   0   12.91    1.30
  12   6   0   13.49    1.34
 -12   6   0   10.51    1.01
 -12   6   0    9.43    1.10
  14  -6   0    3.75    1.00
 -14  -6   0    3.49    1.44
  14  -6   0    3.32    0.84
  14   6   0    2.08    0.86
 -14   6   0    5.04    1.03
 -14   6   0    3.05    0.73
 -14   6   0    2.79    0.74
 -16  -6   0    9.45    1.53
  16  -6   0    7.67    1.17
  16  -6   0    8.84    1.39
  16   6   0    7.86    1.23
 -16   6   0    7.40    1.11
 -16   6   0    7.77    1.28
 -16   6   0    5.72    0.85
  18  -6   0    3.95    1.03
  18  -6   0    4.33    1.01
  18   6   0    1.83    0.96
  20  -6   0    1.80    1.04
  20  -6   0    0.97    0.99
  20   6   0   -0.31    1.01
   1   7   0   15.51    1.29
  -1   7   0   16.01    1.13
   1   7   0   17.11    1.19
  -1   7   0   14.60    1.33
   1   7   0   13.33    1.29
  -1   7   0   13.90    1.07
   3  -7   0   13.60    1.64
  -3   7   0   15.02    1.11
  -3   7   0   15.14    1.27
  -3   7   0   13.63    1.07
   3   7   0   14.16    1.34
   3   7   0   15.25    1.11
   5  -7   0   19.98    1.38
   5  -7   0   22.26    1.77
   5   7   0   19.71    2.60
   5   7   0   19.55    1.42
   5   7   0   20.56    1.26
  -5   7   0   23.25    1.57
  -5   7   0   18.75    1.30
  -5   7   0   22.82    1.38
   7  -7   0    9.48    1.04
   7  -7   0    8.95    1.48
   7   7   0    8.85    1.18
   7   7   0    6.59    1.15
  -7   7   0    6.76    0.97
  -7   7   0    8.68    1.01
   7   7   0    9.01    1.00
   9  -7   0   11.39    1.52
   9  -7   0    8.75    1.15
  -9   7   0    7.88    1.06
   9   7   0    7.61    1.18
   9   7   0    8.36    1.26
  -9   7   0    6.40    0.98
  11  -7   0    8.45    1.14
  11  -7   0    9.74    1.42
 -11   7   0    6.19    1.08
 -11   7   0    6.14    0.93
  11   7   0    7.47    1.29
  11   7   0    7.22    1.28
  13  -7   0    7.46    1.13
 -13  -7   0    5.61    1.18
  13  -7   0    8.14    1.37
 -13   7   0    4.23    1.00
 -13   7   0    5.03    1.00
  15  -7   0    2.54    0.93
  15  -7   0    4.25    1.11
 -15   7   0    3.00    0.89
  15   7   0    1.95    1.03
 -15   7   0    0.90    0.87
  17  -7   0    1.25    0.96
  17  -7   0    4.22    1.21
  17   7   0    2.22    1.09
 -17   7   0    1.96    1.17
  19  -7   0    1.32    1.25
  19  -7   0    1.75    1.34
  19   7   0   -0.98    1.18
   0   8   0   14.78    1.20
   0   8   0   17.13    1.52
   0   8   0   18.14    1.32
   2  -8   0    1.88    1.55
  -2   8   0    3.26    0.71
   2   8   0    3.52    0.78
  -2   8   0    5.15    1.14
   2   8   0    3.90    0.80
  -2   8   0    3.85    0.77
   2   8   0    3.87    1.07
   4  -8   0    5.67    1.49
   4   8   0    5.98    1.01
  -4   8   0    6.13    0.93
  -4   8   0    5.90    0.92
   4   8   0    6.92    1.21
  -4   8   0    5.85    1.13
   4   8   0    6.53    1.00
   6  -8   0    8.08    1.53
  -6   8   0    8.49    1.12
  -6   8   0    9.49    1.43
   6   8   0    8.91    1.08
   6   8   0    9.19    1.38
  -6   8   0    7.76    1.10
   6   8   0    9.02    1.25
   8  -8   0    5.53    1.05
   8  -8   0    5.02    1.29
  -8   8   0    4.52    0.86
   8   8   0    5.50    1.15
   8   8   0    4.37    0.87
   8   8   0    4.95    1.21
  -8   8   0    4.32    0.89
 -10  -8   0    2.65    1.06
  10  -8   0    4.58    1.07
  10  -8   0    4.18    1.45
  10   8   0    3.80    0.89
 -10   8   0    2.84    0.87
  10   8   0    5.27    1.17
 -10   8   0    4.05    0.97
  10   8   0    3.35    1.14
  12  -8   0    3.13    1.22
  12  -8   0    3.75    1.00
  12   8   0    4.46    1.21
 -12   8   0    3.95    1.00
 -12   8   0    1.40    0.89
  14  -8   0    1.48    1.00
  14  -8   0    0.37    1.19
  14   8   0    2.24    1.29
  16  -8   0    1.09    1.31
  16  -8   0    0.89    1.17
  16   8   0    3.13    1.34
  -1   9   0    1.40    0.68
   1   9   0    1.29    0.81
   1   9   0    1.62    1.07
   1   9   0    2.41    0.72
  -1   9   0    3.09    0.80
  -1   9   0    2.97    1.13
   3  -9   0    2.25    1.63
   3   9   0    3.63    1.24
   3   9   0    2.20    0.92
  -3   9   0    3.72    1.16
  -3   9   0    2.49    0.84
  -3   9   0    1.95    0.73
   3   9   0    2.75    0.87
   5  -9   0    2.34    1.66
  -5   9   0    1.82    1.16
  -5   9   0    4.01    0.91
   5   9   0    1.97    0.96
   5   9   0    2.39    0.91
   5   9   0    5.17    1.29
  -5   9   0    1.67    0.74
   7  -9   0    4.21    1.52
  -7   9   0    0.21    0.80
   7   9   0    1.08    1.14
   7   9   0    3.16    0.88
  -7   9   0    1.35    0.92
  -7   9   0    2.26    1.22
   9  -9   0    0.72    1.07
   9  -9   0    0.91    1.52
  -9   9   0    1.60    0.94
   9   9   0    1.10    0.87
   9   9   0    1.90    1.23
  -9   9   0    3.34    1.31
  -9   9   0    2.62    1.14
  11  -9   0   -0.50    1.28
  11  -9   0   -0.55    0.95
  11   9   0    1.43    0.88
  11   9   0    3.81    1.41
  13  -9   0    2.54    1.20
  13  -9   0    2.93    1.59
  13   9   0   -1.90    0.97
  13   9   0   -1.49    1.37
  15  -9   0    2.36    1.60
  15  -9   0    0.55    1.47
   0  10   0    1.76    1.35
   0  10   0    1.58    0.91
  -2  10   0   -1.44    0.97
   2  10   0    1.71    1.36
   2  10   0    0.55    0.88
  -2  10   0    2.64    1.43
   4 -10   0   -2.32    1.86
   4  10   0    1.27    1.43
  -4  10   0    4.42    1.43
  -4  10   0    1.65    1.03
   6  10   0   -0.75    0.92
  -6  10   0   -1.11    1.28
   6  10   0    3.39    1.49
   8 -10   0    2.22    2.05
  -8  10   0   -1.67    1.42
   8  10   0    0.66    1.00
   8  10   0   -0.80    1.48
  10 -10   0    4.96    2.00
  10  10   0   -0.33    2.02
 -10  10   0    0.12    1.82
  10  10   0    1.82    1.35
  24   0  -1    8.02    1.36
  24   0  -1    8.25    1.29
  22   0  -1    8.37    1.23
  22   0  -1    8.55    1.28
  20   0  -1    9.98    1.32
  20   0  -1   10.69    1.14
  18   0  -1   24.26    1.69
  18   0  -1   26.82    1.53
 -16   0   1   39.11    1.88
  16   0  -1   36.27    1.89
  16   0  -1   38.65    1.86
  14   0  -1   70.99    3.01
  14   0  -1   78.81    2.84
 -14   0   1   79.34    3.05
  14   0  -1   75.86    2.96
  12   0  -1  194.95    6.56
  12   0  -1  191.98    6.72
 -12   0   1  201.06    6.77
 -10   0   1   68.45    2.57
  10   0  -1   68.10    2.40
  10   0  -1   67.76    2.55
  -8   0   1  182.84    6.16
   8   0  -1  175.92    6.15
   8   0  -1  188.21    6.06
   6   0  -1  580.08   19.40
   6   0  -1  617.94   19.47
  -6   0   1  561.13   19.30
  -6   0   1  613.53   19.74
   4   0  -1  419.48   13.79
   4   0  -1  431.62   13.96
  -4   0   1  423.76   13.94
  -4   0   1  423.23   14.10
   0   0   1   -0.67    0.02
   2   0   1  326.37   10.52
   2   0   1  306.68   10.73
  -2   0  -1  325.30   10.47
  -4   0  -1  552.88   18.05
   4   0   1  544.33   18.04
   6   0   1  372.84   12.32
   6   0   1  359.03   12.31
  -6   0  -1  390.77   12.24
   8   0   1   15.32    0.75
   8   0   1   14.32    0.83
  -8   0  -1   15.86    0.77
  10   0   1  141.76    5.02
 -10   0  -1  151.42    5.09
 -12   0  -1  108.66    3.84
  12   0   1  106.86    3.79
  12   0   1  100.14    3.93
  14   0   1   28.70    1.40
 -14   0  -1   28.51    1.45
 -16   0  -1   18.97    1.24
  16   0   1   19.37    1.40
  16   0   1   19.81    1.22
  18   0   1    9.88    1.02
  18   0   1   10.33    1.24
 -20   0  -1    7.29    1.10
  20   0   1    6.96    1.06
  20   0   1    7.88    1.25
  22   0   1    8.05    1.14
  22   0   1    7.38    1.31
  24   0   1    3.50    1.01
  24   0   1    2.66    1.26
  25  -1  -1    2.30    1.21
  25  -1  -1    0.40    1.18
  25   1  -1    1.42    1.12
  25   1  -1    3.52    1.25
  23  -1  -1    8.85    1.26
  23  -1  -1    7.14    1.22
  23   1  -1    8.27    1.36
  23   1  -1    7.00    1.17
  21  -1  -1    5.03    1.07
  21  -1  -1    4.44    0.95
  21   1  -1    7.35    1.26
  21   1  -1    5.57    0.99
  19  -1  -1   23.42    1.51
  19  -1  -1   22.25    1.61
  19   1  -1   23.89    1.53
  17  -1  -1   49.52    2.31
  17   1  -1   46.85    1.87
  15  -1  -1   24.56    1.32
 -15  -1   1   24.00    1.37
  15  -1  -1   22.78    1.38
  15   1  -1   24.93    1.15
  15   1  -1   21.76    1.30
 -15   1   1   24.10    1.33
  13  -1  -1   51.50    2.14
  13  -1  -1   48.32    2.16
  13   1  -1   50.62    2.15
  13   1  -1   54.95    2.09
  11  -1  -1  173.96    6.30
  11  -1  -1  180.92    6.28
 -11  -1   1  188.62    6.36
 -11   1   1  177.64    6.20
  11   1  -1  183.73    6.30
 -11   1   1  187.27    6.30
  11   1  -1  189.84    6.31
  -9  -1   1  133.61    4.53
   9  -1  -1  120.96    4.46
   9  -1  -1  129.05    4.46
  -9   1   1  130.13    4.36
   9   1  -1  127.98    4.54
  -9   1   1  133.01    4.48
   9   1  -1  125.68    4.48
   7  -1  -1  296.20    9.62
  -7  -1   1  297.47    9.78
   7  -1  -1  295.49    9.73
   7  -1  -1  275.70    9.71
  -7   1   1  294.75    9.63
   7   1  -1  295.76    9.76
  -7   1   1  306.74    9.74
   5  -1  -1  146.96    5.08
   5  -1  -1  144.65    5.18
  -5  -1   1  162.65    5.18
  -5   1   1  153.74    5.05
  -5   1   1  148.30    5.08
  -5   1   1  160.70    5.12
  -3  -1   1  164.84    5.56
   3  -1  -1  160.19    5.46
   3  -1  -1  173.39    5.52
   3   1  -1  164.01    5.55
  -3   1   1  168.82    5.46
  -3   1   1  171.30    5.49
  -3   1   1  164.40    5.49
  -1  -1   1  359.65   12.65
   1  -1  -1  352.89   12.51
   1  -1  -1  391.42   12.50
  -1  -1   1  392.93   12.42
  -1   1   1  391.47   12.47
  -1   1   1  364.71   12.52
   1   1  -1  409.57   12.67
   1   1  -1  373.99   12.47
  -1   1  -1  727.03   23.82
   3  -1   1   16.70    0.68
   3  -1   1   16.58    0.71
  -3  -1  -1   17.05    0.69
  -3   1  -1   16.88    0.73
  -3   1  -1   17.52    0.68
   3   1   1   16.66    0.67
   5  -1   1  170.19    5.67
  -5  -1  -1  174.19    5.69
   5  -1   1  167.50    5.73
  -5   1  -1  162.93    5.74
   5   1   1  174.38    5.66
  -5   1  -1  174.13    5.67
   7  -1   1  238.05    7.83
  -7  -1  -1  241.00    7.86
   7  -1   1  222.45    7.90
   7   1   1  239.44    7.82
  -7   1  -1  238.54    7.84
  -9  -1  -1   73.00    2.68
   9  -1   1   72.44    2.64
   9  -1   1   69.82    2.73
  -9   1  -1   74.21    2.66
   9   1   1   72.58    2.63
  11  -1   1   94.73    3.49
 -11  -1  -1   98.98    3.57
  11  -1   1   94.44    3.62
 -11   1  -1   99.34    3.54
  11   1   1   98.29    3.50
  13  -1   1   10.89    0.81
 -13  -1  -1   10.98    0.89
  13  -1   1   10.73    1.08
 -13   1  -1   12.58    0.84
  13   1   1   11.36    0.82
 -15  -1  -1   21.66    1.31
  15  -1   1   22.41    1.25
  15  -1   1   21.19    1.37
 -15   1  -1   22.00    1.26
  15   1   1   21.74    1.24
  17  -1   1   32.64    1.86
  17  -1   1   34.01    1.71
 -17  -1  -1   32.90    1.78
  17   1   1   32.61    1.95
  17   1   1   34.87    1.72
  19  -1   1    5.33    1.13
  19  -1   1    5.69    0.89
 -19  -1  -1    5.16    0.97
  19   1   1    4.89    1.10
  19   1   1    6.17    0.91
  21  -1   1    2.48    0.79
  21  -1   1    3.11    1.03
  21   1   1    3.40    0.80
  21   1   1    1.20    0.87
  23  -1   1    6.54    1.42
  23  -1   1    5.77    1.13
  23   1   1    6.32    1.10
  23   1   1    8.17    1.54
  24  -2  -1    5.29    1.34
  24  -2  -1    7.10    1.23
  24   2  -1    5.65    1.33
  24   2  -1    4.84    1.11
  22  -2  -1    8.45    1.34
  22  -2  -1    7.07    1.14
  22   2  -1    7.81    1.18
  20  -2  -1    7.72    1.16
  20  -2  -1    9.26    1.17
  20   2  -1    8.64    0.80
  20   2  -1    8.52    1.15
  18  -2  -1   18.84    1.34
  18  -2  -1   17.33    1.55
  18   2  -1   17.54    1.35
  18   2  -1   18.45    1.16
  16  -2  -1   24.47    1.48
  16  -2  -1   24.03    1.41
  16   2  -1   26.73    1.43
 -16   2   1   23.62    1.37
  16   2  -1   24.01    1.45
  14  -2  -1   43.85    2.04
 -14  -2   1   46.73    2.13
  14  -2  -1   45.16    2.02
  14   2  -1   48.44    2.14
  14   2  -1   45.69    2.06
 -14   2   1   48.67    2.05
 -12  -2   1  117.79    4.33
  12  -2  -1  114.29    4.18
  12  -2  -1  114.17    4.19
 -12   2   1  117.72    4.20
  12   2  -1  115.03    4.22
 -12   2   1  115.38    3.98
  10  -2  -1   34.93    1.48
 -10  -2   1   33.94    1.56
  10  -2  -1   32.04    1.44
 -10   2   1   33.09    1.29
 -10   2   1   33.99    1.46
  10   2  -1   31.86    1.50
  -8  -2   1   81.90    3.06
   8  -2  -1   80.01    2.93
   8  -2  -1   82.55    2.97
  -8   2   1   83.27    2.96
   8   2  -1   79.99    3.01
  -8   2   1   84.71    2.97
  -8   2   1   82.53    2.85
   6  -2  -1  265.03    8.76
  -6  -2   1  274.25    8.89
   6  -2  -1  259.61    8.71
  -6   2   1  268.76    8.75
   6   2  -1  260.56    8.84
  -6   2   1  257.50    8.73
  -4  -2   1  157.15    5.38
   4  -2  -1  156.03    5.22
   4  -2  -1  155.40    5.26
   4   2  -1  155.66    5.36
  -4   2   1  161.11    5.26
  -4   2   1  157.93    5.23
   2  -2  -1  187.34    6.35
  -2  -2   1  201.29    6.41
  -2  -2   1  167.63    6.44
   2  -2  -1  198.24    6.30
   2   2  -1  178.91    6.39
  -2   2   1  201.11    6.30
  -2   2   1  204.84    6.30
   2   2  -1  187.32    6.54
   0  -2  -1   66.07    2.23
   0   2   1   65.33    2.22
   0   2  -1   68.18    2.33
   0   2  -1   63.81    2.25
   0   2   1   60.31    2.28
   2  -2   1  106.12    3.66
  -2  -2  -1  108.07    3.68
   2  -2   1  105.25    3.69
  -2   2  -1  111.53    3.72
   2   2   1  108.62    3.70
  -2   2  -1  111.27    3.68
   4  -2   1  218.29    7.39
  -4  -2  -1  223.68    7.43
   4  -2   1  222.37    7.37
   4   2   1  218.92    7.39
  -4   2  -1  228.90    7.44
  -4   2  -1  225.02    7.38
  -6  -2  -1  171.86    5.76
   6  -2   1  162.69    5.71
   6  -2   1  165.63    5.68
  -6   2  -1  171.96    5.70
   6   2   1  172.80    5.71
   8  -2   1    4.34    0.44
   8  -2   1    4.37    0.50
  -8  -2  -1    5.64    0.54
   8   2   1    4.49    0.48
  -8   2  -1    5.12    0.47
  -8   2  -1    4.82    0.53
 -10  -2  -1   81.77    3.06
  10  -2   1   79.59    3.04
  10  -2   1   80.58    2.96
  10   2   1   80.49    2.96
 -10   2  -1   77.39    3.07
 -10   2  -1   83.23    2.99
  12  -2   1   60.72    2.49
 -12  -2  -1   54.84    2.66
  12  -2   1   59.45    2.39
  12   2   1   62.52    2.41
 -12   2  -1   64.24    2.44
 -14  -2  -1   18.91    1.20
  14  -2   1   18.28    1.12
  14  -2   1   17.92    1.22
 -14   2  -1   18.80    1.13
  14   2   1   18.17    1.11
  16  -2   1   13.00    1.18
 -16  -2  -1   11.28    1.07
  16  -2   1   12.27    1.06
  16   2   1   12.85    1.01
  18  -2   1    7.25    0.97
  18  -2   1    6.73    1.14
  18   2   1    6.63    0.97
  20  -2   1    6.47    1.27
 -20  -2  -1    6.02    1.14
  20  -2   1    6.15    0.98
  20   2   1    5.16    0.92
  20   2   1    6.73    1.30
  22  -2   1    4.24    1.06
  22  -2   1    4.95    0.99
  22   2   1    4.57    1.27
  22   2   1    4.53    0.95
  24  -2   1    2.03    1.24
  24   2   1    1.28    1.22
  24   2   1    0.50    0.98
  23  -3  -1    4.67    1.22
  23  -3  -1    2.40    1.00
  23   3  -1    4.24    1.09
  23   3  -1    5.16    0.90
  21  -3  -1    2.41    0.89
  21  -3  -1    3.36    0.93
  21   3  -1    3.51    0.90
  19  -3  -1   12.67    1.24
  19  -3  -1   13.27    1.31
  19   3  -1   12.60    1.31
  19   3  -1   15.13    1.30
 -19   3   1   12.18    1.15
  17  -3  -1   27.42    1.62
  17  -3  -1   27.49    1.64
 -17   3   1   28.05    1.57
  17   3  -1   28.19    1.78
  17   3  -1   30.21    1.73
  15  -3  -1   16.87    1.17
  15  -3  -1   16.54    1.18
 -15   3   1   17.84    1.15
  15   3  -1   15.99    1.24
  13  -3  -1   32.09    1.60
  13  -3  -1   32.74    1.57
 -13  -3   1   32.83    1.73
 -13   3   1   32.60    1.58
 -13   3   1   30.95    1.34
  13   3  -1   32.88    1.66
  11  -3  -1  100.69    3.72
  11  -3  -1  101.80    3.68
 -11  -3   1   99.32    4.10
  11   3  -1  100.99    3.80
 -11   3   1  104.09    3.74
 -11   3   1   98.76    3.52
 -11   3   1  103.79    3.73
   9  -3  -1   73.85    2.77
   9  -3  -1   73.64    2.72
  -9  -3   1   74.02    2.94
   9   3  -1   74.32    2.88
  -9   3   1   71.44    2.65
  -9   3   1   76.89    2.79
  -9   3   1   73.72    2.77
   7  -3  -1  155.77    5.36
   7  -3  -1  156.29    5.42
  -7  -3   1  156.78    5.59
  -7   3   1  162.68    5.41
  -7   3   1  160.66    5.42
   7   3  -1  156.52    5.54
   5  -3  -1  102.30    3.64
   5  -3  -1  103.75    3.63
  -5  -3   1  104.60    3.81
  -5   3   1  106.85    3.63
   5   3  -1  103.86    3.79
  -5   3   1  106.31    3.65
   3  -3  -1  114.13    3.90
   3  -3  -1  107.58    3.99
  -3  -3   1  115.71    4.04
   3   3  -1  107.13    4.03
   3   3  -1  116.93    4.06
  -3   3   1  120.92    3.91
  -3   3   1  114.45    3.90
  -1  -3   1  203.28    6.70
  -1  -3   1  177.28    6.83
   1  -3  -1  175.09    6.74
  -1   3   1  206.13    6.61
  -1   3   1  209.14    6.68
   1   3  -1  205.26    6.65
   1   3  -1  206.25    6.74
   1   3  -1  208.15    6.74
   1  -3   1  320.96   11.12
   1  -3   1  326.00   10.96
  -1   3  -1  358.08   11.05
  -1   3  -1  334.41   11.01
   1   3   1  311.07   11.04
   1   3   1  331.57   11.00
  -1   3  -1  344.12   10.98
   1   3   1  343.49   10.93
   3  -3   1   33.14    1.35
   3  -3   1   33.59    1.41
  -3  -3  -1   34.04    1.40
  -3   3  -1   36.16    1.43
   3   3   1   34.87    1.44
  -3   3  -1   34.30    1.37
   5  -3   1  116.71    4.05
   5  -3   1  113.99    4.05
  -5  -3  -1  116.94    4.13
   5   3   1  114.67    4.11
  -5   3  -1  119.96    4.14
  -5   3  -1  118.73    4.06
   7  -3   1  132.37    4.78
  -7  -3  -1  139.29    4.90
   7  -3   1  135.32    4.77
   7   3   1  141.04    4.83
  -7   3  -1  143.67    4.89
  -7   3  -1  137.76    4.83
  -9  -3  -1   49.88    2.14
   9  -3   1   50.79    2.05
   9  -3   1   49.02    2.02
  -9   3  -1   53.23    2.15
  -9   3  -1   49.42    2.03
   9   3   1   52.02    2.05
 -11  -3  -1   53.10    2.71
  11  -3   1   60.95    2.45
  11  -3   1   61.35    2.42
 -11   3  -1   64.38    2.44
  11   3   1   63.01    2.43
 -11   3  -1   60.00    2.72
 -13  -3  -1   12.14    1.04
  13  -3   1   10.88    0.97
  13  -3   1   11.32    0.88
  13   3   1    9.69    0.91
 -13   3  -1   11.85    0.90
 -15  -3  -1   15.97    1.25
  15  -3   1   16.79    1.22
  15  -3   1   13.76    1.24
  15   3   1   14.95    1.24
  17  -3   1   22.98    1.44
  17  -3   1   20.43    1.50
  17   3   1   23.67    1.43
  19  -3   1    5.55    1.10
  19  -3   1    3.37    0.83
 -19  -3  -1    4.36    1.11
  19   3   1    4.47    0.88
  19   3   1    6.85    1.09
  21  -3   1    2.05    0.84
  21  -3   1    3.14    1.06
  21   3   1    1.64    0.76
  23  -3   1    4.78    1.22
  23  -3   1    3.34    1.09
  23   3   1    4.07    1.42
  23   3   1    2.90    1.00
  24  -4  -1    3.30    1.28
  22  -4  -1    4.16    1.11
  22  -4  -1    3.51    1.08
  22   4  -1    2.98    1.06
  20  -4  -1    5.44    1.10
  20  -4  -1    5.70    1.06
  20   4  -1    5.60    1.26
  20   4  -1    4.20    1.08
  18  -4  -1   10.98    1.32
  18  -4  -1   11.07    1.24
 -18   4   1   10.86    1.14
  18   4  -1    9.58    1.27
  16  -4  -1   14.78    1.24
  16  -4  -1   17.09    1.28
 -16   4   1   13.60    0.92
  16   4  -1   13.96    1.31
 -16   4   1   13.41    1.17
  14  -4  -1   26.85    1.48
  14  -4  -1   26.51    1.53
 -14   4   1   26.55    1.48
 -14   4   1   27.55    1.46
 -14   4   1   24.28    1.19
  14   4  -1   26.39    1.58
 -12  -4   1   60.64    2.72
  12  -4  -1   62.07    2.50
  12  -4  -1   62.93    2.44
 -12   4   1   56.98    2.29
 -12   4   1   60.08    2.48
  12   4  -1   59.64    2.60
 -10  -4   1   33.13    1.75
  10  -4  -1   32.25    1.53
  10  -4  -1   32.45    1.46
  10   4  -1   30.57    1.63
 -10   4   1   31.93    1.53
 -10   4   1   33.16    1.53
  -8  -4   1   62.90    2.67
   8  -4  -1   61.90    2.47
   8  -4  -1   64.11    2.44
  -8   4   1   64.27    2.47
   8   4  -1   63.19    2.64
  -8   4   1   66.87    2.49
   6  -4  -1  141.63    4.95
   6  -4  -1  144.69    4.92
  -6  -4   1  140.86    5.10
   6   4  -1  143.32    5.11
  -6   4   1  141.66    4.90
  -6   4   1  139.70    4.91
   6   4  -1  137.86    5.12
   4  -4  -1  104.84    4.05
   4  -4  -1  112.27    3.92
  -4  -4   1  111.98    4.07
  -4   4   1  112.41    3.92
   4   4  -1  114.59    4.11
   4   4  -1  105.77    4.07
  -4   4   1  119.37    3.93
   2  -4  -1  148.23    4.87
   2  -4  -1  123.97    5.06
  -2  -4   1  136.93    4.95
   2   4  -1  142.73    5.00
  -2   4   1  144.02    4.85
   2   4  -1  140.89    5.00
   2   4  -1  140.56    4.88
  -2   4   1  154.22    4.91
   0  -4   1   75.76    3.43
   0   4  -1   94.90    3.29
   0   4   1   92.83    3.16
   0   4   1   89.11    3.23
   0   4  -1   91.72    3.20
   0   4   1   90.21    3.26
   0   4  -1   89.25    3.28
   2  -4   1   99.88    3.91
   2  -4   1  103.07    3.72
   2   4   1  105.72    3.81
  -2   4  -1  105.53    3.73
   2   4   1  105.55    3.68
   2   4   1  100.33    3.82
  -2   4  -1  118.26    3.82
   4  -4   1  140.47    5.06
  -4  -4  -1  138.13    5.02
   4  -4   1  140.59    4.96
  -4   4  -1  147.15    5.01
   4   4   1  143.97    5.09
  -4   4  -1  153.72    5.07
   6  -4   1  108.88    3.99
   6  -4   1  110.60    3.98
  -6  -4  -1  108.48    4.07
  -6   4  -1  118.26    4.10
  -6   4  -1  112.57    4.00
   6   4   1  112.29    4.08
   8  -4   1   18.18    1.04
  -8  -4  -1   17.77    1.15
   8  -4   1   17.95    1.03
  -8   4  -1   19.26    1.08
  -8   4  -1   19.88    1.15
   8   4   1   20.15    1.13
  10  -4   1   58.31    2.30
 -10  -4  -1   53.15    2.41
  10  -4   1   55.71    2.28
 -10   4  -1   57.05    2.41
  10   4   1   53.82    2.30
 -10   4  -1   56.97    2.31
  12  -4   1   36.91    1.79
 -12  -4  -1   39.31    1.95
  12  -4   1   39.64    1.82
  12   4   1   35.66    1.81
 -12   4  -1   38.55    1.92
 -12   4  -1   41.01    1.82
 -14  -4  -1   15.02    1.33
  14  -4   1   18.00    1.20
  14  -4   1   17.07    1.24
 -14   4  -1   17.58    1.33
  16  -4   1   11.44    1.21
  16  -4   1   10.32    1.12
  16   4   1   10.42    1.10
  18  -4   1    5.25    0.96
  18  -4   1    6.09    1.04
 -18  -4  -1    6.32    1.14
  18   4   1    6.01    1.10
  20  -4   1    3.06    0.94
  20  -4   1    3.57    1.11
  20   4   1    4.15    1.18
  20   4   1    5.20    0.96
  22  -4   1    2.85    1.13
  22  -4   1    3.10    1.07
  22   4   1    3.21    1.00
  22   4   1    3.80    1.24
  23  -5  -1    0.96    1.07
  23   5  -1   -0.04    1.48
  21  -5  -1    1.80    1.00
  21  -5  -1    1.77    0.98
  21   5  -1    1.67    1.10
  21   5  -1    3.95    1.84
  19  -5  -1    5.28    1.06
  19  -5  -1    4.41    1.01
  19   5  -1    8.48    1.33
  17  -5  -1   11.16    1.24
  17  -5  -1   10.17    1.27
 -17   5   1   11.01    0.92
 -17   5   1    9.86    1.10
  17   5  -1   10.23    1.29
  15  -5  -1    6.60    0.97
  15  -5  -1    8.37    1.05
 -15   5   1    7.44    1.06
 -15   5   1    8.01    0.76
  15   5  -1    8.00    1.16
 -15   5   1    7.66    0.97
  13  -5  -1   14.96    1.12
  13  -5  -1   13.91    1.18
 -13   5   1   13.66    1.10
 -13   5   1   10.63    1.05
 -13   5   1   12.41    0.91
  13   5  -1   14.54    1.55
  11  -5  -1   38.03    1.75
  11  -5  -1   34.41    1.70
 -11  -5   1   30.63    1.86
 -11   5   1   32.85    1.65
  11   5  -1   34.34    1.88
 -11   5   1   34.28    1.70
   9  -5  -1   26.53    1.48
   9  -5  -1   26.59    1.35
  -9  -5   1   25.82    1.52
  -9   5   1   22.18    1.44
   9   5  -1   24.19    1.51
  -9   5   1   27.45    1.41
   9   5  -1   26.96    1.62
   7  -5  -1   50.80    2.20
   7  -5  -1   51.35    2.11
  -7  -5   1   49.80    2.31
   7   5  -1   52.13    2.37
   7   5  -1   51.29    2.34
  -7   5   1   50.99    2.12
  -7   5   1   52.24    2.12
  -5  -5   1   38.64    1.86
   5  -5  -1   38.69    1.91
   5  -5  -1   40.77    1.72
   5   5  -1   39.78    1.92
   5   5  -1   38.36    1.89
  -5   5   1   42.05    1.72
  -5   5   1   40.58    1.72
  -3  -5   1   39.47    1.80
   3  -5  -1   40.35    1.71
   3  -5  -1   34.04    1.94
   3   5  -1   42.89    1.93
  -3   5   1   40.65    1.70
   3   5  -1   41.74    1.73
  -3   5   1   43.05    1.72
  -1   5   1   63.91    2.42
   1   5  -1   67.72    2.55
   1   5  -1   61.74    2.44
  -1   5   1   61.75    2.49
  -1   5   1   63.44    2.47
   1   5  -1   61.99    2.58
   1  -5   1   79.92    3.70
  -1   5  -1   95.02    3.42
  -1   5  -1   99.26    3.48
   1   5   1   96.41    3.39
  -1   5  -1   92.58    3.49
   1   5   1   93.20    3.50
   1   5   1   96.23    3.51
   3  -5   1   18.97    1.06
   3  -5   1   19.52    1.30
   3   5   1   18.86    1.01
   3   5   1   19.19    1.17
   3   5   1   21.10    1.22
  -3   5  -1   20.54    1.13
  -3   5  -1   19.45    1.09
  -5  -5  -1   40.67    1.92
   5  -5   1   40.28    1.83
   5  -5   1   43.27    1.97
   5   5   1   44.12    2.05
   5   5   1   44.05    2.01
  -5   5  -1   46.48    1.96
  -5   5  -1   44.12    1.88
  -7  -5  -1   45.17    2.09
   7  -5   1   48.44    2.06
   7  -5   1   47.20    2.02
  -7   5  -1   46.48    2.13
   7   5   1   46.97    2.14
  -7   5  -1   47.40    2.02
   9  -5   1   21.56    1.23
  -9  -5  -1   18.13    1.28
   9  -5   1   20.68    1.21
  -9   5  -1   22.06    1.33
   9   5   1   20.00    1.29
  -9   5  -1   20.22    1.24
  11  -5   1   26.49    1.47
  11  -5   1   28.25    1.47
 -11  -5  -1   27.08    1.61
 -11   5  -1   26.13    1.54
 -11   5  -1   25.47    1.43
  11   5   1   26.45    1.52
  13  -5   1    6.68    1.14
  13  -5   1    6.30    0.98
 -13  -5  -1    7.44    1.14
 -13   5  -1    7.60    1.01
  13   5   1    7.76    1.01
 -13   5  -1    7.63    0.91
  15  -5   1    8.22    1.03
  15  -5   1   10.49    1.16
  15   5   1    7.97    1.07
 -15   5  -1    8.11    1.19
  17  -5   1    9.75    1.33
  17  -5   1    9.36    1.14
 -17  -5  -1   12.79    1.58
 -17   5  -1    9.38    1.24
  17   5   1    8.12    1.25
  19  -5   1    3.43    0.94
  19  -5   1    2.82    1.05
  19   5   1    2.02    0.87
  21  -5   1   -0.81    0.96
  21  -5   1    0.16    0.92
  21   5   1    1.76    1.00
  20  -6  -1    1.61    1.04
  20  -6  -1    3.03    1.05
  20   6  -1    0.93    1.06
  18  -6  -1    3.77    1.06
  18  -6  -1    2.90    0.97
  18   6  -1    3.38    1.07
 -18   6   1    3.08    0.86
  16  -6  -1    5.67    1.03
  16  -6  -1    5.35    1.03
 -16   6   1    4.94    0.96
 -16   6   1    3.19    0.83
 -16   6   1    3.65    0.87
  16   6  -1    5.38    1.09
  14  -6  -1    7.46    1.07
 -14   6   1    6.23    0.93
 -14   6   1    7.15    1.06
 -14   6   1    6.41    0.88
  14   6  -1    7.57    1.22
  12  -6  -1   15.62    1.30
  12  -6  -1   15.16    1.82
 -12   6   1   14.48    1.16
 -12   6   1   15.23    1.18
  12   6  -1   13.90    1.41
  10  -6  -1    9.27    1.04
  10  -6  -1   11.06    1.12
 -10   6   1    8.17    0.97
 -10   6   1    8.71    0.92
   8  -6  -1   16.46    1.33
  -8  -6   1   14.27    1.20
   8  -6  -1   15.76    1.11
   8   6  -1   15.71    1.29
   8   6  -1   14.79    1.32
  -8   6   1   15.17    1.08
  -8   6   1   14.13    1.07
  -6  -6   1   26.71    1.50
   6  -6  -1   25.20    1.66
   6  -6  -1   27.32    1.39
   6   6  -1   26.68    1.65
  -6   6   1   20.68    1.90
  -6   6   1   24.89    1.58
   6   6  -1   26.04    1.57
   4  -6  -1   21.26    1.21
   4  -6  -1   19.80    1.53
  -4   6   1   21.62    1.21
   4   6  -1   24.05    1.49
   4   6  -1   21.26    1.35
  -4   6   1   21.88    1.20
   4   6  -1   21.75    1.24
   2  -6  -1   23.63    1.72
  -2   6   1   28.63    1.51
  -2   6   1   32.05    1.48
   2   6  -1   31.07    1.56
  -2   6   1   30.12    1.44
   2   6  -1   28.74    1.45
   2   6  -1   27.78    1.62
   0  -6   1   15.86    1.51
   0   6  -1   20.98    1.22
   0   6  -1   20.00    1.30
   0   6   1   18.89    1.09
   0   6   1   20.27    1.21
   0   6  -1   19.16    1.14
   0   6   1   18.58    1.26
   2  -6   1   22.07    1.61
  -2   6  -1   23.94    1.27
   2   6   1   21.94    1.18
  -2   6  -1   22.55    1.38
  -2   6  -1   21.54    1.25
   2   6   1   21.67    1.55
   2   6   1   22.80    1.41
   4  -6   1   29.08    1.47
   4  -6   1   28.55    1.78
  -4   6  -1   29.23    1.57
   4   6   1   29.05    1.66
  -4   6  -1   29.71    1.52
   4   6   1   29.11    1.40
  -4   6  -1   28.93    1.51
   4   6   1   27.59    1.61
  -6  -6  -1   24.33    1.39
   6  -6   1   25.88    1.59
   6  -6   1   24.13    1.35
  -6   6  -1   25.67    1.48
   6   6   1   25.48    1.57
   6   6   1   24.78    1.29
  -6   6  -1   25.10    1.41
   6   6   1   22.13    1.53
   8  -6   1    8.81    1.03
   8  -6   1    6.73    0.85
  -8  -6  -1    6.63    0.93
  -8   6  -1    6.34    0.89
   8   6   1    6.85    1.11
  -8   6  -1    5.55    0.83
   8   6   1    6.03    0.97
 -10  -6  -1   14.82    1.25
  10  -6   1   18.27    1.36
  10   6   1   14.45    1.73
 -10   6  -1   15.88    1.15
 -10   6  -1   17.52    1.33
  12  -6   1   11.75    1.25
  12  -6   1   10.14    1.11
 -12   6  -1   11.28    1.19
 -12   6  -1    8.46    1.02
  12   6   1    8.72    1.14
 -14  -6  -1    7.08    1.15
  14  -6   1    7.51    1.08
  14  -6   1    6.28    1.13
 -14   6  -1    4.55    0.93
 -14   6  -1    5.79    1.07
  14   6   1    5.01    1.04
  16  -6   1    5.19    1.01
  16  -6   1    5.15    1.05
 -16   6  -1    4.21    0.74
 -16   6  -1    3.54    1.03
  16   6   1    2.95    0.92
  18  -6   1    2.95    0.96
  18  -6   1    0.93    0.96
  18   6   1    1.91    0.92
  20  -6   1    0.06    1.11
  20  -6   1    2.18    1.17
  20   6   1    0.13    1.04
  19  -7  -1    1.18    1.28
  19  -7  -1    3.18    1.20
  19   7  -1    2.68    1.27
  17  -7  -1    3.53    1.18
  17  -7  -1    2.69    1.09
  17   7  -1    6.06    1.75
 -17   7   1    2.00    0.98
 -17   7   1    1.93    1.08
  15  -7  -1    3.27    0.97
  15  -7  -1    2.62    0.99
 -15   7   1    2.71    0.97
 -15   7   1    3.12    0.92
 -15   7   1    0.87    0.83
  15   7  -1    3.35    1.07
  13  -7  -1    4.64    0.99
  13  -7  -1    5.39    1.13
 -13   7   1    3.67    0.93
  13   7  -1    5.61    1.26
 -13   7   1    6.81    1.29
  11  -7  -1   10.31    1.65
  11  -7  -1   10.81    1.20
  11   7  -1   10.06    1.40
 -11   7   1    8.99    1.09
 -11   7   1    8.87    1.13
   9  -7  -1    8.36    1.10
   9  -7  -1    9.72    1.42
  -9   7   1    8.39    1.02
   9   7  -1    7.33    1.28
  -9   7   1    7.99    1.07
   7  -7  -1   13.64    1.17
   7  -7  -1   14.27    1.57
  -7   7   1   12.58    1.14
   7   7  -1   13.53    1.49
  -7   7   1   14.46    1.18
   5  -7  -1   15.57    1.64
   5  -7  -1   11.44    1.11
   5   7  -1   14.25    1.10
   5   7  -1   12.64    1.73
  -5   7   1   13.35    1.11
  -5   7   1   12.17    1.02
   5   7  -1   14.43    1.25
   3  -7  -1   10.84    1.53
  -3   7   1   12.25    1.61
   3   7  -1   13.01    1.04
  -3   7   1   12.89    1.00
  -3   7   1   13.21    1.18
   3   7  -1   14.39    1.18
   3   7  -1   12.38    1.30
  -1   7   1   15.73    1.10
   1   7  -1   13.71    1.09
   1   7  -1   19.03    1.26
  -1   7   1   16.13    1.33
   1   7  -1   13.42    1.34
  -1   7   1   15.79    1.16
   1  -7   1   22.59    1.96
   1   7   1   25.87    1.47
  -1   7  -1   23.94    1.38
   1   7   1   22.64    1.60
   1   7   1   23.15    1.34
  -1   7  -1   24.54    1.42
  -1   7  -1   24.67    1.64
   3  -7   1    9.09    1.48
   3   7   1    9.95    1.21
  -3   7  -1    7.65    0.97
  -3   7  -1    7.71    1.07
  -3   7  -1    7.48    0.92
   3   7   1    8.80    0.87
   3   7   1    8.71    1.03
   5  -7   1   14.21    1.58
   5   7   1   14.95    1.28
  -5   7  -1   12.61    1.11
  -5   7  -1   13.27    1.16
  -5   7  -1   15.63    1.38
   5   7   1   14.31    1.05
   7  -7   1   14.43    1.68
   7   7   1   13.07    1.35
   7   7   1   11.15    1.22
  -7   7  -1   11.41    1.11
   7   7   1   12.93    1.05
  -7   7  -1   10.83    1.14
   9  -7   1    7.09    1.01
   9  -7   1    7.89    1.37
   9   7   1    7.90    1.57
  -9   7  -1    8.22    1.19
  -9   7  -1    6.28    0.92
   9   7   1    8.60    1.32
  11  -7   1   11.64    1.45
  11  -7   1    9.42    1.23
 -11  -7  -1    6.78    1.07
 -11   7  -1    8.39    1.03
  11   7   1    7.55    1.33
 -11   7  -1    7.66    1.23
  11   7   1    9.96    1.36
 -13  -7  -1    1.82    1.07
  13  -7   1    4.54    1.14
  13  -7   1    4.68    0.96
  13   7   1    1.89    0.94
 -13   7  -1    3.82    0.82
  13   7   1    3.61    1.11
 -13   7  -1    4.28    1.04
  15  -7   1    3.35    0.96
  15  -7   1    2.50    1.21
  15   7   1    1.29    0.93
  17  -7   1    3.99    1.22
  17  -7   1    3.16    1.13
  17   7   1    3.99    1.07
  19  -7   1    1.71    1.32
  19   7   1   -1.08    1.17
  18  -8  -1    1.54    1.42
  18  -8  -1    1.52    1.38
  16  -8  -1    2.73    1.29
  16  -8  -1    2.11    1.19
  16   8  -1   -2.59    1.90
 -16   8   1    1.04    1.09
  14  -8  -1    0.52    1.02
  14  -8  -1    3.33    1.31
 -14   8   1    2.14    0.95
  14   8  -1    2.53    1.27
  12  -8  -1    3.59    1.08
  12  -8  -1    4.35    1.26
  12   8  -1    5.67    1.33
 -12   8   1    4.04    0.94
 -12   8   1    2.42    0.89
  10  -8  -1    5.09    1.36
  10  -8  -1    2.60    0.97
  10   8  -1    3.60    1.20
  10   8  -1    3.33    1.02
 -10   8   1    4.95    0.94
 -10   8   1    3.30    0.89
   8  -8  -1    6.64    1.51
   8  -8  -1    5.41    1.02
  -8   8   1    4.60    0.89
  -8   8   1    4.77    0.90
   8   8  -1    4.40    1.21
   8   8  -1    3.51    0.95
   6  -8  -1    6.66    1.16
  -6   8   1    9.27    1.39
   6   8  -1    8.29    1.34
   6   8  -1    7.30    1.14
  -6   8   1   10.81    1.12
  -6   8   1    6.99    1.02
   6   8  -1    8.10    1.10
   4  -8  -1    5.33    1.67
  -4   8   1    7.58    1.17
   4   8  -1    8.44    1.12
   4   8  -1    6.45    1.23
   4   8  -1    6.64    0.97
  -4   8   1    6.22    0.87
  -4   8   1    5.28    0.87
   2   8  -1    9.22    1.05
  -2   8   1    9.08    1.06
  -2   8   1   10.32    1.26
   2   8  -1   10.64    1.12
   2   8  -1    9.52    1.47
  -2   8   1    8.38    1.00
   0  -8   1    4.54    2.09
   0   8  -1    6.72    0.98
   0   8   1    5.76    1.13
   0   8   1    7.44    1.02
   0   8  -1    8.37    1.33
   0   8  -1    6.57    0.96
   0   8   1    7.79    1.00
   2  -8   1    6.89    1.56
  -2   8  -1    5.85    0.92
   2   8   1    6.98    1.23
   2   8   1    6.15    0.91
  -2   8  -1    8.07    0.98
   2   8   1    7.75    1.12
  -2   8  -1    7.06    1.20
   4  -8   1    5.80    1.41
   4   8   1    8.90    1.09
   4   8   1    8.82    1.20
  -4   8  -1    6.84    1.03
   4   8   1    9.51    1.42
  -4   8  -1    7.80    1.27
  -4   8  -1    7.82    1.10
   6  -8   1    9.63    1.68
   6   8   1    7.07    1.29
   6   8   1    5.94    1.06
   6   8   1    7.81    1.30
  -6   8  -1    9.48    1.39
  -6   8  -1    7.39    1.16
  -6   8  -1    7.58    1.14
   8  -8   1    6.79    1.51
   8  -8   1    3.20    0.92
  -8   8  -1    5.86    1.23
   8   8   1    3.39    1.11
   8   8   1    3.20    0.96
  -8   8  -1    2.68    0.83
   8   8   1    4.83    1.07
  -8   8  -1    2.81    0.89
  10  -8   1    5.18    1.02
  10  -8   1    5.62    1.40
 -10  -8  -1    2.60    1.09
 -10   8  -1    4.59    1.08
  10   8   1    4.72    0.91
 -10   8  -1    2.02    0.84
  10   8   1    4.48    1.13
  12  -8   1    3.46    1.46
  12  -8   1    3.76    1.03
  12   8   1    3.65    1.18
  14  -8   1    0.47    0.97
  14  -8   1    0.77    1.17
  14   8   1    2.69    1.12
  16  -8   1    1.66    1.28
  16  -8   1   -0.27    1.11
  16   8   1    1.21    1.21
  15  -9  -1   -0.60    1.28
  15  -9  -1    3.87    1.70
  13  -9  -1    1.03    1.54
  13  -9  -1    0.24    1.19
  13   9  -1   -0.04    1.44
  13   9  -1    3.25    1.01
  11  -9  -1    3.56    1.49
  11  -9  -1    2.83    1.08
  11   9  -1   -0.64    1.22
  11   9  -1    2.02    0.97
 -11   9   1    2.12    1.15
   9  -9  -1    3.70    1.53
   9  -9  -1    1.34    1.04
  -9   9   1    0.77    0.83
   9   9  -1    2.35    1.18
  -9   9   1    1.72    0.91
   9   9  -1   -0.17    0.86
  -9   9   1    1.97    1.29
   7  -9  -1    0.95    1.49
   7   9  -1    3.12    1.36
  -7   9   1    0.70    0.79
  -7   9   1    1.89    1.19
  -7   9   1    3.89    0.91
   7   9  -1    3.84    0.95
   5  -9  -1    0.71    1.59
  -5   9   1    2.90    0.89
  -5   9   1    1.49    1.06
   5   9  -1    2.74    0.92
   5   9  -1    2.03    0.86
  -5   9   1    2.48    0.80
   5   9  -1    2.62    1.20
   3   9  -1    1.63    0.81
   3   9  -1    2.71    1.16
  -3   9   1    1.85    0.67
  -3   9   1    2.31    1.12
  -3   9   1    1.37    0.80
   3   9  -1    1.29    0.75
  -1   9   1    2.55    0.87
  -1   9   1    1.12    0.64
  -1   9   1    2.34    1.14
   1   9  -1    1.47    0.68
   1   9  -1    3.14    1.18
   1   9  -1    1.43    0.79
   1   9   1    1.93    0.85
   1   9   1    4.74    1.15
  -1   9  -1    4.89    1.27
  -1   9  -1    3.09    0.76
  -1   9  -1    2.75    0.85
   1   9   1    2.74    0.78
   3  -9   1   -0.50    1.55
  -3   9  -1    2.47    0.87
  -3   9  -1    0.05    0.64
   3   9   1    1.78    0.84
   3   9   1    1.21    0.78
   3   9   1    1.56    1.11
  -3   9  -1    1.22    1.10
   5  -9   1    4.09    1.55
   5   9   1    3.06    1.24
  -5   9  -1    1.18    0.87
   5   9   1    1.96    0.78
   5   9   1    0.91    0.83
  -5   9  -1    1.95    1.22
  -5   9  -1    1.96    0.87
   7  -9   1    1.76    1.40
  -7   9  -1    0.82    0.93
  -7   9  -1    1.61    1.29
   7   9   1    0.49    1.10
  -7   9  -1    1.94    0.95
   7   9   1    2.98    0.87
   9  -9   1    1.92    1.36
  -9   9  -1    4.94    1.44
   9   9   1   -0.11    1.15
   9   9   1    1.34    0.88
  11  -9   1    0.36    1.06
  11  -9   1    3.37    1.40
  11   9   1    0.04    0.88
  11   9   1    1.08    1.23
  13  -9   1    3.41    1.53
  13  -9   1    3.10    1.28
  13   9   1   -0.52    1.35
  10 -10  -1   -0.88    1.94
 -10  10   1    2.16    1.71
  10  10  -1   -0.60    1.09
  10  10  -1    1.70    2.03
   8 -10  -1    2.96    1.95
  -8  10   1    3.72    1.58
   8  10  -1    2.41    1.00
   8  10  -1    0.97    1.46
   6 -10  -1    1.49    1.81
   6  10  -1    0.64    0.99
  -6  10   1    2.65    1.09
  -6  10   1   -0.03    1.33
   6  10  -1    0.21    1.37
   4  10  -1   -0.78    1.40
  -4  10   1    2.09    1.40
  -4  10   1    0.20    0.94
   4  10  -1    0.50    0.95
  -2  10   1    2.30    0.92
   2  10  -1    0.62    1.41
   2  10  -1   -0.49    0.92
  -2  10   1    0.68    1.40
   0  10  -1    0.53    0.91
   0  10   1    2.50    1.41
   0  10   1    1.19    0.94
   0  10  -1    2.48    1.42
   2  10   1    1.52    1.25
  -2  10  -1   -0.23    0.99
  -2  10  -1    3.00    1.47
   2  10   1   -0.75    0.86
   4 -10   1    0.18    1.84
   4  10   1   -0.06    1.00
   4  10   1    0.93    1.43
  -4  10  -1    1.38    1.43
   6 -10   1    3.85    1.89
  -6  10  -1   -0.77    1.39
   6  10   1    2.72    0.94
   6  10   1    0.87    1.38
   8 -10   1    2.61    1.89
   8  10   1    0.20    1.01
  -8  10  -1    3.30    1.70
   8  10   1   -2.39    1.40
  10 -10   1    2.50    1.92
 -10  10  -1   -0.63    1.70
  -1  11   1   -0.34    1.66
   1  11   1    3.74    1.22
  26   0  -2    1.57    1.23
  24   0  -2    2.48    1.15
  24   0  -2    1.86    0.99
  22   0  -2    3.12    0.99
  22   0  -2    5.06    1.04
  20   0  -2    4.84    0.88
  20   0  -2    5.57    1.13
  18   0  -2   36.80    1.92
  18   0  -2   38.02    1.52
  18   0  -2   36.56    2.01
 -16   0   2   12.72    1.02
  16   0  -2   12.25    0.75
  16   0  -2   12.89    1.01
  16   0  -2   10.87    1.02
 -14   0   2    4.75    0.69
  14   0  -2    4.71    0.69
  14   0  -2    4.99    0.49
  12   0  -2  137.72    5.07
 -12   0   2  150.99    5.13
  12   0  -2  143.06    4.92
  10   0  -2   89.11    3.27
  10   0  -2   90.91    3.18
   8   0  -2  109.54    3.73
   8   0  -2  105.30    3.74
  -8   0   2  105.09    3.83
  -6   0   2  186.01    6.30
  -6   0   2  191.65    6.37
   6   0  -2  182.45    6.29
   6   0  -2  192.21    6.30
  -4   0   2   31.59    1.25
   4   0  -2   31.28    1.22
   4   0  -2   30.82    1.19
  -4   0   2   30.65    1.19
  -2   0   2  528.83   17.05
   2   0  -2  485.69   16.90
   2   0  -2  526.68   16.99
  -2   0   2  524.38   16.93
   0   0   2  476.22   15.56
   0   0  -2  451.15   15.32
   0   0   2  456.74   15.20
   0   0  -2  479.72   15.52
   2   0   2   20.52    0.72
  -2   0  -2   20.30    0.79
  -2   0  -2   20.19    0.73
  -2   0  -2   19.31    0.83
   2   0   2   19.51    0.83
   2   0   2   21.37    0.80
   4   0   2  247.96    8.10
   4   0   2  245.29    8.08
  -4   0  -2  259.67    8.09
   4   0   2  237.19    8.20
  -6   0  -2  246.43    7.81
   6   0   2  223.80    7.93
   6   0   2  239.39    7.78
  -8   0  -2   95.50    3.28
   8   0   2   91.12    3.24
  10   0   2  125.51    4.39
 -10   0  -2  134.14    4.46
  10   0   2  121.84    4.58
  12   0   2   39.30    1.63
  12   0   2   36.67    1.80
  14   0   2   18.79    1.27
  14   0   2   17.77    1.06
 -14   0  -2   19.62    1.12
 -16   0  -2   47.59    2.15
  18   0   2   12.45    1.35
  18   0   2   12.92    1.08
  20   0   2    3.82    1.11
  20   0   2    5.17    0.84
 -20   0  -2    4.19    0.92
  22   0   2    8.75    1.53
  22   0   2    7.37    1.08
  24   0   2    0.62    1.28
  24   0   2    2.57    1.16
  25  -1  -2   -0.07    1.04
  25  -1  -2    2.05    1.17
  25   1  -2    3.05    1.25
  25   1  -2    2.84    1.15
  23  -1  -2    7.27    1.26
  23  -1  -2    6.49    1.21
  23   1  -2    6.36    1.15
  23   1  -2    8.04    1.71
  21  -1  -2    3.76    0.89
  21  -1  -2    3.20    1.00
  21   1  -2    3.17    0.93
  21   1  -2    3.20    0.90
 -21   1   2    1.63    0.80
  21   1  -2    3.42    0.63
  19  -1  -2    4.73    0.90
  19  -1  -2    5.67    1.11
  19   1  -2    4.12    0.63
  19   1  -2    5.50    0.92
 -19   1   2    4.98    0.89
  17  -1  -2   19.62    1.29
  17  -1  -2   16.20    1.28
  17   1  -2   19.09    1.05
  17   1  -2   18.99    1.39
 -17   1   2   19.84    1.31
 -15  -1   2   18.71    1.23
  15  -1  -2   17.47    1.15
  15  -1  -2   18.03    1.17
  15   1  -2   18.17    1.04
 -15   1   2   18.49    1.15
  15   1  -2   17.94    1.19
  13  -1  -2   73.98    2.96
 -13  -1   2   77.49    3.08
  13  -1  -2   77.09    2.76
  13  -1  -2   77.60    2.98
  13   1  -2   84.13    2.96
  13   1  -2   76.45    2.99
 -13   1   2   81.74    3.02
 -13   1   2   69.86    2.97
  11  -1  -2   28.19    1.36
  11  -1  -2   30.92    1.25
 -11  -1   2   32.37    1.47
  11  -1  -2   30.61    1.41
  11   1  -2   30.46    1.43
 -11   1   2   32.21    1.43
  11   1  -2   31.21    1.44
 -11   1   2   30.00    1.37
   9  -1  -2    8.23    0.55
  -9  -1   2    8.71    0.65
   9  -1  -2    9.09    0.61
   9  -1  -2    8.48    0.52
   9   1  -2    8.04    0.68
   9   1  -2    7.52    0.61
  -9   1   2    8.40    0.59
  -9   1   2    7.49    0.54
   7  -1  -2  297.15   10.33
  -7  -1   2  317.87   10.36
   7   1  -2  313.99   10.43
   7   1  -2  312.32   10.33
  -7   1   2  314.41   10.28
  -7   1   2  311.86   10.24
   5  -1  -2  157.29    5.33
   5  -1  -2  160.59    5.41
   5  -1  -2  161.70    5.40
  -5  -1   2  160.67    5.47
  -5   1   2  168.68    5.41
   5   1  -2  158.87    5.62
  -5   1   2  163.46    5.40
   3  -1  -2   23.61    0.95
   3  -1  -2   23.69    0.90
   3   1  -2   22.67    1.08
  -3   1   2   24.75    0.90
   3   1  -2   21.98    0.95
  -3   1   2   24.18    0.95
  -1  -1   2  239.35    7.99
  -1  -1   2  233.74    7.99
   1   1  -2  253.92    8.16
  -1   1   2  246.34    7.99
  -1   1   2  244.30    7.91
   1   1  -2  232.11    8.10
   1   1  -2  249.15    8.00
   1  -1   2  101.37    3.49
  -1   1  -2  103.73    3.60
  -1   1  -2  104.63    3.46
  -1   1  -2  106.11    3.52
   1   1   2  102.72    3.38
   1   1   2  105.56    3.41
  -3  -1  -2  147.65    4.99
   3  -1   2  145.86    5.08
   3  -1   2  151.46    5.01
  -3   1  -2  153.77    5.02
   3   1   2  156.55    4.97
  -3   1  -2  150.58    5.12
  -3   1  -2  155.67    5.07
   5  -1   2  271.47    8.97
   5  -1   2  270.63    9.08
  -5  -1  -2  278.12    8.97
  -5   1  -2  268.54    9.11
   5   1   2  276.59    8.94
  -5   1  -2  275.84    8.98
   7  -1   2   23.49    1.00
  -7  -1  -2   24.51    1.02
   7  -1   2   23.90    1.13
  -7   1  -2   23.63    1.01
   7   1   2   23.97    0.98
  -7   1  -2   22.51    1.13
  -9  -1  -2   65.92    2.40
   9  -1   2   60.91    2.34
  -9   1  -2   63.86    2.38
   9   1   2   64.39    2.33
  11  -1   2  106.14    4.14
  11  -1   2  113.07    3.99
 -11  -1  -2  116.55    4.06
  11   1   2  113.27    3.98
 -11   1  -2  115.40    4.04
  13  -1   2   25.52    1.25
 -13  -1  -2   25.06    1.30
  13  -1   2   23.42    1.38
 -13   1  -2   25.75    1.28
  13   1   2   23.81    1.22
 -15  -1  -2   26.67    1.44
  15  -1   2   26.84    1.37
  15  -1   2   23.91    1.51
  15   1   2   24.21    1.59
 -15   1  -2   26.52    1.39
  15   1   2   26.72    1.36
  17  -1   2   18.18    1.22
  17  -1   2   16.78    1.40
 -17  -1  -2   18.68    1.33
  17   1   2   17.64    1.20
  17   1   2   16.58    1.46
  19  -1   2    5.09    1.10
  19  -1   2    3.96    0.78
 -19  -1  -2    4.83    0.96
 -19   1  -2    3.99    0.82
  19   1   2    4.80    0.83
  19   1   2    4.94    1.06
  21  -1   2   11.74    1.51
  21  -1   2   12.54    1.23
  21   1   2    8.60    1.51
  21   1   2   11.62    1.17
  23  -1   2    3.96    0.94
  23  -1   2    2.93    1.26
  23   1   2    2.25    0.93
  23   1   2    0.81    1.17
  24  -2  -2    1.66    1.08
  24  -2  -2    1.72    1.08
  24   2  -2    2.78    1.20
  24   2  -2    1.89    1.09
  22  -2  -2    4.12    1.07
  22  -2  -2    4.17    0.98
  22   2  -2    1.97    0.92
  22   2  -2    3.08    0.70
  20  -2  -2    4.55    0.96
  20  -2  -2    4.32    0.95
  20   2  -2    4.64    0.77
  20   2  -2    3.92    0.92
 -20   2   2    3.76    0.77
  18  -2  -2   27.93    1.67
  18  -2  -2   27.74    1.68
 -18   2   2   27.43    1.60
  18   2  -2   26.03    1.68
  18   2  -2   30.57    1.56
  16  -2  -2    8.84    0.97
  16  -2  -2    8.05    0.95
 -16  -2   2    8.25    1.05
  16   2  -2    9.01    0.97
 -16   2   2    8.85    0.88
  16   2  -2    8.52    1.02
 -16   2   2    6.64    0.93
 -14  -2   2    4.09    0.72
  14  -2  -2    4.28    0.70
  14  -2  -2    3.58    0.64
 -14   2   2    3.85    0.70
 -14   2   2    3.40    0.63
  14   2  -2    3.28    0.67
  14   2  -2    3.27    0.83
 -12  -2   2   91.55    3.49
  12  -2  -2   87.32    3.31
  12  -2  -2   87.34    3.35
  12   2  -2   93.48    3.58
  12   2  -2   90.23    3.42
 -12   2   2   92.97    3.37
 -12   2   2   86.83    3.21
  10  -2  -2   49.27    1.96
 -10  -2   2   47.50    2.05
  10  -2  -2   47.25    1.90
  10   2  -2   49.25    2.04
 -10   2   2   48.26    1.85
 -10   2   2   50.39    1.98
   8  -2  -2   51.81    1.98
   8  -2  -2   50.88    1.90
  -8  -2   2   51.47    2.10
  -8   2   2   51.13    1.91
  -8   2   2   53.21    1.98
  -8   2   2   49.38    1.91
   6  -2  -2   94.37    3.19
  -6  -2   2   91.37    3.40
   6  -2  -2   95.19    3.28
  -6   2   2   92.07    3.19
  -6   2   2   92.13    3.25
  -6   2   2   94.52    3.26
   4  -2  -2   10.11    0.53
   4  -2  -2   10.28    0.49
  -4  -2   2   10.27    0.66
  -4   2   2   10.08    0.46
  -4   2   2   10.61    0.53
   4   2  -2    9.28    0.62
  -2  -2   2  224.17    7.40
   2  -2  -2  230.70    7.26
   2  -2  -2  200.16    7.28
  -2  -2   2  204.28    7.44
  -2   2   2  231.35    7.25
  -2   2   2  230.29    7.26
   2   2  -2  225.51    7.39
   0  -2  -2  198.71    6.47
   0   2  -2  194.87    6.53
   0   2  -2  192.58    6.57
   0   2  -2  203.40    6.60
   0   2   2  196.38    6.45
   2  -2   2    4.92    0.35
  -2  -2  -2    4.68    0.31
   2  -2   2    4.78    0.36
   2   2   2    4.89    0.35
  -2   2  -2    4.85    0.36
  -2   2  -2    4.70    0.41
  -4  -2  -2  110.87    3.77
   4  -2   2  105.30    3.79
   4  -2   2  110.02    3.75
   4   2   2  108.91    3.73
  -4   2  -2  113.44    3.88
  -4   2  -2  111.62    3.77
   6  -2   2  115.78    4.00
  -6  -2  -2  118.17    4.06
   6  -2   2  112.62    4.07
   6   2   2  117.59    3.99
  -6   2  -2  120.00    4.03
  -6   2  -2  115.92    4.15
   8  -2   2   44.98    1.87
   8  -2   2   45.36    1.78
  -8  -2  -2   46.43    1.84
   8   2   2   46.57    1.77
  -8   2  -2   47.50    1.82
  -8   2  -2   45.03    1.94
  10  -2   2   71.45    2.86
  10  -2   2   73.28    2.75
 -10  -2  -2   73.93    2.82
 -10   2  -2   74.58    2.94
  10   2   2   75.09    2.73
 -10   2  -2   75.61    2.79
  12  -2   2   23.71    1.37
  12  -2   2   25.32    1.24
 -12  -2  -2   24.94    1.34
 -12   2  -2   25.82    1.28
  12   2   2   25.12    1.24
 -14  -2  -2   13.08    1.04
  14  -2   2   12.36    0.93
  14  -2   2   11.64    1.06
 -14   2  -2   13.92    0.99
  14   2   2   12.64    0.94
 -16  -2  -2   32.25    1.71
  16  -2   2   31.64    1.80
  16  -2   2   30.52    1.57
  16   2   2   29.25    1.63
  18  -2   2    9.62    0.98
 -18  -2  -2   10.68    1.42
  18  -2   2    8.78    1.18
  18   2   2    8.91    0.99
  18   2   2    8.40    1.29
 -18   2  -2   10.75    1.64
  20  -2   2    2.53    0.78
  20  -2   2    4.82    1.08
  20   2   2    3.51    1.02
  20   2   2    4.16    0.78
  22  -2   2    5.27    1.01
  22  -2   2    7.02    1.42
  22   2   2    4.49    0.91
  22   2   2    5.45    1.36
  25  -3  -2    0.34    1.05
  23  -3  -2    4.03    1.05
  23  -3  -2    6.31    1.21
  23   3  -2    3.88    1.12
  23   3  -2    5.60    1.01
  21  -3  -2    2.21    0.87
  21  -3  -2    2.79    0.98
  21   3  -2    2.38    0.93
  21   3  -2    5.08    0.95
  19  -3  -2    4.96    1.15
  19  -3  -2    4.48    0.86
  19   3  -2    5.70    1.02
 -19   3   2    4.44    0.80
  19   3  -2    7.23    1.17
  17  -3  -2   15.52    1.20
  17  -3  -2   14.08    1.22
  17   3  -2   13.61    1.38
 -17   3   2   15.46    1.18
 -17   3   2   15.16    1.12
  17   3  -2   17.85    1.37
 -15  -3   2   13.76    1.37
  15  -3  -2   13.39    1.56
  15  -3  -2   13.44    1.07
 -15   3   2   16.00    1.08
  15   3  -2   13.65    1.15
  15   3  -2   14.96    1.35
 -15   3   2   13.40    0.91
 -13  -3   2   53.66    2.43
  13  -3  -2   53.40    2.20
  13  -3  -2   53.67    2.27
  13   3  -2   52.06    2.35
 -13   3   2   52.15    2.08
 -13   3   2   56.05    2.28
  11  -3  -2   30.37    1.36
 -11  -3   2   30.66    1.64
  11  -3  -2   28.82    1.43
  11   3  -2   29.17    1.54
 -11   3   2   29.38    1.30
 -11   3   2   30.19    1.39
 -11   3   2   31.18    1.43
  -9  -3   2   14.98    1.07
   9  -3  -2   16.40    0.92
   9  -3  -2   15.47    0.82
   9   3  -2   15.91    1.04
  -9   3   2   16.65    0.90
  -9   3   2   16.42    0.86
  -9   3   2   16.67    0.85
  -7  -3   2  180.72    6.37
   7  -3  -2  178.17    6.16
   7  -3  -2  181.08    6.09
  -7   3   2  184.41    6.16
   7   3  -2  180.64    6.32
  -7   3   2  183.01    6.10
   5  -3  -2  114.83    4.00
  -5  -3   2  113.88    4.18
   5  -3  -2  117.30    4.01
  -5   3   2  118.58    3.94
   5   3  -2  116.87    4.19
  -5   3   2  117.59    4.00
   5   3  -2  111.77    4.16
   3  -3  -2   45.26    1.78
  -3  -3   2   47.90    1.89
  -3  -3   2   39.38    1.92
   3  -3  -2   42.92    1.84
   3   3  -2   46.83    1.88
   3   3  -2   47.82    1.92
  -3   3   2   49.03    1.73
  -3   3   2   50.01    1.71
   1  -3  -2  166.46    5.55
  -1  -3   2  154.57    5.81
  -1  -3   2  165.77    5.67
  -1   3   2  164.21    5.61
   1   3  -2  175.40    5.71
   1   3  -2  168.89    5.71
  -1   3   2  167.55    5.54
   1  -3   2   93.80    3.49
  -1   3  -2   95.15    3.42
  -1   3  -2  104.59    3.47
   1   3   2   97.36    3.38
  -1   3  -2   96.69    3.38
   1   3   2   98.56    3.30
   1   3   2   91.18    3.42
  -3  -3  -2  116.06    4.09
   3  -3   2  115.99    4.10
   3   3   2  118.27    4.15
  -3   3  -2  122.79    4.14
  -3   3  -2  124.34    4.23
   5  -3   2  161.87    5.79
  -5  -3  -2  168.40    5.81
   5  -3   2  174.64    5.78
   5   3   2  165.38    5.78
  -5   3  -2  177.35    5.93
  -5   3  -2  174.70    5.81
   7  -3   2   28.01    1.30
  -7  -3  -2   28.01    1.35
   7  -3   2   27.81    1.26
  -7   3  -2   31.75    1.45
  -7   3  -2   29.62    1.30
   7   3   2   28.32    1.27
  -9  -3  -2   51.73    2.15
   9  -3   2   50.02    2.10
   9  -3   2   51.43    2.04
   9   3   2   52.32    2.05
  -9   3  -2   50.82    2.08
  -9   3  -2   53.63    2.25
  11  -3   2   71.47    2.83
  11  -3   2   71.34    2.75
 -11  -3  -2   68.81    2.86
 -11   3  -2   70.86    2.78
  11   3   2   74.85    2.75
 -11   3  -2   70.38    2.94
  13  -3   2   18.68    1.27
 -13  -3  -2   19.77    1.31
  13  -3   2   19.42    1.16
 -13   3  -2   20.15    1.24
  13   3   2   19.55    1.15
  15  -3   2   19.09    1.24
 -15  -3  -2   19.22    1.37
  15  -3   2   20.57    1.40
  17  -3   2   11.66    1.25
  17  -3   2   10.45    1.04
  17   3   2   13.92    1.11
  19  -3   2    3.84    1.02
  19  -3   2    3.89    0.85
 -19  -3  -2    3.86    1.07
  19   3   2    3.79    0.81
  19   3   2    6.05    1.00
  21  -3   2    7.21    1.08
  21  -3   2   10.08    1.47
  21   3   2    8.30    1.17
  21   3   2    7.26    1.35
  23  -3   2    2.75    1.24
  23   3   2    2.63    1.00
  24  -4  -2    1.57    1.10
  24  -4  -2    3.07    1.57
  24   4  -2    1.99    1.26
  22  -4  -2    3.07    1.06
  22  -4  -2    2.75    1.01
  22   4  -2    4.15    1.22
  22   4  -2    3.82    1.12
  20  -4  -2    3.18    0.95
  20  -4  -2    2.61    1.00
  20   4  -2    4.45    1.31
 -20   4   2    3.36    1.19
  20   4  -2    2.64    0.99
  18  -4  -2   17.50    1.37
  18  -4  -2   16.18    2.26
  18   4  -2   17.20    1.42
 -18   4   2   15.89    1.25
 -18   4   2   15.00    1.16
  18   4  -2   16.66    1.71
  16  -4  -2   10.95    1.14
  16  -4  -2   11.48    1.08
 -16   4   2    8.85    0.83
 -16   4   2    8.18    1.00
  16   4  -2    7.33    1.08
  14  -4  -2    7.04    0.83
  14  -4  -2    6.89    0.89
  14   4  -2    7.42    1.07
 -14   4   2    6.16    0.70
 -14   4   2    6.58    0.82
  12  -4  -2   62.35    2.37
 -12  -4   2   63.15    2.72
  12  -4  -2   58.02    2.46
 -12   4   2   58.55    2.40
 -12   4   2   57.90    2.43
 -12   4   2   56.00    2.29
  12   4  -2   58.84    2.59
 -10  -4   2   40.46    2.04
  10  -4  -2   39.80    1.83
  10  -4  -2   45.73    1.78
  10   4  -2   44.58    2.07
 -10   4   2   41.91    1.78
 -10   4   2   40.42    1.75
 -10   4   2   41.92    1.82
   8  -4  -2   53.09    2.11
  -8  -4   2   49.72    2.29
   8  -4  -2   51.34    2.05
  -8   4   2   53.13    2.04
  -8   4   2   52.33    2.08
   8   4  -2   51.45    2.26
   8   4  -2   50.29    2.29
  -6  -4   2   92.09    3.49
   6  -4  -2   89.97    3.27
   6  -4  -2   89.92    3.32
  -6   4   2   89.35    3.25
   6   4  -2   84.64    3.44
  -6   4   2   91.43    3.21
   6   4  -2   92.88    3.50
   4  -4  -2   45.41    1.75
  -4  -4   2   43.70    1.91
   4  -4  -2   38.78    1.87
  -4   4   2   44.25    1.74
  -4   4   2   45.88    1.71
   4   4  -2   45.12    1.95
  -2  -4   2  134.05    5.44
  -2  -4   2  147.59    5.25
   2  -4  -2  151.21    5.11
   2  -4  -2  128.75    5.26
  -2   4   2  165.46    5.16
   2   4  -2  154.83    5.31
  -2   4   2  160.78    5.12
   2   4  -2  154.64    5.27
   0  -4   2  131.93    5.27
   0   4  -2  157.69    5.13
   0   4   2  149.99    4.96
   0   4   2  142.99    5.07
   0   4  -2  148.39    5.04
   0   4  -2  143.06    5.11
   0   4   2  146.69    5.03
   2  -4   2   39.46    1.82
   2   4   2   39.64    1.78
  -2   4  -2   43.36    1.73
   2   4   2   42.15    1.75
  -2   4  -2   41.95    1.75
  -2   4  -2   46.08    2.07
   2   4   2   42.01    1.62
   4  -4   2  100.14    3.70
   4  -4   2   98.47    3.62
  -4  -4  -2   97.20    3.62
   4   4   2  101.42    3.70
  -4   4  -2  106.07    3.68
  -4   4  -2  108.03    3.78
   6  -4   2   85.31    3.24
  -6  -4  -2   86.54    3.27
   6  -4   2   86.09    3.20
   6   4   2   87.25    3.26
  -6   4  -2   92.20    3.39
  -6   4  -2   90.02    3.26
   8  -4   2   44.26    1.85
   8  -4   2   42.60    1.82
  -8  -4  -2   41.22    1.91
   8   4   2   43.30    1.85
  -8   4  -2   41.62    2.04
  -8   4  -2   44.39    1.89
  10  -4   2   51.43    2.22
  10  -4   2   53.68    2.22
 -10  -4  -2   52.72    2.33
 -10   4  -2   52.54    2.22
  10   4   2   53.35    2.21
 -10   4  -2   56.14    2.41
  12  -4   2   23.61    1.37
  12  -4   2   23.24    1.31
 -12  -4  -2   22.19    1.44
  12   4   2   22.06    1.27
 -12   4  -2   23.00    1.46
 -14  -4  -2   14.04    1.23
  14  -4   2   13.75    1.15
  14  -4   2   12.31    1.13
 -14   4  -2   11.58    1.21
  16  -4   2   20.99    1.53
  16  -4   2   20.56    1.38
  16   4   2   18.39    1.32
  18  -4   2    9.14    1.32
 -18  -4  -2    7.66    1.21
  18  -4   2    8.09    1.14
  18   4   2    7.20    1.00
  20  -4   2    2.46    0.95
  20  -4   2    3.58    1.13
  20   4   2    2.21    0.81
  22  -4   2    3.71    1.44
  22  -4   2    0.55    1.60
  22   4   2    3.66    0.99
  23  -5  -2    1.53    1.39
  23  -5  -2    3.13    1.11
  23   5  -2    4.85    2.16
  21  -5  -2    1.61    0.98
  21  -5  -2    1.95    0.94
  21   5  -2    2.71    1.10
  21   5  -2    2.16    2.22
  19  -5  -2    3.27    0.92
  19  -5  -2    4.55    1.08
  19   5  -2    2.89    1.05
  19   5  -2    3.03    2.33
 -19   5   2    1.89    1.55
 -19   5   2    2.63    0.90
  17  -5  -2    7.58    1.11
 -17   5   2    8.51    0.96
 -17   5   2    6.91    1.06
  17   5  -2    9.08    1.32
  15  -5  -2    7.99    1.00
  15  -5  -2    7.74    1.06
 -15   5   2    8.23    0.98
  15   5  -2    7.89    1.18
 -15   5   2    6.23    0.78
 -15   5   2    9.22    0.99
  13  -5  -2   22.59    1.39
  13  -5  -2   24.34    1.34
  13   5  -2   17.64    1.86
 -13   5   2   21.61    1.32
 -13   5   2   20.75    1.34
 -13   5   2   20.07    1.21
  11  -5  -2   18.88    1.12
  11  -5  -2   16.52    1.15
 -11  -5   2   17.50    1.39
  11   5  -2   15.82    1.36
 -11   5   2   14.38    1.03
 -11   5   2   15.95    1.11
 -11   5   2   17.24    1.10
  11   5  -2   16.22    1.33
   9  -5  -2   11.67    0.97
  -9  -5   2   11.85    1.16
   9  -5  -2   14.98    1.02
   9   5  -2   12.88    1.17
  -9   5   2   13.67    0.93
   9   5  -2   12.02    1.14
  -9   5   2   12.86    0.98
   7  -5  -2   62.29    2.62
  -7  -5   2   62.53    2.74
   7  -5  -2   63.19    2.49
   7   5  -2   61.61    2.70
  -7   5   2   64.43    2.44
  -7   5   2   60.90    2.47
   7   5  -2   65.22    3.09
  -5  -5   2   45.30    2.02
   5  -5  -2   38.18    2.02
   5  -5  -2   44.61    1.84
   5   5  -2   41.43    2.19
   5   5  -2   42.43    2.05
  -5   5   2   44.45    1.83
  -5   5   2   47.03    1.80
   3  -5  -2   22.16    1.47
  -3  -5   2   27.69    1.43
   3  -5  -2   27.92    1.30
  -3   5   2   29.17    1.27
   3   5  -2   27.67    1.50
   3   5  -2   26.70    1.31
   3   5  -2   26.78    1.40
  -3   5   2   27.66    1.26
  -1  -5   2   53.28    2.75
  -1   5   2   65.87    2.46
   1   5  -2   67.25    2.54
  -1   5   2   62.62    2.47
   1   5  -2   62.23    2.45
   1   5  -2   64.49    2.60
  -1   5   2   63.63    2.39
   1  -5   2   34.58    1.92
   1   5   2   37.72    1.72
   1   5   2   37.90    1.57
  -1   5  -2   40.11    1.67
   1   5   2   37.89    1.71
  -1   5  -2   38.02    1.76
   3  -5   2   41.98    2.02
   3   5   2   41.77    1.98
  -3   5  -2   45.81    1.96
  -3   5  -2   47.91    1.98
  -3   5  -2   44.19    1.90
   3   5   2   43.65    1.77
   3   5   2   44.79    1.97
   5  -5   2   55.22    2.30
   5  -5   2   58.94    2.43
  -5  -5  -2   53.06    2.75
  -5   5  -2   53.94    2.64
  -5   5  -2   60.63    2.48
   5   5   2   58.32    2.42
   5   5   2   58.82    2.21
  -7  -5  -2   15.87    1.08
   7  -5   2   16.41    1.07
   7  -5   2   15.88    1.03
  -7   5  -2   16.59    1.09
  -7   5  -2   16.49    1.17
   7   5   2   17.05    1.14
  -9  -5  -2   24.90    1.44
   9  -5   2   22.52    1.31
   9  -5   2   26.43    1.41
  -9   5  -2   24.05    1.36
   9   5   2   25.24    1.42
  -9   5  -2   25.52    1.51
  11  -5   2   27.94    1.53
 -11  -5  -2   23.99    1.56
 -11   5  -2   27.10    1.61
  11   5   2   26.27    1.49
  13  -5   2    8.87    1.03
 -13  -5  -2    7.63    1.10
  13  -5   2    8.54    1.05
 -13   5  -2    9.05    1.09
  13   5   2    9.94    1.05
  15  -5   2   10.49    1.21
 -15  -5  -2    9.31    1.63
  15  -5   2    9.42    1.12
 -15   5  -2    9.99    1.32
  15   5   2    9.60    1.12
 -17  -5  -2    7.67    1.30
  17  -5   2    5.91    0.98
  17  -5   2    4.45    1.02
  17   5   2    6.11    0.98
  19  -5   2    1.83    0.90
  19  -5   2    0.82    0.91
  19   5   2    0.86    0.79
  21  -5   2    3.89    1.39
  21   5   2    5.75    1.04
  22  -6  -2    2.34    1.10
  22   6  -2   -2.39    1.63
  20  -6  -2    2.66    1.04
  20  -6  -2    2.24    1.07
  20   6  -2    2.61    1.24
  20   6  -2    2.78    1.54
  18  -6  -2    6.46    1.13
  18  -6  -2    5.11    1.04
  18   6  -2    3.98    1.19
 -18   6   2    4.42    1.07
  16  -6  -2    4.91    1.03
  16  -6  -2    5.99    1.12
 -16   6   2    4.23    0.85
  16   6  -2    3.47    1.09
 -16   6   2    3.27    1.02
 -16   6   2    2.54    0.76
  14  -6  -2    3.31    0.88
  14  -6  -2    3.43    0.85
 -14   6   2    3.08    0.82
  14   6  -2    2.30    1.02
 -14   6   2    4.07    0.81
 -14   6   2    2.72    0.77
  12  -6  -2   19.38    1.38
  12  -6  -2   17.29    1.34
  12   6  -2   17.49    1.61
 -12   6   2   14.88    1.15
 -12   6   2   18.90    1.26
 -12   6   2   15.05    1.17
  10  -6  -2   13.59    1.10
  10  -6  -2   12.18    1.29
  10   6  -2    9.98    2.20
 -10   6   2   11.35    1.02
 -10   6   2   10.80    1.02
   8  -6  -2   12.43    1.24
  -8  -6   2   13.24    1.20
   8  -6  -2   13.51    1.06
   8   6  -2   12.25    1.30
  -8   6   2   14.62    1.57
  -8   6   2   12.99    1.02
   8   6  -2   14.80    1.37
  -6  -6   2   22.80    1.46
   6  -6  -2   20.10    1.57
   6  -6  -2   24.67    1.33
   6   6  -2   23.50    1.59
  -6   6   2   23.24    1.23
  -6   6   2   22.98    1.27
   6   6  -2   23.46    1.45
  -4  -6   2   13.28    1.10
   4  -6  -2   11.75    0.97
   4  -6  -2    9.66    1.22
   4   6  -2   13.92    1.06
   4   6  -2   13.39    1.02
  -4   6   2   12.05    0.90
   4   6  -2   12.98    1.23
  -4   6   2   12.54    0.88
  -2  -6   2   26.26    1.95
   2   6  -2   32.37    1.74
  -2   6   2   30.23    1.56
   2   6  -2   30.61    1.69
  -2   6   2   31.69    1.47
   2   6  -2   33.89    1.63
  -2   6   2   33.22    1.52
   0  -6   2   26.82    1.87
   0   6   2   29.79    1.57
   0   6   2   28.98    1.39
   0   6  -2   29.12    1.62
   0   6  -2   22.85    1.66
   0   6   2   31.42    1.49
   0   6  -2   31.74    1.53
   2  -6   2   13.65    1.30
  -2   6  -2   12.60    0.98
   2   6   2   10.16    1.55
  -2   6  -2   12.66    1.08
   2   6   2   11.70    0.85
   2   6   2   12.64    1.07
  -2   6  -2   11.02    0.92
   4  -6   2   25.94    1.64
   4   6   2   23.96    1.50
   4   6   2   22.20    1.46
   4   6   2   24.64    1.25
  -4   6  -2   25.82    1.43
  -4   6  -2   23.86    1.37
  -4   6  -2   27.83    1.55
  -6  -6  -2   19.56    1.23
   6  -6   2   21.35    1.42
   6  -6   2   19.82    1.24
   6   6   2   20.09    1.41
   6   6   2   19.68    1.10
  -6   6  -2   20.10    1.25
  -6   6  -2   20.17    1.32
   6   6   2   19.41    1.39
   8  -6   2   12.17    1.15
   8  -6   2   10.66    1.05
  -8  -6  -2   11.06    1.02
  -8   6  -2   10.64    1.14
  -8   6  -2   10.43    1.00
   8   6   2   12.00    1.12
  10  -6   2   14.91    1.35
  10  -6   2   15.54    1.22
 -10  -6  -2   16.10    1.24
 -10   6  -2   14.47    1.29
  10   6   2   12.25    1.27
 -10   6  -2   13.09    1.11
  12  -6   2    9.09    1.25
  12  -6   2    8.25    1.10
 -12   6  -2    7.02    1.11
  12   6   2    7.37    1.09
  14  -6   2    5.06    0.98
 -14  -6  -2    3.76    0.89
  14  -6   2    3.22    0.88
  14   6   2    4.30    0.90
 -14   6  -2    3.36    1.06
 -14   6  -2    3.77    0.87
  16  -6   2    4.26    0.99
  16   6   2    4.40    0.93
  18  -6   2    2.41    1.00
  18  -6   2    3.62    1.04
  18   6   2    1.41    0.86
  20  -6   2    2.50    1.29
  20   6   2    1.36    1.00
  19  -7  -2    0.43    1.16
  19  -7  -2    1.73    1.19
  19   7  -2    2.58    1.36
  17  -7  -2    4.34    1.23
  17  -7  -2    2.83    1.09
 -17   7   2    4.75    1.08
 -17   7   2    2.97    1.01
  17   7  -2    1.48    1.13
  15  -7  -2    3.61    1.04
  15  -7  -2    2.64    1.09
  15   7  -2    3.04    1.17
 -15   7   2    2.43    0.86
 -15   7   2    1.84    0.82
 -15   7   2    3.11    0.97
  13  -7  -2    8.46    1.22
 -13   7   2    7.37    1.09
 -13   7   2    8.83    1.08
  13   7  -2    7.95    1.44
 -13   7   2    6.54    1.00
  11  -7  -2    8.78    1.38
  11  -7  -2    7.85    1.14
 -11   7   2    6.44    0.96
 -11   7   2    6.67    0.98
  11   7  -2    8.31    1.34
   9  -7  -2    6.72    1.21
   9  -7  -2    5.43    0.96
  -9   7   2    5.36    0.91
  -9   7   2    5.86    0.91
   9   7  -2    6.00    1.20
  -7  -7   2   14.83    1.33
   7  -7  -2   19.51    1.34
   7  -7  -2   14.83    1.59
  -7   7   2   17.76    1.21
   7   7  -2   16.48    1.57
  -7   7   2   16.43    1.19
   5  -7  -2   11.77    1.13
   5  -7  -2   10.80    1.55
  -5   7   2   12.15    0.96
  -5   7   2   13.15    1.29
   5   7  -2   14.29    1.12
   5   7  -2   12.56    1.58
   3  -7  -2   10.15    1.53
   3   7  -2   11.84    1.06
   3   7  -2   13.15    1.07
  -3   7   2    9.31    0.98
   3   7  -2   10.22    1.28
  -3   7   2   12.59    1.16
  -3   7   2   10.06    0.94
  -1  -7   2   16.46    1.91
   1   7  -2   17.89    1.24
   1   7  -2   19.19    1.54
  -1   7   2   19.23    1.19
   1   7  -2   20.07    1.33
  -1   7   2   17.97    1.39
  -1   7   2   21.26    1.25
   1  -7   2   12.78    1.68
   1   7   2   13.36    1.29
  -1   7  -2   11.20    1.23
   1   7   2   12.34    0.98
   1   7   2   12.66    1.06
  -1   7  -2   14.15    1.12
  -1   7  -2   13.44    1.08
   3  -7   2   14.45    1.65
   3   7   2   13.98    1.18
   3   7   2   14.34    1.03
  -3   7  -2   14.19    1.12
   3   7   2   13.13    1.32
  -3   7  -2   14.66    1.41
  -3   7  -2   13.39    1.09
   5  -7   2   17.83    2.71
   5   7   2   16.90    1.43
  -5   7  -2   15.37    1.27
  -5   7  -2   15.40    1.19
  -5   7  -2   19.54    1.48
   5   7   2   16.44    1.09
   5   7   2   12.85    1.62
   7  -7   2    7.34    1.28
   7  -7   2    7.52    1.08
   7   7   2    7.78    1.16
  -7   7  -2    8.17    1.01
   7   7   2    5.72    1.06
  -7   7  -2    6.13    0.99
   7   7   2    6.38    0.83
   9  -7   2    8.12    1.12
   9  -7   2   11.28    1.42
   9   7   2   10.93    1.31
  -9   7  -2    7.80    1.21
  -9   7  -2    8.87    1.12
   9   7   2    7.34    1.30
   9   7   2    9.09    0.97
  11  -7   2    5.91    0.99
  11  -7   2    7.45    1.29
 -11  -7  -2    7.87    1.18
  11   7   2    5.07    1.08
 -11   7  -2    5.57    0.92
  11   7   2    6.63    1.06
 -11   7  -2    8.75    1.28
 -13  -7  -2    1.08    0.98
  13  -7   2    4.40    1.02
  13  -7   2    2.99    1.05
 -13   7  -2    2.53    1.04
  13   7   2    2.01    0.87
  15  -7   2    2.99    0.99
  15  -7   2    3.01    1.08
  15   7   2    2.84    0.95
  17  -7   2    3.97    1.36
  17  -7   2    3.30    1.24
  17   7   2    1.11    0.99
  18  -8  -2    4.28    1.44
  18  -8  -2    3.12    1.40
  16  -8  -2    1.39    1.30
  16  -8  -2    1.49    1.08
 -16   8   2    2.47    1.18
 -16   8   2    0.52    1.16
  16   8  -2    3.10    1.41
  14  -8  -2    1.52    1.00
  14  -8  -2    3.09    1.18
 -14   8   2    0.37    0.88
 -14   8   2   -0.04    1.09
  14   8  -2    3.29    1.39
 -14   8   2    1.39    1.00
  12  -8  -2    6.45    1.46
  12  -8  -2    5.36    1.16
  12   8  -2    3.83    1.37
 -12   8   2    4.54    0.97
 -12   8   2    4.45    0.95
  10  -8  -2    3.03    1.00
  10  -8  -2    4.12    1.38
 -10  -8   2    2.27    1.38
 -10   8   2    2.61    0.76
  10   8  -2    5.27    1.25
 -10   8   2    5.13    0.93
   8  -8  -2    4.56    1.63
   8  -8  -2    5.90    2.05
  -8   8   2    3.72    0.73
   8   8  -2    3.74    1.16
   8   8  -2    3.84    0.88
  -8   8   2    4.04    0.82
   6  -8  -2    7.16    1.56
   6  -8  -2   10.02    1.28
  -6   8   2    8.20    0.98
   6   8  -2    7.30    1.03
   6   8  -2    7.04    1.32
  -6   8   2    9.10    1.26
  -6   8   2    8.23    1.12
   4  -8  -2    4.34    1.46
  -4   8   2    6.13    1.05
  -4   8   2    7.35    1.02
  -4   8   2    5.98    0.93
   4   8  -2    5.25    0.90
   4   8  -2    5.57    1.04
   4   8  -2    5.15    1.23
  -2   8   2    6.75    0.90
  -2   8   2    8.18    1.27
   2   8  -2    9.13    1.13
  -2   8   2    8.01    1.04
   2   8  -2    9.36    1.39
   2   8  -2    7.71    1.02
   0  -8   2    7.72    1.68
   0   8  -2    9.28    1.37
   0   8  -2    9.03    1.09
   0   8   2    9.84    1.06
   0   8   2    8.42    1.27
   0   8  -2    8.66    1.08
   2  -8   2    5.14    1.54
   2   8   2    5.65    0.90
   2   8   2    5.99    1.02
  -2   8  -2    6.33    0.97
  -2   8  -2    4.71    0.87
   2   8   2    6.96    1.23
  -2   8  -2    6.77    1.26
   4  -8   2    7.63    1.46
   4   8   2    8.67    1.04
   4   8   2    7.12    1.28
  -4   8  -2    7.00    1.07
   4   8   2    6.98    1.19
  -4   8  -2    9.45    1.40
  -4   8  -2    5.82    0.94
   6  -8   2    6.11    1.37
  -6   8  -2    7.42    1.13
  -6   8  -2    6.81    1.29
   6   8   2    5.71    0.87
  -6   8  -2    6.30    1.11
   6   8   2    5.27    1.15
   6   8   2    4.06    0.88
   8  -8   2    5.23    1.41
  -8   8  -2    5.03    0.94
  -8   8  -2    5.21    1.26
  -8   8  -2    3.10    0.92
   8   8   2    5.26    1.13
   8   8   2    3.27    1.02
  10  -8   2    3.85    1.13
  10  -8   2    3.69    1.08
  10   8   2    4.41    1.08
 -10   8  -2    1.68    1.17
  10   8   2    4.11    0.84
  10   8   2    3.72    1.41
 -10   8  -2    0.36    1.48
  12  -8   2    3.01    0.98
  12  -8   2    3.30    1.22
  12   8   2    2.43    0.88
  12   8   2    2.85    1.02
  14  -8   2    0.92    0.97
  14  -8   2    2.40    1.36
  14   8   2    0.75    1.01
  16  -8   2    1.97    1.62
  16   8   2    2.14    1.18
  15  -9  -2    1.41    1.74
  15  -9  -2   -2.12    1.30
 -15   9   2    3.65    1.35
  13  -9  -2    2.28    1.21
  13  -9  -2   -0.25    1.44
  13   9  -2    1.93    1.50
  11  -9  -2    1.14    1.07
  11  -9  -2   -0.58    1.41
  11   9  -2   -1.68    1.32
  11   9  -2   -1.28    0.93
 -11   9   2   -2.25    0.94
 -11   9   2    2.50    0.99
   9  -9  -2   -0.85    1.47
   9  -9  -2    0.20    1.04
   9   9  -2    0.58    1.45
   9   9  -2    0.71    0.85
  -9   9   2    1.96    0.84
  -9   9   2    2.33    0.82
   7  -9  -2    2.03    1.63
  -7   9   2    3.58    0.91
  -7   9   2    3.80    1.25
   7   9  -2    2.13    1.32
   7   9  -2    1.43    0.86
  -7   9   2    2.96    0.89
   5   9  -2    2.34    0.84
  -5   9   2    2.14    0.83
  -5   9   2    1.69    1.07
  -5   9   2    1.09    0.66
   5   9  -2    1.46    1.18
   3   9  -2    2.64    0.80
   3   9  -2    1.85    0.80
   3   9  -2    1.64    1.19
  -3   9   2    0.98    0.83
  -3   9   2    2.01    1.03
  -3   9   2    1.96    0.68
   1   9  -2    4.95    0.94
  -1   9   2    2.74    0.79
  -1   9   2    2.45    0.84
   1   9  -2    3.04    1.16
  -1   9   2    2.67    1.14
   1   9  -2    2.91    0.83
   1  -9   2    2.22    1.71
   1   9   2    1.70    0.80
   1   9   2    2.14    1.06
  -1   9  -2    1.72    0.79
  -1   9  -2    2.42    0.78
  -1   9  -2    3.48    1.23
   1   9   2    2.82    1.04
   3  -9   2    3.87    1.66
   3   9   2    0.68    0.84
   3   9   2    1.57    1.08
  -3   9  -2    2.67    0.82
  -3   9  -2    0.99    0.76
   3   9   2    2.54    0.82
  -3   9  -2    4.08    1.25
   5  -9   2    1.32    1.52
  -5   9  -2    3.60    1.23
   5   9   2    2.71    0.83
   5   9   2    1.56    0.85
  -5   9  -2    1.27    0.93
   5   9   2    5.37    1.22
   7  -9   2    2.52    1.52
   7   9   2    1.15    0.82
   7   9   2    3.88    1.19
  -7   9  -2    3.24    1.36
   9  -9   2    2.42    1.52
  -9   9  -2    4.06    1.49
   9   9   2    1.04    0.97
   9   9   2    2.21    1.15
  11  -9   2    3.16    1.40
  11   9   2    2.38    1.23
 -11   9  -2    0.88    1.46
  13  -9   2   -0.28    1.27
  13  -9   2   -0.53    1.67
  10 -10  -2    2.06    1.82
  10  10  -2   -2.79    1.88
  10  10  -2    0.39    1.86
 -10  10   2    2.66    1.81
   8 -10  -2    3.48    1.78
  -8  10   2    0.10    1.10
  -8  10   2   -2.70    1.57
   8  10  -2   -1.16    1.60
  -6  10   2    2.00    1.42
   6  10  -2    4.86    1.57
  -6  10   2    0.40    0.98
   6  10  -2   -0.71    1.08
  -4  10   2    0.09    0.95
  -4  10   2   -0.17    1.29
  -4  10   2   -0.72    0.89
   4  10  -2    2.99    1.51
   4  10  -2    2.90    1.08
  -2  10   2    0.85    1.25
  -2  10   2    0.49    0.87
   2  10  -2    3.49    1.41
  -2  10   2    0.08    0.96
   2  10  -2   -1.27    0.96
   0  10  -2   -0.11    1.36
   0  10   2    1.25    0.95
   0  10   2   -1.86    1.55
   2 -10   2   -3.25    1.86
   2  10   2    1.41    0.90
   2  10   2    2.29    1.30
  -2  10  -2    1.96    1.40
   4 -10   2    4.17    1.93
  -4  10  -2    2.33    1.50
   4  10   2    1.02    0.91
   4  10   2   -0.89    1.32
   6 -10   2   -0.89    2.10
   6  10   2    0.67    1.37
  -6  10  -2    2.49    1.54
   6  10   2    1.19    0.98
   8 -10   2    1.90    1.93
  -8  10  -2   -0.33    1.71
   8  10   2    1.62    1.44
  10 -10   2   -2.10    2.05
  -3  11   2    4.01    1.32
  -1  11   2    2.04    1.51
  26   0  -3    1.56    1.25
  24   0  -3    8.23    1.34
  24   0  -3    9.94    1.57
  22   0  -3    4.49    0.99
  22   0  -3    5.17    1.15
  20   0  -3    8.56    1.15
  20   0  -3    8.33    0.74
  20   0  -3    8.33    1.28
 -20   0   3    8.44    1.15
  18   0  -3   21.33    1.47
  18   0  -3   20.62    1.46
  18   0  -3   22.73    1.16
 -18   0   3   22.11    1.45
  16   0  -3   32.72    1.68
  16   0  -3   31.29    1.43
 -16   0   3   30.79    1.65
  14   0  -3  122.63    4.38
  14   0  -3  120.51    4.17
 -14   0   3  107.46    4.56
  12   0  -3   94.22    3.37
  12   0  -3   90.24    3.45
 -12   0   3   93.77    3.49
  10   0  -3   56.18    2.14
 -10   0   3   56.35    2.20
  10   0  -3   54.02    2.17
 -10   0   3   53.34    2.32
   8   0  -3  322.65   10.41
  -8   0   3  315.50   10.51
   8   0  -3  299.34   10.37
  -8   0   3  313.24   10.40
   6   0  -3  759.02   24.95
  -6   0   3  756.74   25.05
   6   0  -3  741.14   24.78
  -6   0   3  764.93   24.66
   4   0  -3  132.04    4.75
   4   0  -3  143.88    4.84
   4   0  -3  149.82    4.93
  -4   0   3  148.57    4.95
  -4   0   3  146.88    4.85
   2   0  -3  487.82   16.95
  -2   0   3  497.92   16.21
   2   0  -3  502.37   16.22
  -2   0   3  490.79   16.19
   2   0  -3  501.99   16.23
   0   0  -3  426.95   14.32
   0   0   3  428.50   14.17
   0   0   3  444.55   14.42
   0   0  -3  442.45   14.33
   0   0   3  431.34   14.40
  -2   0  -3  578.27   19.79
  -2   0  -3  600.92   19.35
   2   0   3  606.19   19.75
  -2   0  -3  594.74   19.49
   4   0   3  504.52   16.51
   4   0   3  514.97   16.70
   4   0   3  495.35   16.82
  -4   0  -3  516.57   16.53
  -4   0  -3  497.17   16.66
   6   0   3  194.88    6.31
  -6   0  -3  194.49    6.35
   6   0   3  183.15    6.51
   6   0   3  193.12    6.35
   8   0   3  151.75    5.01
   8   0   3  140.86    5.22
  -8   0  -3  152.96    5.05
  10   0   3  223.02    7.98
  10   0   3  233.84    7.74
 -10   0  -3  238.37    7.81
  12   0   3   83.96    3.04
 -12   0  -3   83.80    3.11
  12   0   3   81.22    3.29
 -14   0  -3   38.47    1.74
  14   0   3   37.67    1.65
  14   0   3   35.38    1.89
 -16   0  -3   52.66    2.30
  16   0   3   53.33    2.21
  16   0   3   48.82    2.48
  18   0   3   12.94    1.35
  18   0   3   13.16    1.07
 -18   0  -3   14.57    1.18
  20   0   3   10.19    1.36
  20   0   3    9.88    1.04
  22   0   3    9.39    1.63
  22   0   3    7.46    1.16
  25  -1  -3    1.21    1.08
  25  -1  -3    2.42    1.16
  25   1  -3    1.55    1.14
  25   1  -3    2.19    1.17
  23  -1  -3    4.31    1.01
  23  -1  -3    3.94    1.07
  23   1  -3    4.25    1.28
  23   1  -3    4.62    1.06
  23   1  -3    3.34    0.63
 -21  -1   3    5.16    1.03
  21  -1  -3    5.04    1.07
  21  -1  -3    4.46    0.98
  21   1  -3    5.97    0.77
  21   1  -3    5.57    1.03
 -21   1   3    5.19    0.91
 -19  -1   3   30.66    1.82
  19  -1  -3   27.93    1.73
  19  -1  -3   28.13    1.73
  19   1  -3   29.82    1.78
 -19   1   3   28.51    1.70
  19   1  -3   28.43    1.43
  17  -1  -3   24.29    1.46
  17  -1  -3   24.16    1.48
 -17  -1   3   23.92    1.54
  17  -1  -3   23.26    1.17
 -17   1   3   25.25    1.46
  17   1  -3   24.07    1.29
  17   1  -3   22.87    1.51
  15  -1  -3   15.15    1.08
  15  -1  -3   14.55    1.06
 -15  -1   3   15.72    1.18
  15  -1  -3   15.69    0.89
  15   1  -3   16.29    1.14
 -15   1   3   12.64    1.15
  15   1  -3   17.49    1.04
 -15   1   3   15.82    1.09
  13  -1  -3   59.33    2.29
  13  -1  -3   57.75    2.43
  13  -1  -3   58.59    2.39
  13   1  -3   58.23    2.47
 -13   1   3   65.01    2.50
 -13   1   3   61.12    2.51
  13   1  -3   61.40    2.47
 -11  -1   3  213.36    7.41
  11  -1  -3  213.46    7.33
  11  -1  -3  215.07    7.24
  11  -1  -3  202.55    7.24
 -11   1   3  215.44    7.34
 -11   1   3  222.97    7.36
  11   1  -3  223.39    7.41
  11   1  -3  211.32    7.37
   9  -1  -3  118.25    4.28
   9  -1  -3  118.47    4.36
  -9  -1   3  130.45    4.48
   9  -1  -3  129.05    4.35
   9   1  -3  128.38    4.51
  -9   1   3  126.52    4.39
   9   1  -3  121.62    4.43
  -9   1   3  128.84    4.39
   7  -1  -3  163.24    5.63
   7  -1  -3  168.71    5.63
   7  -1  -3  154.81    5.50
  -7  -1   3  167.86    5.71
  -7   1   3  168.30    5.62
   7   1  -3  168.46    5.79
  -7   1   3  166.64    5.64
   7   1  -3  168.68    5.70
   5  -1  -3  245.55    8.05
  -5  -1   3  249.58    8.15
   5  -1  -3  246.96    8.12
   5   1  -3  237.84    8.15
  -5   1   3  248.14    8.11
   5   1  -3  245.41    8.26
  -5   1   3  249.03    8.05
   5   1  -3  227.47    8.08
  -3  -1   3  307.94   10.54
  -3  -1   3  320.86   10.36
  -3  -1   3  277.54   10.31
   3   1  -3  320.55   10.31
  -3   1   3  322.12   10.24
  -3   1   3  329.10   10.35
   3   1  -3  319.70   10.35
  -1  -1   3  786.67   26.65
  -1  -1   3  808.81   26.40
   1  -1  -3  800.38   26.91
  -1   1   3  814.58   26.64
   1   1  -3  809.00   26.80
   1   1  -3  757.37   26.76
   1   1  -3  854.56   26.59
  -1   1   3  818.31   26.20
   1  -1   3  139.02    4.81
   1  -1   3  142.61    4.99
  -1   1  -3  145.21    4.77
   1   1   3  147.63    4.87
  -1   1  -3  143.92    4.79
  -1   1  -3  145.04    4.87
  -1   1  -3  145.56    4.96
   3  -1   3  181.93    6.31
   3  -1   3  185.52    6.24
  -3  -1  -3  184.66    6.08
   3  -1   3  184.00    6.13
  -3   1  -3  184.80    6.23
  -3   1  -3  186.99    6.30
  -3   1  -3  196.08    6.20
   3   1   3  189.01    6.22
   5  -1   3  403.49   13.45
  -5  -1  -3  411.81   13.29
   5  -1   3  400.73   13.38
  -5   1  -3  415.71   13.30
  -5   1  -3  413.66   13.32
  -5   1  -3  403.74   13.51
   5   1   3  404.32   13.34
   5   1   3  415.32   13.29
   7  -1   3  193.57    6.82
   7  -1   3  198.59    6.64
  -7  -1  -3  205.45    6.66
   7   1   3  201.46    6.63
  -7   1  -3  204.78    6.68
  -7   1  -3  195.38    6.87
   7   1   3  198.12    6.60
   9  -1   3   94.96    3.60
   9  -1   3   95.25    3.40
  -9  -1  -3   99.24    3.45
   9   1   3   96.79    3.37
  -9   1  -3   99.78    3.45
   9   1   3   95.44    3.32
  11  -1   3  126.19    4.71
 -11  -1  -3  131.39    4.56
  11  -1   3  127.87    4.49
  11   1   3  129.47    4.47
  13  -1   3   33.03    1.52
 -13  -1  -3   34.63    1.63
  13  -1   3   33.25    1.76
  13   1   3   35.03    1.51
  13   1   3   33.70    1.80
 -13   1  -3   35.01    1.59
  15  -1   3   44.94    2.55
  15  -1   3   51.53    2.41
 -15  -1  -3   51.72    2.21
 -15   1  -3   50.17    2.17
  15   1   3   47.70    2.40
  15   1   3   49.91    2.07
  17  -1   3   25.11    1.43
  17  -1   3   25.37    1.76
  17   1   3   25.85    1.41
  17   1   3   26.88    1.78
 -19  -1  -3    7.47    1.09
  19  -1   3    7.69    1.28
  19  -1   3    9.07    0.96
 -19   1  -3    8.56    1.11
  19   1   3    7.72    0.93
  19   1   3    6.72    1.11
  21  -1   3    8.73    1.54
  21  -1   3   10.44    1.13
  21   1   3    9.14    1.62
  21   1   3    8.59    1.08
  23  -1   3    4.71    0.98
  23  -1   3    4.02    1.27
  23   1   3    3.70    0.93
  23   1   3    5.35    1.84
  24  -2  -3    7.51    1.41
  24  -2  -3    5.54    1.20
  24   2  -3    7.10    0.87
  24   2  -3    6.49    1.24
  22  -2  -3    3.43    0.96
  22  -2  -3    3.45    1.06
  22   2  -3    5.21    0.84
  22   2  -3    3.21    1.00
  20  -2  -3    7.10    1.06
 -20  -2   3    4.04    0.99
 -20   2   3    6.13    0.94
  20   2  -3    6.90    1.00
  20   2  -3    5.25    1.03
  18  -2  -3   14.81    1.25
  18  -2  -3   15.21    1.27
 -18  -2   3   14.77    1.32
  18   2  -3   12.02    1.25
  18   2  -3   16.35    1.21
 -18   2   3   14.89    1.19
 -16  -2   3   19.76    1.37
  16  -2  -3   18.49    1.22
  16  -2  -3   18.10    1.25
  16   2  -3   20.42    1.41
 -16   2   3   20.83    1.26
 -16   2   3   17.34    1.28
  16   2  -3   19.87    1.32
 -14  -2   3   74.77    3.12
  14  -2  -3   73.12    2.96
  14  -2  -3   72.94    2.90
 -14   2   3   72.62    2.90
  14   2  -3   81.95    3.16
 -14   2   3   74.71    2.98
  14   2  -3   77.38    3.08
  12  -2  -3   50.23    2.06
 -12  -2   3   52.18    2.29
  12  -2  -3   50.21    2.15
 -12   2   3   50.92    2.06
 -12   2   3   51.24    2.13
  12   2  -3   54.95    2.40
  12   2  -3   51.15    2.24
  10  -2  -3   27.34    1.25
  10  -2  -3   25.16    1.13
 -10  -2   3   24.72    1.34
  10   2  -3   26.69    1.50
 -10   2   3   25.86    1.23
 -10   2   3   26.21    1.19
  10   2  -3   25.30    1.33
  -8  -2   3  163.28    5.63
   8  -2  -3  156.16    5.35
   8  -2  -3  154.36    5.45
   8   2  -3  157.87    5.77
  -8   2   3  160.75    5.45
  -8   2   3  164.43    5.48
  -6  -2   3  371.44   12.25
   6  -2  -3  368.71   12.08
   6  -2  -3  375.42   11.99
   6   2  -3  355.33   12.39
   6   2  -3  368.96   12.23
  -6   2   3  361.33   11.95
  -6   2   3  375.94   12.07
  -6   2   3  370.49   12.11
   6   2  -3  357.88   12.18
   4  -2  -3   52.88    1.90
  -4  -2   3   54.40    2.08
   4   2  -3   52.00    2.06
   4   2  -3   50.62    2.01
  -4   2   3   52.72    1.89
  -2  -2   3  209.76    7.06
  -2  -2   3  198.24    7.10
  -2   2   3  199.16    6.87
  -2   2   3  208.54    7.04
  -2   2   3  216.08    6.89
   2   2  -3  225.97    7.05
   0  -2   3  183.06    6.21
   0   2  -3  194.35    6.23
   0   2   3  180.62    6.02
   0   2  -3  183.37    6.20
   0   2  -3  180.62    6.13
  -2   2  -3  284.23    8.96
  -2   2  -3  252.20    9.02
  -2   2  -3  270.47    8.83
   2   2   3  266.47    8.75
   2   2   3  265.63    8.69
   4  -2   3  231.44    8.04
  -4  -2  -3  238.16    7.95
   4  -2   3  238.82    7.98
   4   2   3  243.07    7.91
  -4   2  -3  249.41    8.02
  -4   2  -3  248.11    8.17
   6  -2   3   87.39    3.06
   6  -2   3   84.74    3.16
  -6  -2  -3   86.24    3.08
  -6   2  -3   91.04    3.11
   6   2   3   89.59    3.01
  -6   2  -3   86.54    3.26
  -6   2  -3   85.53    3.11
  -8  -2  -3   72.75    2.73
   8  -2   3   72.59    2.82
   8  -2   3   74.14    2.69
  -8   2  -3   75.98    2.74
  -8   2  -3   75.19    2.93
   8   2   3   74.65    2.64
  10  -2   3  135.57    4.78
  10  -2   3  134.01    4.92
 -10  -2  -3  134.03    4.82
  10   2   3  142.43    4.73
 -10   2  -3  139.00    5.04
  12  -2   3   47.60    1.94
  12  -2   3   45.56    2.11
 -12  -2  -3   46.08    2.02
  12   2   3   45.69    1.89
 -12   2  -3   48.40    1.98
  14  -2   3   20.04    1.53
  14  -2   3   20.83    1.19
 -14  -2  -3   22.39    1.33
  14   2   3   21.83    1.18
 -14   2  -3   20.90    1.24
  16  -2   3   33.20    1.66
 -16  -2  -3   34.25    1.77
  16  -2   3   32.25    1.86
  16   2   3   34.29    1.64
  16   2   3   32.71    2.01
 -18  -2  -3    8.87    1.17
  18  -2   3    7.97    0.95
  18  -2   3    6.86    1.04
  18   2   3    7.53    0.95
 -18   2  -3   10.76    1.11
  18   2   3    8.74    1.33
  20  -2   3   10.11    1.55
  20  -2   3    8.31    1.04
  20   2   3    7.95    1.04
  20   2   3    7.79    1.46
  22  -2   3    5.57    1.36
  22  -2   3    4.09    1.00
  22   2   3    3.48    1.31
  22   2   3    6.74    1.31
  25  -3  -3    0.61    1.05
  25  -3  -3    3.08    2.14
  23  -3  -3    2.64    1.00
  23  -3  -3    4.12    1.13
  23   3  -3    2.46    1.05
  23   3  -3    4.83    1.12
  21  -3  -3    4.63    0.99
  21  -3  -3    3.50    1.00
 -21   3   3    3.29    0.97
  21   3  -3    3.17    0.94
  21   3  -3    3.07    0.98
  19  -3  -3   16.38    1.38
  19  -3  -3   18.41    1.42
  19   3  -3   19.65    1.50
  19   3  -3   18.82    1.58
 -19   3   3   18.13    1.36
 -19   3   3   14.46    1.44
 -17  -3   3   12.62    1.91
  17  -3  -3   15.86    1.17
  17  -3  -3   13.04    1.58
 -17   3   3   16.38    1.17
  17   3  -3   14.95    1.45
  17   3  -3   17.02    1.40
 -17   3   3   13.23    1.19
 -15  -3   3   13.04    1.19
  15  -3  -3   11.49    1.08
  15  -3  -3   12.42    1.09
 -15   3   3   10.37    0.89
  15   3  -3   12.37    1.15
 -15   3   3   12.49    1.00
  15   3  -3   10.75    1.28
  13  -3  -3   34.35    1.57
  13  -3  -3   35.20    1.87
 -13  -3   3   34.75    1.87
  13   3  -3   35.75    2.04
  13   3  -3   35.36    1.84
 -13   3   3   33.78    1.56
 -11  -3   3  119.62    4.44
  11  -3  -3  115.55    4.20
  11  -3  -3  115.14    4.05
 -11   3   3  112.87    4.10
  11   3  -3  116.18    4.35
 -11   3   3  115.00    4.18
   9  -3  -3   66.58    2.60
  -9  -3   3   70.26    2.82
   9  -3  -3   68.53    2.60
  -9   3   3   65.81    2.56
  -9   3   3   67.90    2.49
  -9   3   3   70.21    2.60
  -7  -3   3   88.71    3.43
   7  -3  -3   87.58    3.21
   7  -3  -3   92.22    3.13
  -7   3   3   89.32    3.21
  -7   3   3   89.51    3.10
   7   3  -3   87.02    3.38
   7   3  -3   90.90    3.41
  -7   3   3   89.48    3.25
  -5  -3   3  126.05    4.61
   5  -3  -3  127.69    4.40
   5  -3  -3  127.50    4.45
  -5   3   3  131.50    4.29
  -5   3   3  130.93    4.40
   5   3  -3  128.89    4.61
   5   3  -3  124.07    4.55
  -3  -3   3  132.31    5.28
  -3  -3   3  149.83    5.21
   3  -3  -3  148.91    5.01
   3  -3  -3  134.38    5.03
  -3   3   3  155.88    4.97
   3   3  -3  155.91    5.25
  -3   3   3  155.56    5.01
   3   3  -3  156.46    5.19
  -1  -3   3  330.96   11.51
  -1  -3   3  328.13   11.37
   1  -3  -3  353.07   11.23
   1   3  -3  364.76   11.41
  -1   3   3  347.62   11.21
  -1   3   3  318.34   11.27
   1   3  -3  358.45   11.43
  -1   3  -3   84.60    3.07
  -1   3  -3   85.22    3.12
  -1   3  -3   91.95    3.19
   1   3   3   86.88    2.95
   1   3   3   84.44    3.07
   3  -3   3  100.34    3.61
   3  -3   3  100.04    3.67
  -3  -3  -3  103.01    3.55
  -3   3  -3  109.66    3.80
  -3   3  -3  107.83    3.66
   3   3   3  102.35    3.50
   3   3   3  103.79    3.61
   5  -3   3  192.80    6.79
  -5  -3  -3  201.22    6.79
   5  -3   3  195.24    6.85
  -5   3  -3  210.02    6.85
  -5   3  -3  212.92    7.03
   5   3   3  201.63    6.77
   7  -3   3  109.16    3.85
   7  -3   3  106.98    3.92
  -7  -3  -3  106.12    3.89
   7   3   3  109.34    3.81
  -7   3  -3  112.73    4.10
  -7   3  -3  111.59    3.91
   9  -3   3   49.71    2.12
  -9  -3  -3   48.22    2.09
   9  -3   3   50.19    2.03
   9   3   3   52.33    1.98
  -9   3  -3   50.96    2.07
  -9   3  -3   50.17    2.04
  -9   3  -3   52.66    2.28
  11  -3   3   70.56    2.87
  11  -3   3   71.88    2.76
 -11  -3  -3   68.20    2.85
 -11   3  -3   72.80    2.81
 -11   3  -3   75.59    3.06
  11   3   3   72.42    2.71
 -13  -3  -3   18.12    1.30
  13  -3   3   19.27    1.32
  13  -3   3   20.70    1.23
  13   3   3   21.34    1.17
 -13   3  -3   23.01    1.25
  15  -3   3   29.37    1.70
 -15  -3  -3   24.02    1.59
  15  -3   3   28.83    1.50
  15   3   3   25.23    1.58
  17  -3   3   14.59    1.21
  17  -3   3   14.14    1.42
  17   3   3   15.08    1.15
 -17   3  -3   15.78    1.23
  19  -3   3    4.20    0.98
  19  -3   3    5.56    0.92
 -19  -3  -3    5.83    1.47
  19   3   3    6.44    0.90
  21  -3   3    4.22    1.06
  21  -3   3    4.33    1.00
  21   3   3    6.23    1.48
  21   3   3    4.26    0.86
  24  -4  -3    3.13    1.26
  24  -4  -3    4.27    1.19
  24   4  -3    2.19    1.32
  22  -4  -3    4.07    1.11
  22  -4  -3    2.55    1.00
  22   4  -3    4.28    1.21
  22   4  -3    1.89    1.06
  20  -4  -3    2.92    0.91
  20  -4  -3    4.53    1.00
 -20   4   3    5.68    1.19
  20   4  -3    3.52    1.24
  20   4  -3    4.71    1.16
 -20   4   3    3.84    0.92
  18  -4  -3    9.29    1.18
  18  -4  -3    9.98    1.18
 -18   4   3    8.48    1.03
  18   4  -3    8.76    1.53
 -18   4   3   10.27    1.17
  18   4  -3    7.97    1.24
  16  -4  -3   12.40    1.04
  16   4  -3    9.55    1.19
 -16   4   3   10.79    0.95
 -16   4   3    9.15    1.09
  16   4  -3   11.33    1.57
  14  -4  -3   39.48    1.75
  14  -4  -3   40.23    1.90
 -14  -4   3   40.45    2.18
 -14   4   3   36.99    1.85
 -14   4   3   37.12    1.73
  14   4  -3   38.27    2.04
  12  -4  -3   30.43    1.56
 -12  -4   3   30.37    1.79
  12  -4  -3   31.79    1.42
  12   4  -3   33.67    1.79
 -12   4   3   27.76    1.43
 -12   4   3   30.51    1.45
  10  -4  -3   23.40    1.27
  10  -4  -3   24.31    1.15
 -10  -4   3   22.59    1.49
  10   4  -3   24.13    1.51
 -10   4   3   23.58    1.25
 -10   4   3   23.18    1.22
 -10   4   3   22.63    1.13
  10   4  -3   23.64    1.46
   8  -4  -3   79.74    3.00
   8  -4  -3   80.78    2.97
  -8  -4   3   81.93    3.26
  -8   4   3   75.67    3.01
   8   4  -3   79.77    3.21
  -8   4   3   81.43    3.06
   8   4  -3   78.99    3.21
  -8   4   3   81.67    2.89
   6  -4  -3  163.57    5.54
  -6  -4   3  166.74    5.81
   6  -4  -3  139.69    5.80
   6   4  -3  165.09    5.79
   6   4  -3  157.98    5.72
  -6   4   3  166.47    5.43
  -6   4   3  165.43    5.53
   4  -4  -3   41.08    1.96
   4  -4  -3   50.61    1.88
  -4  -4   3   50.38    2.09
  -4  -4   3   39.78    2.16
   4   4  -3   50.41    2.06
  -4   4   3   49.11    1.85
  -4   4   3   51.79    1.81
   4   4  -3   48.40    2.10
   2  -4  -3  122.46    4.17
  -2  -4   3  116.10    4.32
  -2  -4   3  105.44    4.50
  -2   4   3  123.43    4.15
   2   4  -3  120.20    4.38
  -2   4   3  122.60    4.18
   2   4  -3  131.61    4.35
   0  -4   3   97.55    3.89
   0   4   3   96.14    3.67
   0   4  -3  102.63    3.76
   0   4   3  108.00    3.56
   0   4  -3  108.43    3.69
   0   4   3  103.37    3.64
   2  -4   3  127.67    4.83
  -2   4  -3  135.52    4.74
   2   4   3  138.76    4.60
  -2   4  -3  144.70    4.87
  -2   4  -3  132.28    4.78
   2   4   3  134.29    4.73
   4  -4   3  115.47    4.27
  -4  -4  -3  120.34    4.16
   4  -4   3  114.96    4.20
   4   4   3  119.79    4.08
  -4   4  -3  119.24    4.25
  -4   4  -3  126.65    4.42
   4   4   3  119.51    4.24
   6  -4   3   52.77    2.10
   6  -4   3   53.51    2.15
  -6  -4  -3   51.87    2.09
   6   4   3   53.17    2.10
  -8  -4  -3   43.95    1.97
   8  -4   3   47.48    1.99
   8  -4   3   45.66    1.92
  -8   4  -3   46.91    2.17
  -8   4  -3   48.48    2.00
   8   4   3   44.70    1.89
  10  -4   3   67.46    2.71
 -10  -4  -3   65.01    2.72
  10  -4   3   67.13    2.64
 -10   4  -3   66.25    2.69
  10   4   3   67.09    2.60
 -10   4  -3   68.72    2.93
  12  -4   3   20.65    1.62
 -12  -4  -3   25.08    1.49
  12  -4   3   24.66    1.64
  12   4   3   25.77    1.33
 -12   4  -3   25.87    1.61
  14  -4   3   14.21    1.23
 -14  -4  -3   12.44    1.23
  14  -4   3   12.65    1.09
 -14   4  -3   12.08    1.34
  14   4   3   13.19    1.13
  16  -4   3   17.78    1.50
  16  -4   3   19.92    1.49
  16   4   3   15.72    1.20
  18  -4   3    5.23    0.95
  18  -4   3    8.03    1.34
 -18  -4  -3    4.90    1.17
  18   4   3    5.21    0.84
  20  -4   3    4.75    1.12
  20  -4   3    2.75    0.91
  20   4   3    3.39    0.80
  23  -5  -3   -1.22    1.21
  23  -5  -3    1.85    1.03
  23   5  -3    3.38    1.40
  21  -5  -3    1.15    0.95
  21  -5  -3    1.88    0.90
  21   5  -3    1.98    2.41
 -21   5   3    0.55    1.46
  21   5  -3    1.91    1.15
  19  -5  -3    5.41    1.10
  19  -5  -3    7.12    1.21
 -19   5   3    5.64    0.98
  19   5  -3   10.53    1.82
  19   5  -3    5.30    1.21
 -19   5   3    6.98    1.15
  17  -5  -3    5.30    1.03
  17  -5  -3    7.80    1.12
  17   5  -3    6.66    1.20
 -17   5   3    4.94    0.92
 -17   5   3    6.83    1.03
  15  -5  -3    6.98    0.93
  15  -5  -3    7.16    1.48
  15   5  -3    6.62    1.15
 -15   5   3    4.90    0.83
 -15   5   3    5.80    0.85
  13  -5  -3   14.03    1.06
  13  -5  -3   12.19    1.17
 -13  -5   3   12.57    1.30
 -13   5   3   11.42    0.98
  13   5  -3   13.91    1.30
 -13   5   3   12.35    1.06
 -11  -5   3   36.72    2.02
  11  -5  -3   40.02    1.75
  11  -5  -3   36.14    1.83
 -11   5   3   35.82    1.64
 -11   5   3   34.91    1.74
  11   5  -3   35.41    2.03
  11   5  -3   37.39    2.03
 -11   5   3   33.80    1.71
   9  -5  -3   22.18    1.29
  -9  -5   3   24.71    1.55
   9  -5  -3   23.51    1.33
  -9   5   3   25.01    1.30
   9   5  -3   22.27    1.48
   9   5  -3   23.07    1.55
  -9   5   3   24.90    1.21
  -7  -5   3   29.63    1.71
   7  -5  -3   30.82    1.48
   7  -5  -3   26.96    1.56
   7   5  -3   35.33    2.23
  -7   5   3   29.65    1.41
   7   5  -3   30.05    1.64
  -7   5   3   30.07    1.33
   5  -5  -3   40.92    1.75
  -5  -5   3   40.82    1.96
   5   5  -3   41.88    2.01
  -5   5   3   42.39    1.74
   5   5  -3   36.12    2.05
  -5   5   3   42.12    1.66
  -3  -5   3   35.97    2.14
   3  -5  -3   43.45    1.76
  -3  -5   3   41.30    1.90
   3   5  -3   40.89    1.99
  -3   5   3   42.24    1.72
  -3   5   3   44.13    1.73
   3   5  -3   43.78    2.11
  -1  -5   3   75.20    3.54
   1   5  -3   88.10    3.25
  -1   5   3   88.69    3.22
   1   5  -3   95.67    3.40
  -1   5   3   88.02    3.23
  -1   5   3   86.82    3.14
   1   5  -3   84.29    3.38
   1  -5   3   27.93    1.63
   1   5   3   30.58    1.45
   1   5   3   29.20    1.27
   1   5   3   28.23    1.43
  -1   5  -3   29.11    1.42
  -1   5  -3   27.83    1.48
   3  -5   3   31.74    1.67
  -3   5  -3   33.29    1.63
   3   5   3   32.40    1.64
  -3   5  -3   36.37    1.68
   3   5   3   33.65    1.60
  -3   5  -3   28.93    1.69
   3   5   3   32.91    1.40
   5  -5   3   58.19    2.44
   5  -5   3   56.57    2.33
  -5   5  -3   57.53    2.49
   5   5   3   56.52    2.19
  -5   5  -3   60.05    2.40
   5   5   3   56.21    2.38
   7  -5   3   32.97    1.56
  -7  -5  -3   30.42    1.54
   7  -5   3   33.92    1.64
  -7   5  -3   33.86    1.80
   7   5   3   33.32    1.59
  -7   5  -3   32.18    1.61
   9  -5   3   15.08    1.12
  -9  -5  -3   17.76    1.19
   9  -5   3   17.61    1.20
  -9   5  -3   17.50    1.32
   9   5   3   15.40    1.07
  11  -5   3   26.04    1.52
 -11  -5  -3   22.03    1.44
  11  -5   3   21.82    1.39
  11   5   3   23.99    1.39
 -11   5  -3   27.16    1.66
  13  -5   3    9.74    1.11
  13  -5   3    6.33    1.00
 -13  -5  -3    7.44    1.07
 -13   5  -3   10.42    1.18
  13   5   3    8.44    0.98
 -15  -5  -3    9.82    1.31
  15  -5   3   11.46    1.17
  15  -5   3   11.93    1.28
 -15   5  -3   10.94    1.48
  15   5   3    9.71    1.09
  17  -5   3    7.41    1.27
  17  -5   3    5.01    1.00
 -17  -5  -3    6.61    1.48
  17   5   3    6.79    1.02
  19  -5   3    1.02    0.91
  19  -5   3    1.83    0.99
  19   5   3    1.81    0.75
  22  -6  -3    1.64    1.34
  22  -6  -3   -0.57    1.11
  22   6  -3   -0.48    1.64
  20  -6  -3    1.09    1.05
  20  -6  -3    0.77    1.00
  20   6  -3    4.42    1.68
 -20   6   3    2.10    1.86
  20   6  -3    1.70    1.60
  18  -6  -3    3.28    1.05
  18  -6  -3    1.14    1.03
  18   6  -3    3.15    1.14
 -18   6   3    2.66    1.02
 -18   6   3    2.05    0.95
  16  -6  -3    4.70    0.99
 -16  -6   3    4.25    1.18
  16  -6  -3    2.32    0.95
 -16   6   3    4.01    0.86
  16   6  -3    3.34    1.13
  16   6  -3    3.68    1.06
 -16   6   3    2.46    0.80
 -16   6   3    5.95    1.02
  14  -6  -3   12.12    1.30
  14  -6  -3   14.77    1.71
 -14   6   3    8.30    0.98
  14   6  -3    9.61    1.42
 -14   6   3   10.09    1.06
 -14   6   3   10.34    1.08
 -12  -6   3    9.16    1.31
  12  -6  -3    8.25    1.06
  12  -6  -3    8.73    1.12
 -12   6   3    6.89    0.92
 -12   6   3    9.34    0.94
 -12   6   3    6.56    0.92
  12   6  -3    8.05    1.28
  10  -6  -3    6.72    1.04
  10  -6  -3    6.21    0.92
 -10  -6   3    6.41    1.07
 -10   6   3    8.02    1.00
  10   6  -3    7.17    1.80
 -10   6   3    6.00    0.86
   8  -6  -3   17.12    1.16
   8  -6  -3   17.04    1.42
  -8  -6   3   19.68    1.45
  -8   6   3   17.56    1.07
   8   6  -3   16.76    1.35
  -8   6   3   18.37    1.16
   8   6  -3   18.45    1.55
   6  -6  -3   26.08    1.77
   6  -6  -3   29.14    1.53
  -6  -6   3   29.99    1.72
  -6   6   3   31.63    1.42
  -6   6   3   29.44    1.49
   6   6  -3   33.61    1.73
   6   6  -3   31.35    1.82
   4  -6  -3   10.89    0.93
  -4  -6   3    8.96    0.99
   4  -6  -3    7.93    1.10
   4   6  -3   11.14    0.92
   4   6  -3   11.27    1.14
   4   6  -3   11.71    1.00
  -4   6   3   10.98    0.86
  -4   6   3    9.98    0.78
  -2  -6   3   21.41    1.75
  -2   6   3   24.88    1.38
   2   6  -3   25.29    1.39
  -2   6   3   24.92    1.27
   2   6  -3   26.12    1.42
   2   6  -3   26.37    1.62
  -2   6   3   27.79    1.32
   0  -6   3   20.58    1.63
   0   6   3   19.96    1.25
   0   6   3   19.45    1.20
   0   6  -3   18.16    1.45
   0   6  -3   19.04    1.23
   0   6  -3   23.34    1.30
   0   6   3   19.81    1.08
   2  -6   3   23.16    1.63
   2   6   3   23.87    1.43
  -2   6  -3   25.46    1.50
   2   6   3   25.09    1.24
   2   6   3   24.17    1.65
  -2   6  -3   27.69    1.44
  -2   6  -3   25.80    1.41
   4  -6   3   24.73    1.55
  -4   6  -3   25.06    1.37
   4   6   3   23.98    1.46
  -4   6  -3   23.96    1.48
   4   6   3   22.44    1.19
   4   6   3   20.04    1.44
  -4   6  -3   22.20    1.44
   6  -6   3   12.96    1.19
   6  -6   3   11.53    1.00
   6   6   3   12.09    0.85
   6   6   3   12.70    1.26
  -6   6  -3   10.95    1.05
   6   6   3   10.45    1.08
  -6   6  -3   11.98    1.13
  -8  -6  -3   11.46    0.99
   8  -6   3   11.49    1.05
   8  -6   3   10.89    1.47
   8   6   3   10.18    1.05
   8   6   3   12.10    0.87
  -8   6  -3   10.49    1.21
 -10  -6  -3   14.48    1.16
  10  -6   3   16.86    1.40
  10  -6   3   13.88    1.19
  10   6   3   15.12    1.21
 -10   6  -3   13.09    1.37
  12  -6   3    7.86    1.24
  12  -6   3    5.79    0.94
  12   6   3    6.39    0.97
 -12   6  -3    6.21    1.16
 -14  -6  -3    3.91    0.94
  14  -6   3    4.63    1.01
  14  -6   3    3.13    0.84
 -14   6  -3    3.34    1.06
  14   6   3    2.91    0.77
  16  -6   3    8.68    1.52
  16  -6   3    3.41    0.99
  16   6   3    5.12    0.93
  18  -6   3    2.95    1.12
  18  -6   3    2.12    1.00
  18   6   3    1.24    0.83
  19  -7  -3    1.67    1.27
  19  -7  -3    0.62    1.14
  19   7  -3   -0.99    1.38
  17  -7  -3    2.23    1.07
  17  -7  -3    1.85    1.13
  17   7  -3   -0.05    1.24
 -17   7   3    1.87    1.04
 -17   7   3    1.94    0.92
  15  -7  -3    1.70    0.96
  15  -7  -3    3.20    1.14
 -15   7   3    2.43    0.89
 -15   7   3    0.55    0.82
 -15   7   3    3.18    0.87
  15   7  -3   -0.03    1.10
  13  -7  -3    2.19    1.01
  13  -7  -3    4.36    1.03
 -13  -7   3    4.53    1.09
  13   7  -3    5.10    1.27
 -13   7   3    6.79    1.00
 -13   7   3    3.71    0.80
 -13   7   3    3.70    0.95
  11  -7  -3    9.02    1.49
 -11  -7   3    8.61    1.29
  11  -7  -3    8.31    1.28
  11   7  -3    9.36    1.46
 -11   7   3    8.77    1.01
 -11   7   3   10.66    1.08
  -9  -7   3    8.97    1.24
   9  -7  -3    6.40    1.23
   9  -7  -3    7.20    1.01
  -9   7   3    7.34    0.92
   9   7  -3    7.72    1.30
  -9   7   3    6.00    0.92
   7  -7  -3    8.71    1.07
   7  -7  -3    8.32    1.44
  -7  -7   3    8.24    1.09
   7   7  -3    9.21    1.38
  -7   7   3    8.72    0.99
  -7   7   3    7.24    0.89
   5  -7  -3   13.03    1.08
   5  -7  -3   11.24    1.53
  -5   7   3   12.67    1.07
   5   7  -3   14.36    1.11
   5   7  -3   11.04    1.44
  -5   7   3   11.92    0.93
   3   7  -3   10.76    1.31
  -3   7   3    9.79    0.93
  -3   7   3   10.52    0.89
   3   7  -3   10.37    1.00
  -1  -7   3   16.46    1.90
   1   7  -3   17.64    1.55
  -1   7   3   19.69    1.42
  -1   7   3   20.27    1.25
   1   7  -3   18.01    1.25
  -1   7   3   20.44    1.20
   1  -7   3   10.43    2.14
   1   7   3    8.06    1.13
   1   7   3    9.14    0.84
  -1   7  -3    8.83    0.96
  -1   7  -3    9.54    1.29
   1   7   3    9.32    0.99
   3  -7   3   10.90    1.80
  -3   7  -3    9.94    1.28
  -3   7  -3    9.03    1.02
   3   7   3    7.85    0.84
   3   7   3    8.75    1.07
  -3   7  -3    9.82    1.08
   5  -7   3   17.78    1.70
  -5   7  -3   13.90    1.30
   5   7   3   13.80    1.03
   5   7   3   12.23    1.46
   5   7   3   16.87    1.56
  -5   7  -3   14.49    1.24
  -5   7  -3   16.23    1.43
   7  -7   3   12.57    1.50
  -7   7  -3    7.80    1.01
  -7   7  -3   10.75    1.44
  -7   7  -3    7.77    1.18
   7   7   3    9.75    1.20
   7   7   3    8.96    1.33
   7   7   3    8.84    0.89
   9  -7   3    4.14    0.90
  -9   7  -3    3.69    0.85
  -9   7  -3    3.08    0.80
   9   7   3    3.80    0.88
   9   7   3    3.92    0.67
   9   7   3    3.87    1.17
  11  -7   3    9.42    1.48
  11  -7   3    7.78    1.19
 -11  -7  -3    8.12    1.09
  11   7   3    8.26    1.16
  11   7   3    5.92    0.93
 -11   7  -3    5.59    1.02
 -11   7  -3    4.90    1.12
  13  -7   3    1.71    0.98
  13  -7   3    2.76    1.12
 -13  -7  -3    2.75    1.38
  13   7   3    1.69    0.84
  15  -7   3    4.83    1.30
  15  -7   3    2.42    0.95
  15   7   3    1.67    0.79
  17  -7   3    3.19    1.54
  17  -7   3    1.61    1.41
  17   7   3    1.01    0.95
  18  -8  -3   -0.80    1.32
  18  -8  -3   -1.06    1.34
  16  -8  -3    1.27    1.14
  16  -8  -3    1.52    1.32
  16   8  -3   -2.15    1.31
 -16   8   3    2.82    0.99
  14  -8  -3    3.31    1.14
  14  -8  -3    5.53    1.39
 -14   8   3    4.25    0.94
 -14   8   3    1.25    0.88
  14   8  -3    2.98    1.46
  12  -8  -3    2.34    1.00
  12  -8  -3    5.80    1.40
  12   8  -3    3.20    1.31
 -12   8   3    1.98    0.82
 -12   8   3    1.90    0.80
  10  -8  -3    2.57    1.02
  10  -8  -3    3.26    1.36
 -10  -8   3    5.16    1.13
 -10   8   3    3.35    0.82
  10   8  -3    2.89    1.22
 -10   8   3    1.93    0.80
   8  -8  -3    5.33    1.07
  -8  -8   3    3.45    1.04
   8  -8  -3    6.43    1.63
  -8   8   3    4.47    0.81
   8   8  -3    5.41    1.26
   8   8  -3    4.21    0.88
  -8   8   3    4.23    0.88
   6  -8  -3    7.05    1.13
   6  -8  -3    5.47    1.36
   6   8  -3    7.97    1.35
  -6   8   3    4.79    0.88
  -6   8   3    7.42    0.92
  -6   8   3    9.57    1.30
   6   8  -3    8.35    1.09
   4   8  -3    3.91    0.83
  -4   8   3    2.92    0.79
  -4   8   3    4.77    0.97
   4   8  -3    3.79    1.19
  -4   8   3    4.24    0.73
   2   8  -3    7.07    1.28
  -2   8   3    8.35    1.19
  -2   8   3    7.17    1.04
  -2   8   3    9.05    0.97
   2   8  -3    8.49    1.14
   0  -8   3    4.02    1.39
   0   8  -3    5.26    1.19
   0   8  -3    3.60    0.82
   0   8   3    7.61    1.06
   0   8   3    5.76    0.89
   0   8   3    7.31    1.18
   2  -8   3    6.71    1.48
   2   8   3    8.35    1.26
   2   8   3    7.44    1.02
  -2   8  -3    6.03    1.29
  -2   8  -3    4.16    0.88
  -2   8  -3    5.81    0.98
   2   8   3    5.44    0.84
   4  -8   3    4.88    1.30
   4   8   3    8.46    1.28
   4   8   3    5.19    0.82
  -4   8  -3    5.99    1.29
  -4   8  -3    6.23    1.01
   4   8   3    5.64    1.06
  -4   8  -3    5.88    0.97
   6  -8   3    4.30    1.14
  -6   8  -3    5.17    1.02
   6   8   3    4.85    0.79
   6   8   3    2.86    0.93
  -6   8  -3    3.21    0.83
  -6   8  -3    4.85    1.21
   6   8   3    3.86    1.02
   8  -8   3    4.71    1.24
   8   8   3    6.65    0.97
   8   8   3    3.22    1.07
  -8   8  -3    2.80    0.93
   8   8   3    4.11    1.02
  -8   8  -3    3.51    1.14
  -8   8  -3    4.16    1.24
  10  -8   3    2.60    0.92
  10  -8   3    5.02    1.24
  10   8   3    4.38    0.80
 -10   8  -3    3.48    1.43
  10   8   3    4.13    1.03
  12  -8   3   -0.03    0.94
  12  -8   3    1.46    1.12
  12   8   3    1.93    0.76
  12   8   3    0.92    0.98
  14  -8   3    2.21    1.13
  14  -8   3    2.73    1.43
  14   8   3   -0.53    0.92
  15  -9  -3    1.24    1.29
  15  -9  -3    0.63    1.60
  13  -9  -3   -0.83    1.14
  13  -9  -3    0.33    1.51
 -13   9   3    0.37    1.60
  13   9  -3   -1.49    1.99
 -13   9   3    1.49    0.94
  11  -9  -3    0.71    1.64
  11  -9  -3    3.05    1.17
 -11   9   3    3.29    0.92
  11   9  -3    3.14    1.00
  11   9  -3    3.05    1.48
   9  -9  -3    0.64    1.48
   9  -9  -3    0.54    1.09
  -9   9   3   -0.34    0.88
  -9   9   3    2.42    0.81
   9   9  -3    3.14    0.91
   9   9  -3   -0.04    1.33
  -7   9   3    0.32    0.83
  -7   9   3    1.89    1.21
   7   9  -3    3.26    1.33
   7   9  -3    2.98    0.89
  -7   9   3    1.79    0.79
  -5   9   3    1.86    0.87
   5   9  -3    0.83    1.24
   5   9  -3    0.47    0.86
  -5   9   3    2.15    0.72
  -5   9   3    3.03    1.08
  -3   9   3    1.42    1.09
   3   9  -3    0.56    1.11
   3   9  -3    1.07    0.80
  -3   9   3    0.78    0.88
  -3   9   3    2.15    0.65
   1   9  -3    4.22    0.89
  -1   9   3    2.84    1.04
  -1   9   3    2.91    0.87
   1   9  -3    2.41    1.25
  -1   9   3    3.46    0.82
   1  -9   3    1.04    1.51
   1   9   3    3.81    1.16
   1   9   3    1.72    0.77
  -1   9  -3    2.80    0.85
   1   9   3    0.36    0.76
  -1   9  -3   -0.91    1.13
   3  -9   3   -0.91    1.54
   3   9   3    3.14    1.10
  -3   9  -3    3.32    0.96
   3   9   3    1.39    0.89
  -3   9  -3    1.98    1.25
   3   9   3    1.02    0.78
   5  -9   3    3.18    1.55
   5   9   3    3.41    1.00
   5   9   3    3.52    1.20
  -5   9  -3    5.33    1.29
   7  -9   3    2.08    1.42
   7   9   3    2.68    0.85
  -7   9  -3    0.52    1.29
   7   9   3    2.00    1.07
   9  -9   3    1.47    1.33
   9   9   3    1.06    1.09
   9   9   3   -1.85    1.11
  -9   9  -3    1.88    1.43
  11  -9   3    1.24    1.58
  11   9   3    2.95    1.29
 -11   9  -3    1.29    1.60
  10 -10  -3    3.48    1.95
  10 -10  -3   -1.47    1.27
 -10  10   3    0.04    2.30
  10  10  -3    2.17    2.16
  -8  10   3    4.00    1.52
  -8  10   3   -0.44    0.82
  -8  10   3    0.49    1.04
   8  10  -3   -0.53    1.43
  -6  10   3    2.35    1.36
  -6  10   3    1.79    0.99
   6  10  -3    5.34    1.59
  -6  10   3    1.37    0.80
  -4  10   3   -2.51    1.25
   4  10  -3    2.15    1.43
  -4  10   3   -0.12    0.94
  -4  10   3   -0.54    0.69
  -2  10   3    0.89    0.79
  -2  10   3    1.56    1.01
  -2  10   3    1.21    1.33
   2  10  -3   -0.88    1.32
   0  10   3    0.61    0.99
   0  10  -3    1.37    1.44
   0  10   3    1.90    1.34
   0  10   3    0.59    0.98
   2 -10   3    0.10    2.06
  -2  10  -3    2.10    1.43
   2  10   3    2.08    1.35
   2  10   3    2.16    0.97
   4 -10   3    1.43    2.01
   4  10   3    0.87    1.02
  -4  10  -3    1.71    1.41
   4  10   3   -1.48    1.33
   6 -10   3    1.33    1.97
   6  10   3    0.11    1.28
  -6  10  -3    3.07    1.69
   8 -10   3   -0.85    2.03
  -8  10  -3    2.40    1.79
   8  10   3    0.30    1.43
  26   0  -4    2.20    1.69
  26   0  -4    4.19    1.34
  24   0  -4    5.13    1.17
  24   0  -4    3.96    1.20
  22   0  -4    8.68    1.38
  22   0  -4    7.58    1.22
  22   0  -4    8.28    0.84
 -22   0   4    8.68    1.32
  20   0  -4   21.96    1.62
  20   0  -4   20.77    1.23
 -20   0   4   22.42    1.59
  20   0  -4   23.56    1.58
 -18   0   4   47.66    2.28
  18   0  -4   45.94    2.01
  18   0  -4   44.65    2.21
  16   0  -4   15.43    1.03
  16   0  -4   16.97    1.22
 -16   0   4   16.93    1.17
  14   0  -4   81.52    3.10
  14   0  -4   80.67    3.20
  12   0  -4  184.88    6.47
 -12   0   4  174.50    6.68
 -12   0   4  193.75    6.52
  12   0  -4  189.66    6.45
  10   0  -4  163.90    5.56
 -10   0   4  153.47    5.71
 -10   0   4  160.66    5.55
  10   0  -4  157.23    5.53
  -8   0   4  283.11    9.50
   8   0  -4  287.23    9.56
   8   0  -4  274.95    9.48
  -8   0   4  291.88    9.67
   6   0  -4  133.56    4.67
  -6   0   4  132.47    4.57
  -6   0   4  132.58    4.71
   4   0  -4  427.55   13.95
  -4   0   4  425.41   13.96
   4   0  -4  429.20   14.09
  -4   0   4  426.67   14.11
   4   0  -4  426.33   13.92
   2   0  -4  597.66   19.45
   2   0  -4  599.24   19.52
   2   0  -4  597.93   19.47
  -2   0   4  605.82   19.68
  -2   0   4  590.17   19.65
  -2   0   4  591.65   19.44
   0   0   4  363.98   12.03
   0   0   4  380.54   12.14
   0   0  -4  370.40   12.13
   0   0   4  359.83   11.94
   0   0  -4  364.62   12.02
  -2   0  -4   87.65    2.99
  -2   0  -4   89.92    3.17
   2   0   4   87.50    3.13
  -2   0  -4   92.51    2.97
   2   0   4   94.68    3.19
  -2   0  -4   88.59    3.17
   4   0   4  394.08   12.64
   4   0   4  391.26   12.74
   4   0   4  380.37   12.80
  -4   0  -4  382.08   12.73
  -4   0  -4  394.69   12.60
  -6   0  -4  187.58    6.02
   6   0   4  182.81    5.98
   6   0   4  172.18    6.22
   6   0   4  182.58    6.07
  -8   0  -4  124.95    4.22
   8   0   4  124.33    4.18
   8   0   4  124.05    4.17
   8   0   4  118.83    4.43
  10   0   4   72.30    2.60
 -10   0  -4   71.92    2.67
  12   0   4   39.44    1.61
  12   0   4   38.49    1.91
 -12   0  -4   38.48    1.69
  14   0   4   38.23    1.65
 -14   0  -4   41.49    1.78
  14   0   4   32.75    2.12
  16   0   4   21.63    1.24
  16   0   4   23.31    1.62
 -16   0  -4   21.93    1.37
  18   0   4    6.04    0.80
 -18   0  -4    7.59    1.03
  18   0   4    5.38    1.13
  20   0   4    5.08    0.79
  20   0   4    4.57    1.07
  22   0   4    4.42    0.87
  22   0   4    3.16    1.49
  25  -1  -4    5.93    1.22
  25  -1  -4    5.24    1.31
  25   1  -4    5.84    1.26
  25   1  -4    6.14    0.94
  25   1  -4    4.66    1.26
  23  -1  -4    8.68    1.44
  23  -1  -4    8.92    1.34
  23   1  -4    6.99    1.22
  23   1  -4    7.13    1.25
  23   1  -4    7.40    0.92
  21  -1  -4    4.12    0.95
 -21  -1   4    4.60    1.04
  21  -1  -4    3.78    1.21
  21   1  -4    4.63    0.77
 -21   1   4    4.00    0.90
  21   1  -4    4.28    0.97
  19  -1  -4   21.62    1.24
 -19  -1   4   21.19    1.53
  19  -1  -4   23.49    1.54
  19  -1  -4   22.24    1.55
  19   1  -4   24.95    1.76
 -19   1   4   20.90    1.48
  19   1  -4   22.24    1.34
 -17  -1   4   39.73    2.04
  17  -1  -4   37.26    2.25
  17  -1  -4   40.62    1.96
  17  -1  -4   39.62    1.77
  17   1  -4   42.81    2.07
  17   1  -4   39.47    1.87
 -17   1   4   39.86    1.99
  15  -1  -4   37.87    1.78
  15  -1  -4   37.73    1.85
 -15  -1   4   39.01    1.95
  15  -1  -4   39.06    1.72
 -15   1   4   37.48    2.01
  15   1  -4   40.50    1.94
 -15   1   4   40.71    1.88
  15   1  -4   39.90    1.85
  13  -1  -4  158.96    5.60
  13  -1  -4  156.73    5.68
  13  -1  -4  157.16    5.58
 -13  -1   4  165.21    5.80
 -13   1   4  163.83    5.71
  13   1  -4  165.66    5.75
 -13   1   4  157.44    5.77
  13   1  -4  159.70    5.73
  11  -1  -4   27.15    1.29
 -11  -1   4   27.62    1.39
  11  -1  -4   27.63    1.32
  11  -1  -4   25.23    1.19
  11   1  -4   27.64    1.42
 -11   1   4   27.28    1.38
 -11   1   4   27.52    1.32
  11   1  -4   25.77    1.37
  -9  -1   4  155.00    5.38
   9  -1  -4  152.19    5.29
   9  -1  -4  153.98    5.31
  -9   1   4  150.45    5.28
  -9   1   4  151.80    5.34
   9   1  -4  152.10    5.44
   9   1  -4  154.26    5.35
   7  -1  -4  470.84   15.40
   7  -1  -4  470.60   15.32
  -7  -1   4  465.62   15.41
  -7  -1   4  441.52   15.66
  -7   1   4  478.26   15.33
   7   1  -4  480.19   15.42
  -7   1   4  472.82   15.40
   7   1  -4  474.84   15.53
   7   1  -4  451.38   15.33
  -5  -1   4  178.15    5.99
  -5  -1   4  173.86    6.23
   5  -1  -4  177.63    5.87
   5  -1  -4  178.14    6.00
  -5   1   4  178.05    5.87
  -5   1   4  180.81    5.99
   5   1  -4  169.69    5.89
   5   1  -4  163.62    6.07
   5   1  -4  176.78    6.10
   3  -1  -4  150.08    5.16
  -3  -1   4  150.83    5.23
   3  -1  -4  151.47    4.98
  -3  -1   4  149.55    5.35
  -3  -1   4  147.17    5.11
   3   1  -4  148.40    5.10
   3   1  -4  157.64    5.05
  -3   1   4  143.66    4.97
  -3   1   4  151.41    5.14
   3   1  -4  148.31    5.24
  -1  -1   4  374.83   12.97
  -1  -1   4  390.72   12.78
   1  -1  -4  397.17   12.89
  -1  -1   4  407.57   13.06
   1  -1  -4  339.69   12.63
   1   1  -4  419.00   12.81
  -1   1   4  398.80   12.65
   1   1  -4  389.69   13.03
  -1   1   4  384.64   12.73
  -1   1   4  406.54   12.87
   1  -1   4  149.45    5.07
   1  -1   4  137.24    4.81
  -1   1  -4  143.04    4.81
  -1   1  -4  139.21    4.95
  -1   1  -4  147.06    4.91
   1   1   4  140.34    4.90
  -1   1  -4  145.91    4.78
   1   1   4  146.58    4.91
   3  -1   4  372.49   11.92
   3  -1   4  356.24   11.64
   3  -1   4  348.29   11.76
  -3   1  -4  366.37   11.66
   3   1   4  366.19   11.77
  -3   1  -4  355.86   11.79
  -3   1  -4  357.19   11.85
   3   1   4  338.34   11.77
   5  -1   4  172.01    5.92
   5  -1   4  170.42    5.71
   5  -1   4  169.30    5.89
  -5  -1  -4  174.03    5.68
   5   1   4  173.06    5.62
  -5   1  -4  174.80    5.99
  -5   1  -4  175.92    5.75
   5   1   4  178.35    5.81
   5   1   4  162.98    5.90
  -7  -1  -4   19.83    0.86
   7  -1   4   19.00    0.85
   7  -1   4   18.00    1.03
  -7   1  -4   18.71    1.09
   7   1   4   20.77    0.90
   7   1   4   18.66    1.05
  -7   1  -4   19.12    0.89
  -7   1  -4   18.63    0.82
   7   1   4   20.07    0.79
  -9  -1  -4  180.77    6.02
   9  -1   4  176.68    6.23
   9  -1   4  174.12    5.98
  -9   1  -4  183.16    6.04
   9   1   4  181.77    5.95
   9   1   4  176.24    5.92
   9   1   4  168.43    6.23
  11  -1   4   57.69    2.46
 -11  -1  -4   57.28    2.29
  11  -1   4   56.74    2.19
  11   1   4   53.64    2.46
 -11   1  -4   58.87    2.27
  11   1   4   58.37    2.07
  11   1   4   58.79    2.15
 -13  -1  -4   14.46    1.00
  13  -1   4   16.15    0.93
  13  -1   4   13.77    1.17
  13   1   4   14.70    1.21
 -13   1  -4   14.74    0.97
  13   1   4   15.90    0.89
  15  -1   4   23.03    1.29
 -15  -1  -4   26.30    1.43
  15  -1   4   24.70    1.61
 -15   1  -4   24.94    1.38
  15   1   4   25.20    1.66
  15   1   4   23.47    1.28
  17  -1   4   13.29    1.33
  17  -1   4   12.95    1.01
 -17   1  -4    9.88    1.05
  17   1   4   14.42    1.00
  17   1   4   12.95    1.39
  19  -1   4    3.18    1.10
  19  -1   4    5.10    0.77
 -19  -1  -4    4.89    1.05
  19   1   4    4.60    1.28
  19   1   4    3.26    0.70
  21  -1   4    6.47    1.18
  21  -1   4    5.00    0.94
  21   1   4    6.03    0.87
  21   1   4    7.40    1.43
  24  -2  -4    2.64    1.07
  24  -2  -4    3.21    1.17
  24   2  -4    3.91    1.12
  24   2  -4    5.02    0.86
  22  -2  -4    6.71    1.25
  22  -2  -4    5.89    1.13
  22   2  -4    6.09    1.02
  22   2  -4    4.75    1.15
  20  -2  -4   13.83    1.41
  20  -2  -4   16.11    1.45
  20   2  -4   14.96    1.40
 -20   2   4   14.63    1.30
  20   2  -4   14.99    1.19
 -18  -2   4   30.28    1.88
  18  -2  -4   30.63    1.69
  18  -2  -4   29.73    1.82
 -18   2   4   28.85    1.70
  18   2  -4   32.14    1.74
 -18   2   4   28.70    1.88
  18   2  -4   31.94    2.00
 -16  -2   4    8.12    1.07
  16  -2  -4    9.71    1.00
  16  -2  -4    8.89    0.98
  16   2  -4    8.63    1.06
 -16   2   4    9.10    1.02
 -16   2   4   10.01    0.95
  16   2  -4    9.82    1.04
 -14  -2   4   47.02    2.24
  14  -2  -4   49.42    2.27
  14  -2  -4   47.69    2.00
  14   2  -4   46.48    2.22
  14   2  -4   49.62    2.28
 -14   2   4   45.91    2.09
 -12  -2   4  106.22    4.12
  12  -2  -4  107.53    3.99
  12  -2  -4  107.06    3.83
 -12   2   4  105.23    3.95
  12   2  -4  114.66    4.24
 -12   2   4  110.97    3.99
  12   2  -4  108.31    4.08
  10  -2  -4   81.38    2.91
 -10  -2   4   84.62    3.25
  10  -2  -4   82.64    3.08
  10   2  -4   84.91    3.36
  10   2  -4   81.32    3.21
 -10   2   4   81.07    3.08
 -10   2   4   84.18    3.08
  -8  -2   4  149.90    5.31
   8  -2  -4  150.04    5.14
   8  -2  -4  147.21    4.94
   8   2  -4  148.39    5.23
  -8   2   4  152.40    5.13
   8   2  -4  150.10    5.46
  -8   2   4  149.61    5.17
   8   2  -4  141.76    5.24
   6  -2  -4   55.85    2.12
  -6  -2   4   56.78    2.29
  -6   2   4   58.30    2.10
   6   2  -4   56.40    2.27
   6   2  -4   55.17    2.20
  -6   2   4   56.97    2.19
   4  -2  -4  203.25    6.62
  -4  -2   4  202.70    6.83
  -4  -2   4  176.40    6.80
  -4   2   4  204.77    6.77
   4   2  -4  194.03    7.00
  -4   2   4  204.69    6.62
   4   2  -4  205.72    6.82
   4   2  -4  202.79    6.75
   2  -2  -4  281.40    9.27
  -2  -2   4  276.21    9.46
  -2  -2   4  274.27    9.50
  -2   2   4  287.82    9.48
   2   2  -4  303.36    9.46
   2   2  -4  279.38    9.69
  -2   2   4  285.02    9.27
   0  -2   4  167.91    5.90
   0   2  -4  190.16    5.99
   0   2  -4  169.64    6.13
   0   2  -4  173.03    5.93
   0   2   4  173.61    5.71
   0   2   4  176.30    5.97
   0   2  -4  173.64    5.86
   2  -2   4   33.41    1.38
  -2   2  -4   34.07    1.38
  -2   2  -4   35.86    1.50
  -2   2  -4   33.94    1.56
   2   2   4   34.60    1.45
  -2   2  -4   34.44    1.36
  -4  -2  -4  199.86    6.61
   4  -2   4  197.95    6.71
   4  -2   4  190.93    6.79
   4   2   4  205.05    6.83
  -4   2  -4  208.24    6.96
  -4   2  -4  196.53    6.88
  -4   2  -4  211.41    6.76
   4   2   4  204.22    6.58
  -6  -2  -4   90.31    3.22
   6  -2   4   92.70    3.25
   6  -2   4   90.33    3.37
  -6   2  -4   90.19    3.30
   6   2   4   94.54    3.13
  -6   2  -4   94.68    3.29
  -6   2  -4   95.11    3.53
   6   2   4   94.54    3.33
   8  -2   4   68.67    2.51
  -8  -2  -4   64.84    2.51
   8  -2   4   68.11    2.68
   8   2   4   68.33    2.41
  -8   2  -4   71.14    2.57
  -8   2  -4   67.95    2.43
   8   2   4   69.77    2.54
 -10  -2  -4   38.08    1.66
  10  -2   4   38.56    1.60
  10  -2   4   37.08    1.78
  10   2   4   37.57    1.52
  10   2   4   37.70    1.56
 -10   2  -4   40.01    1.66
 -10   2  -4   36.46    1.88
 -12  -2  -4   21.28    1.24
  12  -2   4   23.36    1.40
  12  -2   4   23.47    1.18
  12   2   4   22.36    1.08
 -12   2  -4   22.83    1.22
  12   2   4   22.86    1.11
 -14  -2  -4   25.10    1.43
  14  -2   4   24.35    1.36
  14  -2   4   23.82    1.54
  14   2   4   25.81    1.65
 -14   2  -4   25.86    1.40
  14   2   4   25.04    1.15
  14   2   4   26.76    1.28
  16  -2   4   14.60    1.07
  16  -2   4   15.33    1.38
 -16  -2  -4   16.09    1.28
  16   2   4   15.23    1.05
  16   2   4   14.83    1.44
  18  -2   4    5.31    0.78
 -18  -2  -4    3.67    0.89
  18  -2   4    6.05    1.21
  18   2   4    3.21    0.87
 -18   2  -4    3.37    0.88
  18   2   4    4.07    0.70
  20  -2   4    4.99    1.08
  20  -2   4    4.54    0.83
  20   2   4    3.93    0.76
  20   2   4    5.60    1.59
  22  -2   4    4.31    0.92
  22   2   4    3.31    0.88
  25  -3  -4    3.16    1.15
  25  -3  -4    1.44    1.25
  25   3  -4    1.47    1.01
  23  -3  -4    4.28    1.08
  23  -3  -4    6.13    1.26
  23   3  -4    4.93    1.09
  23   3  -4    3.19    1.22
  21  -3  -4    3.30    0.99
  21  -3  -4    3.14    0.97
  21   3  -4    4.05    1.00
 -21   3   4    1.70    0.82
  21   3  -4    2.58    1.03
 -21   3   4    3.86    1.40
  19  -3  -4   14.43    1.43
 -19  -3   4   14.08    1.44
  19  -3  -4   12.99    1.26
  19   3  -4   12.91    1.45
  19   3  -4   16.31    1.45
 -19   3   4   10.19    1.37
 -19   3   4   13.41    1.24
  17  -3  -4   21.22    1.69
 -17  -3   4   23.26    1.61
  17  -3  -4   21.45    1.33
  17   3  -4   26.75    1.76
 -17   3   4   21.96    1.45
 -17   3   4   19.69    1.35
  17   3  -4   18.40    1.59
 -15  -3   4   19.34    1.50
  15  -3  -4   20.33    1.19
  15  -3  -4   19.76    1.30
  15   3  -4   19.67    1.48
 -15   3   4   18.61    1.21
 -15   3   4   21.32    1.28
  15   3  -4   22.49    1.63
  13  -3  -4   86.29    3.42
 -13  -3   4   88.67    3.64
  13  -3  -4   86.50    3.22
 -13   3   4   85.06    3.33
 -13   3   4   88.41    3.42
  13   3  -4   92.44    3.61
  13   3  -4   93.82    3.82
  11  -3  -4   16.58    0.85
 -11  -3   4   15.76    1.23
  11  -3  -4   16.01    1.05
  11   3  -4   15.28    1.16
 -11   3   4   16.12    1.00
 -11   3   4   16.95    1.01
  11   3  -4   16.08    1.42
   9  -3  -4   78.43    2.70
  -9  -3   4   79.87    3.12
   9  -3  -4   76.31    2.90
  -9   3   4   79.16    2.87
   9   3  -4   74.09    3.06
   9   3  -4   74.40    3.03
  -9   3   4   72.56    2.88
   9   3  -4   77.68    3.31
   7  -3  -4  216.51    7.25
   7  -3  -4  224.83    7.36
  -7  -3   4  218.28    7.59
   7   3  -4  225.76    7.58
  -7   3   4  212.90    7.17
   7   3  -4  205.38    7.77
  -7   3   4  217.63    7.42
   7   3  -4  213.56    7.50
  -7   3   4  224.69    7.34
  -5  -3   4   90.03    3.38
   5  -3  -4   86.70    3.17
   5   3  -4   91.87    3.40
  -5   3   4   88.41    3.14
   5   3  -4   88.55    3.31
  -5   3   4   87.91    3.29
  -5   3   4   90.64    3.00
   3  -3  -4   80.36    2.81
  -3  -3   4   78.06    3.02
  -3  -3   4   68.98    3.08
  -3   3   4   83.83    2.75
   3   3  -4   87.14    3.00
   3   3  -4   80.59    3.05
  -3   3   4   80.73    3.00
  -3   3   4   80.39    2.80
  -1  -3   4  187.55    6.42
   1  -3  -4  184.80    6.24
  -1  -3   4  176.85    6.49
  -1   3   4  190.47    6.20
   1   3  -4  209.39    6.48
   1   3  -4  189.69    6.45
  -1   3   4  174.69    6.27
   1  -3   4   73.30    2.82
  -1   3  -4   74.52    2.76
  -1   3  -4   82.45    2.93
  -1   3  -4   74.29    2.82
   1   3   4   76.08    2.68
   1   3   4   76.20    2.59
   3  -3   4  168.91    6.06
   3   3   4  178.17    5.85
  -3   3  -4  187.98    6.25
  -3   3  -4  165.86    6.29
  -3   3  -4  182.61    6.13
  -3   3  -4  184.67    6.06
   3   3   4  176.09    5.92
   5  -3   4   91.80    3.34
   5  -3   4   93.08    3.42
  -5  -3  -4   92.86    3.26
  -5   3  -4   91.04    3.59
  -5   3  -4   98.96    3.42
  -5   3  -4   98.47    3.63
   5   3   4   93.69    3.24
  -7  -3  -4   13.55    0.80
   7  -3   4   13.98    0.90
   7  -3   4   13.95    0.83
  -7   3  -4   14.53    1.06
  -7   3  -4   14.12    1.00
   7   3   4   14.63    0.73
  -7   3  -4   13.83    1.00
  -9  -3  -4   99.42    3.71
   9  -3   4  104.23    3.82
   9  -3   4  103.75    3.69
   9   3   4  102.26    3.57
  -9   3  -4   98.20    3.68
  -9   3  -4  103.61    4.00
  -9   3  -4  103.44    3.74
 -11  -3  -4   30.09    1.57
  11  -3   4   33.29    1.69
  11  -3   4   33.62    1.53
  11   3   4   32.37    1.44
 -11   3  -4   34.28    1.58
  13  -3   4   10.43    1.06
  13  -3   4   10.04    0.90
 -13  -3  -4   10.27    0.99
  13   3   4   10.48    0.82
 -13   3  -4    9.77    0.91
  15  -3   4   15.59    1.31
  15  -3   4   15.12    1.13
 -15  -3  -4   14.00    1.25
  15   3   4   17.15    1.07
  15   3   4   16.29    1.01
  17  -3   4    8.37    1.21
 -17  -3  -4    8.46    1.17
  17  -3   4    7.70    0.96
  17   3   4    8.07    0.92
  17   3   4    7.55    1.22
 -17   3  -4   10.19    1.19
  17   3   4    8.81    0.80
  19  -3   4    2.52    0.73
  19  -3   4    2.48    0.86
  19   3   4    4.09    0.74
  19   3   4    3.54    1.12
  21  -3   4    2.91    1.06
  21  -3   4    4.18    0.96
  21   3   4    2.07    1.26
  21   3   4    4.79    0.85
  24  -4  -4    2.55    1.28
  24  -4  -4    3.29    1.12
  24   4  -4    2.51    1.20
  24   4  -4    1.87    1.84
  22  -4  -4    2.49    1.04
  22  -4  -4    3.91    1.03
 -22   4   4    5.01    1.68
  22   4  -4    4.33    1.27
  22   4  -4    4.71    1.27
  20  -4  -4    8.56    1.48
  20  -4  -4    6.29    1.19
 -20   4   4    6.09    1.01
 -20   4   4    7.73    1.36
  20   4  -4    6.96    1.31
  18  -4  -4   12.26    1.35
 -18  -4   4   16.71    1.55
  18  -4  -4   16.16    1.24
 -18   4   4   12.64    1.26
  18   4  -4   13.66    1.70
 -18   4   4   14.72    1.21
  18   4  -4   14.42    1.45
 -16  -4   4    6.95    1.08
  16  -4  -4    6.32    1.06
  16  -4  -4    8.75    0.90
 -16   4   4    5.71    0.93
  16   4  -4    8.97    1.52
 -16   4   4    5.35    0.91
  16   4  -4    6.17    1.10
  14  -4  -4   22.15    1.22
  14  -4  -4   24.66    1.51
 -14  -4   4   25.53    1.71
  14   4  -4   27.22    1.99
  14   4  -4   24.08    1.64
 -14   4   4   21.53    1.33
 -14   4   4   24.63    1.40
  12  -4  -4   48.96    1.95
 -12  -4   4   48.89    2.39
  12  -4  -4   48.79    2.17
  12   4  -4   48.87    2.64
 -12   4   4   46.51    2.07
  12   4  -4   48.65    2.35
  12   4  -4   47.42    2.32
 -12   4   4   48.91    2.12
 -10  -4   4   38.95    2.10
  10  -4  -4   41.14    1.70
  10  -4  -4   42.56    1.86
 -10   4   4   43.43    1.84
 -10   4   4   40.95    1.65
  10   4  -4   40.80    2.13
 -10   4   4   40.01    1.82
  10   4  -4   40.33    2.03
   8  -4  -4   72.50    2.97
   8  -4  -4   68.79    2.72
  -8  -4   4   72.91    3.03
   8   4  -4   72.02    2.94
  -8   4   4   69.35    2.80
   8   4  -4   75.06    3.02
  -8   4   4   72.83    2.57
  -8   4   4   70.80    2.71
   6  -4  -4   39.79    1.67
  -6  -4   4   40.37    1.93
   6  -4  -4   33.72    1.67
  -6   4   4   40.84    1.65
  -6   4   4   39.30    1.78
   6   4  -4   41.48    1.84
  -6   4   4   41.76    1.52
   6   4  -4   41.22    1.93
  -4  -4   4   83.46    3.84
   4  -4  -4  102.84    3.52
  -4  -4   4   99.58    3.76
   4   4  -4  106.76    3.71
   4   4  -4  100.12    3.80
  -4   4   4  101.16    3.41
  -4   4   4   99.93    3.50
  -2  -4   4  124.51    4.56
   2  -4  -4  130.04    4.36
  -2  -4   4  114.96    4.73
   2   4  -4  137.33    4.57
  -2   4   4  126.68    4.33
  -2   4   4  126.15    4.37
   2   4  -4  126.03    4.61
   0  -4   4   88.67    3.60
   0   4   4   90.43    3.41
   0   4   4   94.56    3.26
   0   4   4   97.42    3.36
   0   4  -4   92.92    3.42
   0   4  -4  104.87    3.57
   0   4  -4   90.49    3.52
   2   4   4   34.49    1.48
  -2   4  -4   33.64    1.58
  -2   4  -4   35.35    1.66
  -2   4  -4   34.43    1.53
   2   4   4   34.53    1.34
   4  -4   4   95.54    3.65
  -4   4  -4   98.40    3.81
   4   4   4  101.71    3.43
  -4   4  -4  105.07    3.71
   4   4   4   97.53    3.54
   6  -4   4   50.89    2.08
   6  -4   4   53.60    2.17
  -6  -4  -4   50.07    2.01
   6   4   4   53.01    2.03
   6   4   4   51.23    1.92
  -6   4  -4   54.55    2.18
  -6   4  -4   51.72    2.36
   8  -4   4   41.81    1.81
   8  -4   4   41.48    1.87
  -8  -4  -4   41.25    1.82
   8   4   4   42.45    1.72
  -8   4  -4   39.96    2.05
  -8   4  -4   43.30    2.11
  -8   4  -4   43.64    1.90
 -10  -4  -4   21.19    1.27
  10  -4   4   24.07    1.38
  10  -4   4   24.06    1.28
 -10   4  -4   22.61    1.37
 -10   4  -4   23.26    1.31
  10   4   4   22.48    1.17
  12  -4   4   14.20    1.06
  12  -4   4   16.05    1.22
 -12  -4  -4   14.01    1.17
  12   4   4   14.68    0.98
 -14  -4  -4   12.14    1.23
  14  -4   4   15.21    1.16
  14  -4   4   16.31    1.30
 -14   4  -4   14.14    1.14
  14   4   4   15.53    1.06
  16  -4   4    8.09    1.02
  16  -4   4    8.04    1.26
 -16  -4  -4    9.70    1.32
  16   4   4    9.74    0.93
 -16   4  -4    8.68    1.27
  18  -4   4    4.11    0.94
  18  -4   4    3.65    0.87
  18   4   4    3.11    1.05
  18   4   4    2.94    0.70
  20  -4   4    2.95    0.99
  20  -4   4    1.76    0.95
  20   4   4    2.35    1.28
  20   4   4    3.84    0.76
  23  -5  -4    0.44    1.12
  23  -5  -4    3.12    1.03
  23   5  -4    2.60    1.45
  21  -5  -4    1.49    0.84
  21  -5  -4    2.04    1.04
 -21   5   4    0.45    1.20
  21   5  -4    2.89    1.17
  21   5  -4    2.09    1.34
  19  -5  -4    3.10    1.05
  19  -5  -4    5.22    0.99
  19   5  -4    3.58    1.51
  19   5  -4    5.22    1.23
 -19   5   4    3.84    1.00
 -19   5   4    6.18    1.17
  17  -5  -4    6.53    1.07
 -17  -5   4    8.32    1.33
  17  -5  -4    9.79    1.09
 -17   5   4    6.39    0.98
  17   5  -4    8.57    1.35
 -17   5   4    7.44    1.16
  17   5  -4    8.54    1.83
 -15  -5   4    7.57    1.20
  15  -5  -4    7.30    1.00
  15  -5  -4    7.16    1.06
  15   5  -4    6.95    1.20
 -15   5   4    6.53    1.01
  15   5  -4    8.84    1.99
  15   5  -4   10.01    3.03
 -15   5   4    6.66    1.00
 -13  -5   4   28.10    1.82
  13  -5  -4   29.03    1.51
  13  -5  -4   31.02    1.95
 -13   5   4   26.93    1.53
  13   5  -4   29.23    1.84
 -13   5   4   29.66    1.58
 -13   5   4   29.16    1.46
 -11  -5   4    7.29    1.10
  11  -5  -4    7.15    0.91
  11  -5  -4    7.06    0.84
  11   5  -4    6.25    1.00
 -11   5   4    7.12    0.90
 -11   5   4    6.88    1.02
  11   5  -4    8.02    1.16
 -11   5   4    6.83    0.68
   9  -5  -4   23.08    1.31
   9  -5  -4   19.72    1.34
  -9  -5   4   25.06    1.58
   9   5  -4   23.47    1.47
   9   5  -4   25.35    1.60
  -9   5   4   22.65    1.33
  -9   5   4   23.99    1.13
  -9   5   4   22.95    1.23
   7  -5  -4   51.10    2.45
  -7  -5   4   59.30    2.70
   7  -5  -4   58.54    2.36
   7   5  -4   59.49    2.54
   7   5  -4   60.58    2.69
  -7   5   4   60.74    2.34
  -7   5   4   59.95    2.20
  -5  -5   4   28.14    1.56
   5  -5  -4   27.75    1.34
  -5   5   4   27.94    1.20
  -5   5   4   28.64    1.31
   5   5  -4   26.16    1.59
  -3  -5   4   21.91    1.65
   3  -5  -4   27.08    1.27
  -3  -5   4   25.97    1.44
  -3   5   4   27.18    1.24
   3   5  -4   29.74    1.46
   3   5  -4   23.83    1.50
  -3   5   4   28.23    1.22
  -1  -5   4   51.12    2.59
   1   5  -4   52.63    2.36
  -1   5   4   57.69    2.16
  -1   5   4   58.13    2.26
  -1   5   4   58.38    2.27
   1   5  -4   57.84    2.48
   1   5  -4   60.60    2.40
   1  -5   4   24.61    1.50
  -1   5  -4   25.69    1.37
   1   5   4   24.61    1.28
   1   5   4   24.02    1.10
  -1   5  -4   23.47    1.28
  -1   5  -4   24.22    1.43
   1   5   4   22.45    1.27
   3  -5   4   53.07    2.33
  -3   5  -4   53.72    2.34
   3   5   4   54.17    2.22
  -3   5  -4   55.27    2.38
   3   5   4   52.19    2.01
  -3   5  -4   50.68    2.21
   5  -5   4   31.84    1.61
  -5   5  -4   33.11    1.64
   5   5   4   30.91    1.50
  -5   5  -4   29.50    1.69
   5   5   4   30.57    1.33
  -5   5  -4   32.07    1.58
   7  -5   4    6.37    0.90
  -7  -5  -4    4.98    0.68
   7  -5   4    5.52    0.78
   7   5   4    5.69    0.56
  -7   5  -4    6.05    1.50
   7   5   4    5.82    0.73
   9  -5   4   31.40    1.62
  -9  -5  -4   32.14    1.59
   9  -5   4   31.01    2.08
   9   5   4   33.13    1.53
  11  -5   4   15.07    1.26
  11  -5   4   11.42    1.05
 -11  -5  -4   11.15    1.10
 -11   5  -4   12.03    1.39
  11   5   4   10.99    0.95
  13  -5   4    5.76    0.90
  13  -5   4    7.54    1.16
 -13  -5  -4    6.34    0.91
  13   5   4    4.07    0.71
  15  -5   4    6.12    1.00
  15  -5   4    7.23    1.04
  15   5   4    5.95    0.90
  17  -5   4    3.04    0.93
  17  -5   4    4.97    0.96
  17   5   4    4.28    0.76
  19  -5   4    1.06    1.12
  19  -5   4   -0.81    0.92
  19   5   4    0.57    0.72
  22  -6  -4    1.09    1.32
  22  -6  -4   -0.81    1.36
  22   6  -4    2.13    1.65
  20  -6  -4    2.57    1.08
  20  -6  -4    2.63    1.09
 -20   6   4    2.42    1.22
  20   6  -4    4.79    1.67
  20   6  -4    0.49    1.29
  18  -6  -4    4.70    1.79
  18  -6  -4    4.60    1.08
  18   6  -4    3.61    1.24
 -18   6   4    3.89    1.23
 -18   6   4    5.03    1.00
  18   6  -4    5.36    1.82
 -16  -6   4    3.17    1.20
  16  -6  -4    2.13    0.98
  16  -6  -4    2.75    0.93
 -16   6   4    1.60    0.75
  16   6  -4    2.46    1.15
  16   6  -4    1.46    0.98
 -16   6   4    3.28    0.90
 -14  -6   4    8.17    1.28
  14  -6  -4    6.86    1.15
 -14   6   4    7.12    0.95
  14   6  -4    5.90    1.49
 -14   6   4    5.26    0.89
  14   6  -4    5.45    1.30
 -14   6   4    6.38    1.03
  12  -6  -4   11.26    1.23
 -12  -6   4   14.26    1.47
  12  -6  -4   11.60    1.22
  12   6  -4   11.54    1.54
  12   6  -4   13.17    1.65
 -12   6   4   11.45    1.07
 -12   6   4    9.83    1.09
 -12   6   4   10.42    0.96
  10  -6  -4   10.67    1.11
  10  -6  -4    9.41    1.21
 -10  -6   4   11.38    1.28
 -10   6   4   11.31    0.99
  10   6  -4   10.71    2.36
 -10   6   4   10.13    1.05
 -10   6   4    9.51    0.85
   8  -6  -4   17.94    1.26
  -8  -6   4   16.17    1.37
   8  -6  -4   15.37    1.37
  -8   6   4   18.24    1.01
   8   6  -4   16.04    1.46
   8   6  -4   18.71    1.35
  -8   6   4   17.51    1.14
   6  -6  -4    7.40    1.08
   6  -6  -4    9.84    0.89
  -6  -6   4    7.70    1.03
   6   6  -4   10.53    1.02
   6   6  -4   13.19    1.32
  -6   6   4    9.33    0.74
  -6   6   4    9.77    0.85
  -4  -6   4   17.51    1.76
  -4  -6   4   17.53    1.34
   4  -6  -4   21.91    1.23
   4   6  -4   21.26    1.25
  -4   6   4   20.70    1.14
   4   6  -4   22.32    1.56
  -4   6   4   21.25    1.08
  -2  -6   4   20.92    1.77
  -2   6   4   24.50    1.38
   2   6  -4   24.59    1.36
  -2   6   4   24.34    1.22
   2   6  -4   25.61    1.42
   2   6  -4   25.11    1.63
  -2   6   4   25.49    1.27
   0  -6   4   22.27    1.68
   0   6  -4   20.43    1.25
   0   6   4   21.00    1.23
   0   6  -4   21.84    1.47
   0   6   4   20.72    1.12
   0   6   4   21.17    1.31
   0   6  -4   22.13    1.31
   2  -6   4    9.24    1.21
   2   6   4    8.01    0.95
   2   6   4    9.99    1.05
  -2   6  -4    9.93    1.17
  -2   6  -4    8.92    1.01
  -2   6  -4   10.07    0.94
   2   6   4    9.46    0.73
   4  -6   4   23.79    1.57
  -4   6  -4   21.44    1.34
   4   6   4   21.52    1.10
   4   6   4   20.08    1.32
   4   6   4   19.73    1.41
  -4   6  -4   23.37    1.53
   6  -6   4   11.27    1.54
   6   6   4   12.03    0.83
   6   6   4   10.47    1.03
  -6   6  -4   15.09    1.31
   8  -6   4   14.31    1.32
   8  -6   4   11.13    1.04
   8   6   4   11.10    1.07
   8   6   4   12.62    0.86
  10  -6   4    6.21    0.99
  10  -6   4    7.26    0.97
  10   6   4    5.04    0.78
  10   6   4    6.35    0.74
  12  -6   4    4.96    0.90
  12  -6   4    7.39    1.27
 -12   6  -4    5.15    1.14
  12   6   4    4.54    0.80
 -12   6  -4    6.66    1.47
 -14  -6  -4    4.95    1.04
  14  -6   4    5.62    0.98
  14  -6   4    6.08    1.18
  14   6   4    5.24    0.85
  16  -6   4    2.91    0.97
  16  -6   4    2.76    1.06
  16   6   4    1.81    0.73
  18  -6   4    1.62    1.25
  18   6   4    2.89    0.83
  19  -7  -4   -0.18    1.22
  19  -7  -4    2.30    1.21
  19   7  -4    0.12    1.45
 -19   7   4   -0.55    1.30
  19   7  -4    5.59    1.94
  17  -7  -4    2.91    1.16
  17  -7  -4    1.51    1.05
  17   7  -4   -0.04    1.30
 -17   7   4    1.75    0.94
 -17   7   4    3.26    1.07
  15  -7  -4    3.48    1.13
  15  -7  -4    1.29    0.92
 -15   7   4    2.12    0.93
 -15   7   4    2.60    0.78
  15   7  -4    0.18    1.22
 -15   7   4    0.59    0.77
  13  -7  -4    7.89    1.37
 -13  -7   4   10.93    1.60
  13  -7  -4    9.94    1.31
  13   7  -4    6.57    1.38
 -13   7   4    7.45    1.06
 -13   7   4    8.13    1.08
 -13   7   4    8.08    1.19
  13   7  -4   11.03    1.51
  11  -7  -4    2.54    0.89
 -11  -7   4    2.36    1.00
  11  -7  -4    2.59    1.01
 -11   7   4    3.09    0.77
 -11   7   4    2.29    0.65
 -11   7   4    3.41    0.88
  11   7  -4    2.92    1.15
  -9  -7   4    8.37    1.22
   9  -7  -4    6.14    1.01
   9  -7  -4    4.76    1.33
  -9   7   4    6.91    0.86
  -9   7   4    4.68    0.80
   9   7  -4    8.01    1.35
   7  -7  -4   11.67    1.50
   7  -7  -4   14.20    1.23
  -7  -7   4   11.42    1.23
  -7   7   4   13.33    1.11
   7   7  -4   16.30    1.59
   5  -7  -4    8.76    1.05
   5   7  -4    8.54    1.04
  -5   7   4    9.06    0.90
   5   7  -4    8.40    1.68
  -3  -7   4   11.97    1.77
  -3   7   4    9.86    1.22
  -3   7   4   10.10    0.91
   3   7  -4    8.91    1.29
   3   7  -4    9.97    1.04
  -1  -7   4   12.79    1.81
   1   7  -4   15.30    1.45
  -1   7   4   18.02    1.16
  -1   7   4   14.64    1.07
   1   7  -4   14.63    1.20
   1  -7   4   11.01    1.62
  -1   7  -4    7.20    0.93
  -1   7  -4    7.21    1.14
   1   7   4    7.65    0.97
   1   7   4    5.96    0.79
   3  -7   4   13.44    1.56
   3   7   4   12.83    0.95
  -3   7  -4   13.50    1.14
   3   7   4   13.57    1.28
  -3   7  -4   15.39    1.51
   5  -7   4   12.49    1.47
  -5   7  -4    9.06    1.41
   5   7   4   10.67    1.19
  -5   7  -4    9.40    1.20
   5   7   4    9.91    1.22
   5   7   4    8.87    0.88
   7  -7   4    4.01    1.03
   7   7   4    4.19    1.11
   7   7   4    3.14    0.83
   7   7   4    2.72    0.63
  -7   7  -4    3.85    1.13
   9  -7   4   12.13    1.52
   9   7   4    9.92    0.91
  -9   7  -4   11.08    2.65
   9   7   4    8.72    1.46
  -9   7  -4    7.68    1.34
   9   7   4    8.22    1.18
  11  -7   4    4.39    0.99
  11  -7   4    3.72    1.03
  11   7   4    3.86    0.86
  11   7   4    3.22    0.64
  13  -7   4    1.42    1.15
  13  -7   4    2.20    0.87
  13   7   4    2.50    0.79
  13   7   4    1.48    0.63
 -13   7  -4    3.11    1.63
  15  -7   4    3.16    1.02
  15  -7   4    2.18    1.37
  15   7   4    1.15    0.84
  18  -8  -4    2.44    1.47
  18  -8  -4    3.95    1.37
  16  -8  -4    0.76    1.15
  16  -8  -4    2.90    1.35
 -16   8   4    1.47    1.12
 -16   8   4    1.28    0.93
  14  -8  -4    2.05    1.37
  14  -8  -4    1.74    1.07
 -14   8   4    2.99    1.12
 -14   8   4    0.65    0.91
  14   8  -4    2.19    1.37
 -14   8   4    3.22    0.84
  12  -8  -4    2.40    1.36
  12  -8  -4    2.67    1.06
  12   8  -4    3.04    1.34
 -12   8   4    2.89    1.08
 -12   8   4    3.71    0.90
 -12   8   4    3.44    0.77
  10  -8  -4    5.01    1.49
 -10  -8   4    1.55    1.07
 -10   8   4    3.09    0.77
  10   8  -4    1.83    1.22
 -10   8   4    3.22    1.25
   8  -8  -4    4.55    1.27
  -8  -8   4    3.28    1.05
   8  -8  -4    7.22    1.15
  -8   8   4    4.12    0.74
   8   8  -4    5.17    0.90
  -8   8   4    4.84    0.92
   8   8  -4    3.51    1.26
   6  -8  -4    3.65    1.01
  -6   8   4    4.68    1.08
   6   8  -4    2.18    1.15
  -6   8   4    2.76    0.66
   6   8  -4    3.76    0.83
  -6   8   4    2.92    0.79
  -4   8   4    6.56    1.09
   4   8  -4    7.05    1.31
  -4   8   4    6.06    0.82
  -4   8   4    5.24    0.91
   4   8  -4    6.09    0.96
  -2  -8   4    5.26    1.57
  -2   8   4    5.23    0.93
  -2   8   4    6.45    0.99
   2   8  -4    7.48    1.36
  -2   8   4    6.25    1.92
   2   8  -4    4.64    0.91
   0  -8   4    7.35    1.63
   0   8  -4    5.16    0.92
   0   8   4    5.97    0.92
   0   8   4    5.02    1.09
   0   8  -4    7.38    1.36
   0   8   4    7.81    1.08
   2  -8   4    3.58    1.36
   2   8   4    2.30    0.75
  -2   8  -4    4.79    1.20
  -2   8  -4    5.11    0.87
   2   8   4    3.47    0.70
   2   8   4    3.78    1.02
   4  -8   4    3.13    1.26
   4   8   4    3.99    0.91
  -4   8  -4    4.98    1.06
  -4   8  -4    5.46    1.24
  -4   8  -4    4.94    0.87
   4   8   4    6.09    0.90
   4   8   4    5.80    1.08
   6  -8   4    4.45    1.35
   6   8   4    4.81    0.98
  -6   8  -4    3.33    0.96
   6   8   4    2.98    0.95
   6   8   4    4.05    0.73
  -6   8  -4    5.00    1.32
  -6   8  -4    1.40    1.12
   8  -8   4    4.88    1.28
   8   8   4    3.60    0.99
  -8   8  -4    3.95    1.32
   8   8   4    5.86    1.23
   8   8   4    6.83    0.99
  10  -8   4    3.34    1.50
  10   8   4    2.72    0.70
 -10   8  -4    2.02    1.38
  10   8   4    2.08    0.92
  12  -8   4    2.40    1.25
 -12   8  -4    2.17    1.59
  12   8   4    2.31    0.88
  14  -8   4    0.43    1.49
  14   8   4    1.33    0.94
  15  -9  -4    0.86    1.35
  15  -9  -4   -1.69    1.58
  13  -9  -4    1.01    1.18
  13  -9  -4   -0.81    1.57
 -13   9   4   -2.21    0.97
 -13   9   4    0.61    0.91
  13   9  -4    3.41    1.65
  11  -9  -4    0.17    1.16
  11  -9  -4   -0.74    1.53
 -11   9   4    1.57    0.86
 -11   9   4    1.99    0.97
  11   9  -4    1.19    1.47
   9  -9  -4    1.71    1.15
  -9   9   4    0.92    0.75
  -9   9   4    1.18    0.91
   9   9  -4   -0.90    1.26
   9   9  -4   -1.10    0.94
   7   9  -4    2.91    1.32
  -7   9   4    1.49    0.74
  -7   9   4    2.13    0.85
   7   9  -4    4.11    0.99
  -7   9   4    2.81    1.19
   5   9  -4    1.19    0.90
  -5   9   4    2.28    0.84
   5   9  -4    2.18    1.25
  -5   9   4    3.16    1.16
   3   9  -4    2.03    0.85
   3   9  -4    2.75    1.27
  -3   9   4    1.61    0.81
  -3   9   4    3.80    1.07
  -3   9   4    1.19    0.61
  -1  -9   4    1.13    1.60
  -1   9   4    2.98    0.87
   1   9  -4    4.65    1.43
  -1   9   4    1.37    0.78
  -1   9   4    3.10    1.08
   1   9  -4    2.31    0.87
   1  -9   4    2.30    1.66
   1   9   4    0.79    0.76
  -1   9  -4    0.92    1.19
   1   9   4    1.03    0.86
   1   9   4   -0.25    0.95
   3  -9   4    3.14    1.59
   3   9   4    1.08    1.07
   3   9   4    1.81    0.80
  -3   9  -4    3.44    1.27
   3   9   4    1.66    0.80
   5  -9   4    3.12    1.59
   5   9   4    1.15    0.90
  -5   9  -4    4.01    1.55
   5   9   4    1.18    0.78
   5   9   4    2.32    1.05
   7  -9   4    2.05    1.63
  -7   9  -4    0.54    1.43
   7   9   4    2.32    1.06
   7   9   4    1.18    0.93
   9  -9   4    0.78    1.41
  -9   9  -4    4.90    1.72
   9   9   4    2.34    1.08
  11  -9   4   -0.49    1.80
 -11   9  -4    4.63    1.84
  11   9   4   -1.76    1.13
  10 -10  -4    2.28    1.38
  10  10  -4    3.30    2.32
 -10  10   4   -2.35    1.10
 -10  10   4    0.47    0.99
  -8  10   4   -2.13    0.99
   8  10  -4   -1.11    1.52
  -8  10   4    0.21    1.45
  -8  10   4    0.53    0.85
  -6  10   4   -0.68    1.00
   6  10  -4    2.05    1.60
  -6  10   4    2.50    1.85
  -4  10   4   -1.75    1.28
   4  10  -4   -0.13    1.41
  -4  10   4    0.29    1.02
  -4  10   4   -0.10    0.68
  -2  10   4    0.08    0.67
  -2  10   4   -0.50    1.26
   2  10  -4    3.05    1.53
  -2  10   4    2.73    1.03
   0 -10   4    3.00    2.12
   0  10   4    0.23    0.86
   0  10  -4    0.55    1.48
   0  10   4   -1.77    0.96
   0  10   4   -0.87    1.30
   2 -10   4   -2.99    1.86
  -2  10  -4    0.83    1.47
   2  10   4   -0.28    1.30
   4 -10   4    1.24    2.06
   4  10   4    0.77    1.38
  -4  10  -4   -1.43    1.53
   6 -10   4   -1.00    2.16
   6  10   4   -0.28    1.29
  -6  10  -4    1.01    1.81
  26   0  -5    0.61    1.42
  26   0  -5    2.41    1.31
  24   0  -5    5.69    1.20
  24   0  -5    6.34    0.95
  24   0  -5    6.38    1.29
 -22   0   5   -0.11    0.91
  22   0  -5    1.59    0.91
  22   0  -5    1.71    0.92
  22   0  -5    2.92    0.74
 -20   0   5    7.53    1.15
  20   0  -5    6.34    1.08
  20   0  -5    5.01    0.87
  20   0  -5    6.34    1.12
 -18   0   5   20.93    1.48
  18   0  -5   19.74    1.27
  16   0  -5   21.20    1.40
  16   0  -5   21.91    1.30
 -16   0   5   22.54    1.40
 -14   0   5   31.08    1.64
 -14   0   5   29.43    1.85
  14   0  -5   30.57    1.60
  14   0  -5   31.87    1.58
 -12   0   5   28.91    1.71
  12   0  -5   28.66    1.47
 -12   0   5   30.19    1.50
  12   0  -5   30.64    1.50
  10   0  -5   25.46    1.30
 -10   0   5   23.72    1.23
 -10   0   5   25.84    1.45
  10   0  -5   22.98    1.21
   8   0  -5  179.22    6.20
  -8   0   5  176.57    6.28
  -8   0   5  175.58    6.09
   8   0  -5  176.94    6.07
  -6   0   5  121.53    4.49
   6   0  -5  122.30    4.17
   6   0  -5  130.84    4.46
  -6   0   5  121.71    4.32
   4   0  -5   22.16    0.99
  -4   0   5   26.30    1.21
  -4   0   5   23.07    1.00
  -4   0   5   20.35    0.91
   2   0  -5  156.53    5.44
   2   0  -5  160.97    5.30
  -2   0   5  160.00    5.45
  -2   0   5  151.50    5.16
   2   0  -5  153.03    5.20
  -2   0   5  155.44    5.23
   0   0   5  108.96    3.79
   0   0   5  117.69    4.02
   0   0  -5  112.03    3.76
   0   0  -5  110.08    3.87
   0   0  -5  114.31    4.01
  -2   0  -5   83.69    2.77
  -2   0  -5   84.07    2.74
  -2   0  -5   81.96    3.00
  -2   0  -5   80.19    2.98
   2   0   5   81.28    2.91
   2   0   5   83.00    3.01
  -4   0  -5  121.13    3.94
   4   0   5  116.01    4.16
  -4   0  -5  117.76    4.15
   4   0   5  119.87    4.16
   6   0   5   33.42    1.52
  -6   0  -5   35.01    1.30
   6   0   5   32.94    1.42
   6   0   5   34.80    1.25
   8   0   5   26.13    1.02
   8   0   5   23.74    1.11
  -8   0  -5   24.84    1.07
   8   0   5   24.71    1.30
  10   0   5   89.37    3.07
  10   0   5   87.58    3.11
 -10   0  -5   88.22    3.16
  10   0   5   83.64    3.39
 -12   0  -5    9.17    0.77
  12   0   5    8.06    0.64
  12   0   5    8.40    0.93
  14   0   5   10.32    1.12
 -14   0  -5   12.14    0.96
  14   0   5   10.99    0.81
  16   0   5   12.69    1.39
  16   0   5   13.46    0.97
  18   0   5    2.97    0.65
  18   0   5    2.19    0.91
 -18   0  -5    2.87    0.82
  20   0   5    4.70    0.75
  20   0   5    5.22    1.22
  25  -1  -5    2.01    1.12
  25  -1  -5    0.05    1.18
  25   1  -5    2.02    0.84
  25   1  -5   -0.17    1.06
  25   1  -5    3.11    1.27
  23  -1  -5    3.43    1.07
  23  -1  -5    2.31    0.99
  23   1  -5    3.85    0.83
  23   1  -5    2.87    1.07
  23   1  -5    3.77    1.07
  21  -1  -5    9.09    1.31
  21  -1  -5    7.84    0.93
 -21  -1   5    8.35    1.27
  21  -1  -5    8.36    1.27
  21   1  -5    9.19    1.00
 -21   1   5    8.87    1.26
  21   1  -5    8.13    1.23
  19  -1  -5   12.74    1.07
 -19  -1   5   15.34    1.42
  19  -1  -5   14.87    1.32
  19  -1  -5   15.73    1.33
  19   1  -5   14.52    1.38
 -19   1   5   16.94    1.31
  19   1  -5   15.37    1.25
  17  -1  -5    3.64    0.75
 -17  -1   5    4.09    0.81
  17  -1  -5    5.83    0.86
  17  -1  -5    4.93    0.87
 -17   1   5    4.84    1.23
  17   1  -5    4.38    0.90
 -17   1   5    3.71    0.75
  17   1  -5    4.39    0.88
  15  -1  -5   15.01    1.11
 -15  -1   5   13.22    1.13
  15  -1  -5   14.35    0.99
  15  -1  -5   14.00    1.03
 -15   1   5   14.24    1.12
  15   1  -5   15.37    1.12
  15   1  -5   14.84    1.16
 -15   1   5   11.82    1.56
  13  -1  -5   59.77    2.37
  13  -1  -5   61.82    2.56
  13  -1  -5   60.96    2.52
 -13  -1   5   62.12    2.64
 -13   1   5   61.05    2.67
  13   1  -5   60.80    2.58
 -13   1   5   64.08    2.56
  13   1  -5   64.66    2.64
  11  -1  -5   45.96    1.98
  11  -1  -5   44.39    1.93
  11  -1  -5   43.81    1.75
 -11  -1   5   44.82    2.01
  11   1  -5   46.71    2.08
 -11   1   5   48.12    1.97
 -11   1   5   46.20    2.05
  11   1  -5   46.48    2.01
  -9  -1   5   32.49    1.52
   9  -1  -5   32.74    1.44
   9  -1  -5   31.89    1.52
  -9   1   5   31.26    1.42
   9   1  -5   32.51    1.52
   9   1  -5   32.40    1.43
   9   1  -5   33.59    1.62
  -9   1   5   32.83    1.55
  -7  -1   5   79.41    2.94
   7  -1  -5   78.41    2.83
   7  -1  -5   77.95    2.96
  -7  -1   5   74.18    3.21
   7   1  -5   78.14    3.05
   7   1  -5   78.20    2.83
  -7   1   5   79.52    2.84
   7   1  -5   78.08    2.92
  -7   1   5   77.21    2.96
  -5  -1   5   30.31    1.63
  -5  -1   5   32.26    1.40
   5  -1  -5   31.88    1.45
   5  -1  -5   31.58    1.28
   5   1  -5   33.09    1.30
  -5   1   5   32.02    1.44
   5   1  -5   30.91    1.51
  -5   1   5   32.33    1.29
   3  -1  -5  186.66    6.16
  -3  -1   5  186.89    6.59
   3  -1  -5  186.15    6.41
  -3  -1   5  178.00    6.27
  -3  -1   5  187.83    6.31
  -3   1   5  187.32    6.38
   3   1  -5  196.43    6.25
   3   1  -5  181.66    6.46
  -3   1   5  183.37    6.17
   3   1  -5  188.00    6.31
  -1  -1   5   79.13    2.87
  -1  -1   5   81.02    2.86
   1  -1  -5   81.32    2.73
   1  -1  -5   82.15    3.04
  -1  -1   5   82.18    3.18
   1   1  -5   85.44    2.94
  -1   1   5   80.85    2.75
  -1   1   5   82.05    2.78
   1   1  -5   82.06    3.09
  -1   1   5   84.66    3.02
   1  -1   5   31.14    1.47
  -1  -1  -5   30.27    1.33
   1  -1   5   28.76    1.18
   1   1   5   28.91    1.18
  -1   1  -5   29.61    1.14
  -1   1  -5   30.37    1.30
  -1   1  -5   29.30    1.20
   1   1   5   28.99    1.29
  -1   1  -5   28.68    1.35
   3  -1   5   79.45    3.04
   3  -1   5   77.51    2.85
   3   1   5   80.12    2.89
   3   1   5   77.33    2.86
  -3   1  -5   79.28    2.92
  -3   1  -5   82.90    2.74
  -3   1  -5   78.43    2.96
  -3   1  -5   78.73    2.75
   5  -1   5   81.32    3.05
   5  -1   5   76.91    2.94
  -5  -1  -5   78.15    2.68
   5  -1   5   80.04    2.75
  -5   1  -5   83.06    2.79
  -5   1  -5   80.84    3.07
   5   1   5   80.83    2.90
  -5   1  -5   79.46    2.89
   5   1   5   77.58    2.97
  -7  -1  -5   30.15    1.17
   7  -1   5   29.86    1.42
   7  -1   5   30.88    1.20
   7   1   5   29.79    1.09
  -7   1  -5   28.77    1.23
   7   1   5   30.27    1.28
   7   1   5   28.68    1.42
  -7   1  -5   28.69    1.23
  -9  -1  -5   39.82    1.62
   9  -1   5   42.19    1.61
   9  -1   5   40.24    1.86
   9   1   5   42.46    1.64
   9   1   5   39.62    1.95
  -9   1  -5   40.89    1.67
   9   1   5   41.62    1.53
  11  -1   5   13.47    1.10
  11  -1   5   15.50    0.84
 -11   1  -5   16.02    0.92
  11   1   5   14.53    0.78
  11   1   5   14.11    1.14
  11   1   5   15.64    0.80
  13  -1   5    9.44    0.75
  13  -1   5    8.20    1.02
 -13  -1  -5    9.14    0.88
  13   1   5    8.61    1.04
 -13   1  -5    9.01    0.81
  13   1   5    9.87    0.69
 -15  -1  -5   19.98    1.29
  15  -1   5   24.06    1.57
  15  -1   5   21.60    1.19
 -15   1  -5   19.17    1.37
  15   1   5   21.43    1.61
  17  -1   5    2.79    0.91
  17  -1   5    3.69    0.63
 -17  -1  -5    4.09    1.02
  17   1   5    2.91    0.98
  17   1   5    4.32    0.66
 -17   1  -5    2.51    0.75
  19  -1   5    2.34    0.84
  19  -1   5    2.24    0.65
  19   1   5    3.37    0.61
  19   1   5    2.83    1.04
  21  -1   5    3.62    0.79
  21  -1   5    3.54    1.32
  21   1   5    2.16    1.13
  21   1   5    3.60    0.69
  24  -2  -5    5.55    1.21
  24  -2  -5    4.16    1.23
  24   2  -5    3.60    1.25
  24   2  -5    4.02    0.97
  22  -2  -5    1.52    0.95
  22  -2  -5    0.51    0.91
  22   2  -5    1.54    0.86
 -22   2   5    2.55    1.04
  22   2  -5    0.07    0.90
 -20  -2   5    4.86    1.06
  20  -2  -5    5.64    0.99
  20  -2  -5    4.37    1.01
  20   2  -5    5.98    1.06
 -20   2   5    4.15    0.89
  20   2  -5    5.68    1.13
 -18  -2   5   13.98    1.43
  18  -2  -5   15.16    1.21
  18   2  -5   16.14    1.47
  18   2  -5   15.05    1.29
 -18   2   5   14.51    1.49
 -18   2   5   14.15    1.21
  16  -2  -5   15.01    1.05
 -16  -2   5   18.07    1.38
  16  -2  -5   17.65    1.22
 -16   2   5   13.89    1.26
 -16   2   5   17.05    1.19
  16   2  -5   17.67    1.37
  16   2  -5   14.34    1.40
 -14  -2   5   19.87    1.39
  14  -2  -5   22.72    1.35
  14  -2  -5   22.39    1.26
  14  -2  -5   20.65    1.14
 -14   2   5   20.83    1.34
  14   2  -5   23.07    1.44
  14   2  -5   24.04    1.52
 -14   2   5   22.28    1.35
  12  -2  -5   20.71    1.00
  12  -2  -5   20.83    1.22
  12  -2  -5   20.15    1.22
 -12  -2   5   20.91    1.32
 -12   2   5   21.24    1.24
  12   2  -5   22.55    1.45
  12   2  -5   21.91    1.35
 -12   2   5   22.36    1.22
  10  -2  -5   14.75    0.97
  10  -2  -5   15.30    0.71
 -10  -2   5   14.45    1.06
  10  -2  -5   14.66    0.91
  10   2  -5   14.23    1.17
 -10   2   5   13.91    0.97
 -10   2   5   16.38    0.93
  10   2  -5   14.86    1.01
  10   2  -5   14.05    1.03
   8  -2  -5  106.25    3.96
   8  -2  -5  105.02    3.82
  -8  -2   5  111.01    4.04
   8   2  -5  109.53    3.99
   8   2  -5  106.83    3.91
  -8   2   5  108.18    3.82
   8   2  -5  109.13    4.17
  -8   2   5  106.55    3.92
  -6  -2   5   70.36    2.80
   6  -2  -5   72.41    2.63
   6  -2  -5   72.72    2.80
   6   2  -5   72.86    2.80
   6   2  -5   72.11    2.70
  -6   2   5   72.78    2.75
  -6   2   5   70.27    2.59
  -4  -2   5    9.89    0.76
  -4  -2   5   11.68    0.79
   4  -2  -5   12.26    0.63
  -4   2   5   12.64    0.61
   4   2  -5   11.88    0.73
   4   2  -5   11.91    0.95
   4   2  -5   11.45    0.82
  -4   2   5   12.38    0.79
  -2  -2   5   86.18    3.29
  -2  -2   5   87.19    3.27
  -2   2   5   91.80    3.07
   2   2  -5   98.43    3.31
   2   2  -5   94.85    3.37
  -2   2   5   89.77    3.33
   2   2  -5   88.90    3.51
   0  -2  -5   63.52    2.11
   0  -2   5   60.29    2.31
   0   2  -5   67.81    2.44
   0   2   5   64.06    2.42
   0   2   5   60.54    2.10
   0   2  -5   63.27    2.37
   0   2  -5   59.01    2.53
   0   2  -5   62.65    2.28
   2  -2   5   43.49    1.76
  -2   2  -5   45.86    1.78
   2   2   5   46.18    1.86
  -2   2  -5   48.50    1.94
  -2   2  -5   43.57    1.95
  -2   2  -5   45.55    1.74
   4  -2   5   69.68    2.68
  -4   2  -5   74.60    2.63
  -4   2  -5   69.47    2.77
  -4   2  -5   74.51    2.65
   4   2   5   73.59    2.73
  -4   2  -5   73.93    2.87
  -6  -2  -5   19.24    0.85
   6  -2   5   20.45    0.94
   6  -2   5   19.41    1.07
  -6   2  -5   19.71    0.98
  -6   2  -5   20.33    1.21
   6   2   5   21.62    1.06
  -6   2  -5   20.92    1.07
  -8  -2  -5   14.60    0.79
   8  -2   5   14.21    0.98
   8  -2   5   14.90    0.81
   8   2   5   14.78    0.66
   8   2   5   14.58    0.88
  -8   2  -5   15.00    1.14
  -8   2  -5   15.05    0.81
 -10  -2  -5   53.21    2.24
  10  -2   5   59.38    2.48
  10  -2   5   59.30    2.23
  10   2   5   61.26    2.26
  10   2   5   56.14    2.52
  10   2   5   58.63    2.10
 -10   2  -5   58.57    2.31
 -12  -2  -5    5.52    0.73
  12  -2   5    6.26    1.24
  12  -2   5    5.67    0.67
  12   2   5    5.46    0.96
  12   2   5    5.98    0.54
 -12   2  -5    5.40    0.73
  12   2   5    6.16    0.61
  14  -2   5    8.07    0.81
  14  -2   5    8.67    1.05
 -14  -2  -5    7.21    0.93
 -14   2  -5    8.62    0.88
  14   2   5    8.05    1.15
  14   2   5    7.82    0.69
  14   2   5    7.42    0.67
  16  -2   5   10.13    1.20
  16  -2   5   11.04    0.92
 -16   2  -5   11.59    1.04
  16   2   5    9.17    1.31
  16   2   5   10.68    0.86
  18  -2   5    2.13    0.62
 -18  -2  -5    2.11    0.93
  18  -2   5    1.90    0.93
  18   2   5    3.41    0.65
  18   2   5    2.47    1.06
  20  -2   5    3.09    1.12
  20  -2   5    2.77    0.82
  20   2   5    1.56    1.06
  25  -3  -5    2.00    1.11
  25  -3  -5   -0.83    1.27
  25   3  -5    0.58    1.25
  23  -3  -5    2.68    1.01
  23  -3  -5    4.11    1.13
  23   3  -5    2.68    1.20
  23   3  -5    2.56    1.02
  21  -3  -5    5.34    1.02
  21  -3  -5    6.12    1.17
  21   3  -5    6.34    1.49
 -21   3   5    5.18    1.02
 -21   3   5    9.61    1.67
  21   3  -5    4.21    1.21
 -19  -3   5    9.03    1.36
  19  -3  -5    9.61    1.26
  19  -3  -5    9.87    1.10
  19   3  -5    8.92    1.32
 -19   3   5    7.81    1.12
 -19   3   5    8.85    1.39
  19   3  -5   12.51    1.44
  17  -3  -5    5.30    0.78
  17  -3  -5    3.01    1.09
 -17  -3   5    2.99    0.91
 -17   3   5    4.83    1.67
  17   3  -5    4.43    1.11
  17   3  -5    4.51    1.02
 -17   3   5    2.80    0.73
  15  -3  -5   11.52    1.07
 -15  -3   5   13.45    1.30
  15  -3  -5   11.14    0.87
  15   3  -5   13.15    1.43
 -15   3   5   12.17    1.05
  15   3  -5   11.38    1.28
 -15   3   5   11.44    1.10
  13  -3  -5   40.33    1.60
 -13  -3   5   39.45    2.06
  13  -3  -5   38.55    1.87
 -13   3   5   37.74    1.84
  13   3  -5   36.86    1.99
  13   3  -5   43.54    2.27
 -13   3   5   37.81    1.79
 -11  -3   5   34.66    1.82
  11  -3  -5   34.56    1.35
  11  -3  -5   33.11    1.59
  11   3  -5   35.61    2.03
 -11   3   5   35.03    1.58
  11   3  -5   32.47    1.73
 -11   3   5   33.00    1.62
  11   3  -5   31.82    1.75
  -9  -3   5   28.57    1.57
   9  -3  -5   28.21    1.36
   9   3  -5   28.93    1.47
  -9   3   5   27.45    1.42
  -9   3   5   28.38    1.33
   9   3  -5   28.11    1.55
   9   3  -5   29.59    1.79
  -7  -3   5   60.13    2.53
   7  -3  -5   61.16    2.29
  -7   3   5   58.69    2.39
   7   3  -5   58.82    2.50
   7   3  -5   58.57    2.41
  -7   3   5   63.36    2.30
   7   3  -5   56.45    2.73
  -5  -3   5   30.46    1.53
   5  -3  -5   30.59    1.30
  -5  -3   5   28.41    1.57
   5   3  -5   31.67    1.79
  -5   3   5   32.02    1.49
  -5   3   5   32.94    1.30
   5   3  -5   31.25    1.55
   5   3  -5   33.74    1.46
  -3  -3   5  115.06    4.18
   3  -3  -5  118.25    3.95
  -3  -3   5  109.89    4.28
   3   3  -5  109.50    4.46
  -3   3   5  116.01    4.19
   3   3  -5  125.27    4.17
   3   3  -5  117.16    4.23
  -3   3   5  113.31    3.93
  -1  -3   5   58.32    2.50
   1  -3  -5   72.11    2.43
  -1   3   5   64.25    2.23
   1   3  -5   63.80    2.54
  -1   3   5   63.19    2.52
   1   3  -5   68.69    2.54
   1   3  -5   58.19    2.74
   1  -3   5   31.22    1.40
   1   3   5   31.38    1.14
  -1   3  -5   31.73    1.51
  -1   3  -5   30.88    1.67
   1   3   5   31.18    1.46
   1   3   5   31.94    1.21
  -1   3  -5   30.56    1.44
  -1   3  -5   31.31    1.36
   3  -3   5   58.36    2.31
  -3   3  -5   62.70    2.31
  -3   3  -5   61.06    2.33
   3   3   5   60.39    2.07
  -3   3  -5   61.40    2.51
  -3   3  -5   57.91    2.59
   3   3   5   62.90    2.41
   3   3   5   54.90    2.06
   5  -3   5   52.78    2.21
   5   3   5   57.38    2.30
  -5   3  -5   59.02    2.23
   5   3   5   56.21    1.95
   5   3   5   56.66    1.95
  -5   3  -5   56.01    2.41
   7  -3   5   26.82    1.25
  -7  -3  -5   26.86    1.15
   7  -3   5   26.94    1.36
   7   3   5   27.81    1.07
  -7   3  -5   26.79    1.41
   7   3   5   26.94    1.34
  -7   3  -5   26.64    1.31
  -7   3  -5   28.88    1.60
  -9  -3  -5   32.06    1.45
   9  -3   5   32.74    1.47
   9  -3   5   32.40    1.61
   9   3   5   32.77    1.30
   9   3   5   32.30    1.52
  -9   3  -5   31.57    1.47
  -9   3  -5   33.33    1.53
  -9   3  -5   32.99    1.82
 -11  -3  -5   11.10    0.95
  11  -3   5   11.93    1.45
  11  -3   5   14.66    0.96
 -11   3  -5   14.96    1.00
  11   3   5   14.34    0.94
  11   3   5   13.46    0.78
 -13  -3  -5    7.07    0.92
  13  -3   5    8.07    0.85
  13  -3   5    8.00    1.07
  13   3   5    8.49    0.70
  13   3   5    8.97    0.83
  15  -3   5   15.80    1.36
 -15  -3  -5   15.13    1.27
  15  -3   5   16.38    1.12
  15   3   5   16.60    1.00
  15   3   5   15.70    1.03
  15   3   5   16.17    1.48
 -15   3  -5   14.27    1.20
  17  -3   5    1.57    0.76
  17  -3   5    3.70    0.73
 -17  -3  -5    3.98    0.93
  17   3   5    3.05    0.93
  17   3   5    3.00    0.65
  17   3   5    4.20    0.66
  19  -3   5    1.21    0.75
  19  -3   5    2.61    0.93
  19   3   5    1.67    0.59
  19   3   5    2.14    1.03
  24  -4  -5    2.48    1.34
  24  -4  -5    2.19    1.07
  24   4  -5   -1.42    1.50
  24   4  -5    5.71    1.32
  22  -4  -5    1.99    1.08
  22  -4  -5    1.17    0.88
  22   4  -5    1.83    1.15
 -22   4   5    1.12    1.46
  22   4  -5    2.40    1.28
  20  -4  -5    5.00    0.92
  20  -4  -5    4.50    1.10
 -20   4   5    3.68    1.17
 -20   4   5    4.03    0.92
  20   4  -5    1.51    1.08
  20   4  -5    3.52    1.30
 -18  -4   5   10.38    1.53
  18  -4  -5    8.59    1.32
  18  -4  -5    9.67    1.10
 -18   4   5    7.98    1.10
 -18   4   5    6.94    1.14
  18   4  -5   12.20    2.13
  18   4  -5    8.69    1.34
 -16  -4   5    9.38    1.39
  16  -4  -5   10.61    1.20
  16  -4  -5   11.28    0.92
  16   4  -5   10.31    1.57
 -16   4   5    9.44    1.07
  16   4  -5   11.57    1.36
 -16   4   5   10.81    1.08
  14  -4  -5   15.81    0.98
 -14  -4   5   16.21    1.44
  14  -4  -5   14.72    1.20
 -14   4   5   16.37    1.19
  14   4  -5   16.50    1.76
 -14   4   5   14.39    1.14
  14   4  -5   15.00    1.42
  14   4  -5   15.95    1.35
  12  -4  -5   18.22    1.26
  12  -4  -5   18.59    1.00
 -12  -4   5   19.29    1.45
 -12   4   5   19.01    1.21
  12   4  -5   21.02    1.54
 -12   4   5   18.46    1.22
  12   4  -5   20.35    1.79
  12   4  -5   18.38    1.39
 -10  -4   5   14.98    1.46
  10  -4  -5   15.66    1.03
  10  -4  -5   15.78    0.93
 -10   4   5   16.83    1.02
 -10   4   5   15.50    0.80
 -10   4   5   15.03    1.20
  10   4  -5   15.85    1.19
  10   4  -5   16.28    1.39
  10   4  -5   16.97    1.58
   8  -4  -5   51.13    2.28
   8  -4  -5   59.21    2.37
  -8  -4   5   63.01    2.67
   8   4  -5   57.69    2.70
   8   4  -5   64.55    2.70
  -8   4   5   64.86    2.39
   8   4  -5   62.90    3.00
   6  -4  -5   52.40    2.12
  -6  -4   5   53.06    2.36
  -6   4   5   54.25    2.48
   6   4  -5   53.16    2.25
  -6   4   5   53.40    1.88
  -6   4   5   51.42    2.06
   6   4  -5   54.89    2.41
  -4  -4   5   20.37    1.43
  -4  -4   5   21.11    1.36
   4   4  -5   23.26    1.38
   4   4  -5   23.90    1.26
  -4   4   5   24.54    0.95
  -4   4   5   23.65    1.06
  -4   4   5   22.86    1.30
  -2  -4   5   64.99    2.69
   2  -4  -5   69.81    2.50
  -2  -4   5   63.24    2.85
  -2   4   5   68.46    2.45
  -2   4   5   69.39    2.78
   2   4  -5   68.26    2.79
   2   4  -5   75.02    2.74
  -2   4   5   67.10    2.50
   0  -4   5   48.29    2.21
   0   4   5   53.64    2.00
   0   4   5   52.88    1.90
   0   4   5   50.13    2.06
   0   4  -5   56.40    2.25
   0   4  -5   51.81    2.12
   0   4  -5   50.48    2.21
   2  -4   5   41.24    1.82
   2   4   5   41.92    1.51
  -2   4  -5   39.59    2.12
  -2   4  -5   42.35    1.86
   2   4   5   41.23    1.63
  -2   4  -5   35.84    1.90
   4  -4   5   53.11    2.20
   4   4   5   50.98    1.98
   4   4   5   54.25    1.91
  -4   4  -5   54.58    2.20
  -4   4  -5   49.54    2.52
  -4   4  -5   55.32    2.24
  -4   4  -5   54.15    2.41
   6  -4   5   23.12    1.22
   6  -4   5   24.01    1.30
  -6   4  -5   23.76    1.29
   6   4   5   24.44    0.99
   6   4   5   23.74    1.05
  -6   4  -5   22.06    1.56
  -6   4  -5   25.21    1.53
   8  -4   5   15.24    0.98
   8  -4   5   15.42    1.10
  -8  -4  -5   13.83    0.92
  -8   4  -5   17.60    1.08
  -8   4  -5   16.86    1.70
   8   4   5   15.97    0.83
  -8   4  -5   13.07    1.26
 -10  -4  -5   34.58    1.66
  10  -4   5   36.18    1.73
  10  -4   5   40.29    1.89
  10   4   5   37.60    1.54
 -10   4  -5   39.18    1.80
 -10   4  -5   35.76    1.78
  12  -4   5    6.08    0.85
 -12  -4  -5    6.74    0.93
  12  -4   5    7.95    1.03
  12   4   5    7.27    0.69
  14  -4   5    7.95    1.14
 -14  -4  -5    7.96    1.09
  14  -4   5    7.96    0.96
  14   4   5    6.70    0.78
 -14   4  -5    7.13    1.01
  14   4   5    7.90    0.95
  16  -4   5    7.50    1.02
  16  -4   5    6.93    1.22
 -16  -4  -5    8.63    1.24
  16   4   5    7.72    1.07
  16   4   5    7.02    1.00
  18  -4   5    1.21    0.96
  18  -4   5    1.76    0.79
  18   4   5    1.29    1.09
  18   4   5    1.56    0.60
  23  -5  -5    1.57    1.05
  23  -5  -5   -0.69    1.25
  23   5  -5    3.85    1.44
  21  -5  -5    3.15    0.99
  21  -5  -5    2.75    1.09
  21   5  -5    4.79    1.46
  21   5  -5    3.52    1.29
 -21   5   5    0.63    1.24
  19  -5  -5    6.47    1.18
  19  -5  -5    4.94    0.94
  19   5  -5    3.47    1.17
 -19   5   5    4.64    0.90
  19   5  -5    5.91    1.63
  19   5  -5    6.60    1.89
 -19   5   5    6.20    1.24
  17  -5  -5    1.99    0.93
 -17  -5   5    3.48    1.14
  17  -5  -5    3.87    0.83
 -17   5   5    3.05    0.80
  17   5  -5    4.39    1.55
  17   5  -5    2.99    1.00
 -17   5   5    4.30    1.02
  17   5  -5    2.89    1.10
 -15  -5   5   10.01    1.43
  15  -5  -5    7.03    0.91
  15  -5  -5    8.52    1.19
 -15   5   5    6.70    1.02
  15   5  -5    9.83    1.81
  15   5  -5    5.21    1.16
  15   5  -5    6.99    1.82
 -15   5   5    7.87    1.03
 -13  -5   5   17.46    1.49
  13  -5  -5   13.89    1.24
  13  -5  -5   14.14    1.08
  13   5  -5   16.94    3.88
  13   5  -5   13.89    1.30
 -13   5   5   13.86    1.12
  13   5  -5   14.58    2.57
 -13   5   5   14.15    1.13
  11  -5  -5   14.86    1.10
  11  -5  -5   14.66    1.15
 -11  -5   5   16.49    1.38
  11   5  -5   15.80    1.45
 -11   5   5   13.35    1.03
 -11   5   5   13.88    1.10
 -11   5   5   15.43    0.88
  11   5  -5   14.42    1.26
  -9  -5   5   14.17    1.30
   9  -5  -5   14.30    1.05
   9  -5  -5   12.70    1.07
  -9   5   5   14.55    0.99
   9   5  -5   15.96    1.35
  -9   5   5   14.13    0.81
  -9   5   5   14.88    1.15
   7  -5  -5   26.37    1.35
  -7  -5   5   25.55    1.62
  -7   5   5   26.30    1.13
  -7   5   5   27.01    1.50
   7   5  -5   25.82    1.63
  -7   5   5   26.46    1.30
   7   5  -5   26.93    1.49
  -5  -5   5   13.34    1.39
  -5  -5   5   15.97    1.21
   5  -5  -5   16.72    1.00
  -5   5   5   16.62    0.80
   5   5  -5   17.14    1.30
  -5   5   5   15.18    1.16
  -5   5   5   17.55    0.94
   5   5  -5   15.45    1.10
  -3  -5   5   37.11    2.18
   3  -5  -5   42.96    1.78
  -3  -5   5   39.95    1.99
  -3   5   5   44.60    1.70
   3   5  -5   43.56    1.88
   3   5  -5   46.52    1.96
   3   5  -5   40.63    2.07
  -3   5   5   43.70    1.73
  -1  -5   5   25.99    1.64
  -1   5   5   26.91    1.32
  -1   5   5   28.43    1.22
   1   5  -5   27.49    1.62
   1   5  -5   29.87    1.50
   1   5  -5   25.72    1.39
  -1   5   5   26.89    1.32
   1  -5   5   18.06    1.29
  -1   5  -5   16.83    1.08
   1   5   5   18.66    0.91
  -1   5  -5   20.19    1.29
   1   5   5   20.55    1.10
  -1   5  -5   16.79    1.26
   1   5   5   18.21    1.14
   3  -5   5   26.78    1.51
  -3   5  -5   25.78    1.56
  -3   5  -5   27.08    1.50
  -3   5  -5   26.39    1.40
   3   5   5   26.55    1.32
   3   5   5   26.42    1.14
   5  -5   5   23.85    1.39
   5   5   5   22.83    1.03
  -5   5  -5   24.61    1.46
   5   5   5   21.87    1.16
  -5   5  -5   21.82    1.32
  -5   5  -5   21.35    1.49
   7   5   5   13.53    0.77
  -7   5  -5   15.08    1.55
  -7   5  -5   15.13    1.27
   7   5   5   13.62    0.97
  -9  -5  -5   14.54    0.95
   9  -5   5   13.79    1.07
   9  -5   5   16.07    1.28
   9   5   5   14.77    0.94
   9   5   5   13.62    0.82
  -9   5  -5   12.36    1.50
 -11  -5  -5    7.39    0.89
  11  -5   5    7.21    0.91
  11  -5   5    9.33    1.14
  11   5   5    6.52    0.79
 -11   5  -5    8.94    1.38
 -11   5  -5    6.15    1.20
 -13  -5  -5    5.92    0.88
  13  -5   5    5.36    1.09
  13  -5   5    4.49    0.83
 -13   5  -5    4.23    0.91
  13   5   5    5.41    0.79
  15  -5   5    8.64    1.37
 -15  -5  -5    7.77    1.07
  15  -5   5    6.83    0.97
  15   5   5    7.14    1.22
  17  -5   5    1.26    0.93
  17  -5   5    2.09    0.86
  17   5   5    1.56    0.94
  17   5   5    1.43    0.63
  22  -6  -5   -0.44    1.29
  22  -6  -5   -0.41    1.14
  22   6  -5    3.20    1.76
  20  -6  -5    1.33    0.98
  20  -6  -5    1.40    1.13
 -20   6   5    3.27    1.30
  20   6  -5    6.99    1.77
  20   6  -5    0.34    1.25
  18  -6  -5    3.56    1.11
  18  -6  -5    4.68    1.05
 -18   6   5    2.34    1.08
 -18   6   5    1.54    0.93
  18   6  -5    5.97    1.64
  18   6  -5    3.52    1.28
  16  -6  -5    4.22    0.91
 -16  -6   5    5.19    1.27
  16  -6  -5    2.56    0.99
 -16   6   5    3.84    0.98
  16   6  -5    2.11    1.14
 -16   6   5    3.93    0.87
  16   6  -5    3.16    1.19
  16   6  -5    4.77    1.64
  14  -6  -5    6.24    1.07
  14  -6  -5    4.18    0.94
 -14  -6   5    4.72    1.10
  14   6  -5    6.04    1.33
 -14   6   5    4.11    0.86
 -14   6   5    4.71    0.79
  14   6  -5    4.15    1.17
  14   6  -5    6.54    1.81
 -14   6   5    4.16    0.94
  12  -6  -5    7.17    1.04
  12  -6  -5    6.60    1.10
 -12  -6   5    7.10    1.17
 -12   6   5    7.63    0.81
 -12   6   5    6.32    0.97
  12   6  -5    7.89    1.35
 -12   6   5    7.56    0.99
  10  -6  -5    6.31    0.93
 -10  -6   5    5.98    1.03
  10  -6  -5    5.16    1.00
 -10   6   5    5.87    0.67
 -10   6   5    5.52    0.84
 -10   6   5    6.10    0.99
  10   6  -5    6.63    1.04
   8  -6  -5   16.53    1.20
  -8  -6   5   19.90    1.50
   8  -6  -5   12.74    1.24
   8   6  -5   18.61    1.63
  -8   6   5   17.73    1.12
  -8   6   5   15.88    0.91
   8   6  -5   15.70    1.22
  -8   6   5   14.91    1.30
  -6  -6   5   15.36    1.26
   6  -6  -5   15.98    1.12
   6   6  -5   14.77    1.17
   6   6  -5   16.99    1.51
  -6   6   5   14.95    1.01
  -6   6   5   15.21    0.87
   4  -6  -5    7.76    0.91
  -4  -6   5    8.30    1.47
   4   6  -5    8.49    0.97
   4   6  -5    8.19    0.92
   4   6  -5    9.88    1.28
  -4   6   5    8.32    0.67
  -4   6   5    9.17    0.80
  -2  -6   5   17.57    1.67
  -2   6   5   17.72    1.06
   2   6  -5   19.09    1.23
   2   6  -5   19.29    1.28
  -2   6   5   20.78    1.11
  -2   6   5   19.11    1.20
   2   6  -5   19.68    1.53
   0  -6   5   15.45    1.48
   0   6  -5   15.00    1.14
   0   6  -5   12.67    1.06
   0   6   5   16.97    1.13
   0   6   5   14.14    0.88
   0   6  -5   12.69    1.25
   0   6   5   14.97    1.06
   2  -6   5   13.37    1.39
   2   6   5   12.41    0.82
   2   6   5   13.93    1.07
   2   6   5   10.26    1.21
  -2   6  -5   10.97    1.23
   4  -6   5   15.82    1.43
  -4   6  -5   15.86    1.67
   4   6   5   15.55    1.14
   4   6   5   16.98    0.92
   4   6   5   13.35    1.28
   6  -6   5   10.47    1.21
   6   6   5    8.79    0.90
  -6   6  -5    9.96    1.27
   6   6   5    8.77    0.73
   8  -6   5    5.85    1.13
   8   6   5    6.13    0.63
   8   6   5    5.31    0.77
  -8   6  -5    7.34    1.16
  -8   6  -5    8.83    1.68
  10  -6   5   13.43    1.41
  10  -6   5   11.96    1.17
  10   6   5   10.79    0.82
  10   6   5    9.10    0.98
 -10   6  -5   12.43    1.73
  12  -6   5    4.66    1.10
  12  -6   5    3.14    0.78
 -12   6  -5    3.43    1.34
  12   6   5    3.15    0.57
  12   6   5    2.86    0.69
  14  -6   5    3.81    0.83
  14  -6   5    3.94    1.17
 -14  -6  -5    3.22    0.88
  14   6   5    3.32    0.70
  16  -6   5    3.33    1.33
  16  -6   5    2.53    0.96
  16   6   5    2.55    0.69
  19  -7  -5    3.45    1.33
  19  -7  -5   -0.39    1.20
  19   7  -5    2.07    1.54
  19   7  -5    3.04    1.76
  17  -7  -5    2.61    1.09
  17  -7  -5    2.27    1.12
  17   7  -5    1.79    1.78
 -17   7   5   -0.18    0.95
  15  -7  -5    3.03    1.10
  15  -7  -5    1.98    1.02
  15   7  -5    2.80    1.33
 -15   7   5    2.25    0.75
 -15   7   5    3.02    0.86
 -13  -7   5    3.82    1.20
  13  -7  -5    3.14    1.04
 -13   7   5    4.20    0.88
  13   7  -5    4.00    1.14
 -13   7   5    5.62    0.98
  13   7  -5    2.64    1.28
  11  -7  -5    5.10    0.99
  11  -7  -5    2.93    1.17
 -11  -7   5    5.51    1.18
 -11   7   5    5.78    0.91
  11   7  -5    3.57    0.88
  11   7  -5    6.70    1.37
   9  -7  -5    5.96    1.04
  -9  -7   5    5.13    1.14
   9  -7  -5    6.02    0.97
  -9   7   5    7.49    1.55
  -9   7   5    4.56    0.73
   9   7  -5    6.07    1.32
  -9   7   5    6.05    0.87
   7  -7  -5    7.58    1.09
  -7  -7   5    7.72    1.15
  -7   7   5    8.19    0.95
   7   7  -5   10.36    1.47
  -7   7   5    7.47    0.82
   5  -7  -5    6.45    0.96
   5   7  -5    7.29    0.97
   5   7  -5    7.76    1.78
  -5   7   5    7.72    0.87
  -5   7   5    5.70    0.73
  -3  -7   5   10.39    1.82
  -3   7   5   13.27    0.97
  -3   7   5   12.10    0.97
   3   7  -5   12.65    1.08
   3   7  -5   12.51    1.53
  -3   7   5   14.62    1.25
  -1  -7   5    7.17    1.49
   1   7  -5    9.89    1.37
  -1   7   5    8.32    1.14
  -1   7   5    8.62    0.86
  -1   7   5    9.89    0.98
   1   7  -5    6.72    1.02
   1  -7   5    7.83    1.40
   1   7   5    7.57    0.82
  -1   7  -5    6.72    0.97
   1   7   5    7.07    0.99
   1   7   5    7.09    1.47
  -1   7  -5    8.06    1.28
   3   7   5    7.10    1.15
  -3   7  -5    7.83    1.31
   3   7   5    8.69    0.82
   3   7   5    7.11    1.07
   5  -7   5    8.16    1.41
   5   7   5    5.92    1.05
   5   7   5    6.84    0.77
  -5   7  -5    6.79    1.27
   5   7   5    7.00    1.00
   7  -7   5    6.80    1.24
  -7   7  -5    6.44    1.28
   7   7   5    5.22    0.78
   7   7   5    5.87    0.90
   7   7   5    5.96    1.22
   9  -7   5    6.49    1.22
   9   7   5    5.21    0.97
   9   7   5    7.41    0.84
  11  -7   5    2.63    0.98
 -11   7  -5    4.43    1.43
  11   7   5    2.51    0.66
 -11   7  -5    6.46    1.77
  11   7   5    2.65    0.75
  13  -7   5    4.30    1.40
  13  -7   5    1.60    0.93
 -13   7  -5    4.44    1.64
  13   7   5    2.29    0.75
  15  -7   5    0.83    1.36
  15   7   5    2.78    0.81
  18  -8  -5   -0.86    1.51
  18   8  -5    5.23    2.51
 -18   8   5    1.62    1.81
  16  -8  -5    1.59    1.46
  16  -8  -5    0.83    1.14
  16   8  -5    4.00    1.62
 -16   8   5    2.60    1.28
 -16   8   5    2.63    1.80
 -16   8   5    1.44    0.84
  14  -8  -5    3.57    1.18
  14  -8  -5    2.26    1.40
  14   8  -5    1.71    1.45
 -14   8   5   -0.25    0.86
 -14   8   5    1.92    1.12
 -14   8   5    1.49    0.80
  12  -8  -5    3.22    1.11
  12  -8  -5    2.19    1.25
 -12   8   5    1.93    0.88
  12   8  -5    0.97    1.30
 -12   8   5    1.97    1.14
 -12   8   5    2.38    0.71
  10  -8  -5    4.40    1.30
 -10  -8   5    0.68    1.12
  10  -8  -5    2.73    1.03
  10   8  -5    2.19    1.26
 -10   8   5    3.42    0.87
 -10   8   5    2.57    0.72
 -10   8   5    3.43    1.00
  -8  -8   5    2.71    1.05
   8  -8  -5    3.54    1.03
   8   8  -5    5.96    1.22
   8   8  -5    4.06    0.88
  -8   8   5    3.80    0.86
  -8   8   5    3.06    0.66
   8   8  -5    3.87    1.26
   6  -8  -5    4.70    1.04
   6   8  -5    5.24    1.24
  -6   8   5    6.38    1.13
  -6   8   5    4.87    0.80
   6   8  -5    6.09    0.95
   4   8  -5    1.88    1.18
  -4   8   5    3.25    0.94
  -4   8   5    3.65    0.64
   4   8  -5    3.12    0.79
  -4   8   5    3.78    0.80
  -2  -8   5    3.45    1.46
   2   8  -5    5.84    1.31
  -2   8   5    6.43    0.99
  -2   8   5    3.64    1.01
  -2   8   5    5.76    0.84
   2   8  -5    6.43    0.94
   0  -8   5    3.99    1.39
   0   8   5    4.46    0.75
   0   8  -5    3.48    0.81
   0   8   5    4.45    0.97
   0   8  -5    2.63    1.18
   0   8   5    4.26    0.90
   2  -8   5    4.15    1.38
  -2   8  -5    2.88    0.83
   2   8   5    3.21    0.82
  -2   8  -5    4.06    1.29
   2   8   5    3.76    1.01
   2   8   5    5.99    0.89
   4  -8   5    3.64    1.36
   4   8   5    5.01    1.01
   4   8   5    4.40    1.01
   4   8   5    4.83    0.77
  -4   8  -5    3.87    1.28
  -4   8  -5    3.83    1.04
   6  -8   5    2.20    1.13
   6   8   5    2.30    0.65
   6   8   5    4.07    0.95
   6   8   5    1.43    0.93
  -6   8  -5    3.78    1.27
   8  -8   5    2.06    1.26
   8   8   5    2.58    1.02
   8   8   5    2.26    0.67
   8   8   5    1.20    0.79
  -8   8  -5    2.63    1.43
  10  -8   5    6.07    1.51
 -10   8  -5    5.10    1.58
  12  -8   5    0.85    1.55
 -12   8  -5    1.38    1.60
  12   8   5   -0.66    0.81
 -12   8  -5    3.25    2.21
  13  -9  -5    2.37    1.68
  13  -9  -5   -0.08    1.23
  13   9  -5    0.01    1.62
 -13   9   5    1.41    1.06
 -13   9   5   -0.45    1.36
  11  -9  -5   -1.16    1.13
 -11   9   5    1.45    0.75
 -11   9   5    1.97    0.97
  11   9  -5    1.97    1.54
   9  -9  -5    2.08    1.19
   9   9  -5   -0.02    1.38
  -9   9   5    1.89    0.96
  -9   9   5    1.73    0.74
  -7   9   5    1.93    0.90
  -7   9   5    0.09    0.65
   7   9  -5    4.34    1.44
  -7   9   5    1.38    1.14
  -5   9   5    1.69    0.86
  -5   9   5    2.13    1.01
   5   9  -5    1.68    1.51
   3   9  -5    2.78    1.41
  -3   9   5    2.27    1.04
  -3   9   5    1.31    0.62
  -1  -9   5   -0.63    1.74
  -1   9   5    3.44    0.88
  -1   9   5    1.02    0.73
  -1   9   5    2.63    1.07
   1   9  -5    0.65    1.29
   1  -9   5    1.46    1.60
   1   9   5    0.68    1.00
   1   9   5   -0.42    0.79
   1   9   5    1.23    0.79
  -1   9  -5    2.04    1.28
   3  -9   5    0.71    1.61
   3   9   5    0.64    0.78
   3   9   5    2.72    1.12
  -3   9  -5    1.26    1.33
   3   9   5    1.04    0.80
   5  -9   5    3.24    1.70
   5   9   5    1.06    0.95
   5   9   5    2.84    1.02
  -5   9  -5    3.61    1.47
   7  -9   5    1.23    1.48
  -7   9  -5    3.14    1.42
   7   9   5   -0.86    0.92
   9  -9   5    1.62    1.72
  -9   9  -5    0.01    1.50
   9   9   5    2.58    1.12
  10 -10  -5   -1.41    1.41
   8  10  -5   -1.74    1.66
  -8  10   5    1.83    1.97
  -6  10   5   -0.31    0.79
  -6  10   5    2.30    1.46
   6  10  -5    1.27    1.69
   4  10  -5    0.95    1.55
  -4  10   5   -1.37    1.34
  -2  10   5    1.65    1.30
   2  10  -5    3.55    1.59
   0 -10   5   -0.07    2.02
   0  10   5    0.26    1.36
   0  10  -5    0.10    1.58
   0  10   5    0.61    0.92
   2 -10   5    1.78    2.21
   2  10   5    0.32    1.36
  -2  10  -5    2.15    1.66
   4  10   5   -1.36    1.35
  -4  10  -5    0.92    1.66
  26   0  -6    2.92    1.42
  26   0  -6    3.81    1.37
  24   0  -6    0.64    0.82
  24   0  -6    0.92    1.01
  24   0  -6    2.71    1.13
  22   0  -6    3.55    1.06
  22   0  -6    3.94    0.91
  22   0  -6    3.17    1.05
 -22   0   6    2.55    0.93
  20   0  -6   14.43    1.35
 -20   0   6   15.08    1.35
  20   0  -6   14.26    1.24
  20   0  -6   13.29    1.49
  18   0  -6    3.15    0.94
 -18   0   6    3.73    0.89
  18   0  -6    5.16    0.96
 -16   0   6    4.06    0.78
 -16   0   6    2.72    1.08
  16   0  -6    4.17    0.91
  16   0  -6    4.90    0.88
  14   0  -6   55.25    2.43
  14   0  -6   55.43    2.43
 -14   0   6   53.30    2.40
 -12   0   6   45.86    2.36
  12   0  -6   46.96    2.15
  12   0  -6   47.91    2.11
 -12   0   6   49.26    2.13
 -10   0   6   27.82    1.37
  10   0  -6   28.06    1.48
 -10   0   6   27.61    1.61
  10   0  -6   26.66    1.35
  10   0  -6   26.80    1.21
   8   0  -6   75.08    2.85
   8   0  -6   76.77    3.02
  -8   0   6   74.54    3.10
  -8   0   6   76.86    2.89
   8   0  -6   77.01    2.69
   6   0  -6   64.37    2.43
  -6   0   6   64.39    2.68
  -6   0   6   66.09    2.46
   4   0  -6  167.04    5.52
  -4   0   6  161.48    5.54
   4   0  -6  164.11    5.40
   4   0  -6  164.34    5.76
  -4   0   6  157.10    5.44
   2   0  -6  171.28    5.79
  -2   0   6  177.45    6.09
  -2   0   6  171.38    5.79
   2   0  -6  172.46    6.06
   0   0   6   37.67    1.65
   0   0  -6   35.22    1.48
   0   0   6   36.70    1.39
   0   0  -6   37.02    1.35
   0   0  -6   36.55    1.64
   2   0   6  137.80    4.80
  -2   0  -6  138.75    4.44
  -2   0  -6  134.28    4.78
   2   0   6  130.63    4.63
  -2   0  -6  134.15    4.48
  -4   0  -6  158.26    5.53
   4   0   6  163.74    5.56
   4   0   6  156.74    5.49
  -4   0  -6  162.38    5.23
  -4   0  -6  154.18    5.24
   6   0   6   43.41    1.84
  -6   0  -6   44.27    1.62
   6   0   6   45.69    1.91
  -8   0  -6   76.25    2.71
   8   0   6   74.84    3.00
   8   0   6   78.23    2.64
   8   0   6   75.75    2.86
  10   0   6   49.40    1.98
  10   0   6   50.15    1.83
  10   0   6   47.35    2.23
  12   0   6   19.48    1.41
 -12   0  -6   20.60    1.11
  12   0   6   21.08    1.00
  14   0   6   28.91    2.39
  14   0   6   28.50    1.35
 -14   0  -6   25.81    1.42
  16   0   6   13.86    1.41
  16   0   6   13.53    0.97
  18   0   6    6.47    0.81
 -18   0  -6    3.87    1.01
  18   0   6    5.49    1.24
  20   0   6    6.57    0.93
  20   0   6    5.08    1.27
  25  -1  -6    3.64    1.21
  25  -1  -6    3.80    1.31
  25   1  -6    4.03    1.23
  25   1  -6    3.23    1.29
  23  -1  -6    0.34    0.95
  23  -1  -6    1.16    1.00
  23   1  -6    2.03    0.91
  23   1  -6    0.07    1.00
 -21  -1   6    0.46    0.89
  21  -1  -6    1.79    0.75
  21  -1  -6    2.83    0.89
  21  -1  -6    1.12    0.86
  21   1  -6    0.91    0.79
 -21   1   6    0.09    0.75
  21   1  -6    0.80    0.93
  19  -1  -6   12.09    1.30
 -19  -1   6   12.16    1.29
  19  -1  -6   13.30    1.22
  19  -1  -6   10.20    1.06
 -19   1   6    9.51    1.62
 -19   1   6   10.85    1.22
  19   1  -6    9.55    1.29
  19   1  -6   11.32    1.20
  17  -1  -6   12.43    1.15
 -17  -1   6   11.82    1.21
  17  -1  -6   12.74    1.07
  17  -1  -6   11.06    1.03
  17   1  -6   10.85    1.23
 -17   1   6    9.68    1.41
  17   1  -6   12.59    1.16
 -17   1   6   12.76    1.14
  15  -1  -6   20.19    1.15
 -15  -1   6   20.64    1.41
  15  -1  -6   20.41    1.32
  15  -1  -6   17.64    1.45
 -15   1   6   18.95    1.55
  15   1  -6   20.31    1.45
  15   1  -6   20.80    1.42
 -15   1   6   22.90    1.39
 -13  -1   6   23.18    1.43
  13  -1  -6   21.32    1.32
  13  -1  -6   21.40    1.09
  13  -1  -6   24.42    1.38
  13   1  -6   20.87    1.37
 -13   1   6   22.99    1.31
 -13   1   6   20.81    1.51
  13   1  -6   22.42    1.40
  11  -1  -6   10.94    0.91
 -11  -1   6    9.09    1.17
  11  -1  -6   11.34    0.94
 -11  -1   6   10.76    0.93
 -11   1   6   11.15    0.83
  11   1  -6   10.47    0.97
  11   1  -6   10.55    0.81
 -11   1   6   10.15    0.98
  11   1  -6    9.03    0.89
  -9  -1   6  109.54    4.14
   9  -1  -6  118.98    4.22
   9  -1  -6  113.83    4.05
  -9  -1   6  105.25    4.47
  -9   1   6  117.91    4.07
   9   1  -6  112.78    4.13
  -9   1   6  112.25    4.21
   9   1  -6  112.39    4.00
   9   1  -6  110.52    4.25
  -7  -1   6  110.71    4.03
   7  -1  -6  110.82    4.05
  -7  -1   6  108.54    4.36
   7  -1  -6  112.46    4.11
  -7   1   6  111.07    3.91
  -7   1   6  108.53    4.08
   7   1  -6  114.09    3.87
   7   1  -6  109.37    4.01
   7   1  -6  109.83    4.16
  -5  -1   6   12.04    0.78
  -5  -1   6   14.33    1.10
   5  -1  -6   14.66    0.77
   5  -1  -6   13.92    0.95
  -5  -1   6   13.95    0.86
   5   1  -6   14.84    1.00
   5   1  -6   14.17    0.99
  -5   1   6   13.33    0.74
   5   1  -6   16.17    0.76
  -5   1   6   15.21    0.94
  -3  -1   6  134.36    4.99
  -3  -1   6  128.28    4.60
  -3  -1   6  132.80    4.64
   3  -1  -6  133.67    4.81
   3   1  -6  130.85    4.85
   3   1  -6  133.17    4.65
  -3   1   6  134.93    4.52
   3   1  -6  142.13    4.62
  -3   1   6  134.95    4.78
  -1  -1   6  122.71    4.57
  -1  -1   6  118.59    4.18
   1  -1  -6  121.35    4.42
   1  -1  -6  120.87    4.03
  -1  -1   6  120.67    4.19
   1   1  -6  127.89    4.30
   1   1  -6  120.45    4.27
  -1   1   6  126.47    4.40
   1   1  -6  120.91    4.46
  -1   1   6  125.03    4.12
   1  -1   6   78.44    3.13
   1  -1   6   76.14    2.79
  -1  -1  -6   76.96    2.99
   1   1   6   81.25    2.97
   1   1   6   77.79    2.79
  -1   1  -6   79.97    2.74
  -1   1  -6   80.85    2.83
  -1   1  -6   79.11    2.94
  -1   1  -6   77.51    3.02
   3  -1   6  126.36    4.52
   3  -1   6  120.19    4.24
  -3   1  -6  121.51    4.40
  -3   1  -6  126.20    4.12
  -3   1  -6  118.61    4.36
   3   1   6  114.85    4.24
   3   1   6  123.92    4.33
   5  -1   6   48.84    2.06
   5  -1   6   51.25    2.22
  -5   1  -6   52.76    2.24
   5   1   6   48.63    2.07
  -5   1  -6   50.96    2.06
  -5   1  -6   51.72    1.88
   5   1   6   51.58    2.05
  -5   1  -6   54.09    1.98
   7  -1   6   49.45    2.10
   7  -1   6   51.43    1.84
  -7  -1  -6   49.10    1.79
   7  -1   6   49.02    2.14
  -7   1  -6   51.15    1.90
  -7   1  -6   49.84    1.97
   7   1   6   47.78    2.12
   7   1   6   51.64    2.01
   9  -1   6   71.45    2.86
  -9  -1  -6   68.84    2.54
   9  -1   6   72.11    2.61
   9   1   6   72.91    2.42
   9   1   6   70.13    2.63
   9   1   6   69.18    2.88
  -9   1  -6   66.44    2.77
  11  -1   6   22.62    1.07
 -11  -1  -6   20.27    1.11
  11  -1   6   21.37    1.57
  11   1   6   24.30    0.98
  11   1   6   21.81    1.43
 -11   1  -6   22.43    1.17
  11   1   6   22.75    1.10
  13  -1   6   20.18    1.07
  13  -1   6   20.40    1.78
 -13  -1  -6   18.58    1.14
  13   1   6   19.87    0.97
  13   1   6   19.16    1.42
 -13   1  -6   18.92    1.16
  15  -1   6   18.87    1.44
 -15  -1  -6   15.17    1.18
  15  -1   6   19.15    1.42
  15   1   6   17.35    1.48
  15   1   6   16.80    1.00
  17  -1   6    7.78    1.24
 -17  -1  -6    4.94    0.92
  17  -1   6    6.07    1.08
  17   1   6    7.87    1.17
  17   1   6    6.86    1.18
 -17   1  -6    7.46    1.15
  19  -1   6    5.04    1.17
  19  -1   6    4.99    0.76
  19   1   6    2.57    0.95
  19   1   6    5.31    0.81
  24  -2  -6   -0.25    1.11
  24  -2  -6    0.68    0.99
  24   2  -6    2.45    1.08
  24   2  -6    2.04    1.23
  22  -2  -6    2.78    0.89
  22  -2  -6    2.02    0.97
 -22   2   6    1.53    0.92
  22   2  -6    2.41    1.11
  20  -2  -6   11.25    1.21
 -20  -2   6   14.87    1.52
  20  -2  -6   11.99    1.46
 -20   2   6    9.79    1.74
 -20   2   6    9.17    1.29
  20   2  -6   13.11    1.34
  20   2  -6   12.32    1.47
  18  -2  -6    3.03    0.71
 -18  -2   6    2.75    0.90
  18  -2  -6    3.35    1.02
 -18   2   6    3.34    0.82
 -18   2   6    3.83    1.16
  18   2  -6    3.93    1.00
  18   2  -6    5.00    1.09
 -16  -2   6    4.09    0.92
  16  -2  -6    3.23    0.61
  16  -2  -6    4.08    0.85
  16  -2  -6    2.42    1.02
 -16   2   6    3.15    0.72
 -16   2   6    2.53    0.93
  16   2  -6    4.47    1.02
  16   2  -6    5.01    1.10
  14  -2  -6   39.78    1.63
 -14  -2   6   39.28    2.08
  14  -2  -6   41.02    2.11
  14  -2  -6   39.78    1.93
 -14   2   6   37.02    1.97
  14   2  -6   43.11    2.16
  14   2  -6   40.43    2.05
 -14   2   6   38.62    1.89
  12  -2  -6   33.11    1.63
 -12  -2   6   33.30    1.78
  12  -2  -6   32.54    1.33
  12  -2  -6   33.69    1.69
 -12   2   6   31.18    2.04
  12   2  -6   34.51    1.68
  12   2  -6   33.01    1.75
 -12   2   6   35.91    1.62
  12   2  -6   33.82    1.86
 -10  -2   6   20.06    1.27
  10  -2  -6   19.44    1.20
  10  -2  -6   19.79    1.11
  10   2  -6   18.74    1.24
  10   2  -6   19.47    1.36
  10   2  -6   18.93    1.12
 -10   2   6   19.02    1.20
 -10   2   6   19.57    1.08
  -8  -2   6   51.73    2.24
   8  -2  -6   50.08    2.03
   8  -2  -6   51.75    2.23
   8   2  -6   51.55    2.38
  -8   2   6   51.45    2.03
   8   2  -6   50.34    2.21
  -8   2   6   51.13    2.19
   8   2  -6   52.74    2.09
  -6  -2   6   41.17    1.82
   6  -2  -6   38.50    1.60
   6  -2  -6   38.61    1.83
  -6   2   6   40.20    1.60
   6   2  -6   42.48    1.69
   6   2  -6   40.01    1.80
   6   2  -6   39.05    1.96
  -6   2   6   40.90    1.80
   4  -2  -6   97.74    3.53
  -4  -2   6   98.23    3.76
  -4  -2   6  103.49    3.74
   4  -2  -6  104.48    3.84
   4   2  -6  101.25    3.75
  -4   2   6  100.52    3.51
   4   2  -6   99.75    3.94
  -4   2   6  104.23    3.79
   4   2  -6  111.08    3.69
  -2  -2   6  103.69    3.83
  -2  -2   6  106.64    3.86
   2   2  -6  101.50    4.08
   2   2  -6  107.96    3.91
   2   2  -6  115.73    3.91
  -2   2   6  110.77    3.95
  -2   2   6  109.27    3.63
   0  -2   6   21.50    1.03
   0   2  -6   22.98    1.18
   0   2  -6   21.72    1.28
   0   2  -6   23.10    1.14
   0   2   6   20.59    0.94
   0   2   6   22.88    1.17
   0   2  -6   22.07    1.00
   2  -2   6   81.03    3.01
   2   2   6   84.99    3.13
  -2   2  -6   82.04    3.23
  -2   2  -6   82.98    3.04
  -2   2  -6   87.67    3.23
   2   2   6   79.56    2.99
  -2   2  -6   84.70    2.98
   4  -2   6  101.08    3.63
  -4   2  -6   99.98    3.75
  -4   2  -6  101.25    3.84
  -4   2  -6  101.27    3.58
   4   2   6  103.27    3.69
  -4   2  -6  103.94    3.56
   4   2   6   93.71    3.63
   6  -2   6   27.16    1.41
   6   2   6   24.89    1.35
  -6   2  -6   28.02    1.24
  -6   2  -6   25.88    1.50
   6   2   6   27.52    1.32
  -6   2  -6   27.24    1.34
   8  -2   6   51.61    2.15
  -8  -2  -6   46.12    1.79
   8  -2   6   48.97    1.89
  -8   2  -6   48.62    2.34
  -8   2  -6   50.11    1.98
   8   2   6   48.88    2.17
  -8   2  -6   46.56    1.94
   8   2   6   50.44    2.02
  10  -2   6   31.16    1.67
  10  -2   6   31.99    1.40
 -10  -2  -6   29.18    1.38
 -10   2  -6   32.72    1.49
  10   2   6   32.73    1.74
  10   2   6   31.38    1.21
  10   2   6   33.35    1.46
  12  -2   6   12.91    1.19
 -12  -2  -6   11.52    0.94
  12   2   6   13.78    0.72
  12   2   6   12.26    1.21
 -12   2  -6   13.57    1.01
  12   2   6   13.49    0.86
 -14  -2  -6   16.98    1.22
  14  -2   6   19.25    1.46
  14  -2   6   18.75    1.13
  14   2   6   19.96    0.97
  14   2   6   18.37    1.49
  14   2   6   17.48    1.00
  16  -2   6    9.27    0.89
  16  -2   6    8.43    1.28
  16   2   6    7.15    1.27
  16   2   6    8.18    0.74
 -16   2  -6    8.10    1.06
  18  -2   6    4.79    0.74
  18  -2   6    4.10    1.17
 -18  -2  -6    3.54    1.05
  18   2   6    3.60    0.70
  18   2   6    4.01    1.01
  20  -2   6    4.58    0.88
  20   2   6    4.17    0.69
  25  -3  -6    4.13    1.45
  25  -3  -6    2.18    1.12
  25   3  -6    3.41    1.14
  23  -3  -6    2.22    1.08
  23  -3  -6    1.42    0.97
 -23   3   6    4.44    1.97
  23   3  -6   -1.23    1.06
  23   3  -6    0.26    1.01
  21  -3  -6    2.18    0.80
  21  -3  -6    0.10    0.90
 -21   3   6    1.27    0.86
  21   3  -6    1.14    1.11
 -21   3   6    4.59    1.47
  21   3  -6    2.24    1.06
  19  -3  -6    8.58    1.04
 -19  -3   6    8.22    1.36
  19  -3  -6    7.90    1.24
  19   3  -6    8.43    1.34
 -19   3   6    8.72    1.39
  19   3  -6    9.33    1.67
 -19   3   6    9.65    1.14
 -17  -3   6    7.92    1.23
  17  -3  -6    9.63    1.21
  17  -3  -6    7.71    0.87
 -17   3   6    7.79    1.02
 -17   3   6    7.09    1.11
  17   3  -6    9.00    1.27
  17   3  -6    9.37    1.42
 -15  -3   6   13.66    1.34
  15  -3  -6   13.16    1.15
  15  -3  -6   13.64    0.88
 -15   3   6   14.34    1.17
  15   3  -6   12.67    1.33
 -15   3   6   12.34    1.18
  15   3  -6   14.92    1.50
  15   3  -6   14.39    1.28
  13  -3  -6   17.80    0.89
  13  -3  -6   16.49    1.19
 -13  -3   6   19.70    1.44
  13   3  -6   18.45    1.41
 -13   3   6   18.10    1.24
 -13   3   6   17.41    1.18
  13   3  -6   19.31    1.63
  13   3  -6   20.10    1.35
  11  -3  -6   10.04    0.89
 -11  -3   6   10.47    1.15
  11   3  -6   10.33    1.13
 -11   3   6   10.08    0.96
  11   3  -6   10.93    1.29
  11   3  -6   10.25    0.96
 -11   3   6   10.46    0.83
   9  -3  -6   69.92    2.68
  -9  -3   6   73.00    2.96
   9   3  -6   71.81    3.18
  -9   3   6   59.73    2.96
  -9   3   6   68.98    2.64
   9   3  -6   71.22    2.78
   9   3  -6   70.60    2.92
  -7  -3   6   75.33    2.95
   7  -3  -6   71.74    2.67
  -7   3   6   70.16    2.63
   7   3  -6   73.34    2.78
  -7   3   6   68.41    3.03
   7   3  -6   68.69    3.14
   7   3  -6   70.17    2.93
   5  -3  -6   15.40    0.84
  -5  -3   6   16.45    1.06
  -5  -3   6   14.06    1.08
   5   3  -6   17.79    1.16
   5   3  -6   16.58    0.99
  -5   3   6   15.05    0.80
   5   3  -6   15.39    1.31
  -5   3   6   16.01    1.04
   3  -3  -6   85.74    3.03
  -3  -3   6   86.26    3.28
  -3  -3   6   81.03    3.35
  -3   3   6   87.32    3.33
   3   3  -6   83.21    3.58
  -3   3   6   84.71    3.01
   3   3  -6   91.08    3.37
   3   3  -6   95.84    3.30
  -1  -3   6   73.15    2.94
  -1   3   6   77.55    2.63
   1   3  -6   82.35    3.02
   1   3  -6   76.11    2.83
   1   3  -6   75.59    3.23
  -1   3   6   76.74    2.99
   1   3  -6   76.15    2.98
   1  -3   6   48.87    2.07
  -1   3  -6   52.24    2.39
  -1   3  -6   50.16    2.13
  -1   3  -6   50.81    2.04
   1   3   6   54.93    2.21
  -1   3  -6   53.25    2.27
   3  -3   6   72.80    2.80
  -3   3  -6   74.59    2.90
  -3   3  -6   72.32    3.07
  -3   3  -6   76.13    2.84
   3   3   6   75.30    2.91
   5  -3   6   34.70    1.62
  -5   3  -6   33.95    1.78
  -5   3  -6   34.19    1.61
  -5   3  -6   39.42    1.63
   5   3   6   37.35    1.70
  -5   3  -6   36.36    1.87
   7  -3   6   33.33    1.49
   7  -3   6   33.89    1.63
  -7   3  -6   33.32    1.67
   7   3   6   34.17    1.62
  -7   3  -6   33.63    1.57
  -7   3  -6   35.91    1.90
  -9  -3  -6   41.78    1.70
   9  -3   6   44.57    1.83
   9  -3   6   44.51    2.06
  -9   3  -6   40.95    1.85
  -9   3  -6   44.65    2.25
   9   3   6   44.59    1.94
  -9   3  -6   45.23    1.92
   9   3   6   42.87    1.55
  11  -3   6   15.01    1.21
  11  -3   6   13.77    0.95
 -11  -3  -6   14.07    0.97
  11   3   6   15.44    1.07
  11   3   6   13.94    0.72
 -11   3  -6   14.77    1.05
  13  -3   6   13.71    0.99
 -13  -3  -6   11.90    1.06
  13  -3   6   14.26    1.34
  13   3   6   13.57    1.38
  13   3   6   14.13    0.77
  13   3   6   12.87    1.01
  15  -3   6   10.24    0.99
  15  -3   6   10.62    1.35
 -15  -3  -6    8.63    1.14
  15   3   6   11.86    0.94
  15   3   6   11.62    1.40
 -15   3  -6   12.93    1.23
  15   3   6   11.41    0.82
  17  -3   6    4.42    1.15
 -17  -3  -6    3.85    0.97
  17  -3   6    5.63    0.79
  17   3   6    4.69    1.05
  17   3   6    4.51    1.04
  17   3   6    4.34    0.62
  19  -3   6    1.07    0.77
  19  -3   6    2.75    1.21
  19   3   6    2.44    1.31
  19   3   6    2.43    0.62
  24  -4  -6    1.93    1.02
  24  -4  -6    0.86    1.38
  24   4  -6    2.92    2.01
  24   4  -6   -0.12    1.24
  22  -4  -6    2.73    1.11
  22  -4  -6    0.94    0.81
 -22   4   6    4.39    1.65
  22   4  -6    0.94    1.19
  22   4  -6    1.24    1.18
  20  -4  -6    6.59    1.04
  20  -4  -6    6.17    1.17
  20   4  -6    4.45    1.26
 -20   4   6    6.49    1.05
 -20   4   6    5.52    1.26
  20   4  -6    9.05    1.61
  20   4  -6    5.32    1.20
  18  -4  -6    3.94    0.66
  18  -4  -6    2.27    1.00
 -18  -4   6    2.50    1.10
 -18   4   6    1.75    0.92
 -18   4   6    2.53    0.85
  18   4  -6    3.96    1.30
  18   4  -6    2.54    1.10
  16  -4  -6    4.18    0.64
  16  -4  -6    5.51    1.00
 -16  -4   6    2.50    1.01
  16   4  -6    2.27    1.15
  16   4  -6    4.07    1.42
  16   4  -6    4.71    1.09
 -16   4   6    3.35    0.74
 -16   4   6    5.63    1.05
  14  -4  -6   21.37    1.17
 -14  -4   6   24.13    1.67
  14  -4  -6   22.03    1.48
  14   4  -6   23.04    1.95
 -14   4   6   20.95    1.35
  14   4  -6   19.91    1.65
  14   4  -6   21.85    1.54
 -14   4   6   21.38    1.42
  12  -4  -6   21.05    1.35
 -12  -4   6   19.68    1.52
 -12   4   6   19.50    1.23
 -12   4   6   20.00    1.30
  12   4  -6   19.49    1.38
  12   4  -6   19.75    1.51
  12   4  -6   22.17    1.87
  10  -4  -6   16.50    1.10
 -10  -4   6   17.26    1.41
 -10   4   6   16.82    1.05
 -10   4   6   15.95    1.16
  10   4  -6   19.19    1.71
  10   4  -6   18.42    1.47
  10   4  -6   14.77    1.17
  -8  -4   6   34.26    1.85
   8  -4  -6   34.75    1.57
   8   4  -6   31.39    1.86
  -8   4   6   33.00    1.54
  -8   4   6   34.41    1.72
   8   4  -6   36.84    1.94
   8   4  -6   35.96    2.23
   6  -4  -6   28.90    1.35
  -6  -4   6   32.55    1.68
   6   4  -6   28.15    1.96
  -6   4   6   28.13    1.53
   6   4  -6   29.18    1.72
   6   4  -6   30.01    1.54
  -6   4   6   30.24    1.32
  -4  -4   6   59.44    2.49
   4  -4  -6   59.85    2.27
  -4  -4   6   53.01    2.62
   4   4  -6   64.44    2.45
   4   4  -6   59.48    2.59
  -4   4   6   57.10    2.48
   4   4  -6   54.71    3.08
  -4   4   6   59.11    2.22
  -2  -4   6   56.71    2.60
   2   4  -6   59.16    2.89
  -2   4   6   58.09    2.22
  -2   4   6   61.86    2.56
   2   4  -6   61.01    2.38
  -2   4   6   58.79    2.16
   2   4  -6   60.54    2.72
   2   4  -6   61.92    2.58
   0  -4   6   20.95    1.28
   0   4   6   23.08    1.33
   0   4  -6   21.96    1.63
   0   4  -6   23.26    1.37
   0   4   6   21.32    0.93
   0   4  -6   23.06    1.19
   0   4   6   23.21    1.05
   0   4  -6   21.89    1.34
   2  -4   6   51.65    2.19
  -2   4  -6   49.19    2.53
  -2   4  -6   49.89    2.21
  -2   4  -6   51.12    2.34
  -2   4  -6   50.43    2.11
   2   4   6   50.47    1.89
   2   4   6   54.82    2.28
   4  -4   6   52.94    2.25
   4   4   6   53.12    1.91
   4   4   6   53.22    1.87
  -4   4  -6   55.23    2.31
  -4   4  -6   52.87    2.59
  -4   4  -6   54.02    2.25
   4   4   6   55.32    2.36
  -4   4  -6   54.37    2.52
   6  -4   6   19.59    1.24
  -6   4  -6   21.27    1.28
   6   4   6   20.50    1.27
  -6   4  -6   20.10    1.45
  -6   4  -6   20.54    1.21
   6   4   6   19.11    0.80
   6   4   6   19.01    0.83
  -6   4  -6   18.97    1.47
   8  -4   6   31.26    1.74
  -8   4  -6   26.78    1.70
   8   4   6   30.00    1.18
  -8   4  -6   31.70    1.57
   8   4   6   30.24    1.16
   8   4   6   30.92    1.61
  -8   4  -6   28.89    1.89
  10  -4   6   19.84    1.35
  10  -4   6   18.27    1.15
 -10  -4  -6   17.58    1.03
 -10   4  -6   18.02    1.50
 -10   4  -6   17.94    1.26
  10   4   6   19.59    1.27
  10   4   6   18.81    0.88
  12  -4   6    9.48    1.20
 -12  -4  -6    7.31    0.91
  12  -4   6    8.57    0.91
 -12   4  -6    6.51    1.00
  12   4   6   10.23    0.67
  12   4   6    9.42    1.00
  14  -4   6   11.67    1.32
 -14  -4  -6    9.97    1.09
  14  -4   6   10.00    1.02
  14   4   6   12.08    1.10
 -14   4  -6    8.85    1.30
  16  -4   6    4.94    0.85
 -16  -4  -6    6.14    0.99
  16  -4   6    5.29    1.26
  16   4   6    5.25    0.70
  16   4   6    4.99    0.94
  16   4   6    6.76    1.34
  18  -4   6    1.47    1.23
  18  -4   6    2.55    0.82
  18   4   6    2.22    0.58
  18   4   6    1.74    1.20
  23  -5  -6    0.05    0.96
  23  -5  -6    0.29    1.32
  23   5  -6    4.93    1.49
  21  -5  -6    0.42    0.84
  21  -5  -6   -0.56    0.97
  21   5  -6    0.94    1.22
  21   5  -6    1.30    1.34
 -21   5   6    0.37    1.26
  19  -5  -6    3.38    1.10
  19  -5  -6    4.55    0.89
  19   5  -6    3.20    1.39
 -19   5   6    3.55    1.18
  19   5  -6    6.88    1.65
 -19   5   6    5.67    1.03
  19   5  -6    3.22    1.20
  17  -5  -6    5.59    0.94
 -17  -5   6    3.68    1.17
  17  -5  -6    2.72    1.00
 -17   5   6    1.92    0.77
  17   5  -6    4.63    1.27
 -17   5   6    3.26    0.95
  17   5  -6    3.55    1.20
  17   5  -6    4.01    1.48
  15  -5  -6    6.84    1.09
 -15  -5   6    6.37    1.33
  15  -5  -6    5.99    0.91
 -15   5   6    7.23    1.03
  15   5  -6    9.06    1.79
 -15   5   6    6.20    1.09
  15   5  -6    6.44    1.31
  13  -5  -6    8.91    1.05
  13  -5  -6    8.33    0.95
 -13  -5   6    9.41    1.43
 -13   5   6    9.41    1.07
  13   5  -6    7.22    1.66
  13   5  -6   13.61    2.17
  13   5  -6    9.41    1.13
 -13   5   6    8.54    0.98
  11  -5  -6    5.91    0.91
 -11  -5   6    6.07    1.13
  11  -5  -6    5.67    0.83
  11   5  -6    6.40    1.16
 -11   5   6    5.91    0.85
  11   5  -6    6.14    0.97
 -11   5   6    5.74    0.90
  -9  -5   6   27.13    1.72
   9  -5  -6   24.08    1.38
   9   5  -6   28.35    1.87
  -9   5   6   23.50    1.34
  -9   5   6   24.84    1.50
   9   5  -6   25.64    2.16
   9   5  -6   25.28    1.48
  -7  -5   6   25.68    1.67
   7  -5  -6   25.16    1.34
  -7   5   6   27.04    1.56
   7   5  -6   26.35    1.79
   7   5  -6   26.69    1.47
   7   5  -6   25.41    2.16
  -7   5   6   26.51    1.32
  -5  -5   6    8.88    1.25
  -5  -5   6    9.69    1.01
   5  -5  -6    8.10    0.80
  -5   5   6    8.31    0.54
   5   5  -6    9.79    1.51
  -5   5   6    9.32    0.99
   5   5  -6    9.38    1.18
  -5   5   6    8.30    0.71
   5   5  -6    9.34    0.95
   3  -5  -6   34.02    1.52
  -3  -5   6   29.53    1.92
  -3   5   6   32.86    1.76
   3   5  -6   34.13    1.61
   3   5  -6   31.82    1.88
   3   5  -6   32.15    2.22
  -3   5   6   32.88    1.42
  -3   5   6   34.61    1.39
   3   5  -6   35.34    1.69
  -1  -5   6   26.62    1.70
   1   5  -6   26.69    2.00
  -1   5   6   26.96    1.59
  -1   5   6   27.31    1.19
   1   5  -6   25.62    1.36
   1   5  -6   27.45    1.52
  -1   5   6   27.05    1.31
   1   5  -6   25.56    1.58
  -1   5   6   28.43    1.35
   1  -5   6   19.33    1.34
   1   5   6   18.59    1.19
   1   5   6   19.46    0.92
  -1   5  -6   18.34    1.38
   1   5   6   19.76    1.09
  -1   5  -6   22.18    1.40
  -1   5  -6   19.34    1.78
  -1   5  -6   18.92    1.18
   3  -5   6   27.93    1.56
  -3   5  -6   26.80    1.59
  -3   5  -6   26.34    1.63
  -3   5  -6   24.56    1.94
   3   5   6   26.45    1.11
   3   5   6   25.07    1.23
  -3   5  -6   26.75    1.43
   5   5   6   13.84    0.85
  -5   5  -6   14.07    1.31
  -5   5  -6   15.45    1.33
  -5   5  -6   18.22    1.66
   5   5   6   14.00    0.79
  -5   5  -6   16.04    1.12
   7  -5   6   14.78    1.25
  -7   5  -6   13.10    1.09
   7   5   6   13.53    0.94
   7   5   6   15.00    0.84
  -7   5  -6   12.41    1.56
  -7   5  -6   15.82    1.31
   9  -5   6   18.30    1.42
  -9   5  -6   14.57    1.57
   9   5   6   15.74    0.89
  11  -5   6    7.05    1.17
 -11  -5  -6    5.60    0.79
  11  -5   6    6.26    0.97
 -11   5  -6    7.51    1.24
  11   5   6    6.22    0.67
  11   5   6    7.04    1.08
  11   5   6    5.05    0.91
 -11   5  -6    6.89    0.99
  13  -5   6    8.68    1.31
  13  -5   6    5.40    0.87
 -13  -5  -6    4.29    0.83
  13   5   6    6.45    1.05
  13   5   6    5.36    0.71
  15  -5   6    3.87    1.00
 -15  -5  -6    5.00    0.95
  15  -5   6    4.42    0.85
  15   5   6    5.12    1.00
  15   5   6    3.85    0.62
  17  -5   6    2.47    0.88
  17  -5   6    0.92    1.14
  17   5   6    0.90    0.56
  20  -6  -6    2.01    1.16
  20  -6  -6    0.94    0.99
  20   6  -6    0.39    1.36
  20   6  -6    5.35    1.76
  18  -6  -6    1.63    0.89
  18  -6  -6   -0.10    1.03
 -18   6   6    1.01    0.93
  18   6  -6    5.68    1.64
  18   6  -6    3.01    1.36
 -16  -6   6    1.12    1.16
  16  -6  -6    2.61    0.99
  16  -6  -6    0.46    0.74
  16   6  -6    0.35    1.03
  16   6  -6    2.37    1.59
  16   6  -6   -0.57    1.08
 -16   6   6    1.83    1.08
 -16   6   6    2.28    0.83
  14  -6  -6    6.61    1.10
 -14  -6   6    7.39    1.30
  14  -6  -6    5.65    0.96
  14   6  -6    7.81    1.39
 -14   6   6    6.09    1.14
 -14   6   6    5.98    0.98
  14   6  -6    4.95    0.97
  14   6  -6    9.64    2.09
  12  -6  -6    6.21    0.98
 -12  -6   6    5.55    1.15
  12  -6  -6    5.08    0.97
 -12   6   6    7.51    1.07
 -12   6   6    6.64    0.98
  12   6  -6    7.27    1.84
  12   6  -6    8.77    1.41
 -12   6   6    6.20    0.71
 -10  -6   6    6.01    1.06
  10  -6  -6    4.73    0.87
  10   6  -6    7.39    1.00
  10   6  -6    9.37    2.19
 -10   6   6    6.02    0.89
 -10   6   6    6.49    1.04
 -10   6   6    5.58    0.63
   8  -6  -6   11.89    1.11
  -8  -6   6   12.79    1.35
   8   6  -6   12.58    1.55
  -8   6   6   11.49    0.97
   8   6  -6   11.82    1.09
  -8   6   6   10.87    0.73
  -8   6   6    9.91    1.14
   6  -6  -6    8.98    0.97
  -6  -6   6    6.97    1.04
   6   6  -6    9.10    1.36
   6   6  -6    8.50    0.99
  -6   6   6    8.34    0.84
  -6   6   6    8.33    0.63
  -6   6   6    8.04    1.03
  -4  -6   6   11.64    1.56
   4  -6  -6   14.39    1.09
  -4   6   6   15.13    0.84
   4   6  -6   14.75    1.39
   4   6  -6   15.16    1.34
  -4   6   6   14.43    0.95
   4   6  -6   16.27    1.16
  -2  -6   6   15.11    1.66
   2   6  -6   14.38    1.13
  -2   6   6   16.15    1.12
  -2   6   6   15.33    0.95
  -2   6   6   15.20    0.94
   2   6  -6   14.60    1.38
   0   6  -6    6.75    0.97
   0   6   6    8.15    0.95
   0   6   6    6.42    0.66
   0   6   6    7.03    0.87
   0   6  -6    8.26    1.31
   2  -6   6   16.27    1.50
   2   6   6   16.02    0.90
  -2   6  -6   15.98    1.60
   2   6   6   14.87    1.12
   4  -6   6   13.19    1.39
  -4   6  -6   16.57    1.45
   4   6   6   14.03    1.29
  -4   6  -6   12.55    1.88
   4   6   6   11.97    0.80
   4   6   6   11.51    0.95
   6  -6   6    7.51    1.16
   6   6   6    6.83    0.77
  -6   6  -6    9.20    1.70
  -6   6  -6    7.26    1.18
   6   6   6    4.91    0.63
   8  -6   6    9.94    1.36
  -8   6  -6   11.65    1.91
  -8   6  -6    9.59    1.31
   8   6   6    8.46    0.73
   8   6   6    8.71    0.82
 -10   6  -6    6.37    1.45
  10   6   6    5.42    0.93
  10   6   6    4.90    0.69
 -10   6  -6    6.17    1.23
  12  -6   6    3.65    0.87
  12  -6   6    3.21    1.06
 -12   6  -6    4.02    1.63
  12   6   6    1.90    0.57
  12   6   6    2.19    0.54
 -14  -6  -6    1.97    0.85
  14  -6   6    2.94    1.52
  14  -6   6    3.39    0.91
  14   6   6    2.88    1.01
  14   6   6    3.74    0.65
  16   6   6    0.70    0.64
  19  -7  -6    2.23    1.23
  19  -7  -6    2.20    1.25
  19   7  -6   -0.61    1.83
  19   7  -6    1.33    1.59
 -19   7   6    3.80    1.49
  17  -7  -6    1.48    1.14
  17  -7  -6    3.26    1.58
  17   7  -6   -0.38    1.35
  17   7  -6    1.45    1.79
 -17   7   6    1.14    1.17
 -17   7   6    0.99    0.93
  15  -7  -6    2.10    1.59
  15  -7  -6    1.68    1.09
 -15   7   6    1.69    0.98
  15   7  -6    1.92    1.36
  15   7  -6    1.61    1.74
 -15   7   6    2.33    0.92
  13  -7  -6    3.63    1.07
 -13  -7   6    2.20    1.16
  13  -7  -6    2.50    1.12
 -13   7   6    3.35    1.08
  13   7  -6    2.76    1.18
 -13   7   6    3.38    0.86
 -13   7   6    3.44    0.70
  13   7  -6    2.62    1.24
  13   7  -6    2.04    1.95
 -11  -7   6    2.77    1.06
  11  -7  -6    3.75    0.94
 -11   7   6    4.65    1.23
  11   7  -6    1.70    1.18
 -11   7   6    1.75    0.75
  11   7  -6    1.78    0.74
 -11   7   6    2.05    0.56
   9  -7  -6    7.16    1.05
  -9   7   6    5.46    0.76
   9   7  -6    5.05    0.97
  -9   7   6    7.36    1.03
   9   7  -6    7.28    1.34
  -7  -7   6    4.93    1.00
   7  -7  -6    8.37    1.13
  -7   7   6    9.06    0.99
  -7   7   6    7.26    0.76
   7   7  -6    6.08    1.36
   5  -7  -6    3.25    0.78
   5   7  -6    3.54    0.80
  -5   7   6    5.20    0.76
  -5   7   6    3.10    0.56
  -3  -7   6    9.85    1.67
  -3   7   6    9.05    0.86
   3   7  -6    9.21    1.01
   3   7  -6    8.28    1.37
  -3   7   6   10.99    0.96
  -3   7   6   11.24    1.15
  -1  -7   6   10.24    1.71
  -1   7   6    9.20    0.85
  -1   7   6    8.14    1.12
   1   7  -6    7.25    1.31
   1  -7   6   10.01    1.68
   1   7   6    5.03    0.97
  -1   7  -6    6.45    1.27
   1   7   6    7.17    0.78
   1   7   6    7.75    1.04
   3  -7   6   10.28    1.56
   3   7   6    7.34    1.03
   3   7   6    8.00    0.81
   3   7   6    8.88    1.20
  -3   7  -6    9.20    1.40
   5  -7   6    4.79    1.03
   5   7   6    4.23    0.65
  -5   7  -6    7.64    1.28
  -5   7  -6    3.17    1.78
   5   7   6    4.06    0.83
   5   7   6    5.38    1.04
   7  -7   6    5.80    1.30
  -7   7  -6    6.48    1.36
   7   7   6    4.96    1.09
   7   7   6    4.12    0.61
  -7   7  -6    6.97    2.04
   7   7   6    4.47    0.79
   9  -7   6    3.40    1.11
   9   7   6    4.06    0.63
  -9   7  -6    4.98    1.73
   9   7   6    4.25    0.69
  11  -7   6    1.10    1.24
  11   7   6    2.43    0.64
 -11   7  -6    3.19    1.69
 -11   7  -6    2.98    1.39
  13  -7   6    1.43    1.42
  13   7   6    1.88    0.69
 -13   7  -6    1.34    1.61
  16  -8  -6    1.96    1.46
  16  -8  -6    0.31    1.28
 -16   8   6    1.46    1.07
  16   8  -6    3.47    2.57
  16   8  -6    0.23    1.63
  14  -8  -6    2.19    1.29
  14  -8  -6    1.91    1.18
 -14   8   6   -0.75    0.89
  14   8  -6    3.57    2.24
 -14   8   6    1.44    0.74
  14   8  -6   -1.12    1.51
  12  -8  -6    3.15    1.16
  12   8  -6    0.19    1.44
 -12   8   6    0.08    0.85
 -12   8   6    1.11    0.67
  10  -8  -6    4.18    1.08
 -10  -8   6   -0.61    1.10
 -10   8   6    2.18    0.69
  10   8  -6    3.76    1.35
 -10   8   6    0.93    0.81
  -8  -8   6    2.52    1.08
   8  -8  -6    4.03    1.04
  -8   8   6    4.52    0.85
   8   8  -6    2.29    0.91
  -8   8   6    3.35    1.38
   8   8  -6    4.67    1.38
  -8   8   6    2.86    0.63
   6  -8  -6    2.48    0.92
   6   8  -6    4.10    1.28
  -6   8   6    2.41    0.60
   6   8  -6    1.48    0.81
  -6   8   6    3.71    1.36
  -6   8   6    3.11    0.95
  -6   8   6    3.03    0.79
   4   8  -6    3.64    0.84
   4   8  -6    3.65    1.28
  -4   8   6    5.76    1.02
   4   8  -6    3.76    0.90
  -4   8   6    2.70    0.80
  -4   8   6    4.12    0.69
  -2  -8   6    3.86    1.44
  -2   8   6    4.39    0.80
   2   8  -6    2.95    1.25
  -2   8   6    2.01    0.90
   2   8  -6    1.75    0.81
   2   8  -6    2.70    0.94
  -2   8   6    3.59    0.73
   0  -8   6    3.74    1.43
   0   8   6    2.21    0.78
   0   8   6    2.14    0.68
   0   8  -6    2.16    0.81
   0   8  -6    1.61    1.19
   2  -8   6    3.87    1.41
   2   8   6    3.85    0.88
  -2   8  -6    3.79    1.35
   2   8   6    4.87    0.76
   2   8   6    5.63    1.06
   4  -8   6    1.80    1.32
  -4   8  -6    3.07    1.32
   4   8   6    2.89    0.69
   4   8   6    2.63    0.94
   4   8   6    2.56    0.87
   6  -8   6    0.62    1.23
   6   8   6    2.33    0.62
   6   8   6    2.45    1.00
   6   8   6    0.82    0.79
  -6   8  -6    1.41    1.34
   8  -8   6    2.53    1.38
   8   8   6    4.80    1.38
  -8   8  -6    3.66    1.45
  -8   8  -6    4.01    2.18
  10  -8   6    1.65    1.60
 -10   8  -6    8.07    2.63
  10   8   6    0.34    0.71
 -10   8  -6    1.99    1.56
  13  -9  -6    2.59    1.38
  13   9  -6    1.33    1.83
  11  -9  -6    1.13    1.33
 -11   9   6   -0.14    1.02
  11   9  -6    1.80    1.58
  -9   9   6    0.82    0.71
   9   9  -6    1.80    1.45
  -9   9   6   -1.14    0.97
   7   9  -6   -0.45    1.35
  -7   9   6    1.84    1.17
  -7   9   6    0.90    0.92
  -7   9   6    1.47    0.69
  -5   9   6    2.56    1.09
  -5   9   6   -0.08    0.55
  -5   9   6    0.71    0.99
   5   9  -6    1.76    1.32
  -3   9   6    0.97    0.63
  -3   9   6    0.79    1.03
   3   9  -6    1.80    1.33
  -3   9   6    3.10    0.90
  -1  -9   6    3.33    1.72
   1   9  -6    2.84    1.39
  -1   9   6    1.05    0.82
  -1   9   6    5.07    1.13
   1  -9   6    2.72    1.72
   1   9   6    0.24    0.83
   1   9   6    1.68    1.03
  -1   9  -6    0.95    1.29
   1   9   6   -0.27    0.90
   3  -9   6   -0.83    1.49
  -3   9  -6    1.86    1.34
   3   9   6   -0.14    0.99
   3   9   6    0.78    0.91
   5  -9   6    0.05    1.76
  -5   9  -6    0.68    1.45
   5   9   6    2.44    1.03
   5   9   6    0.85    0.93
   7  -9   6    0.74    1.66
  -7   9  -6    1.19    1.64
   7   9   6    2.46    1.04
   8  10  -6    2.42    1.99
   6  10  -6    1.96    1.81
  -6  10   6   -1.33    1.55
  -4  10   6    1.86    1.44
   4  10  -6    1.09    1.68
   2  10  -6    1.30    1.70
  -2  10   6    0.40    0.71
   0 -10   6    3.12    4.37
   0  10   6   -0.52    0.89
   0  10   6    3.68    1.41
   0  10  -6    0.62    1.67
   2  10   6   -1.30    1.36
  -2  10  -6    3.75    1.73
  24   0  -7    5.07    1.25
  24   0  -7    2.84    1.05
  24   0  -7    5.60    1.25
 -22   0   7    1.73    1.07
  22   0  -7    1.00    0.99
  22   0  -7    2.18    0.97
 -20   0   7   12.52    1.43
  20   0  -7   11.96    1.27
  20   0  -7   10.92    1.38
  20   0  -7   13.83    1.31
  18   0  -7   23.39    1.60
  18   0  -7   24.19    1.71
 -18   0   7   24.84    1.64
 -16   0   7   23.04    1.49
 -16   0   7   20.49    1.83
  16   0  -7   24.05    1.59
  16   0  -7   20.77    1.48
  14   0  -7   41.25    2.03
  14   0  -7   43.25    2.12
 -14   0   7   41.52    2.01
 -14   0   7   38.29    2.33
  12   0  -7   31.46    1.64
 -12   0   7   33.58    2.00
  12   0  -7   33.02    1.46
  12   0  -7   35.69    1.82
 -12   0   7   32.06    1.67
 -10   0   7   96.67    3.60
  10   0  -7   95.16    3.76
 -10   0   7   95.26    3.89
  10   0  -7   93.32    3.57
   8   0  -7  170.71    6.13
  -8   0   7  169.50    5.93
   8   0  -7  176.63    6.03
  -8   0   7  161.71    6.52
  -6   0   7   95.80    3.75
  -6   0   7   98.75    3.47
   6   0  -7   91.10    3.67
   6   0  -7   93.96    3.42
  -4   0   7   67.79    2.80
   4   0  -7   66.23    2.38
  -4   0   7   67.73    2.49
   4   0  -7   66.11    2.76
  -4   0   7   66.95    2.52
  -2   0   7  238.96    8.23
   2   0  -7  248.12    8.33
  -2   0   7  254.59    8.28
  -2   0   7  259.00    8.67
   2   0  -7  251.03    8.64
   0   0   7  101.62    3.57
   0   0  -7  102.65    3.50
   0   0  -7  103.72    3.90
   0   0  -7  104.57    3.48
   0   0   7  105.27    3.91
   0   0  -7  104.83    3.71
   2   0   7  128.74    4.43
  -2   0  -7  124.31    4.24
   2   0   7  130.62    4.67
  -2   0  -7  128.41    4.65
  -4   0  -7  103.52    3.38
   4   0   7   97.58    3.63
  -4   0  -7   99.77    3.73
   4   0   7  100.22    3.75
  -6   0  -7   46.90    1.70
  -6   0  -7   47.40    1.72
   6   0   7   47.95    2.05
   6   0   7   48.52    2.04
  -8   0  -7   80.34    2.85
   8   0   7   80.73    3.18
   8   0   7   81.51    3.12
  10   0   7   40.62    2.02
  10   0   7   44.43    1.59
  10   0   7   42.47    1.88
 -10   0  -7   41.05    1.69
  12   0   7   11.67    1.15
  12   0   7   11.58    0.71
 -12   0  -7   10.61    0.89
  14   0   7   24.47    1.98
 -14   0  -7   20.05    1.27
 -16   0  -7    7.72    1.13
  16   0   7   10.38    0.79
  16   0   7   10.85    1.30
  18   0   7    3.31    0.59
  18   0   7    2.78    0.95
  25  -1  -7   -0.35    1.16
  25  -1  -7    2.45    1.23
  25   1  -7    1.44    1.18
  25   1  -7    1.87    1.34
  25   1  -7    3.04    1.03
  23  -1  -7    3.11    1.09
  23   1  -7    4.70    1.14
  23   1  -7    3.04    1.07
 -21  -1   7    9.46    1.45
  21  -1  -7   10.92    1.27
  21  -1  -7    9.18    1.37
  21  -1  -7   10.64    1.26
  21   1  -7   10.12    1.41
  21   1  -7   10.67    1.45
 -21   1   7   10.95    1.46
  19  -1  -7   13.86    1.24
 -19  -1   7   11.84    1.43
  19  -1  -7   13.72    1.29
  19  -1  -7   14.25    1.45
 -19   1   7   11.49    1.73
  19   1  -7   13.54    1.50
 -19   1   7   14.63    1.40
  19   1  -7   15.25    1.37
  17  -1  -7    4.64    0.81
  17  -1  -7    5.93    1.04
 -17  -1   7    5.98    1.05
  17  -1  -7    4.55    0.89
 -17   1   7    3.73    1.24
  17   1  -7    6.71    1.17
 -17   1   7    3.06    0.82
  17   1  -7    4.64    1.04
 -15  -1   7   48.74    2.35
  15  -1  -7   47.96    1.93
  15  -1  -7   45.20    2.22
  15  -1  -7   47.81    2.29
  15   1  -7   45.54    2.27
  15   1  -7   48.13    2.37
 -15   1   7   45.03    2.45
  13  -1  -7   62.69    2.74
 -13  -1   7   63.32    2.74
  13  -1  -7   63.06    2.65
 -13   1   7   61.26    2.62
 -13   1   7   62.17    2.84
  13   1  -7   65.24    2.84
  13   1  -7   63.21    2.54
  13   1  -7   61.44    2.71
 -11  -1   7   39.03    2.32
 -11  -1   7   43.33    2.01
  11  -1  -7   43.82    1.94
  11  -1  -7   43.44    2.16
  11   1  -7   43.31    2.02
 -11   1   7   44.30    1.93
  11   1  -7   44.44    1.83
 -11   1   7   42.76    2.12
  11   1  -7   43.48    2.14
  -9  -1   7   73.93    3.36
   9  -1  -7   73.05    3.03
  -9  -1   7   76.14    2.96
   9  -1  -7   72.40    2.81
  -9   1   7   69.18    3.08
   9   1  -7   73.66    2.91
   9   1  -7   71.64    3.09
   9   1  -7   75.86    2.73
  -9   1   7   75.85    2.84
  -7  -1   7   79.09    3.97
   7  -1  -7   88.29    3.19
   7  -1  -7   86.38    3.43
  -7  -1   7   88.65    3.31
   7   1  -7   84.37    3.30
  -7   1   7   84.98    3.45
  -7   1   7   87.54    3.17
   7   1  -7   86.89    3.47
   7   1  -7   91.02    3.11
   5  -1  -7  119.42    4.48
  -5  -1   7  111.62    4.23
  -5  -1   7  118.13    4.30
   5  -1  -7  121.75    4.18
  -5  -1   7  117.80    4.68
   5   1  -7  131.07    4.20
   5   1  -7  118.83    4.31
   5   1  -7  116.82    4.52
  -5   1   7  123.06    4.46
  -5   1   7  122.14    4.18
   3  -1  -7  183.38    6.49
  -3  -1   7  182.52    6.25
  -3  -1   7  173.16    6.20
  -3  -1   7  187.83    6.70
   3   1  -7  178.38    6.52
  -3   1   7  178.98    6.11
   3   1  -7  189.75    6.25
   3   1  -7  185.47    6.26
  -3   1   7  188.50    6.46
  -1  -1   7   72.20    2.67
   1  -1  -7   73.35    2.49
  -1  -1   7   73.54    2.65
  -1  -1   7   74.07    3.11
   1  -1  -7   75.19    2.97
   1   1  -7   77.79    2.82
  -1   1   7   72.24    2.57
   1   1  -7   74.52    2.74
   1   1  -7   73.61    3.00
  -1   1   7   77.06    2.94
  -1  -1  -7   66.23    2.74
   1  -1   7   68.24    2.50
   1  -1   7   67.70    2.89
  -1   1  -7   65.57    2.76
  -1   1  -7   70.11    2.69
   1   1   7   70.59    2.72
  -1   1  -7   70.26    2.44
   1   1   7   68.43    2.49
   3  -1   7  164.70    5.82
   3  -1   7  169.46    6.16
   3   1   7  172.46    5.97
  -3   1  -7  178.55    5.70
  -3   1  -7  171.36    6.02
  -3   1  -7  170.06    6.03
   3   1   7  165.00    5.84
   5  -1   7   56.95    2.47
   5  -1   7   54.07    2.22
   5   1   7   55.06    2.26
  -5   1  -7   54.84    2.28
   5   1   7   55.20    2.25
  -5   1  -7   56.12    2.03
   7  -1   7   47.77    2.04
   7  -1   7   45.55    2.13
   7   1   7   47.38    2.04
   7   1   7   45.13    1.95
  -7   1  -7   44.30    1.93
  -7   1  -7   46.28    1.79
   9  -1   7   49.51    1.80
  -9  -1  -7   43.21    1.71
   9  -1   7   47.21    2.13
   9   1   7   44.76    2.12
   9   1   7   45.52    1.95
  -9   1  -7   46.70    1.86
 -11  -1  -7   20.25    1.09
  11  -1   7   23.28    1.06
  11  -1   7   21.56    1.42
 -11   1  -7   21.04    1.15
  11   1   7   23.55    0.92
  11   1   7   22.80    1.46
  11   1   7   21.22    1.16
  13  -1   7   18.19    1.38
 -13  -1  -7   16.46    1.07
  13  -1   7   14.77    1.08
  13   1   7   16.87    1.39
  13   1   7   17.02    0.82
  13   1   7   17.19    1.04
 -13   1  -7   16.33    1.11
  15  -1   7   13.23    1.31
 -15  -1  -7   13.06    1.12
  15  -1   7   13.19    0.92
  15   1   7   12.94    0.92
  15   1   7   10.70    1.32
  17  -1   7    3.87    0.93
 -17  -1  -7    2.44    0.88
  17  -1   7    3.52    0.61
  17   1   7    3.91    0.56
  17   1   7    2.18    0.92
  19  -1   7    4.80    0.76
  19   1   7    5.10    1.43
  19   1   7    6.82    0.78
  24  -2  -7    1.82    1.20
  24  -2  -7    2.92    1.13
  24   2  -7    1.60    1.04
  24   2  -7    3.59    1.30
  22  -2  -7    2.68    1.05
  22  -2  -7    2.35    0.83
 -22   2   7    2.84    1.63
  22   2  -7    1.33    1.07
 -22   2   7   -1.57    0.92
  22   2  -7    0.55    1.02
 -20  -2   7   11.21    1.41
  20  -2  -7    8.12    1.06
  20  -2  -7    8.70    1.34
  20   2  -7    9.16    1.42
 -20   2   7    7.63    1.73
  20   2  -7    8.98    1.50
 -20   2   7    6.77    1.09
 -18  -2   7   18.72    1.53
  18  -2  -7   15.63    1.36
  18  -2  -7   18.02    1.13
  18  -2  -7   17.84    1.51
  18   2  -7   19.01    1.72
 -18   2   7   16.90    1.59
 -18   2   7   17.14    1.41
  16  -2  -7   15.87    1.31
 -16  -2   7   14.27    1.38
  16  -2  -7   15.15    1.27
  16  -2  -7   16.12    0.96
  16   2  -7   18.45    1.51
 -16   2   7   16.48    1.27
  16   2  -7   16.35    1.31
  16   2  -7   17.01    1.50
 -16   2   7   14.77    1.37
 -14  -2   7   33.50    1.84
  14  -2  -7   28.86    1.70
  14  -2  -7   27.24    1.60
 -14   2   7   29.24    1.60
  14   2  -7   27.86    1.82
 -14   2   7   26.04    1.66
  14   2  -7   28.00    1.72
  14   2  -7   30.08    1.62
  12  -2  -7   20.32    1.26
 -12  -2   7   21.08    1.42
  12  -2  -7   20.34    1.38
 -12   2   7   22.39    1.43
  12   2  -7   17.90    1.40
  12   2  -7   21.58    1.27
  12   2  -7   22.42    1.56
 -12   2   7   22.15    1.24
 -10  -2   7   61.33    2.65
  10  -2  -7   59.68    2.64
  10  -2  -7   59.93    2.43
  10   2  -7   58.41    2.74
  10   2  -7   61.40    2.62
 -10   2   7   58.21    2.59
  10   2  -7   62.85    2.44
 -10   2   7   60.93    2.42
  -8  -2   7  108.44    4.09
   8  -2  -7  105.62    3.85
   8  -2  -7  103.83    4.12
   8   2  -7  112.81    3.89
  -8   2   7  110.29    4.09
   8   2  -7  105.39    4.23
  -8   2   7  107.17    3.85
   8   2  -7  105.33    4.03
   6  -2  -7   59.07    2.20
  -6  -2   7   52.59    2.36
   6  -2  -7   56.70    2.50
  -6  -2   7   61.46    2.42
   6   2  -7   58.82    2.41
  -6   2   7   51.31    2.62
   6   2  -7   63.00    2.29
   6   2  -7   57.31    2.61
  -6   2   7   57.47    2.18
   4  -2  -7   36.61    1.82
  -4  -2   7   36.88    1.70
  -4  -2   7   36.55    1.66
   4  -2  -7   36.75    1.45
  -4   2   7   37.22    1.45
   4   2  -7   39.77    1.66
   4   2  -7   36.30    1.91
  -4   2   7   37.00    1.97
   4   2  -7   37.04    1.71
   2  -2  -7  157.25    5.16
  -2  -2   7  151.40    5.43
  -2  -2   7  156.95    5.41
  -2   2   7  160.77    5.58
   2   2  -7  160.53    5.49
  -2   2   7  142.46    5.27
   2   2  -7  166.78    5.53
   2   2  -7  153.68    5.71
   0  -2   7   57.68    2.28
   0   2  -7   59.99    2.24
   0   2   7   59.51    2.45
   0   2  -7   60.83    2.47
   0   2   7   57.97    2.22
   0   2  -7   59.88    2.58
   0   2  -7   62.86    2.39
   2  -2   7   73.67    2.82
  -2   2  -7   74.67    3.11
  -2   2  -7   77.06    2.89
  -2   2  -7   77.79    2.80
   2   2   7   77.52    2.99
   2   2   7   75.16    2.81
  -2   2  -7   81.03    3.11
   4  -2   7   63.04    2.45
  -4   2  -7   65.23    2.38
   4   2   7   60.19    2.45
  -4   2  -7   61.65    2.74
   4   2   7   62.80    2.53
  -4   2  -7   64.02    2.43
  -4   2  -7   61.52    2.61
   6  -2   7   30.05    1.44
  -6   2  -7   27.84    1.47
  -6   2  -7   28.29    1.31
  -6   2  -7   28.76    1.37
   6   2   7   28.17    1.42
  -6   2  -7   28.86    1.67
   6   2   7   28.09    1.45
   8  -2   7   54.59    2.31
  -8   2  -7   55.47    2.58
  -8   2  -7   50.74    2.15
  -8   2  -7   52.99    2.11
   8   2   7   51.03    2.31
   8   2   7   51.61    2.19
  10  -2   7   28.81    1.27
  10  -2   7   27.07    1.57
  10   2   7   25.67    1.58
  10   2   7   25.72    1.34
 -10   2  -7   27.08    1.37
 -12  -2  -7    7.05    0.75
  12  -2   7    6.44    1.11
  12  -2   7    7.14    0.74
  12   2   7    6.89    1.05
 -12   2  -7    6.84    0.89
  12   2   7    7.51    0.78
 -14  -2  -7   14.15    1.12
  14  -2   7   17.58    1.38
  14  -2   7   15.65    1.00
  14   2   7   14.03    1.44
  14   2   7   14.67    1.00
  14   2   7   14.28    0.77
 -14   2  -7   14.79    1.17
  16  -2   7    6.46    1.15
  16  -2   7    5.92    0.79
  16   2   7    5.94    0.66
  16   2   7    8.59    1.33
 -18  -2  -7    2.45    1.07
  18  -2   7    2.38    0.62
  18  -2   7    2.49    0.93
  18   2   7    2.16    0.55
  18   2   7    3.30    1.19
  23  -3  -7    4.30    1.22
  23  -3  -7    2.17    0.94
  23   3  -7    2.29    1.19
  23   3  -7    1.88    1.30
 -23   3   7    7.10    2.00
  21  -3  -7    5.34    0.90
  21  -3  -7    5.19    1.22
 -21   3   7    7.14    1.62
  21   3  -7    7.84    1.57
 -21   3   7    3.82    1.08
  21   3  -7    5.95    1.32
  19  -3  -7   10.06    1.41
 -19  -3   7    7.42    1.32
  19  -3  -7    7.65    0.95
 -19   3   7    8.89    1.20
  19   3  -7   10.46    1.51
  19   3  -7   10.04    1.51
 -19   3   7    7.59    1.39
  19   3  -7    7.70    1.27
  17  -3  -7    3.73    0.97
  17  -3  -7    3.57    0.58
 -17  -3   7    1.91    0.90
  17   3  -7    3.02    0.87
 -17   3   7    2.49    0.76
  17   3  -7    3.82    1.27
 -17   3   7    1.64    0.93
  17   3  -7    2.64    1.04
 -15  -3   7   25.90    1.77
  15  -3  -7   25.88    1.56
 -15   3   7   23.00    1.58
 -15   3   7   24.44    1.54
  15   3  -7   27.32    1.64
  15   3  -7   25.43    2.04
  15   3  -7   25.46    1.80
 -13  -3   7   32.86    1.91
  13  -3  -7   31.36    1.68
  13   3  -7   31.17    1.74
  13   3  -7   33.74    1.96
 -13   3   7   30.90    1.63
 -13   3   7   32.77    1.77
  13   3  -7   31.01    2.06
  11  -3  -7   23.40    1.36
 -11  -3   7   26.16    1.65
 -11   3   7   26.68    1.33
 -11   3   7   24.38    1.49
  11   3  -7   27.01    1.84
  11   3  -7   24.13    1.59
  11   3  -7   25.10    1.44
   9  -3  -7   40.22    1.87
  -9  -3   7   36.84    1.96
   9   3  -7   39.93    2.04
   9   3  -7   40.98    2.25
  -9   3   7   40.27    1.94
   9   3  -7   40.79    1.83
  -9   3   7   39.36    1.73
  -7  -3   7   46.95    2.15
  -7   3   7   45.63    2.11
   7   3  -7   49.43    2.02
  -7   3   7   45.87    1.87
   7   3  -7   45.02    2.39
   7   3  -7   45.41    2.19
   5  -3  -7   61.71    2.33
  -5  -3   7   61.73    2.59
  -5  -3   7   56.29    2.65
   5   3  -7   65.57    2.67
  -5   3   7   62.95    2.62
  -5   3   7   61.78    2.30
   5   3  -7   69.78    2.55
   5   3  -7   60.76    2.92
  -3  -3   7   92.88    3.51
  -3  -3   7   86.87    3.59
   3   3  -7   95.54    3.61
   3   3  -7  100.95    3.58
  -3   3   7   94.25    3.60
   3   3  -7   91.84    3.84
  -3   3   7   92.80    3.23
  -1  -3   7   38.49    1.77
   1  -3  -7   39.34    1.45
   1   3  -7   41.77    1.87
   1   3  -7   35.70    1.80
   1   3  -7   39.99    1.89
  -1   3   7   41.53    1.44
   1   3  -7   38.50    2.06
  -1   3   7   40.99    1.87
  -1   3   7   38.39    1.51
  -1   3   7   40.17    1.42
   1  -3   7   35.33    1.64
  -1   3  -7   38.96    1.98
   1   3   7   37.75    1.78
  -1   3  -7   37.32    1.62
   1   3   7   34.81    1.51
  -1   3  -7   37.51    1.74
   3  -3   7   87.16    3.32
  -3   3  -7   89.71    3.31
  -3   3  -7   88.01    3.60
   3   3   7   89.58    3.44
   3   3   7   84.99    3.28
  -3   3  -7   93.30    3.65
  -3   3  -7   91.91    3.38
   5  -3   7   29.09    1.46
   5   3   7   30.35    1.53
  -5   3  -7   29.24    1.43
  -5   3  -7   29.57    1.67
  -5   3  -7   29.21    1.46
  -5   3  -7   29.66    1.75
   5   3   7   28.38    1.45
   7  -3   7   28.31    1.48
  -7   3  -7   26.40    1.54
  -7   3  -7   27.44    1.43
   7   3   7   27.08    1.50
   7   3   7   26.32    1.46
  -7   3  -7   27.80    1.72
  -7   3  -7   27.16    1.39
   9  -3   7   26.73    1.56
   9   3   7   25.86    1.59
  -9   3  -7   30.62    1.89
   9   3   7   26.34    1.46
  -9   3  -7   30.58    1.45
  -9   3  -7   24.39    1.41
  11  -3   7   12.20    0.93
 -11  -3  -7   11.59    1.15
  11  -3   7   12.95    1.17
  11   3   7   14.12    1.23
  11   3   7   11.04    1.00
  13  -3   7   10.37    1.23
 -13  -3  -7    9.90    0.91
  13  -3   7   11.30    0.92
 -13   3  -7   11.16    1.07
  13   3   7    8.60    1.24
  15  -3   7    8.80    1.29
  15  -3   7    8.05    0.90
 -15  -3  -7    7.29    1.08
  15   3   7    7.18    0.69
  15   3   7    6.54    0.90
  15   3   7    8.19    1.26
 -17  -3  -7    1.80    0.89
  17  -3   7    3.45    1.35
  17  -3   7    1.07    0.62
  17   3   7    2.45    0.47
  17   3   7    1.49    0.99
  22  -4  -7    2.05    0.76
  22  -4  -7    0.60    1.11
  22   4  -7    1.84    1.23
  22   4  -7   -1.37    1.18
 -22   4   7    2.94    1.63
  20  -4  -7    3.55    1.18
  20  -4  -7    4.14    0.77
 -20   4   7    5.35    1.37
  20   4  -7    7.91    1.48
  20   4  -7    1.66    1.14
  20   4  -7    4.45    1.66
 -18  -4   7    8.67    1.37
  18  -4  -7    6.64    1.23
  18  -4  -7    6.67    0.87
  18   4  -7    7.31    1.37
 -18   4   7    8.67    1.26
  18   4  -7   10.60    1.64
 -18   4   7    7.72    1.11
  16  -4  -7    7.30    1.12
 -16  -4   7    9.16    1.26
  16   4  -7    7.08    1.33
  16   4  -7    8.28    1.18
 -16   4   7    7.62    1.02
 -16   4   7    6.70    1.12
  16   4  -7    8.73    1.56
  14  -4  -7   13.08    1.27
 -14  -4   7   13.39    1.52
  14   4  -7   12.42    1.20
  14   4  -7   13.92    1.89
 -14   4   7   11.60    1.22
  14   4  -7   15.83    1.80
 -12  -4   7   11.16    1.26
  12  -4  -7   11.32    1.11
 -12   4   7   11.89    0.96
  12   4  -7   11.76    1.11
  12   4  -7   11.11    1.32
 -12   4   7   11.84    1.12
  12   4  -7   16.79    3.28
  10  -4  -7   26.34    1.42
 -10  -4   7   26.48    1.77
  10   4  -7   25.97    1.47
  10   4  -7   24.81    1.75
  10   4  -7   26.07    2.03
 -10   4   7   26.26    1.55
 -10   4   7   27.67    1.37
   8  -4  -7   43.00    1.90
  -8  -4   7   46.70    2.24
  -8   4   7   42.92    1.88
   8   4  -7   46.71    2.04
   8   4  -7   47.82    2.36
   8   4  -7   45.27    2.57
  -8   4   7   44.35    2.10
  -6  -4   7   25.68    1.75
  -6  -4   7   31.77    1.65
  -6   4   7   29.84    1.33
  -6   4   7   30.48    1.61
   6   4  -7   29.66    1.75
   6   4  -7   28.62    1.52
   6   4  -7   31.90    2.04
  -4  -4   7   16.95    1.34
  -4  -4   7   19.64    1.22
   4  -4  -7   17.48    0.99
   4   4  -7   21.38    1.74
  -4   4   7   18.82    0.92
   4   4  -7   19.48    1.21
   4   4  -7   19.01    1.39
  -4   4   7   17.26    1.25
  -2  -4   7   66.56    3.06
  -2   4   7   72.07    2.93
   2   4  -7   68.83    3.24
   2   4  -7   74.59    2.94
   2   4  -7   69.81    2.95
  -2   4   7   69.18    2.51
   2   4  -7   72.91    2.76
   0  -4   7   28.92    1.55
   0   4   7   30.44    1.61
   0   4  -7   28.48    1.41
   0   4   7   27.57    1.15
   0   4  -7   29.67    1.63
   0   4  -7   27.66    1.64
   0   4   7   30.54    1.21
   0   4  -7   30.63    1.91
   2  -4   7   36.33    1.75
   2   4   7   38.10    1.84
  -2   4  -7   34.25    1.93
  -2   4  -7   39.24    2.18
  -2   4  -7   34.37    1.80
  -2   4  -7   34.53    1.67
   4  -4   7   30.08    1.58
  -4   4  -7   31.07    1.58
  -4   4  -7   30.64    1.85
  -4   4  -7   32.73    1.67
   4   4   7   32.51    1.68
  -4   4  -7   31.32    1.94
  -6   4  -7   17.02    1.61
  -6   4  -7   16.18    1.44
   6   4   7   15.96    1.18
  -6   4  -7   15.13    1.10
  -6   4  -7   15.28    1.40
   8  -4   7   25.94    1.53
  -8   4  -7   23.53    1.44
  -8   4  -7   22.84    1.61
  -8   4  -7   28.47    1.54
   8   4   7   25.99    1.53
  10  -4   7   14.52    1.27
  10   4   7   14.16    1.18
 -10   4  -7   11.76    1.17
 -10   4  -7   14.04    1.48
 -12  -4  -7    4.49    0.62
  12  -4   7    4.87    0.86
  12  -4   7    4.06    0.73
 -12   4  -7    5.95    0.95
  12   4   7    4.53    0.93
  12   4   7    4.48    1.00
 -14  -4  -7    8.49    0.96
  14  -4   7   10.55    1.39
  14  -4   7    8.80    0.96
  14   4   7    8.06    1.32
  14   4   7    8.37    1.08
  16  -4   7    4.96    0.82
  16  -4   7    4.23    1.15
 -16  -4  -7    4.18    0.89
  16   4   7    2.85    1.05
  16   4   7    6.23    0.90
  21  -5  -7    0.53    0.83
  21  -5  -7    2.06    1.16
  21   5  -7    5.98    1.56
  21   5  -7    0.62    1.35
  19  -5  -7    3.12    0.81
  19  -5  -7    4.77    1.14
  19   5  -7    2.42    1.34
  19   5  -7    2.57    1.43
 -19   5   7    2.97    0.97
  19   5  -7    2.67    1.23
  17  -5  -7    2.08    1.03
 -17  -5   7    0.50    1.07
  17   5  -7    1.35    1.18
  17   5  -7    3.26    1.46
  17   5  -7    0.22    0.85
 -17   5   7    1.13    0.78
 -17   5   7    1.44    1.10
  15  -5  -7    8.04    1.19
 -15  -5   7   10.20    1.45
  15   5  -7    8.85    1.79
 -15   5   7    7.30    1.21
 -15   5   7    7.78    1.09
  15   5  -7    8.03    1.38
 -13  -5   7   10.91    1.49
  13  -5  -7    9.72    1.15
  13   5  -7   10.74    1.88
  13   5  -7    9.35    1.16
 -13   5   7    9.73    1.13
  13   5  -7    8.24    1.47
 -13   5   7   10.76    1.92
 -11  -5   7   11.02    1.31
  11  -5  -7    7.89    1.02
  11   5  -7    8.91    1.01
  11   5  -7   10.19    1.41
 -11   5   7    7.75    0.90
  11   5  -7   10.73    1.75
 -11   5   7    8.60    1.03
   9  -5  -7   13.28    1.10
  -9  -5   7   14.90    1.36
   9   5  -7   13.19    1.42
   9   5  -7   17.73    1.93
   9   5  -7   13.74    1.12
  -9   5   7   12.92    0.99
  -9   5   7   13.37    1.20
   7  -5  -7   14.58    1.03
  -7  -5   7   16.35    1.34
  -7   5   7   13.24    1.19
   7   5  -7   14.14    1.13
  -7   5   7   13.74    0.93
   7   5  -7   14.74    2.01
   7   5  -7   15.91    1.42
  -5  -5   7   18.22    1.32
  -5  -5   7   15.19    1.46
   5  -5  -7   18.63    1.22
   5   5  -7   19.74    1.94
  -5   5   7   18.01    1.00
   5   5  -7   18.57    1.24
   5   5  -7   17.79    1.51
   3  -5  -7   26.49    1.36
  -3  -5   7   28.06    1.84
  -3   5   7   27.76    1.22
   3   5  -7   27.56    1.54
   3   5  -7   24.46    1.77
   3   5  -7   27.03    2.13
  -1  -5   7   14.22    1.31
   1   5  -7   16.09    1.73
  -1   5   7   14.10    0.93
   1   5  -7   13.36    1.17
  -1   5   7   12.72    0.91
  -1   5   7   13.29    0.76
  -1   5   7   14.74    1.22
   1   5  -7   13.63    1.24
   1  -5   7   14.03    1.21
   1   5   7   12.70    0.82
   1   5   7   12.09    0.72
   1   5   7   11.72    1.01
   1   5   7   13.93    1.19
  -1   5  -7   12.60    1.26
  -1   5  -7   12.87    1.23
  -1   5  -7   14.41    1.64
  -1   5  -7   11.88    1.00
   3   5   7   27.17    1.63
  -3   5  -7   28.13    1.78
   3   5   7   26.89    1.10
  -3   5  -7   29.71    2.08
   3   5   7   26.94    1.17
  -3   5  -7   28.05    1.52
  -3   5  -7   29.55    1.70
   5  -5   7   10.60    1.13
  -5   5  -7   10.22    1.14
  -5   5  -7    9.32    1.33
  -5   5  -7    7.83    1.12
  -5   5  -7    8.97    1.53
   5   5   7    8.88    1.03
   7  -5   7   11.91    1.24
  -7   5  -7   10.82    1.56
  -7   5  -7   11.48    1.34
   7   5   7    9.13    1.10
   9  -5   7   13.16    1.34
  -9   5  -7   10.29    1.54
  -9   5  -7   10.67    1.38
  -9   5  -7   13.03    1.64
  -9   5  -7    7.82    1.09
   9   5   7    9.70    1.12
  11  -5   7    5.94    1.05
  11   5   7    6.96    1.11
 -11   5  -7    6.20    1.21
 -11   5  -7    6.15    1.17
  13  -5   7    5.25    1.08
  13  -5   7    4.42    0.88
  13   5   7    3.92    0.53
  13   5   7    5.41    1.06
  15  -5   7    2.98    0.86
 -15  -5  -7    1.65    0.77
  15  -5   7    5.03    1.38
  15   5   7    3.37    1.47
  15   5   7    2.93    0.72
  15   5   7    3.28    1.08
  20  -6  -7    0.50    1.02
  20  -6  -7   -0.27    1.18
 -20   6   7   -0.48    1.37
  20   6  -7   -0.97    1.40
  20   6  -7    0.46    1.73
  18  -6  -7    1.49    1.09
 -18   6   7    3.80    0.95
  18   6  -7    4.83    1.45
 -18   6   7    1.96    1.18
  18   6  -7    2.72    1.52
 -16  -6   7    3.81    1.34
  16  -6  -7    1.54    1.03
  16   6  -7    0.28    1.24
 -16   6   7    1.50    0.77
  16   6  -7    0.78    1.14
  16   6  -7    3.55    1.74
 -16   6   7    1.04    0.98
 -14  -6   7    3.57    1.15
  14  -6  -7    4.06    1.06
 -14   6   7    3.04    0.83
  14   6  -7    4.40    1.33
  14   6  -7    7.91    1.94
  14   6  -7    4.19    1.08
 -12  -6   7    2.97    1.10
  12  -6  -7    3.93    0.95
  12   6  -7    6.29    1.92
  12   6  -7    4.48    1.28
  10  -6  -7    6.10    0.95
 -10  -6   7    6.30    1.21
  10   6  -7    7.12    1.89
  10   6  -7    7.94    1.74
 -10   6   7    6.91    0.90
   8  -6  -7    9.73    1.03
  -8  -6   7   10.06    1.27
   8   6  -7   10.96    1.09
  -8   6   7    9.18    0.95
   8   6  -7   12.20    2.16
   8   6  -7   12.45    1.49
   6  -6  -7    8.34    0.95
  -6  -6   7    7.30    1.04
   6   6  -7    8.34    1.29
   6   6  -7   13.18    2.28
   6   6  -7    6.94    0.97
  -6   6   7    7.38    0.81
  -4  -6   7    4.73    1.10
   4  -6  -7    5.88    0.81
   4   6  -7    5.35    1.10
  -4   6   7    5.58    0.67
  -4   6   7    3.77    0.50
   4   6  -7    3.74    1.49
   4   6  -7    5.68    0.94
  -2  -6   7   19.75    1.79
   2   6  -7   16.46    1.55
  -2   6   7   19.87    1.21
  -2   6   7   15.12    0.98
  -2   6   7   18.05    0.99
   2   6  -7   20.59    3.88
   2   6  -7   15.96    1.27
   0  -6   7    8.88    1.37
   0   6   7    8.63    0.92
   0   6   7    8.45    0.91
   0   6   7    7.66    0.68
   0   6   7    9.14    1.32
   0   6  -7    6.63    1.12
   0   6  -7    6.75    1.17
   0   6  -7    9.74    1.91
   2  -6   7   10.68    1.41
  -2   6  -7   10.20    1.78
   2   6   7    9.18    1.14
   2   6   7    8.31    0.70
   2   6   7    9.55    0.88
  -2   6  -7   11.98    1.88
   4  -6   7    8.29    1.30
   4   6   7    9.32    1.13
  -4   6  -7   10.93    1.92
   4   6   7    9.41    0.79
   4   6   7   10.17    1.20
  -4   6  -7    9.88    1.40
  -4   6  -7    5.80    1.30
   6  -6   7    5.04    1.02
  -6   6  -7    4.31    1.09
  -6   6  -7    5.99    0.93
   6   6   7    4.33    0.63
  -6   6  -7    6.55    1.58
   6   6   7    4.42    0.57
  -6   6  -7    2.80    0.99
   6   6   7    4.11    0.97
   8  -6   7   10.12    1.38
   8   6   7    6.72    0.59
  -8   6  -7    7.98    1.29
  -8   6  -7    6.12    1.43
   8   6   7    7.15    0.66
   8   6   7    7.56    1.19
  -8   6  -7    8.27    1.74
  10  -6   7    3.81    1.13
 -10   6  -7    4.55    1.72
  10   6   7    4.51    0.61
 -10   6  -7    6.19    1.29
  10   6   7    4.15    1.01
  12  -6   7    3.60    1.15
 -12   6  -7    2.79    1.29
  12   6   7    1.35    0.47
  12   6   7   -0.74    0.97
 -12   6  -7    1.45    1.25
  14  -6   7    2.03    1.54
 -14   6  -7    1.91    1.67
  14   6   7    0.78    1.07
  14   6   7    1.59    0.55
  19  -7  -7    0.93    1.33
  19   7  -7    1.16    1.75
  19   7  -7    0.29    2.11
  17  -7  -7    2.08    1.19
  17  -7  -7    2.18    1.22
  17   7  -7   -1.18    1.80
  17   7  -7   -3.15    1.41
 -17   7   7   -0.73    0.97
  15  -7  -7    3.59    1.18
 -15   7   7    2.86    1.19
  15   7  -7    3.60    1.48
  15   7  -7    5.40    2.03
 -15   7   7    2.71    0.92
 -13  -7   7    3.65    1.25
  13  -7  -7    2.15    0.98
  13   7  -7    1.72    1.30
  13   7  -7    4.51    2.07
 -13   7   7    3.65    1.15
 -13   7   7    3.18    0.92
  11  -7  -7    2.33    0.89
 -11  -7   7    2.18    1.03
  11   7  -7    3.02    0.98
 -11   7   7    1.71    0.74
  11   7  -7    1.72    1.91
  11   7  -7    5.87    1.47
 -11   7   7    4.76    1.10
  -9  -7   7    4.65    1.03
   9  -7  -7    4.93    0.90
  -9   7   7    3.02    1.04
  -9   7   7    3.10    0.73
   9   7  -7    4.70    1.97
   9   7  -7    2.52    1.24
  -9   7   7    3.91    0.61
   9   7  -7    4.48    0.90
  -7  -7   7    6.21    1.08
   7  -7  -7    2.32    0.82
   7   7  -7    6.28    2.02
  -7   7   7    5.56    1.10
   7   7  -7    2.48    1.23
   7   7  -7    2.63    0.75
  -7   7   7    4.41    0.57
  -7   7   7    3.46    0.71
  -5  -7   7    6.30    1.61
   5  -7  -7    4.86    0.91
  -5   7   7    4.96    0.60
  -5   7   7    6.30    0.94
   5   7  -7    5.96    1.99
   5   7  -7    4.03    0.81
  -5   7   7    6.75    0.87
   5   7  -7    5.91    0.96
  -3  -7   7    7.88    1.68
  -3   7   7    8.77    1.11
   3   7  -7   11.52    2.32
  -3   7   7    5.75    0.76
   3   7  -7    8.26    1.42
  -3   7   7    6.73    0.84
   3   7  -7    7.45    1.05
  -1  -7   7    3.36    1.21
   1   7  -7    3.95    0.90
  -1   7   7    4.95    0.73
   1   7  -7    5.14    1.94
  -1   7   7    3.18    0.85
  -1   7   7    4.09    0.87
   1   7  -7    3.27    1.22
   1  -7   7    6.45    1.43
  -1   7  -7    3.03    1.17
  -1   7  -7    2.71    0.92
   1   7   7    3.27    0.84
   1   7   7    5.06    0.91
   1   7   7    4.92    0.73
  -1   7  -7    5.44    1.82
   3   7   7    8.95    1.27
   3   7   7    6.60    1.00
  -3   7  -7    7.16    1.31
   3   7   7    7.74    0.78
  -3   7  -7    5.87    1.20
  -3   7  -7    9.19    2.08
   5  -7   7    1.67    1.00
   5   7   7    1.88    0.66
   5   7   7    2.25    0.97
   5   7   7    2.96    0.60
  -5   7  -7    6.21    1.99
  -5   7  -7    2.03    1.14
   7  -7   7    3.14    1.29
  -7   7  -7    5.80    2.21
   7   7   7    3.29    1.19
   7   7   7    4.35    1.37
   7   7   7    2.32    0.61
  -7   7  -7    3.87    1.31
   9  -7   7    3.41    1.35
   9   7   7    1.76    0.59
  -9   7  -7    5.76    1.89
  11  -7   7   -0.46    1.28
  11   7   7    0.64    0.54
 -11   7  -7    3.19    1.83
 -11   7  -7    3.19    1.53
  16  -8  -7   -0.59    1.56
 -16   8   7    0.40    1.14
  16   8  -7    4.13    2.48
  16   8  -7    1.46    1.81
  14  -8  -7    2.68    1.26
  14   8  -7    5.26    2.58
  14   8  -7    4.11    1.72
 -14   8   7    1.76    1.02
  12  -8  -7    0.45    1.24
 -12   8   7    0.47    0.93
  12   8  -7    2.51    1.52
 -12   8   7    2.43    0.79
  12   8  -7    3.57    2.25
  10  -8  -7    2.06    1.05
 -10  -8   7   -1.30    1.85
 -10   8   7    0.54    0.82
 -10   8   7    1.18    0.62
  10   8  -7    4.06    2.25
  10   8  -7    0.88    1.32
   8  -8  -7    1.68    1.07
  -8   8   7    1.41    0.86
   8   8  -7    5.06    2.41
  -8   8   7    2.73    0.58
   8   8  -7    5.18    1.39
   6  -8  -7    1.23    0.92
  -6   8   7    3.33    0.78
  -6   8   7    2.59    0.59
   6   8  -7    0.76    1.27
  -6   8   7    2.83    0.94
  -4  -8   7    3.32    1.56
  -4   8   7    3.72    1.72
  -4   8   7    0.64    0.69
   4   8  -7    1.94    1.21
  -2  -8   7    2.54    1.39
  -2   8   7    4.31    0.76
  -2   8   7    3.44    0.75
   2   8  -7    3.00    1.31
  -2   8   7    4.60    1.05
   0  -8   7    0.59    1.26
   0   8   7    1.72    0.80
   0   8  -7    3.91    1.34
   0   8   7    2.04    0.89
   0   8  -7    6.74    2.16
   0   8   7    2.90    0.69
   2  -8   7    2.15    1.29
   2   8   7    3.70    0.90
  -2   8  -7    4.65    2.06
   2   8   7    3.39    1.19
  -2   8  -7    3.00    1.33
   4  -8   7    2.41    1.25
  -4   8  -7    5.26    2.26
   4   8   7    3.43    0.81
   4   8   7    2.38    0.99
   4   8   7    1.51    0.66
  -4   8  -7    2.47    1.36
   6  -8   7    1.00    1.47
  -6   8  -7    0.82    1.32
   6   8   7    1.44    1.04
  -6   8  -7    5.24    2.24
   6   8   7    1.24    0.77
   8  -8   7    1.16    1.56
  -8   8  -7    6.08    2.28
   8   8   7    1.53    0.69
  -8   8  -7    2.57    1.63
 -10   8  -7    4.85    2.46
  10   8   7   -0.10    0.69
 -10   8  -7    1.09    1.64
  11  -9  -7    0.49    1.42
  11   9  -7    1.59    2.84
  11   9  -7    2.13    1.73
   9  -9  -7   -0.27    1.25
   9   9  -7    2.36    1.58
   9   9  -7    1.17    2.67
  -9   9   7    2.24    1.30
  -7   9   7    2.86    1.16
   7   9  -7   -0.74    1.49
   5   9  -7    2.71    1.48
  -5   9   7    1.85    1.13
  -3  -9   7   -3.02    1.78
   3   9  -7    1.25    1.35
  -3   9   7    1.23    0.61
  -3   9   7    3.29    1.07
  -1  -9   7   -0.37    1.69
  -1   9   7   -0.25    0.73
  -1   9   7    1.87    1.01
   1   9  -7    2.44    1.40
   1  -9   7    0.78    1.70
   1   9   7   -0.71    0.87
   1   9   7    3.54    1.05
  -1   9  -7    1.83    1.44
   3  -9   7   -0.25    1.86
  -3   9  -7    0.73    2.37
   3   9   7   -1.31    0.93
   3   9   7   -0.01    0.92
  -3   9  -7    1.20    1.47
   5  -9   7   -0.75    3.49
   5   9   7    0.29    0.96
  -5   9  -7    1.18    2.51
  -5   9  -7   -1.71    1.53
   5   9   7   -1.90    2.00
  24   0  -8    4.49    1.26
  24   0  -8    1.69    1.13
  24   0  -8   -0.68    0.96
  22   0  -8    6.29    1.28
  22   0  -8    4.77    1.11
  22   0  -8    5.32    1.18
 -22   0   8    6.02    1.18
  20   0  -8    9.18    1.30
  20   0  -8    7.67    1.26
 -20   0   8    8.81    1.28
  20   0  -8    8.74    1.19
 -18   0   8    2.41    0.87
  18   0  -8    1.51    1.18
  18   0  -8    2.46    0.88
 -16   0   8    9.65    1.52
 -16   0   8   14.27    1.30
  16   0  -8   14.89    1.44
  16   0  -8   12.73    1.26
  16   0  -8   13.11    1.02
  14   0  -8   43.38    2.13
  14   0  -8   43.01    1.88
  14   0  -8   47.33    2.33
 -14   0   8   43.25    2.55
 -14   0   8   44.39    2.16
  12   0  -8   12.74    1.22
  12   0  -8   11.38    0.79
 -12   0   8   11.69    1.33
 -12   0   8   14.30    1.08
  12   0  -8   13.22    1.08
  10   0  -8   27.70    1.48
  10   0  -8   29.81    1.73
 -10   0   8   27.20    1.79
 -10   0   8   29.95    1.53
   8   0  -8   56.22    2.54
  -8   0   8   56.82    2.29
  -8   0   8   55.94    2.62
   8   0  -8   53.27    2.25
  -6   0   8   21.21    1.42
   6   0  -8   21.55    1.39
  -6   0   8   21.08    1.28
   6   0  -8   19.60    1.08
   4   0  -8   98.20    3.62
  -4   0   8  104.14    4.03
   4   0  -8  105.41    4.08
  -4   0   8  101.07    3.55
   4   0  -8   99.42    3.54
  -4   0   8  103.54    3.63
  -2   0   8   34.82    1.37
   2   0  -8   35.93    1.81
  -2   0   8   34.07    1.36
   2   0  -8   35.22    1.49
   0   0  -8   19.50    0.81
   0   0   8   18.69    1.28
   0   0  -8   19.64    1.27
   0   0  -8   19.08    0.82
   0   0   8   19.75    0.90
  -2   0  -8   60.20    2.59
   2   0   8   61.63    2.31
   2   0   8   60.61    2.60
   4   0   8   39.53    1.69
  -4   0  -8   38.09    1.84
   4   0   8   37.99    1.86
   6   0   8    8.70    0.92
   6   0   8    9.29    0.82
   8   0   8   30.94    1.60
   8   0   8   29.12    1.57
  -8   0  -8   28.19    1.17
  -8   0  -8   29.24    1.18
  10   0   8    6.84    0.95
 -10   0  -8    6.91    0.64
  10   0   8    7.45    0.96
 -12   0  -8    7.30    0.78
  12   0   8    9.76    1.07
 -14   0  -8    6.17    0.96
  14   0   8    9.36    1.15
 -16   0  -8   -0.23    0.76
  16   0   8    1.60    0.45
  16   0   8    2.74    0.87
  25  -1  -8    4.14    1.44
  25  -1  -8    1.08    1.20
  25   1  -8    1.15    1.23
  25   1  -8    2.27    1.14
  25   1  -8    2.06    1.46
  23  -1  -8    0.31    0.97
  23  -1  -8    1.63    0.96
  23  -1  -8    1.24    1.01
  23   1  -8    0.68    1.07
  23   1  -8    2.28    1.16
  21  -1  -8    5.19    1.14
 -21  -1   8    2.81    1.09
  21  -1  -8    5.81    0.95
  21  -1  -8    6.56    1.27
  21   1  -8    6.64    1.33
 -21   1   8    6.63    1.11
  21   1  -8    6.72    1.29
  19  -1  -8    8.69    1.03
  19  -1  -8    8.49    1.24
 -19  -1   8    7.91    1.28
  19  -1  -8    8.85    1.26
 -19   1   8    8.88    1.81
  19   1  -8    9.72    1.30
 -19   1   8    8.83    1.16
  19   1  -8    8.31    1.36
  17  -1  -8   11.42    1.28
 -17  -1   8   11.17    1.32
  17  -1  -8   10.78    0.94
  17  -1  -8    9.27    1.26
  17   1  -8   10.75    1.57
 -17   1   8    8.73    1.43
  17   1  -8   11.01    1.12
  17   1  -8   11.58    1.33
 -17   1   8   12.31    1.20
  15  -1  -8   12.51    1.31
 -15  -1   8   15.25    1.30
  15  -1  -8   14.56    1.27
  15   1  -8   12.94    1.37
 -15   1   8   15.75    1.59
 -15   1   8   11.38    1.41
  15   1  -8   12.43    1.32
  15   1  -8   14.32    1.09
 -13  -1   8   14.91    1.57
  13  -1  -8   16.92    1.34
  13  -1  -8   14.59    1.14
 -13  -1   8   14.59    1.23
  13   1  -8   14.30    0.99
  13   1  -8   15.67    1.38
 -13   1   8   14.74    1.10
  13   1  -8   14.13    1.24
 -13   1   8   15.30    1.38
  11  -1  -8   20.89    1.26
 -11  -1   8   20.37    1.35
  11  -1  -8   22.65    1.51
 -11  -1   8   21.33    1.69
 -11   1   8   20.66    1.48
  11   1  -8   21.23    1.35
  11   1  -8   21.11    1.51
 -11   1   8   21.98    1.22
  11   1  -8   19.80    1.09
   9  -1  -8   69.30    2.78
   9  -1  -8   72.02    3.09
  -9  -1   8   70.79    3.36
  -9  -1   8   74.45    2.97
   9   1  -8   70.02    2.89
  -9   1   8   73.96    2.84
  -9   1   8   72.66    3.10
   9   1  -8   73.74    3.15
   9   1  -8   74.48    2.67
  -7  -1   8   20.13    1.54
  -7  -1   8   20.64    1.17
   7  -1  -8   20.82    1.35
   7  -1  -8   18.37    1.03
  -7   1   8   17.86    1.29
   7   1  -8   18.77    1.14
   7   1  -8   18.89    1.37
  -7   1   8   19.43    1.05
   7   1  -8   19.22    0.98
   5  -1  -8   34.31    1.79
   5  -1  -8   30.41    1.46
  -5  -1   8   33.60    1.98
  -5  -1   8   34.90    1.56
  -5  -1   8   31.46    1.49
  -5   1   8   33.50    1.43
  -5   1   8   36.57    1.79
   5   1  -8   36.07    1.95
   5   1  -8   33.11    1.54
   5   1  -8   34.40    1.45
  -3  -1   8   45.13    1.82
  -3  -1   8   46.63    1.84
   3  -1  -8   40.41    1.66
   3  -1  -8   46.47    2.17
  -3  -1   8   48.85    2.36
  -3   1   8   44.79    1.77
   3   1  -8   47.09    2.22
   3   1  -8   46.46    1.90
  -3   1   8   45.93    2.12
   3   1  -8   46.94    1.90
   1  -1  -8   41.65    1.99
  -1  -1   8   40.24    1.63
   1   1  -8   41.65    1.71
  -1   1   8   40.66    1.97
  -1   1   8   41.68    1.55
   1   1  -8   41.40    2.02
   1   1  -8   41.13    1.80
   1  -1   8   38.88    1.56
   1  -1   8   35.66    1.99
  -1  -1  -8   39.55    1.88
  -1   1  -8   37.25    1.47
   1   1   8   37.58    1.52
  -1   1  -8   37.20    1.74
  -1   1  -8   36.06    1.86
   3  -1   8   28.87    1.72
   3  -1   8   30.26    1.37
  -3   1  -8   30.41    1.60
  -3   1  -8   30.14    2.03
  -3   1  -8   29.44    1.21
   3   1   8   29.65    1.56
  -3   1  -8   29.14    1.28
   3   1   8   29.18    1.36
   5  -1   8   15.42    1.01
   5  -1   8   15.51    1.25
   5   1   8   15.56    1.07
  -5   1  -8   13.28    1.07
   5   1   8   15.33    0.99
  -5   1  -8   15.65    0.87
  -5   1  -8   16.16    0.80
   7  -1   8   18.23    1.34
   7  -1   8   21.22    1.21
   7   1   8   20.19    1.22
   7   1   8   17.69    1.20
  -7   1  -8   18.53    0.96
  -7   1  -8   19.33    1.20
   9  -1   8   21.47    1.38
   9   1   8   21.15    1.24
  -9   1  -8   20.26    1.08
   9   1   8   21.04    1.37
  11  -1   8    4.36    0.88
 -11   1  -8    4.15    0.63
  11   1   8    4.51    0.86
  11   1   8    4.63    0.83
  13  -1   8    6.86    1.09
  13  -1   8    6.66    0.68
 -13  -1  -8    5.53    0.82
  13   1   8    8.21    1.13
  13   1   8    7.21    0.95
 -13   1  -8    6.42    0.84
  15  -1   8    5.18    0.95
  15  -1   8    5.15    0.64
 -15  -1  -8    4.18    0.80
  15   1   8    6.71    1.18
 -15   1  -8    5.30    0.87
  15   1   8    3.95    0.59
  17  -1   8    2.46    0.58
  17  -1   8    2.65    1.08
 -17  -1  -8    4.87    1.00
  17   1   8    2.09    1.12
  17   1   8    1.91    0.43
  24  -2  -8    0.73    1.21
  24  -2  -8    2.89    0.96
  24   2  -8    0.61    1.28
  24   2  -8    0.43    1.15
  22  -2  -8    4.22    1.27
  22  -2  -8    3.61    0.84
 -22   2   8    0.83    1.03
  22   2  -8    3.49    1.24
  22   2  -8    4.52    1.21
  20  -2  -8    5.20    1.21
 -20  -2   8    9.98    1.52
  20  -2  -8    6.04    0.94
 -20   2   8    7.38    1.15
 -20   2   8    6.41    1.52
  20   2  -8    5.29    1.47
  20   2  -8    8.40    1.39
  20   2  -8    7.46    1.19
  18  -2  -8    3.07    1.03
  18  -2  -8    3.16    0.94
 -18  -2   8    0.53    0.88
  18   2  -8    1.40    0.96
  18   2  -8    4.57    1.18
  18   2  -8    1.09    0.77
 -18   2   8    1.62    0.82
 -18   2   8    1.46    1.11
  16  -2  -8    8.80    1.22
 -16  -2   8   11.08    1.26
  16  -2  -8    9.89    1.19
 -16   2   8    8.44    1.27
 -16   2   8   10.12    1.13
  16   2  -8   10.68    1.36
  16   2  -8   10.39    1.11
  16   2  -8    8.69    1.34
  14  -2  -8   31.14    1.74
  14  -2  -8   34.34    1.96
 -14  -2   8   35.16    1.97
 -14   2   8   29.75    1.86
 -14   2   8   33.88    1.74
  14   2  -8   32.16    1.68
  14   2  -8   32.62    2.09
  14   2  -8   33.53    1.94
  12  -2  -8   10.23    1.13
 -12  -2   8    7.93    1.07
  12  -2  -8    8.39    0.90
  12   2  -8   10.14    1.20
 -12   2   8    7.80    0.84
  12   2  -8    9.49    0.86
 -12   2   8    7.42    1.05
  12   2  -8    7.79    1.04
  10  -2  -8   19.62    1.19
  10  -2  -8   21.39    1.48
 -10  -2   8   21.75    1.41
  10   2  -8   22.46    1.17
  10   2  -8   22.09    1.58
 -10   2   8   20.15    1.40
  10   2  -8   21.89    1.44
 -10   2   8   20.72    1.20
  -8  -2   8   38.90    1.87
   8  -2  -8   35.36    1.96
   8  -2  -8   37.04    1.67
  -8   2   8   38.33    1.65
   8   2  -8   41.15    1.69
  -8   2   8   39.76    1.94
   8   2  -8   36.15    1.86
   8   2  -8   36.84    2.04
  -6  -2   8   13.42    1.01
   6  -2  -8   14.06    0.86
   6  -2  -8   15.04    1.18
  -6  -2   8   13.87    0.99
  -6   2   8   13.61    0.80
   6   2  -8   13.15    1.06
  -6   2   8   13.23    1.09
   6   2  -8   13.66    0.91
   6   2  -8   15.41    1.26
   4  -2  -8   71.71    3.01
  -4  -2   8   69.41    2.75
  -4  -2   8   68.32    2.79
  -4   2   8   70.86    2.92
  -4   2   8   69.66    2.54
   4   2  -8   69.86    3.06
   4   2  -8   70.72    2.81
   4   2  -8   74.92    2.79
  -2  -2   8   22.84    1.14
   2  -2  -8   22.89    0.90
  -2  -2   8   22.65    1.19
  -2   2   8   22.81    1.35
   2   2  -8   24.00    1.50
   2   2  -8   24.75    1.33
   2   2  -8   23.28    1.30
   0  -2   8   12.39    0.81
   0   2  -8   11.63    1.00
   0   2  -8   12.46    0.99
   0   2   8   13.38    0.70
   0   2   8   11.83    0.99
   0   2  -8   12.30    0.81
   0   2  -8   12.40    1.16
   2  -2   8   41.29    1.75
   2   2   8   41.30    1.92
  -2   2  -8   41.94    2.08
   2   2   8   41.84    1.71
  -2   2  -8   40.32    2.28
   4  -2   8   27.45    1.34
   4   2   8   25.99    1.33
  -4   2  -8   27.23    1.27
  -4   2  -8   27.07    1.61
  -4   2  -8   27.57    1.59
   4   2   8   27.67    1.46
   6  -2   8    7.65    0.82
   6   2   8    6.37    0.76
  -6   2  -8    6.81    0.69
  -6   2  -8    7.62    1.07
   6   2   8    5.42    0.79
  -6   2  -8    6.48    0.93
   8  -2   8   21.42    1.36
   8   2   8   21.72    1.34
  -8   2  -8   19.18    1.23
   8   2   8   17.19    1.40
  -8   2  -8   22.18    1.14
  -8   2  -8   21.20    1.38
  10  -2   8    6.70    0.98
 -10   2  -8    5.06    0.75
 -10   2  -8    6.74    0.92
  10   2   8    5.16    0.92
  12  -2   8    5.51    1.01
  12   2   8    6.98    1.08
  12   2   8    6.22    0.89
  14  -2   8    6.67    0.79
  14  -2   8    8.88    1.23
 -14  -2  -8    7.53    0.89
  14   2   8    7.54    0.92
 -14   2  -8    7.22    1.07
  14   2   8    7.72    1.22
  16  -2   8    1.63    1.00
  16  -2   8    0.81    0.52
  16   2   8    1.02    1.02
  23  -3  -8    0.09    0.77
  23  -3  -8    1.17    1.20
  23   3  -8    2.89    1.29
 -23   3   8    2.52    2.00
  23   3  -8    1.69    1.34
  23   3  -8    0.85    1.40
  21  -3  -8    3.74    0.72
  21  -3  -8    3.46    1.18
  21   3  -8    2.61    1.19
  21   3  -8    1.49    1.09
 -21   3   8    1.74    1.00
  21   3  -8    5.16    1.22
 -19  -3   8    7.29    1.30
  19  -3  -8    5.85    1.17
 -19   3   8    6.25    1.64
  19   3  -8    7.26    1.42
  19   3  -8    6.94    1.36
 -19   3   8    5.55    1.04
  17  -3  -8    8.76    1.23
 -17  -3   8    7.08    1.24
 -17   3   8    8.01    1.35
  17   3  -8    8.57    1.47
  17   3  -8    6.34    1.06
 -17   3   8    7.48    1.09
  17   3  -8    6.67    1.34
 -15  -3   8    8.88    1.36
  15  -3  -8   10.71    1.62
  15   3  -8    9.63    1.08
  15   3  -8   10.13    1.40
 -15   3   8    7.65    1.20
  15   3  -8    9.54    1.45
 -13  -3   8   11.48    1.33
  13  -3  -8    9.54    1.04
  13   3  -8   12.86    1.57
  13   3  -8    9.25    1.25
  13   3  -8    9.41    1.01
 -13   3   8   10.47    0.96
 -13   3   8    9.87    1.17
  11  -3  -8   12.20    1.03
 -11  -3   8   13.50    1.24
 -11   3   8   13.48    0.97
 -11   3   8   11.73    1.17
  11   3  -8   11.27    1.15
  11   3  -8   11.94    1.22
  11   3  -8   12.21    1.46
   9  -3  -8   42.22    1.90
  -9  -3   8   43.05    2.14
  -9   3   8   41.63    1.85
   9   3  -8   44.68    2.20
   9   3  -8   44.45    1.93
   9   3  -8   45.62    2.42
  -9   3   8   43.51    2.11
  -7  -3   8   13.90    1.10
   7  -3  -8   13.45    0.89
   7   3  -8   13.29    1.18
   7   3  -8   13.18    0.99
   7   3  -8   12.16    1.35
  -7   3   8   13.34    1.12
  -7   3   8   14.54    0.87
   5  -3  -8   22.07    1.18
  -5  -3   8   23.51    1.45
  -5  -3   8   24.24    1.36
   5   3  -8   25.37    1.48
  -5   3   8   23.60    1.42
   5   3  -8   24.90    1.34
  -5   3   8   24.03    1.09
   5   3  -8   22.74    1.68
  -3  -3   8   27.48    1.41
  -3  -3   8   28.20    1.54
   3  -3  -8   27.60    1.15
  -3   3   8   28.82    1.59
  -3   3   8   27.46    1.25
   3   3  -8   28.59    1.56
   3   3  -8   30.10    1.83
   3   3  -8   29.33    1.55
  -1  -3   8   27.27    1.41
   1   3  -8   28.56    1.53
  -1   3   8   28.73    1.53
   1   3  -8   26.74    1.30
   1   3  -8   26.65    1.73
  -1   3   8   26.39    1.13
   1  -3   8   24.33    1.31
   1   3   8   24.40    1.43
  -1   3  -8   24.21    1.27
   1   3   8   25.08    1.17
  -1   3  -8   25.28    1.42
  -1   3  -8   26.61    1.73
  -1   3  -8   26.21    1.58
   3  -3   8   19.35    1.14
  -3   3  -8   17.42    1.66
   3   3   8   18.23    1.06
  -3   3  -8   19.80    1.48
   3   3   8   18.92    1.24
  -3   3  -8   18.18    1.10
  -3   3  -8   20.02    1.45
   5  -3   8   12.43    0.96
  -5   3  -8   12.84    1.25
   5   3   8   12.02    0.95
  -5   3  -8   12.42    1.32
  -5   3  -8   14.15    0.98
   5   3   8   11.73    1.01
   7  -3   8   14.13    1.09
  -7   3  -8   13.43    1.21
  -7   3  -8   15.51    1.44
   7   3   8   14.07    1.10
  -7   3  -8   12.86    1.01
   7   3   8   11.56    1.05
  -7   3  -8   15.34    1.30
   9  -3   8   14.96    1.23
  -9   3  -8   14.43    1.08
  -9   3  -8   16.87    1.21
  -9   3  -8   12.40    1.12
   9   3   8   15.13    1.16
  11  -3   8    3.16    0.89
  11   3   8    5.03    1.02
 -11   3  -8    3.81    0.88
  11   3   8    4.29    0.85
  13  -3   8    5.13    0.90
  13   3   8    5.71    0.94
 -13   3  -8    5.57    0.96
  13   3   8    4.93    0.97
  15  -3   8    4.00    0.68
  15  -3   8    4.75    1.08
  15   3   8    3.05    0.97
  22  -4  -8    0.71    1.19
  22  -4  -8    1.48    1.11
  22   4  -8   -0.73    1.33
 -22   4   8    3.96    1.69
  22   4  -8    4.46    1.32
  20  -4  -8    4.67    1.20
 -20   4   8    1.76    1.32
  20   4  -8    2.84    1.12
 -20   4   8    2.34    0.93
  20   4  -8    5.07    1.42
  20   4  -8    2.27    1.25
 -18  -4   8    2.65    1.15
  18  -4  -8    2.76    1.16
 -18   4   8    1.61    0.81
  18   4  -8    0.83    1.07
  18   4  -8    3.24    1.38
  16  -4  -8    6.20    1.09
 -16  -4   8    7.56    1.26
 -16   4   8    5.67    1.52
  16   4  -8    5.98    1.32
 -16   4   8    4.20    0.91
  16   4  -8    4.72    0.98
  16   4  -8    7.19    1.50
  14  -4  -8   15.00    1.36
 -14  -4   8   16.44    1.63
 -14   4   8   14.39    1.31
 -14   4   8   16.26    1.24
  14   4  -8   13.63    1.67
  14   4  -8   16.37    1.86
  14   4  -8   17.23    1.32
 -12  -4   8    8.42    1.25
  12  -4  -8    5.96    0.90
  12   4  -8    4.94    0.90
  12   4  -8    7.40    1.45
 -12   4   8    5.35    0.83
  12   4  -8    6.67    1.17
 -12   4   8    5.36    1.08
 -10  -4   8   13.08    1.30
  10  -4  -8   12.26    1.10
  10   4  -8   14.58    1.73
 -10   4   8   12.00    1.17
  10   4  -8   13.22    1.07
  10   4  -8   13.96    1.45
 -10   4   8   12.98    0.98
  -8  -4   8   22.20    1.51
   8  -4  -8   21.30    1.20
   8   4  -8   22.42    1.33
   8   4  -8   20.47    2.04
  -8   4   8   21.55    1.16
  -8   4   8   20.48    1.42
   8   4  -8   20.05    1.59
  -6  -4   8    9.03    0.99
   6  -4  -8    8.88    0.78
  -6  -4   8    8.55    1.17
  -6   4   8   10.25    0.71
   6   4  -8   10.24    1.51
   6   4  -8    8.32    0.91
   6   4  -8    8.55    1.17
  -4  -4   8   33.44    1.75
  -4  -4   8   35.60    1.97
   4  -4  -8   37.10    1.55
   4   4  -8   35.80    1.95
   4   4  -8   38.61    1.85
  -4   4   8   35.55    1.47
   4   4  -8   38.77    2.29
  -2  -4   8   14.97    1.24
   2  -4  -8   14.42    0.83
  -2   4   8   15.56    0.80
   2   4  -8   14.90    1.22
   2   4  -8   18.48    1.66
   2   4  -8   15.47    1.30
  -2   4   8   15.49    1.22
   2   4  -8   15.75    1.03
   0  -4   8   10.10    0.97
   0   4   8   10.27    1.07
   0   4  -8   10.99    1.12
   0   4  -8   10.44    0.88
   0   4  -8   13.08    1.43
   0   4  -8    9.77    1.13
   2  -4   8   25.56    1.43
  -2   4  -8   24.26    1.36
  -2   4  -8   22.22    1.51
   2   4   8   22.52    1.47
  -2   4  -8   24.59    1.67
  -2   4  -8   25.25    1.81
  -4   4  -8   16.82    1.33
   4   4   8   16.59    1.12
  -4   4  -8   18.14    1.51
   4   4   8   19.69    1.42
  -4   4  -8   18.42    1.65
  -4   4  -8   18.25    1.19
   6  -4   8    7.20    1.01
  -6   4  -8    7.45    1.25
   6   4   8    5.52    0.90
  -6   4  -8    6.53    0.85
  -6   4  -8    7.74    1.01
   6   4   8    7.42    1.00
   8  -4   8   15.95    1.24
   8   4   8   13.93    1.23
  -8   4  -8   14.16    1.33
   8   4   8   12.15    1.19
  -8   4  -8   13.41    1.41
  -8   4  -8   13.73    1.48
  10  -4   8    4.71    0.96
  10   4   8    4.67    0.94
 -10   4  -8    5.66    1.44
 -10   4  -8    3.25    0.82
  10   4   8    3.95    0.89
 -10   4  -8    4.80    0.98
 -10   4  -8    5.19    1.00
  12  -4   8    6.56    1.15
  12   4   8    4.52    0.99
  12   4   8    5.45    1.19
 -12   4  -8    6.27    1.07
  14  -4   8    2.89    0.90
  14   4   8    5.08    1.08
  14   4   8    4.61    0.98
  21  -5  -8    2.90    1.17
  21   5  -8    6.56    1.57
 -21   5   8    1.46    1.50
  21   5  -8    3.04    1.52
 -21   5   8    4.81    1.76
  19  -5  -8    0.66    1.09
  19   5  -8    4.81    1.50
 -19   5   8    1.64    0.95
  19   5  -8    2.28    1.24
 -19   5   8    3.01    1.26
 -17  -5   8    2.78    1.24
 -17   5   8    0.55    0.82
  17   5  -8    2.12    0.91
  17   5  -8    2.16    1.33
 -17   5   8    4.19    1.12
  17   5  -8    4.59    1.49
  15  -5  -8    3.57    0.98
 -15  -5   8    5.03    1.22
  15   5  -8    3.20    1.24
  15   5  -8    6.51    2.08
 -15   5   8    3.66    0.88
 -13  -5   8    6.04    1.17
  13  -5  -8    3.73    0.88
  13   5  -8    6.97    1.35
  13   5  -8    8.75    1.73
 -13   5   8    5.70    0.86
  13   5  -8    3.17    0.80
 -11  -5   8    6.38    1.14
  11  -5  -8    6.83    0.96
  11   5  -8    4.52    1.25
 -11   5   8    4.61    0.75
  11   5  -8    6.06    0.93
  11   5  -8    6.57    1.68
  -9  -5   8   17.40    1.44
   9  -5  -8   16.50    1.18
   9   5  -8   18.04    1.59
  -9   5   8   15.28    1.73
   9   5  -8   16.88    2.00
   9   5  -8   15.96    1.22
  -9   5   8   14.73    1.06
   7  -5  -8    5.63    0.81
  -7  -5   8    6.90    1.05
  -7   5   8    5.59    0.71
   7   5  -8    6.91    1.65
   7   5  -8    6.53    1.20
   7   5  -8    4.90    0.86
   5  -5  -8   10.43    0.92
  -5  -5   8   10.17    1.33
  -5  -5   8   11.63    1.13
   5   5  -8   12.88    1.82
  -5   5   8   12.74    0.80
   5   5  -8    9.45    0.99
   5   5  -8   11.48    1.39
   3  -5  -8   10.69    0.97
  -3  -5   8   11.01    1.40
   3   5  -8   12.33    1.12
  -3   5   8   11.46    0.81
  -3   5   8   12.70    0.89
   3   5  -8   10.88    1.31
   3   5  -8   11.50    1.98
  -1  -5   8   11.72    1.32
   1   5  -8   11.97    0.98
  -1   5   8   14.68    0.86
  -1   5   8   13.44    1.23
   1   5  -8   10.21    1.19
  -1   5   8   12.06    0.91
   1   5  -8   11.12    1.74
   1   5  -8    8.74    1.24
   1  -5   8   12.41    1.28
  -1   5  -8   11.02    1.26
  -1   5  -8   12.41    1.72
  -1   5  -8   12.69    1.34
   1   5   8   13.07    1.21
  -1   5  -8   10.22    0.98
   3  -5   8   10.45    1.15
  -3   5  -8    8.54    1.25
   3   5   8   10.12    1.17
  -3   5  -8   10.26    1.69
   5  -5   8    7.74    1.10
   5   5   8    6.36    1.10
  -5   5  -8    9.28    1.56
  -5   5  -8    5.74    1.98
  -5   5  -8    5.70    1.03
   7  -5   8    8.11    1.20
   7   5   8    6.09    1.07
  -7   5  -8    8.96    1.56
  -7   5  -8    6.86    1.13
  -7   5  -8    7.14    1.45
  -7   5  -8    5.16    0.84
   9  -5   8    6.27    1.06
  -9   5  -8    4.47    1.02
  -9   5  -8    7.17    1.44
  -9   5  -8    7.03    1.22
   9   5   8    5.91    1.05
  11  -5   8    2.11    0.99
  11   5   8    2.47    0.93
  11   5   8    1.75    0.86
 -11   5  -8    3.47    1.11
 -11   5  -8    1.45    0.99
  13  -5   8    2.63    1.05
  13   5   8    2.56    0.98
  13   5   8    3.35    1.00
 -13   5  -8    4.88    1.35
  20  -6  -8    2.27    1.36
  20   6  -8   -1.07    1.54
 -20   6   8    1.90    1.54
  20   6  -8    2.92    1.90
  18  -6  -8    0.88    1.11
  18   6  -8    1.93    1.45
  18   6  -8    1.89    1.75
 -18   6   8   -0.46    0.95
  16  -6  -8    0.95    1.92
 -16  -6   8    0.72    1.60
  16   6  -8    4.33    1.68
 -16   6   8    0.55    0.74
 -16   6   8    1.95    1.25
  16   6  -8    2.31    1.36
  14  -6  -8    3.42    1.03
  14   6  -8    2.95    0.82
  14   6  -8    5.15    1.79
  14   6  -8    4.86    1.37
 -14   6   8    3.96    0.87
 -12  -6   8    2.50    1.05
  12  -6  -8    3.41    0.88
 -12   6   8    1.28    0.90
 -12   6   8    1.55    0.73
  12   6  -8    1.03    1.49
  12   6  -8    1.25    1.20
  12   6  -8    1.63    0.70
  10  -6  -8    4.99    0.86
 -10  -6   8    5.74    1.16
 -10   6   8    4.64    0.79
 -10   6   8    5.64    1.08
  10   6  -8    5.81    1.41
  10   6  -8    8.19    1.91
  -8  -6   8    8.84    1.30
   8  -6  -8    6.36    0.93
  -8   6   8    8.49    1.14
  -8   6   8    6.70    0.89
   8   6  -8    9.30    1.87
   8   6  -8    6.63    1.36
  -6  -6   8    3.50    0.90
  -6  -6   8    4.10    1.34
   6  -6  -8    3.03    0.76
  -6   6   8    2.52    0.58
   6   6  -8    5.98    1.81
   6   6  -8    2.43    1.07
  -4  -6   8   12.09    1.60
   4  -6  -8   10.29    1.06
   4   6  -8   10.93    1.45
  -4   6   8   12.07    0.85
  -4   6   8   11.57    1.19
   4   6  -8   11.48    1.95
  -2  -6   8    7.31    1.31
  -2   6   8    4.54    0.64
   2   6  -8    6.73    1.78
  -2   6   8    5.57    0.68
  -2   6   8    6.91    0.88
   2   6  -8    7.20    1.24
   0  -6   8    6.32    1.16
   0   6   8    5.53    0.84
   0   6  -8    7.33    2.22
   0   6   8    5.02    0.66
   0   6  -8    5.45    1.19
   0   6   8    5.96    1.09
   0   6   8    4.76    0.69
   2  -6   8   10.05    1.40
   2   6   8    7.21    0.74
   2   6   8    8.27    1.19
  -2   6  -8    7.39    1.28
  -2   6  -8    8.04    2.24
   2   6   8    6.49    0.62
   2   6   8    8.75    1.20
  -2   6  -8   10.15    1.01
  -2   6  -8    7.86    1.28
   4  -6   8    5.35    1.15
   4   6   8    7.45    1.16
  -4   6  -8    6.31    1.75
  -4   6  -8    5.01    1.11
  -4   6  -8    6.36    1.17
  -4   6  -8    6.56    1.01
   6  -6   8    1.84    0.82
  -6   6  -8    4.91    1.12
   6   6   8    2.89    0.93
  -6   6  -8    2.96    1.49
   8  -6   8    4.74    1.12
   8   6   8    6.64    1.15
  -8   6  -8    4.98    1.63
  -8   6  -8    6.25    1.28
  10  -6   8    2.10    1.04
  10   6   8    3.41    1.07
 -10   6  -8    2.85    1.46
 -10   6  -8    2.36    1.21
  12  -6   8    0.66    1.26
 -12   6  -8    1.07    1.45
  12   6   8    2.13    1.18
  17  -7  -8    3.66    1.35
  17   7  -8    1.26    1.56
  17   7  -8    4.63    2.16
 -17   7   8   -1.52    1.51
  15  -7  -8    1.61    1.19
 -15   7   8    1.04    0.91
  15   7  -8    1.22    1.90
  15   7  -8    1.25    1.39
 -13  -7   8    0.76    1.34
  13  -7  -8    2.47    1.04
  13   7  -8   -0.31    1.42
 -13   7   8    0.64    0.89
  13   7  -8    1.84    1.87
  11  -7  -8    1.87    0.96
 -11  -7   8    0.63    1.08
  11   7  -8    1.15    1.35
 -11   7   8    4.31    0.96
  11   7  -8    3.79    1.94
  -9  -7   8    2.79    1.05
   9  -7  -8    3.78    0.95
   9   7  -8    3.52    0.95
   9   7  -8    3.53    1.89
   9   7  -8    4.39    1.38
  -9   7   8    4.62    0.80
  -7  -7   8    2.20    1.06
   7  -7  -8    3.37    0.90
   7   7  -8    4.63    0.98
  -7   7   8    1.86    0.65
   7   7  -8    2.71    1.26
   7   7  -8    2.80    1.86
   5  -7  -8    3.24    0.86
  -5  -7   8    3.70    1.47
   5   7  -8    3.95    0.91
   5   7  -8    4.50    1.60
   5   7  -8    5.75    2.08
  -5   7   8    3.70    0.67
  -3  -7   8    4.50    1.32
   3   7  -8    2.94    0.88
  -3   7   8    3.64    0.57
  -3   7   8    4.32    0.85
   3   7  -8    1.58    1.18
  -3   7   8    3.00    0.62
   3   7  -8    4.43    1.79
  -1  -7   8    4.48    1.28
   1   7  -8    4.61    1.29
  -1   7   8    3.60    0.70
   1   7  -8    2.36    0.88
  -1   7   8    4.43    0.62
  -1   7   8    5.52    0.86
   1   7  -8    6.23    1.97
   1  -7   8    3.82    1.18
  -1   7  -8    6.16    1.35
   1   7   8    4.04    0.84
  -1   7  -8    7.76    1.99
   1   7   8    3.73    0.78
   1   7   8    4.01    0.61
   3  -7   8    1.43    0.99
  -3   7  -8    6.14    1.87
   3   7   8    3.14    0.70
  -3   7  -8    3.67    1.25
   3   7   8    2.48    0.88
   5  -7   8    2.61    1.10
  -5   7  -8    4.07    1.87
  -5   7  -8    2.95    1.34
   5   7   8    3.69    1.04
   7  -7   8    1.82    1.33
  -7   7  -8    4.84    1.44
  -7   7  -8    3.28    1.90
  -9   7  -8    5.10    3.19
  14  -8  -8    1.65    1.34
  14   8  -8    1.10    1.74
  14   8  -8    4.98    2.65
  12  -8  -8    1.79    1.20
  12   8  -8    0.14    1.52
  12   8  -8    6.84    2.47
  10  -8  -8    2.17    1.09
 -10   8   8    0.30    0.90
  10   8  -8    0.32    1.43
  10   8  -8    3.06    2.53
   8  -8  -8    1.56    1.05
   8   8  -8    0.94    1.33
  -8   8   8    3.38    0.89
   8   8  -8    3.22    2.30
  -6   8   8    0.31    0.72
  -6   8   8    0.58    0.49
   6   8  -8    2.74    2.11
  -6   8   8    2.50    0.98
   6   8  -8   -0.58    1.35
  -4  -8   8    0.99    1.47
   4   8  -8    4.27    2.16
  -4   8   8    3.42    0.77
  -4   8   8    3.77    1.00
   4   8  -8    3.88    1.41
  -2  -8   8    2.69    1.34
   2   8  -8    1.85    1.40
  -2   8   8    3.38    0.95
  -2   8   8    1.93    0.66
  -2   8   8    1.46    0.68
   2   8  -8    4.62    3.00
   0  -8   8    2.19    1.37
   0   8   8    1.11    0.88
   0   8   8    0.42    0.74
   0   8  -8    4.52    2.13
   0   8   8    2.21    0.68
   0   8  -8    0.59    1.32
   2  -8   8    1.76    1.43
   2   8   8    1.67    0.77
  -2   8  -8    3.72    1.97
  -2   8  -8    3.94    1.42
   2   8   8    1.96    0.82
   4  -8   8    1.40    1.31
   4   8   8   -0.46    1.02
  -4   8  -8    2.23    1.53
  -4   8  -8    1.73    2.19
   4   8   8    1.75    0.76
   6  -8   8    2.27    1.45
  -6   8  -8    3.37    2.15
  -6   8  -8   -0.14    1.53
   6   8   8    1.98    1.20
  -8   8  -8    4.96    2.28
   8   8   8    1.29    0.62
  -8   8  -8    2.43    1.73
   9   9  -8    3.54    3.73
   9   9  -8   -1.43    1.67
  -9   9   8    0.19    1.28
  -7   9   8   -0.91    1.14
   7   9  -8    0.15    1.53
   7   9  -8   -0.12    2.88
   5   9  -8    6.83    2.84
   5   9  -8    0.77    1.57
  -5   9   8    1.16    1.14
  -3  -9   8   -0.08    1.84
   3   9  -8    3.42    2.82
   3   9  -8    3.63    1.53
  -3   9   8    1.94    1.09
  -1  -9   8   -2.24    1.74
   1   9  -8    0.56    1.44
   1   9  -8    1.67    2.45
  -1   9   8    2.88    1.14
   1  -9   8    2.72    1.98
   1   9   8   -1.55    1.02
  -1   9  -8    2.01    1.65
  -1   9  -8   -1.37    2.35
  -3   9  -8    2.73    1.81
  -3   9  -8    4.71    2.54
   3   9   8    1.65    0.93
  24   0  -9    0.25    1.21
  24   0  -9    0.08    1.10
  22   0  -9    1.04    1.10
  22   0  -9   -0.33    0.99
  22   0  -9   -0.18    1.09
 -22   0   9    0.15    1.12
 -20   0   9    3.27    1.10
  20   0  -9    4.88    1.21
  20   0  -9    4.26    0.88
  20   0  -9    4.97    1.18
 -18   0   9    0.81    0.86
  18   0  -9    3.76    1.22
  18   0  -9    4.20    1.02
  18   0  -9    1.43    0.70
  16   0  -9    5.88    1.22
 -16   0   9    4.99    1.33
  16   0  -9    4.27    0.98
 -16   0   9    5.72    0.97
  16   0  -9    4.21    0.68
  14   0  -9    5.11    0.94
 -14   0   9    6.85    1.48
 -14   0   9    6.06    0.98
  14   0  -9    8.79    1.67
  12   0  -9    6.42    1.14
  12   0  -9    6.99    0.95
 -12   0   9    7.32    0.89
 -12   0   9    7.24    1.23
  10   0  -9   23.30    1.64
  10   0  -9   21.19    1.31
 -10   0   9   23.95    1.36
 -10   0   9   22.73    1.71
   8   0  -9   16.57    1.05
   8   0  -9   17.09    1.38
  -8   0   9   15.56    1.40
  -8   0   9   16.72    1.10
   6   0  -9    5.00    1.00
   6   0  -9    4.34    0.66
  -6   0   9    4.87    0.95
  -6   0   9    6.61    0.65
   4   0  -9   35.95    1.48
  -4   0   9   37.42    1.97
  -4   0   9   35.68    1.52
   4   0  -9   36.67    1.98
   4   0  -9   34.73    1.52
  -4   0   9   35.56    1.46
   2   0  -9   24.22    1.55
   2   0  -9   23.23    1.04
  -2   0   9   23.05    1.52
  -2   0   9   24.59    1.05
   0   0  -9   11.02    0.58
   0   0  -9   11.69    1.12
   0   0  -9   10.81    0.58
   0   0   9   12.36    0.69
   0   0   9   11.44    1.08
   2   0   9   36.88    1.92
   2   0   9   37.97    1.56
  -2   0  -9   35.34    1.91
  -4   0  -9    9.81    1.11
   4   0   9    9.46    1.03
   4   0   9   10.12    1.07
   6   0   9   11.66    1.41
   6   0   9   16.16    1.07
   8   0   9   18.46    1.39
  10   0   9    6.83    1.08
  10   0   9    7.02    0.99
 -12   0  -9    6.54    0.72
  12   0   9    5.53    0.90
 -12   0  -9    5.83    0.70
  14   0   9    6.05    1.06
 -14   0  -9    5.62    0.76
  16   0   9    1.94    0.92
  23  -1  -9    2.33    1.06
  23  -1  -9    1.64    1.09
  23  -1  -9    1.29    0.94
  23   1  -9    0.94    1.22
  23   1  -9    1.88    1.04
  23   1  -9    1.22    1.15
  21  -1  -9    4.18    1.07
  21  -1  -9    3.43    0.80
 -21  -1   9    3.52    1.12
  21  -1  -9    1.87    1.10
  21   1  -9    4.19    1.01
  21   1  -9    1.10    1.13
  21   1  -9    3.10    1.25
 -21   1   9    2.95    1.02
 -21   1   9    3.69    1.73
 -19  -1   9    1.38    0.97
  19  -1  -9    1.51    0.63
  19  -1  -9    0.23    0.63
  19  -1  -9   -0.17    0.88
  19  -1  -9    1.31    0.97
  19   1  -9    1.12    0.81
 -19   1   9    0.84    0.84
  19   1  -9    1.23    1.01
  19   1  -9   -0.12    0.96
  17  -1  -9    2.26    0.85
  17  -1  -9    0.91    0.92
 -17  -1   9    1.77    0.89
 -17   1   9    1.70    0.80
  17   1  -9    0.80    0.96
  17   1  -9    0.71    0.96
  17   1  -9    0.19    0.71
  15  -1  -9   14.79    1.32
  15  -1  -9   15.28    1.47
 -15  -1   9   16.14    1.41
 -15   1   9   13.80    1.30
  15   1  -9   15.26    1.42
  15   1  -9   14.73    1.50
  15   1  -9   14.22    1.06
 -15   1   9   16.17    1.55
  13  -1  -9    7.31    0.96
 -13  -1   9    6.93    1.01
 -13  -1   9    7.83    1.71
 -13   1   9    6.57    0.89
  13   1  -9    8.45    1.08
  13   1  -9    6.25    0.74
  13   1  -9    7.25    1.23
 -13   1   9    7.81    1.31
  11  -1  -9    4.16    1.02
 -11  -1   9    3.30    0.75
 -11  -1   9    4.31    1.19
  11  -1  -9    4.76    0.76
  11   1  -9    3.22    0.76
 -11   1   9    3.28    0.97
  11   1  -9    3.32    0.59
 -11   1   9    4.15    0.70
  11   1  -9    3.86    1.10
  -9  -1   9   21.08    1.27
   9  -1  -9   17.93    1.12
   9  -1  -9   18.49    1.48
  -9   1   9   19.70    1.45
   9   1  -9   18.96    1.24
   9   1  -9   18.64    0.98
   9   1  -9   17.37    1.47
  -9   1   9   20.86    1.16
   7  -1  -9   16.71    1.38
  -7  -1   9   19.45    1.15
  -7  -1   9   15.71    1.50
   7  -1  -9   16.08    1.01
   7   1  -9   18.15    0.96
   7   1  -9   16.12    1.12
  -7   1   9   18.29    1.00
   7   1  -9   17.39    1.40
  -7   1   9   18.27    1.32
   5  -1  -9   11.73    0.79
  -5  -1   9   12.51    0.87
  -5  -1   9   13.06    0.88
   5  -1  -9   12.03    1.18
  -5  -1   9   11.22    1.32
   5   1  -9   12.71    0.83
   5   1  -9   12.50    0.94
  -5   1   9   10.39    0.76
  -5   1   9   11.13    1.10
   5   1  -9   13.06    1.24
   3  -1  -9   35.95    1.89
  -3  -1   9   33.75    1.46
  -3  -1   9   34.35    2.01
   3  -1  -9   31.40    1.30
  -3  -1   9   32.61    1.43
  -3   1   9   33.05    1.80
   3   1  -9   34.69    1.56
  -3   1   9   33.20    1.33
   3   1  -9   33.90    1.94
   1  -1  -9    7.70    0.97
  -1  -1   9    7.62    1.10
  -1  -1   9    6.89    0.60
   1   1  -9    7.43    0.59
  -1   1   9    6.68    0.49
   1   1  -9    6.72    0.76
   1   1  -9    6.79    0.99
  -1   1   9    6.25    0.90
  -1  -1  -9   25.12    1.53
   1  -1   9   22.12    1.09
   1  -1   9   21.87    1.59
  -1   1  -9   21.54    1.08
  -1   1  -9   23.59    1.52
  -1   1  -9   21.60    1.03
  -1   1  -9   23.31    1.37
   1   1   9   22.49    1.06
   1   1   9   23.46    1.44
   3  -1   9   29.86    1.83
   3  -1   9   29.77    1.39
   3   1   9   28.53    1.60
  -3   1  -9   30.20    1.22
   3   1   9   27.99    1.36
  -3   1  -9   29.13    1.27
  -3   1  -9   27.79    1.63
  -3   1  -9   29.26    1.70
   5  -1   9    6.63    1.45
   5  -1   9    6.37    0.75
  -5   1  -9    7.01    0.57
   5   1   9    6.53    0.76
  -5   1  -9    6.10    0.63
   5   1   9    6.24    0.91
  -5   1  -9    5.69    0.94
   7  -1   9   14.36    1.37
   7  -1   9   16.06    1.34
  -7   1  -9   14.78    0.85
   7   1   9   15.48    1.12
   7   1   9   13.85    1.14
  -7   1  -9   14.47    1.19
  -7   1  -9   16.48    0.92
   9  -1   9   12.71    1.14
   9   1   9   10.87    1.10
   9   1   9   10.59    1.23
  -9   1  -9   11.87    0.81
  -9   1  -9   12.23    0.88
  11  -1   9    4.10    0.80
  11   1   9    4.50    0.96
 -11   1  -9    3.85    0.66
  11   1   9    3.63    0.91
 -11   1  -9    2.71    0.61
  13  -1   9    6.37    1.13
 -13   1  -9    8.50    1.20
  13   1   9    8.89    1.17
  13   1   9    8.36    1.15
  15  -1   9    2.83    1.00
  15   1   9    4.63    1.18
 -15   1  -9    4.66    0.92
  24  -2  -9   -0.91    1.32
  24   2  -9   -0.72    1.35
  24   2  -9    2.91    1.29
  22  -2  -9    1.66    0.73
  22  -2  -9    0.97    1.15
 -22   2   9    1.28    1.82
  22   2  -9   -0.12    1.11
  22   2  -9   -0.05    1.14
 -22   2   9   -0.22    1.02
  22   2  -9    1.50    1.16
 -20  -2   9    5.49    1.19
  20  -2  -9    5.13    1.22
 -20   2   9    6.07    1.15
  20   2  -9    4.17    1.04
  20   2  -9    3.58    1.76
  20   2  -9    4.27    1.24
 -20   2   9    6.40    1.62
  18  -2  -9    5.86    1.23
  18  -2  -9    3.05    0.97
 -18  -2   9    2.32    1.01
  18   2  -9    4.74    1.27
  18   2  -9    4.14    1.18
  18   2  -9    3.15    0.90
 -18   2   9    3.82    0.97
  16  -2  -9    4.45    1.13
 -16  -2   9    3.63    0.99
  16  -2  -9    4.48    0.92
  16   2  -9    3.58    1.07
  16   2  -9    4.34    1.24
  16   2  -9    4.24    0.84
 -16   2   9    2.82    0.85
 -14  -2   9    4.71    1.03
  14  -2  -9    6.25    1.31
  14  -2  -9    3.71    0.82
  14   2  -9    4.49    0.79
 -14   2   9    5.38    1.19
 -14   2   9    5.67    0.87
  14   2  -9    4.86    1.00
  14   2  -9    6.70    1.34
 -12  -2   9    7.15    1.11
  12  -2  -9    6.47    0.90
  12  -2  -9    5.41    1.85
 -12   2   9    6.90    0.86
  12   2  -9    5.69    0.77
  12   2  -9    8.09    1.39
  12   2  -9    7.70    1.09
 -12   2   9    6.24    1.03
 -10  -2   9   20.48    1.38
  10  -2  -9   19.97    1.56
  10  -2  -9   17.36    1.17
  10   2  -9   18.31    1.38
 -10   2   9   19.37    1.14
  10   2  -9   17.08    1.73
  10   2  -9   18.75    1.09
 -10   2   9   18.05    1.42
   8  -2  -9   15.39    0.99
   8  -2  -9   14.58    1.34
  -8  -2   9   13.61    1.10
   8   2  -9   14.08    0.96
   8   2  -9   14.37    1.17
  -8   2   9   15.07    0.94
   8   2  -9   13.80    1.36
   6  -2  -9    5.30    1.18
  -6  -2   9    4.59    0.72
  -6  -2   9    4.51    0.74
   6   2  -9    5.77    1.15
   6   2  -9    4.11    0.67
  -6   2   9    4.68    0.57
  -6   2   9    5.96    1.58
   6   2  -9    4.79    0.79
  -4  -2   9   29.01    1.39
  -4  -2   9   28.70    1.46
   4  -2  -9   27.18    1.17
   4  -2  -9   27.82    1.73
   4   2  -9   28.63    1.47
   4   2  -9   28.64    1.51
   4   2  -9   28.13    1.81
  -2  -2   9   19.58    1.10
   2   2  -9   20.63    1.25
   2   2  -9   18.37    1.51
  -2   2   9   19.39    1.32
   2   2  -9   19.97    1.28
   0  -2   9    9.99    0.77
   0   2  -9    8.94    1.17
   0   2   9    9.02    0.98
   0   2   9    8.99    0.61
   0   2  -9    9.72    1.02
   0   2  -9    9.35    0.73
   2  -2   9   27.13    1.35
  -2   2  -9   25.89    1.71
  -2   2  -9   27.75    1.30
   2   2   9   28.92    1.59
  -2   2  -9   28.94    1.65
   2   2   9   26.70    1.28
  -2   2  -9   26.41    1.55
   4  -2   9    8.18    0.84
  -4   2  -9    8.32    0.92
  -4   2  -9    7.90    1.13
   4   2   9    7.25    0.93
   4   2   9    7.15    0.75
  -4   2  -9    7.16    0.71
  -4   2  -9    9.62    1.16
   6  -2   9    9.59    1.52
  -6   2  -9   11.34    0.85
  -6   2  -9   15.20    1.40
  -6   2  -9   11.56    1.03
   6   2   9   10.93    0.97
  -6   2  -9   11.28    1.16
   6   2   9   11.89    1.03
   8  -2   9   13.48    1.12
   8   2   9   13.80    1.22
   8   2   9   12.59    1.11
  -8   2  -9   12.70    1.14
  -8   2  -9   12.80    1.10
  -8   2  -9   13.81    0.96
  10  -2   9    6.10    0.97
 -10   2  -9    5.65    0.79
  10   2   9    5.67    0.98
 -10   2  -9    5.93    0.90
  10   2   9    5.60    0.99
  12  -2   9    4.01    0.85
  12   2   9    5.05    0.96
  12   2   9    5.57    1.03
  14  -2   9    3.74    0.98
 -14   2  -9    3.73    0.95
  14   2   9    5.67    1.09
  23  -3  -9    0.71    1.31
  23   3  -9   -2.83    1.25
  23   3  -9   -1.03    1.25
  23   3  -9    2.31    1.38
  21  -3  -9    1.34    1.20
  21   3  -9    3.43    1.20
  21   3  -9    1.24    1.31
 -21   3   9    1.77    1.53
 -21   3   9    2.31    1.03
  19  -3  -9    2.66    1.09
 -19  -3   9    1.21    1.17
 -19   3   9    0.41    1.19
 -19   3   9    0.18    0.89
  19   3  -9    1.40    1.17
  19   3  -9    0.86    0.83
  19   3  -9    3.47    1.22
  17  -3  -9    1.68    0.90
 -17  -3   9    1.70    1.00
  17   3  -9    2.47    1.09
  17   3  -9    0.86    0.74
  17   3  -9    1.55    1.13
 -17   3   9    2.62    0.85
  15  -3  -9   10.78    1.25
 -15  -3   9   10.34    1.40
 -15   3   9   10.85    1.22
  15   3  -9   11.86    1.14
  15   3  -9    9.62    1.52
  15   3  -9   11.64    1.57
 -13  -3   9    8.03    1.20
  13  -3  -9    6.47    0.97
 -13   3   9    6.92    0.95
 -13   3   9    7.27    1.35
  13   3  -9    9.24    1.31
  13   3  -9    6.05    0.92
  13   3  -9    8.88    1.90
 -11  -3   9    5.20    1.02
  11  -3  -9    3.74    0.75
  11   3  -9    2.94    1.24
 -11   3   9    3.99    0.70
  11   3  -9    4.99    0.92
  11   3  -9    5.42    1.02
 -11   3   9    3.79    0.98
   9  -3  -9   14.20    1.06
  -9  -3   9   16.13    1.28
   9   3  -9   14.21    1.62
   9   3  -9   14.92    1.09
   9   3  -9   14.59    1.35
  -9   3   9   15.15    1.00
  -7  -3   9   16.42    1.18
   7  -3  -9   13.13    0.96
   7   3  -9   13.41    1.06
   7   3  -9   14.88    1.32
  -7   3   9   15.22    0.90
   7   3  -9   15.95    1.61
  -5  -3   9   10.83    0.91
  -5  -3   9    8.63    1.01
   5   3  -9   11.79    1.09
   5   3  -9    9.90    1.16
  -5   3   9   11.25    0.73
   5   3  -9   10.12    1.36
   3  -3  -9   25.36    1.07
  -3  -3   9   26.85    1.51
   3   3  -9   24.40    1.53
   3   3  -9   25.76    1.84
  -3   3   9   24.60    1.02
  -3   3   9   26.50    1.55
   3   3  -9   25.68    1.53
  -1  -3   9    8.40    0.83
   1   3  -9    7.87    1.24
   1   3  -9    7.59    0.99
   1   3  -9    6.74    1.00
   1   3  -9    7.41    0.73
  -1   3   9    7.73    0.94
   1  -3   9   20.60    1.20
  -1   3  -9   17.71    1.42
  -1   3  -9   16.73    1.64
   1   3   9   17.34    1.28
  -1   3  -9   18.51    1.09
   1   3   9   17.40    0.96
   3  -3   9   21.73    1.28
   3   3   9   19.55    1.33
  -3   3  -9   23.21    1.63
   3   3   9   20.51    1.16
  -3   3  -9   21.33    1.64
  -3   3  -9   21.36    1.41
  -3   3  -9   22.41    1.25
   5  -3   9    7.50    0.93
  -5   3  -9    5.41    0.77
  -5   3  -9    7.88    1.25
  -5   3  -9    8.49    1.31
   5   3   9    6.10    0.82
  -5   3  -9    7.12    0.98
   5   3   9    6.01    0.90
   7  -3   9   12.04    1.13
   7   3   9   10.96    1.07
  -7   3  -9   11.01    1.18
   7   3   9   10.89    1.07
  -7   3  -9   12.10    0.99
  -7   3  -9   10.74    1.27
   9  -3   9    9.61    1.09
  -9   3  -9   13.36    1.66
   9   3   9    6.29    1.07
  -9   3  -9    8.69    1.09
   9   3   9    9.05    1.03
  -9   3  -9    9.15    1.22
  11  -3   9    2.85    0.76
  11   3   9    3.31    0.87
  11   3   9    2.18    0.81
 -11   3  -9    3.20    0.81
  13  -3   9    6.30    1.19
  13   3   9    6.36    1.13
  13   3   9    4.85    1.11
  15  -3   9    4.54    1.20
  22  -4  -9    1.07    1.35
  22   4  -9    0.53    1.43
  22   4  -9    1.76    1.38
  20  -4  -9    3.37    1.25
 -20   4   9    3.66    1.50
 -20   4   9    1.29    1.00
  20   4  -9    3.63    1.35
  20   4  -9    2.57    1.24
 -18  -4   9    2.20    1.24
 -18   4   9    1.99    1.13
  18   4  -9    3.36    1.42
  18   4  -9    1.79    1.21
 -18   4   9    1.01    0.84
  16  -4  -9    0.52    0.89
 -16  -4   9    2.92    1.09
 -16   4   9    3.24    1.10
  16   4  -9    4.16    1.44
  16   4  -9    2.84    0.78
 -16   4   9    2.25    0.82
  16   4  -9    2.04    1.20
 -14  -4   9    3.17    1.11
  14  -4  -9    5.03    0.99
  14   4  -9    4.27    1.28
  14   4  -9    6.72    1.57
 -14   4   9    5.06    0.85
  14   4  -9    4.41    0.84
 -12  -4   9    5.31    1.11
  12  -4  -9    6.35    0.94
 -12   4   9    5.54    0.80
  12   4  -9    6.23    0.92
  12   4  -9    5.41    1.18
  12   4  -9    6.13    1.47
 -10  -4   9   11.61    1.34
  10  -4  -9   11.79    1.09
  10   4  -9   12.14    1.07
  10   4  -9   12.33    1.72
  10   4  -9   11.49    1.46
 -10   4   9   10.24    0.95
  -8  -4   9   11.46    1.20
   8  -4  -9    8.94    0.89
   8   4  -9   10.95    1.34
  -8   4   9    8.77    0.83
   8   4  -9   10.48    0.98
   8   4  -9    9.73    1.64
  -6  -4   9    6.19    1.06
  -6  -4   9    6.02    0.90
   6  -4  -9    5.47    0.71
  -6   4   9    4.55    0.62
   6   4  -9    7.46    1.51
   6   4  -9    8.14    1.18
   6   4  -9    6.28    0.88
  -4  -4   9   19.13    1.45
  -4  -4   9   19.72    1.28
   4   4  -9   16.75    1.28
  -4   4   9   18.80    0.99
   4   4  -9   20.95    1.52
  -2  -4   9   13.76    1.26
   2   4  -9   14.75    1.66
   2   4  -9   13.38    1.29
   2   4  -9   15.42    1.02
  -2   4   9   13.10    1.19
   2   4  -9   13.43    1.22
   0  -4   9    7.69    0.97
   0   4   9    6.39    0.97
   0   4  -9    9.85    1.49
   0   4   9    7.13    0.64
   0   4  -9    7.83    1.12
   0   4  -9    7.21    1.12
   0   4  -9    8.03    0.83
  -2   4  -9   19.43    1.77
  -2   4  -9   18.70    1.43
   2   4   9   17.02    1.28
   2   4   9   16.30    1.04
  -2   4  -9   17.82    1.15
  -2   4  -9   19.20    1.55
   4  -4   9    8.75    1.05
  -4   4  -9    6.74    1.03
  -4   4  -9   10.42    1.62
   4   4   9    7.04    0.91
  -4   4  -9    8.59    1.17
   4   4   9    7.97    0.98
   6  -4   9    8.77    1.11
  -6   4  -9    8.97    1.25
  -6   4  -9    6.76    1.18
   6   4   9    7.91    1.02
   6   4   9    8.80    0.99
  -6   4  -9    9.85    1.45
   8  -4   9   10.26    1.22
  -8   4  -9    7.50    1.32
   8   4   9    7.82    1.06
  -8   4  -9    7.37    0.98
  -8   4  -9    6.18    1.37
  -8   4  -9   10.88    1.30
   8   4   9    8.90    1.11
  10  -4   9    4.69    0.87
  10   4   9    3.69    0.95
  10   4   9    4.03    0.88
 -10   4  -9    2.25    0.93
 -10   4  -9    4.34    1.07
 -10   4  -9    4.10    1.07
  12  -4   9    4.01    1.00
  12   4   9    1.93    0.92
  12   4   9    3.96    0.92
  14  -4   9    4.49    1.79
  14   4   9    3.97    1.07
  21  -5  -9   -2.09    1.26
  21   5  -9    1.46    1.73
  21   5  -9    1.64    1.56
 -21   5   9    2.55    1.15
  19  -5  -9    1.39    1.22
 -19   5   9    1.95    0.97
  19   5  -9    2.31    1.62
  19   5  -9    2.28    1.30
  17  -5  -9    0.04    1.08
 -17  -5   9   -0.20    1.23
 -17   5   9    2.51    0.92
  17   5  -9    0.99    1.39
  17   5  -9   -0.63    0.83
 -17   5   9    1.29    1.69
  17   5  -9    1.71    1.27
  15  -5  -9    5.71    1.10
 -15  -5   9    4.34    1.28
  15   5  -9    4.49    1.51
  15   5  -9    5.75    1.39
 -15   5   9    4.33    1.18
 -15   5   9    2.76    0.92
 -13  -5   9    4.34    1.17
  13  -5  -9    3.25    0.89
  13   5  -9    1.85    1.19
  13   5  -9    5.47    1.59
  13   5  -9    4.16    0.89
 -13   5   9    4.63    1.09
 -13   5   9    2.58    0.76
 -11  -5   9    3.06    1.03
  11  -5  -9    3.35    0.80
 -11   5   9    2.27    0.98
 -11   5   9    3.22    0.71
  11   5  -9    2.94    1.24
  11   5  -9    1.49    1.44
  11   5  -9    3.50    0.81
  -9  -5   9    9.70    1.34
   9  -5  -9    7.50    0.99
   9   5  -9    7.58    0.97
   9   5  -9    8.73    1.38
  -9   5   9    7.75    0.88
  -9   5   9    8.03    1.13
   9   5  -9   11.46    2.03
  -7  -5   9    8.71    1.17
   7   5  -9   10.70    1.86
   7   5  -9   10.06    1.46
  -7   5   9    6.30    0.75
   7   5  -9    6.45    0.90
   5  -5  -9    6.77    0.93
  -5  -5   9    5.06    0.95
  -5  -5   9    6.19    1.99
   5   5  -9    8.75    1.80
  -5   5   9    5.35    0.65
   5   5  -9    6.81    1.17
   5   5  -9    6.96    1.06
  -3  -5   9   11.32    1.74
   3   5  -9   11.68    1.78
   3   5  -9   12.01    1.19
  -3   5   9   12.47    0.88
   3   5  -9   12.02    1.42
  -3   5   9   12.52    0.88
  -1  -5   9    7.14    1.26
  -1   5   9    6.34    1.18
   1   5  -9    4.74    1.03
   1   5  -9    5.84    1.56
   1   5  -9    4.13    0.93
  -1   5   9    5.26    0.80
   1  -5   9    9.09    1.19
  -1   5  -9    8.94    1.25
   1   5   9    6.61    0.76
   1   5   9    9.64    1.40
   3  -5   9    9.93    1.20
  -3   5  -9   10.28    1.55
   3   5   9    7.53    0.92
  -3   5  -9    6.42    0.93
  -3   5  -9   10.88    1.91
   3   5   9   10.07    1.21
  -3   5  -9   10.15    1.39
   5  -5   9    4.97    1.04
  -5   5  -9    3.33    1.05
  -5   5  -9    7.37    1.58
  -5   5  -9    2.05    0.81
   5   5   9    3.97    0.81
  -5   5  -9    4.73    1.22
   5   5   9    4.33    1.00
   7  -5   9    5.91    1.15
   7   5   9    7.15    1.17
  -7   5  -9    3.67    1.07
  -7   5  -9    7.31    1.56
  -7   5  -9    7.24    1.20
   7   5   9    5.54    1.00
   9  -5   9    5.93    1.09
  -9   5  -9    4.29    1.35
   9   5   9    6.87    1.07
  -9   5  -9    6.26    1.26
  11  -5   9    1.47    1.13
 -11   5  -9    0.79    1.13
  11   5   9    2.33    1.05
  11   5   9    0.58    0.92
  18  -6  -9   -1.18    1.22
  18   6  -9    6.12    1.94
 -18   6   9    1.48    1.04
  18   6  -9   -0.60    1.44
  16  -6  -9    1.14    1.29
  16   6  -9    4.86    1.73
  16   6  -9    2.05    1.36
 -16   6   9   -1.21    0.89
 -14  -6   9    3.35    1.24
  14  -6  -9    1.67    0.99
  14   6  -9    2.77    1.78
 -14   6   9    0.15    0.85
  14   6  -9    3.09    1.35
  14   6  -9    0.35    0.83
 -12  -6   9    4.05    1.20
  12  -6  -9    0.82    0.87
  12   6  -9    2.41    1.67
  12   6  -9    3.29    0.89
  12   6  -9    2.07    1.33
 -12   6   9    1.39    0.71
  10  -6  -9    4.91    0.92
 -10  -6   9    4.53    1.06
  10   6  -9    2.23    0.84
  10   6  -9    2.58    1.68
 -10   6   9    2.98    0.71
  10   6  -9    3.74    1.32
 -10   6   9    3.42    1.34
  -8  -6   9    4.21    1.03
   8  -6  -9    4.37    0.84
  -8   6   9    5.13    0.74
   8   6  -9    8.31    1.95
   8   6  -9    4.94    1.30
  -8   6   9    7.21    1.29
   6  -6  -9    2.99    1.36
  -6  -6   9    1.77    1.17
   6   6  -9    3.38    1.13
   6   6  -9    5.07    1.67
  -6   6   9    2.95    0.58
  -4  -6   9    9.50    1.59
   4   6  -9    7.72    1.78
   4   6  -9    5.77    1.26
  -4   6   9    5.68    0.71
  -2  -6   9    5.83    1.34
  -2   6   9    5.75    0.86
   2   6  -9    6.95    1.76
  -2   6   9    4.60    0.69
   2   6  -9    6.26    1.27
  -2   6   9    5.33    1.20
   2   6  -9    3.00    0.93
   2   6  -9    6.59    0.99
   0  -6   9    2.80    1.06
   0   6  -9    3.73    0.79
   0   6  -9    3.54    1.13
   0   6   9    4.13    0.78
   0   6   9    3.88    0.54
   0   6  -9    5.16    1.59
   0   6   9    3.63    1.09
   0   6  -9    2.89    0.94
   2  -6   9    8.19    1.44
  -2   6  -9    5.98    1.34
   2   6   9    7.34    1.33
  -2   6  -9    6.67    1.33
  -2   6  -9    7.70    1.83
  -2   6  -9    5.12    1.07
   2   6   9    7.35    1.26
   4  -6   9    3.18    0.94
  -4   6  -9    5.21    1.68
  -4   6  -9    3.50    1.22
   4   6   9    3.58    1.15
   6  -6   9    6.31    1.24
  -6   6  -9    4.24    1.35
   6   6   9    4.55    1.73
  -6   6  -9    4.10    1.76
   8  -6   9    1.65    1.18
  -8   6  -9    3.20    1.40
  -8   6  -9    3.76    1.73
  10  -6   9    0.17    1.29
  10   6   9    2.39    0.94
 -10   6  -9    3.21    1.61
  17  -7  -9    0.10    1.36
  17   7  -9    0.10    1.65
  17   7  -9    0.83    2.82
  15   7  -9    0.52    1.46
  15   7  -9    5.06    2.23
  13  -7  -9    0.02    1.05
  13   7  -9    1.61    2.03
  13   7  -9    1.04    1.40
 -13   7   9   -0.48    0.86
  11  -7  -9    0.49    0.99
 -11  -7   9    0.14    1.19
  11   7  -9    0.05    1.34
  11   7  -9    3.79    2.09
   9  -7  -9    1.50    0.94
  -9  -7   9    1.60    1.00
  -9   7   9    2.89    0.76
   9   7  -9    3.13    1.98
   9   7  -9    4.54    1.39
   7  -7  -9    2.07    0.96
   7   7  -9    4.13    1.73
  -7   7   9    2.22    0.69
   7   7  -9    4.12    1.39
  -5  -7   9    1.56    1.29
   5   7  -9    2.04    1.35
  -5   7   9    1.97    0.61
  -5   7   9    3.00    0.80
   5   7  -9    2.02    1.73
  -3  -7   9    2.31    1.16
  -3   7   9    4.50    0.88
   3   7  -9    7.02    1.84
  -3   7   9    4.22    0.63
   3   7  -9    5.15    1.92
  -1  -7   9    1.17    1.16
  -1   7   9    1.76    0.67
   1   7  -9    3.99    1.94
  -1   7   9    1.06    0.71
   1   7  -9    1.21    1.17
  -1   7   9    2.31    0.64
   1  -7   9    4.20    1.23
   1   7   9    2.77    0.77
  -1   7  -9    2.68    1.86
   1   7   9    3.44    0.88
  -1   7  -9    3.49    1.33
   1   7   9    1.85    0.85
   3  -7   9    3.58    1.17
  -3   7  -9    3.02    1.32
  -3   7  -9    5.75    1.93
   3   7   9    3.79    0.97
   5  -7   9    0.15    1.15
   5   7   9    3.73    1.13
  -5   7  -9    1.96    1.80
  -5   7  -9    1.74    1.39
   7  -7   9    2.99    1.35
  -7   7  -9    3.79    1.66
  -7   7  -9    3.55    1.92
  12  -8  -9    0.38    1.67
  12   8  -9   -1.62    1.57
  12   8  -9   -3.76    2.67
  10  -8  -9    3.10    1.32
  10   8  -9    5.24    2.40
  10   8  -9    4.69    1.59
   8  -8  -9    0.97    1.20
   8   8  -9   -2.42    1.38
   8   8  -9    3.72    2.30
  -8   8   9    2.07    0.95
   6   8  -9    1.93    2.11
  -6   8   9    2.17    0.94
   6   8  -9    2.71    1.53
  -4  -8   9    0.82    1.55
  -4   8   9    1.62    0.94
   4   8  -9    3.53    2.08
   4   8  -9    2.15    1.45
  -2  -8   9    4.53    1.55
   2   8  -9    4.32    2.08
   2   8  -9    3.08    1.52
  -2   8   9    3.19    0.99
   0  -8   9    0.70    1.35
   0   8  -9    4.09    2.32
   0   8  -9    0.91    1.50
   0   8   9    3.03    0.84
   2  -8   9    2.80    1.55
  -2   8  -9    4.10    2.10
  -2   8  -9    3.13    1.59
   4  -8   9    0.95    1.76
  -4   8  -9    3.42    2.12
  -4   8  -9    1.60    1.67
   5   9  -9   -0.36    1.69
  -5   9   9    0.49    1.23
   5   9  -9    3.75    3.14
   3   9  -9    1.26    1.80
  -3   9   9    1.36    1.21
   3   9  -9    1.53    2.62
 -22   0  10    0.76    1.21
  22   0 -10    4.31    1.26
  22   0 -10    3.20    0.97
  22   0 -10    3.65    1.24
  20   0 -10    2.38    1.12
  20   0 -10    2.19    0.82
 -20   0  10    2.32    1.07
  20   0 -10    3.69    1.18
  20   0 -10    1.75    0.75
 -18   0  10    2.10    0.99
  18   0 -10    1.63    1.11
  18   0 -10    1.13    1.04
 -18   0  10    0.96    1.33
 -16   0  10   15.00    1.84
 -16   0  10   11.28    1.40
  16   0 -10   17.03    1.68
  16   0 -10   13.00    1.46
  14   0 -10   11.81    1.55
 -14   0  10   14.50    1.33
  14   0 -10   10.23    1.24
  12   0 -10    6.57    1.02
  12   0 -10    8.48    1.40
 -12   0  10    6.73    1.03
  10   0 -10   23.85    1.80
  10   0 -10   22.86    1.42
 -10   0  10   23.84    1.43
  -8   0  10   26.20    1.42
   8   0 -10   24.75    2.31
   8   0 -10   24.66    1.37
  -6   0  10   26.47    1.79
  -6   0  10   27.31    1.35
   6   0 -10   26.76    1.37
   6   0 -10   27.59    1.85
   4   0 -10   44.16    2.33
  -4   0  10   43.07    2.31
  -4   0  10   41.29    1.73
  -4   0  10   42.56    1.72
  -2   0  10   19.36    0.96
  -2   0  10   19.30    1.48
   2   0 -10   18.54    0.90
   2   0 -10   21.16    1.58
   0   0  10   31.57    1.89
   0   0  10   30.88    1.33
   0   0 -10   29.62    1.89
   2   0  10   44.08    1.81
  -2   0 -10   43.70    2.30
   2   0  10   42.81    2.25
   4   0  10   17.46    1.45
   4   0  10   16.21    1.07
  -4   0 -10   17.75    1.40
   6   0  10   19.05    1.23
   6   0  10   17.43    1.50
   8   0  10   17.60    1.55
   8   0  10   21.00    1.37
  10   0  10    7.96    1.36
  10   0  10    6.82    1.09
  12   0  10    7.25    1.17
  14   0  10    6.07    1.19
  23  -1 -10    1.02    1.25
  23  -1 -10    0.00    1.14
  23   1 -10   -1.56    1.23
  23   1 -10    3.01    1.41
  23   1 -10    3.22    1.31
 -21  -1  10    5.34    1.29
  21  -1 -10    5.86    1.30
  21  -1 -10    4.65    1.27
 -21   1  10    2.95    1.08
  21   1 -10    4.53    1.07
  21   1 -10    3.44    1.42
  21   1 -10    5.11    1.39
  19  -1 -10    3.97    1.18
 -19  -1  10    1.72    1.11
  19  -1 -10    2.43    1.13
  19   1 -10    4.45    1.20
 -19   1  10    3.75    1.00
 -19   1  10    5.54    1.80
  19   1 -10    2.99    1.22
 -17  -1  10    5.66    1.20
  17  -1 -10    3.33    1.02
  17  -1 -10    6.52    1.32
  17   1 -10    7.80    1.46
  17   1 -10    5.53    0.90
 -17   1  10    4.75    1.47
  17   1 -10    5.88    1.19
 -17   1  10    3.37    0.93
  15  -1 -10    7.93    1.20
 -15  -1  10    9.88    1.32
  15  -1 -10    8.06    1.37
  15   1 -10    8.69    1.40
  15   1 -10    9.56    1.31
  15   1 -10    6.63    0.80
 -15   1  10    8.78    1.17
  13  -1 -10    9.07    1.39
 -13  -1  10    8.30    1.23
  13  -1 -10    7.88    1.09
  13   1 -10    6.86    0.73
  13   1 -10    7.95    1.14
  13   1 -10    9.52    1.73
 -13   1  10    8.04    1.04
  11  -1 -10   23.08    1.47
  11  -1 -10   25.65    1.86
 -11  -1  10   24.93    1.59
 -11   1  10   24.56    1.45
  11   1 -10   25.67    1.60
  11   1 -10   26.52    1.93
  11   1 -10   24.83    1.18
   9  -1 -10   24.98    1.76
  -9  -1  10   24.98    1.46
   9  -1 -10   22.77    1.33
  -9   1  10   22.49    1.33
   9   1 -10   24.59    1.83
   9   1 -10   24.22    1.16
   9   1 -10   23.72    1.47
   7  -1 -10   11.32    0.95
  -7  -1  10   11.55    0.99
  -7   1  10   10.68    0.86
   7   1 -10   10.68    0.99
   7   1 -10   12.36    0.83
  -5  -1  10   29.76    1.48
  -5  -1  10   30.30    1.45
  -5  -1  10   31.75    2.09
   5  -1 -10   31.53    2.01
   5   1 -10   30.86    1.46
   5   1 -10   32.18    1.98
  -5   1  10   31.13    1.85
  -5   1  10   30.49    1.39
   5   1 -10   27.86    1.50
   3  -1 -10   37.96    1.51
  -3  -1  10   38.37    2.32
  -3  -1  10   40.26    1.67
  -3  -1  10   37.99    1.71
   3  -1 -10   41.82    2.26
  -3   1  10   44.86    2.18
   3   1 -10   41.24    1.85
   3   1 -10   39.19    1.78
   3   1 -10   41.38    2.31
  -1  -1  10   20.21    1.06
   1  -1 -10   23.12    1.65
  -1  -1  10   20.67    1.66
   1   1 -10   19.20    1.02
  -1   1  10   18.76    1.45
   1   1 -10   20.15    1.30
   1   1 -10   21.08    1.63
  -1   1  10   20.00    0.92
   1  -1  10   30.55    1.39
   1  -1  10   29.05    1.94
  -1   1 -10   30.49    1.71
  -1   1 -10   28.56    1.28
  -1   1 -10   28.25    1.89
   1   1  10   30.00    1.74
   1   1  10   29.38    1.30
  -1   1 -10   26.87    1.56
   3  -1  10   24.04    1.26
   3  -1  10   24.48    1.77
   3   1  10   23.54    1.23
  -3   1 -10   22.91    1.65
  -3   1 -10   23.01    1.07
   3   1  10   23.79    1.54
  -3   1 -10   22.93    1.10
   5  -1  10   18.42    1.58
   5  -1  10   17.57    1.14
   5   1  10   17.11    1.31
  -5   1 -10   16.61    1.42
   5   1  10   16.04    1.12
  -5   1 -10   15.44    0.89
   7  -1  10   21.79    1.31
  -7   1 -10   18.55    0.93
  -7   1 -10   17.95    0.98
   7   1  10   19.08    1.41
   9  -1  10   10.80    1.11
  -9   1 -10   10.99    0.87
  -9   1 -10    8.48    0.77
   9   1  10   10.62    1.24
   9   1  10   10.33    1.10
  11  -1  10    5.87    1.01
 -11   1 -10    5.46    0.71
  11   1  10    7.46    1.08
  11   1  10    7.24    1.25
  13  -1  10   10.56    1.32
  13   1  10    8.27    1.24
  22  -2 -10    2.76    1.36
  22   2 -10    2.37    1.25
 -22   2  10   -1.46    1.05
  22   2 -10    2.54    1.64
  22   2 -10    0.74    1.26
  20  -2 -10    1.39    1.14
 -20  -2  10    0.64    1.12
  20  -2 -10    2.14    1.10
  20   2 -10    2.94    1.24
 -20   2  10    1.91    0.96
  20   2 -10    2.93    0.92
  20   2 -10    2.58    1.23
  18  -2 -10    0.56    0.95
  18  -2 -10    3.32    1.04
 -18  -2  10    2.53    1.16
  18   2 -10   -0.46    1.09
 -18   2  10    1.18    0.86
  18   2 -10    2.70    1.18
  18   2 -10    1.25    0.77
 -18   2  10    4.89    1.43
  16  -2 -10   12.31    1.35
  16  -2 -10   10.86    1.49
 -16  -2  10   10.85    1.53
  16   2 -10   10.06    1.30
 -16   2  10    9.54    1.44
  16   2 -10   11.90    1.62
 -16   2  10    9.34    1.27
  16   2 -10   11.41    1.55
  14  -2 -10   10.75    1.47
 -14  -2  10    9.46    1.37
  14  -2 -10   10.75    1.19
  14   2 -10    9.84    0.97
 -14   2  10   15.04    2.59
  14   2 -10    8.71    1.36
 -14   2  10   10.25    1.11
  14   2 -10   10.89    1.63
  12  -2 -10    8.45    1.41
 -12  -2  10    7.34    1.10
  12  -2 -10    7.21    0.98
 -12   2  10    6.64    0.92
  12   2 -10    5.01    0.76
  12   2 -10    8.04    1.62
  12   2 -10    5.16    1.04
 -10  -2  10   18.95    1.37
  10  -2 -10   16.49    1.63
  10  -2 -10   15.31    1.17
  10   2 -10   16.29    1.37
 -10   2  10   17.63    1.16
  10   2 -10   15.17    1.06
  10   2 -10   20.26    1.80
  -8  -2  10   22.50    1.35
   8  -2 -10   18.30    1.16
   8  -2 -10   21.36    1.72
   8   2 -10   19.71    1.52
   8   2 -10   18.67    1.16
  -8   2  10   20.69    1.16
   8   2 -10   20.55    1.75
   6  -2 -10   18.65    1.06
   6  -2 -10   21.52    1.66
  -6  -2  10   16.69    1.21
  -6  -2  10   20.56    1.24
   6   2 -10   16.01    2.04
  -6   2  10   18.12    1.03
   6   2 -10   17.73    1.29
   6   2 -10   19.89    1.22
  -4  -2  10   31.38    1.59
  -4  -2  10   30.02    1.46
   4  -2 -10   29.87    1.24
   4   2 -10   30.20    1.63
   4   2 -10   30.71    2.08
  -4   2  10   31.12    1.79
  -4   2  10   29.39    1.23
  -2  -2  10   13.93    1.00
   2   2 -10   12.93    1.10
   2   2 -10   14.91    0.92
   2   2 -10   15.87    1.54
  -2   2  10   16.10    1.26
   0  -2  10   24.46    1.28
   0   2 -10   22.48    1.72
   0   2  10   23.77    1.07
   0   2 -10   22.22    1.18
   0   2 -10   24.85    1.58
   0   2  10   22.29    1.50
   2  -2  10   30.49    1.50
   2   2  10   29.14    1.70
  -2   2 -10   28.31    1.40
  -2   2 -10   29.42    1.80
  -2   2 -10   32.66    1.79
   2   2  10   30.56    1.39
  -2   2 -10   28.93    1.93
   4  -2  10   10.42    0.97
   4   2  10   11.46    1.14
  -4   2 -10   12.12    1.34
   4   2  10   11.49    0.92
  -4   2 -10   10.62    0.86
  -4   2 -10   11.11    1.37
   6  -2  10   14.52    1.12
   6   2  10   12.43    1.05
   6   2  10   13.32    1.25
  -6   2 -10   12.74    0.93
  -6   2 -10   10.46    1.28
   8  -2  10   16.39    1.24
   8   2  10   15.13    1.31
  -8   2 -10   12.43    1.10
   8   2  10   15.53    1.21
  -8   2 -10   11.49    1.33
  -8   2 -10   15.77    1.04
  10  -2  10    6.46    0.96
  10   2  10    5.75    0.96
 -10   2 -10    6.11    0.89
  10   2  10    6.88    1.16
 -12   2 -10    4.56    0.87
  12   2  10    7.08    1.10
  14  -2  10    4.09    1.09
  14   2  10    5.66    1.18
  21  -3 -10    2.45    1.27
  21   3 -10    3.02    1.33
 -21   3  10    0.98    1.09
  21   3 -10    2.64    1.40
  19  -3 -10    1.07    1.13
 -19  -3  10    1.66    1.24
  19   3 -10    5.16    1.51
  19   3 -10    1.62    0.85
 -19   3  10    1.59    0.96
  19   3 -10    2.70    1.23
  17  -3 -10    2.75    1.01
 -17  -3  10    5.66    1.30
  17   3 -10    3.59    1.25
  17   3 -10    4.67    1.31
 -17   3  10    4.34    0.91
 -17   3  10    4.81    1.41
  17   3 -10    4.29    0.86
 -15  -3  10    3.73    1.15
  15  -3 -10    3.06    0.96
 -15   3  10    4.57    0.95
  15   3 -10    5.04    1.19
  15   3 -10    4.20    0.83
 -15   3  10    4.60    1.11
  15   3 -10    5.74    1.43
 -13  -3  10    5.93    1.16
  13  -3 -10    6.01    0.98
  13   3 -10    5.79    0.86
  13   3 -10    7.75    1.48
 -13   3  10    6.78    1.23
 -13   3  10    4.41    0.82
  13   3 -10    5.76    1.19
  11  -3 -10   15.05    1.18
 -11  -3  10   15.39    1.51
  11   3 -10   14.79    1.51
  11   3 -10   14.58    1.11
 -11   3  10   13.99    1.08
  11   3 -10   16.84    1.77
   9  -3 -10   14.45    1.51
  -9  -3  10   13.82    1.29
   9   3 -10   12.63    1.65
   9   3 -10   13.15    1.10
   9   3 -10   13.38    1.37
  -9   3  10   14.21    1.00
   7  -3 -10    9.53    1.30
  -7  -3  10    9.18    1.01
   7   3 -10    7.58    1.11
   7   3 -10    7.48    0.95
   7   3 -10    8.82    1.50
  -7   3  10    9.46    0.78
  -5  -3  10   17.23    1.32
   5  -3 -10   16.60    0.91
  -5  -3  10   17.44    1.18
   5   3 -10   18.34    1.38
   5   3 -10   19.49    1.76
   5   3 -10   16.83    1.27
  -3  -3  10   24.92    1.51
   3   3 -10   22.63    1.54
   3   3 -10   25.10    1.29
   3   3 -10   26.98    1.71
  -3   3  10   23.20    1.54
   3   3 -10   24.31    2.31
  -1  -3  10   12.27    1.02
   1   3 -10   11.03    1.25
  -1   3  10   12.01    1.17
   1   3 -10   12.75    1.21
   1   3 -10   12.00    0.91
   1   3 -10   12.60    1.64
   1  -3  10   19.96    1.27
   1   3  10   18.38    0.98
  -1   3 -10   18.36    1.73
  -1   3 -10   17.68    1.13
   1   3  10   16.76    1.36
  -1   3 -10   18.76    1.52
  -1   3 -10   18.83    1.40
   3  -3  10   13.75    1.15
  -3   3 -10   14.26    1.44
  -3   3 -10   15.10    1.06
  -3   3 -10   13.80    1.28
   3   3  10   13.57    0.94
  -3   3 -10   14.79    1.62
   3   3  10   14.74    1.21
   5  -3  10   10.54    1.20
   5   3  10   10.69    0.97
   5   3  10    9.01    1.08
  -5   3 -10    8.75    0.97
  -5   3 -10    8.06    1.42
  -5   3 -10    9.50    1.30
   7  -3  10   13.19    1.13
  -7   3 -10   11.26    1.42
  -7   3 -10   13.39    1.74
  -7   3 -10   12.38    1.47
   7   3  10   11.26    1.18
   9  -3  10    8.64    1.15
   9   3  10    6.09    1.05
  -9   3 -10    5.43    0.88
  -9   3 -10    5.81    1.25
   9   3  10    5.82    1.04
  -9   3 -10    6.23    1.86
  11  -3  10    4.66    0.94
 -11   3 -10    5.76    1.02
  11   3  10    4.56    1.07
  11   3  10    2.90    0.80
  13  -3  10    3.22    0.95
  13   3  10    6.39    1.27
  20  -4 -10    1.22    1.28
  20   4 -10   -0.88    0.97
 -20   4  10   -0.32    1.07
  20   4 -10    1.48    1.35
  20   4 -10    0.91    1.37
 -18  -4  10    1.08    1.27
  18  -4 -10   -0.01    1.29
 -18   4  10    0.04    0.91
  18   4 -10    2.28    1.45
  18   4 -10   -1.67    1.14
  16  -4 -10    6.61    1.15
 -16  -4  10    7.36    1.36
  16   4 -10    4.72    0.93
  16   4 -10    3.63    1.29
 -16   4  10    4.67    1.01
  16   4 -10    7.88    1.64
  14  -4 -10    4.44    1.02
 -14  -4  10    5.14    1.25
 -14   4  10    4.37    0.91
  14   4 -10    4.32    0.86
  14   4 -10    6.28    1.78
 -14   4  10    3.73    1.25
  14   4 -10    7.33    1.69
 -12  -4  10    4.87    1.15
  12  -4 -10    3.05    0.84
 -12   4  10    3.97    0.76
  12   4 -10    3.80    0.82
  12   4 -10    2.56    1.12
  12   4 -10    4.32    1.55
 -12   4  10    3.48    1.09
  10  -4 -10    7.44    1.01
 -10  -4  10   11.36    1.42
 -10   4  10    8.49    0.92
 -10   4  10    6.41    1.13
  10   4 -10   10.01    1.46
  10   4 -10   10.68    1.69
  10   4 -10    9.41    1.01
  -8  -4  10    8.83    1.22
   8  -4 -10    8.62    0.93
   8   4 -10    8.67    1.01
  -8   4  10    9.63    0.85
   8   4 -10   11.06    1.78
   8   4 -10   10.07    1.41
  -6  -4  10    7.56    1.19
  -6  -4  10   10.15    1.07
   6  -4 -10    8.66    0.88
  -6   4  10    9.00    0.78
   6   4 -10    8.69    1.07
   6   4 -10    9.87    1.61
   6   4 -10    9.16    1.25
   4  -4 -10   13.20    0.85
  -4  -4  10   12.40    1.33
   4   4 -10   14.87    1.79
   4   4 -10   11.50    1.25
  -4   4  10   13.51    0.77
   4   4 -10   15.83    1.49
  -4   4  10   14.06    1.40
  -2  -4  10    8.05    1.18
   2   4 -10   10.97    1.74
   2   4 -10    7.92    1.13
   2   4 -10    7.21    1.13
  -2   4  10    7.50    1.06
   0  -4  10   11.43    1.19
   0   4  10   11.26    0.78
   0   4 -10   13.68    1.72
   0   4 -10   10.26    1.35
   0   4 -10   12.69    1.36
   0   4  10    9.35    1.11
   2  -4  10   16.39    1.29
  -2   4 -10   14.77    1.41
   2   4  10   14.51    0.98
  -2   4 -10   18.41    3.43
   2   4  10   13.70    1.25
   4  -4  10    6.55    1.04
  -4   4 -10    7.58    1.15
  -4   4 -10    9.48    1.67
  -4   4 -10    6.05    1.20
   4   4  10    6.93    1.01
   4   4  10    5.55    0.83
  -4   4 -10    3.53    0.95
   6  -4  10    8.90    1.43
  -6   4 -10    7.40    1.53
  -6   4 -10    3.84    1.15
   6   4  10    6.36    1.01
  -6   4 -10    8.91    1.26
   6   4  10    6.98    1.07
  -6   4 -10    6.72    1.00
   8  -4  10    8.57    1.26
  -8   4 -10    6.40    1.36
  -8   4 -10    7.31    1.11
   8   4  10    8.11    1.12
   8   4  10    7.23    1.13
  -8   4 -10    8.28    1.29
  10  -4  10    2.40    0.92
  10   4  10    4.12    0.92
  10   4  10    2.29    0.97
 -10   4 -10    3.52    1.15
  12  -4  10    2.13    1.00
  12   4  10    3.33    0.93
  19  -5 -10    0.24    1.28
  19   5 -10    0.15    1.74
  19   5 -10    1.92    1.48
  17  -5 -10    2.79    1.21
 -17  -5  10    4.20    1.44
  17   5 -10    4.02    1.68
  17   5 -10    0.91    1.28
  17   5 -10    1.72    1.01
 -17   5  10    2.48    0.99
  15  -5 -10    3.30    0.97
 -15  -5  10    4.34    1.26
  15   5 -10    1.75    1.36
  15   5 -10   -0.36    0.73
  15   5 -10    2.93    1.59
 -15   5  10    1.55    0.85
 -13  -5  10    4.77    1.25
  13  -5 -10    0.82    0.80
  13   5 -10    3.18    1.53
  13   5 -10    2.81    1.31
 -13   5  10    2.57    0.77
  11  -5 -10    4.80    0.90
 -11  -5  10    5.97    1.20
  11   5 -10    5.70    1.40
 -11   5  10    6.09    0.93
  11   5 -10    7.07    1.73
  11   5 -10    6.02    0.99
  -9  -5  10    7.05    1.11
   9  -5 -10    4.38    0.86
   9   5 -10    5.34    1.22
  -9   5  10    5.90    1.21
   9   5 -10    8.37    1.73
   9   5 -10    3.90    0.82
  -9   5  10    5.01    0.72
   7  -5 -10    3.09    0.74
  -7  -5  10    3.92    0.89
  -7   5  10    3.25    0.60
   7   5 -10    5.71    1.27
   7   5 -10    4.33    1.56
   7   5 -10    2.13    0.74
  -5  -5  10    6.47    1.15
   5   5 -10    5.69    1.07
   5   5 -10    6.23    0.94
   5   5 -10    7.03    1.29
  -5   5  10    6.39    0.76
   5   5 -10    8.71    1.67
  -3  -5  10    8.24    1.45
  -3   5  10    8.90    0.70
   3   5 -10   10.81    1.82
  -3   5  10    8.81    1.24
   3   5 -10    9.41    0.97
   3   5 -10    6.39    1.32
   3   5 -10    9.53    1.35
  -1  -5  10    5.63    1.17
   1   5 -10    5.74    1.14
   1   5 -10    6.24    0.94
   1   5 -10    7.66    1.67
  -1   5  10    4.45    1.11
   1  -5  10    7.26    1.23
  -1   5 -10    8.62    1.72
  -1   5 -10    7.39    1.22
   1   5  10    7.35    1.33
  -1   5 -10    7.94    1.40
   1   5  10    7.87    0.77
  -1   5 -10    7.56    0.96
   3  -5  10    7.47    1.29
  -3   5 -10    6.57    0.98
   3   5  10    7.18    1.14
  -3   5 -10    3.78    1.20
   3   5  10    5.23    0.82
  -3   5 -10    6.23    1.26
  -3   5 -10    7.16    1.73
   5  -5  10    3.01    0.86
  -5   5 -10    2.05    1.55
  -5   5 -10    4.79    1.15
   5   5  10    4.04    0.86
   5   5  10    4.53    1.08
   7  -5  10    3.92    1.02
  -7   5 -10    7.59    1.36
  -7   5 -10    4.28    1.65
   7   5  10    4.63    0.87
   7   5  10    3.69    1.10
   9  -5  10    3.00    1.07
  -9   5 -10    1.71    1.49
   9   5  10    2.40    0.83
   9   5  10    3.65    1.09
  18  -6 -10    1.66    1.47
  18   6 -10   -2.76    1.51
  18   6 -10    2.46    2.46
  16  -6 -10    0.55    1.23
  16   6 -10    4.62    2.07
  16   6 -10   -0.97    1.31
 -14  -6  10    3.55    1.32
  14  -6 -10    2.82    1.10
  14   6 -10    1.22    1.39
  14   6 -10    4.58    1.78
 -12  -6  10    1.32    1.09
  12  -6 -10    1.59    0.92
  12   6 -10    1.28    1.37
  12   6 -10    1.19    1.59
 -12   6  10    1.98    0.78
  10  -6 -10    2.00    0.85
 -10  -6  10    2.10    1.02
 -10   6  10    2.89    0.77
  10   6 -10    4.84    1.79
  10   6 -10    2.31    1.38
  10   6 -10    3.06    0.82
  -8  -6  10    1.29    0.94
   8  -6 -10    2.95    0.87
   8   6 -10    4.72    1.78
   8   6 -10    1.70    0.84
   8   6 -10    6.23    1.54
  -8   6  10    2.94    0.66
   6  -6 -10    3.05    0.93
  -6  -6  10    4.65    1.26
   6   6 -10    6.54    1.90
   6   6 -10    3.12    1.23
   6   6 -10    2.89    0.83
  -6   6  10    3.63    0.63
  -4  -6  10    3.43    1.19
   4   6 -10    5.77    1.69
   4   6 -10    3.26    1.00
   4   6 -10    4.41    1.27
  -4   6  10    3.61    0.72
  -2  -6  10    3.50    1.12
   2   6 -10    3.23    1.19
   2   6 -10    1.47    0.88
  -2   6  10    2.43    0.57
   2   6 -10    4.30    1.68
   0  -6  10    2.96    1.09
   0   6 -10    2.22    1.14
   0   6  10    4.15    0.77
   0   6 -10    3.16    1.58
   0   6 -10    3.65    1.45
   2  -6  10    2.41    0.97
   2   6  10    3.40    0.81
  -2   6 -10    5.17    1.77
  -2   6 -10    4.09    1.23
   2   6  10    4.69    1.02
   4  -6  10    2.44    0.98
   4   6  10    0.80    0.64
  -4   6 -10   -0.64    1.15
  -4   6 -10    4.96    1.76
   6  -6  10    1.59    1.03
   6   6  10    1.94    0.77
  -6   6 -10    2.51    1.38
  -6   6 -10    2.11    1.81
   8  -6  10    1.32    1.12
  -8   6 -10    0.84    1.87
   8   6  10    3.24    0.92
  15   7 -10   -0.16    1.60
  13  -7 -10   -0.78    1.35
  13   7 -10   -0.37    2.06
  13   7 -10   -1.75    1.46
  11  -7 -10    2.03    1.09
 -11  -7  10   -0.07    1.11
  11   7 -10   -0.99    1.38
  11   7 -10    1.50    2.00
  -9  -7  10    2.39    1.20
   9  -7 -10    2.29    1.12
   9   7 -10    5.75    2.11
   9   7 -10    1.07    1.45
   7  -7 -10    0.60    1.00
   7   7 -10    7.51    3.12
  -7   7  10    0.74    0.80
   7   7 -10    0.44    1.39
  -5  -7  10    2.01    1.24
   5   7 -10    6.97    2.23
   5   7 -10    1.23    1.38
  -5   7  10    2.87    0.87
  -3  -7  10    0.78    1.13
   3   7 -10    4.62    1.92
  -1  -7  10    2.83    1.18
   1   7 -10    2.33    1.71
  -1   7  10    1.14    0.64
   1   7 -10    1.28    1.32
   1  -7  10    1.39    1.25
  -1   7 -10    2.48    1.42
  -1   7 -10    2.82    1.84
   3  -7  10    1.12    1.17
  -3   7 -10    2.29    1.56
  -5   7 -10    2.37    1.77
  -5   7 -10    3.80    2.06
  10   8 -10   -0.53    1.62
  -8   8  10    2.54    1.06
   8   8 -10    2.00    1.62
   8   8 -10    3.45    2.52
   6   8 -10   -1.86    2.25
  -6   8  10    3.68    1.09
   6   8 -10    0.88    1.61
  -4  -8  10    3.50    1.64
  -4   8  10    3.89    1.03
   4   8 -10    2.36    2.24
   4   8 -10    2.80    1.70
  -2  -8  10   -0.46    1.44
   2   8 -10    0.37    2.13
  -2   8  10    2.33    1.89
   2   8 -10   -1.21    1.63
   0  -8  10   -2.66    1.65
   0   8 -10    2.53    2.14
   0   8  10    0.89    0.80
   0   8 -10   -0.70    1.60
  22   0 -11    1.84    1.29
  22   0 -11    3.58    1.34
 -22   0  11    1.91    1.30
  20   0 -11    5.94    1.44
 -20   0  11    6.85    1.33
  20   0 -11    2.88    1.30
 -18   0  11    2.72    1.11
  18   0 -11    3.66    1.19
  18   0 -11    2.94    1.29
 -16   0  11    6.85    1.20
  16   0 -11    8.92    1.60
 -16   0  11    5.34    2.01
  16   0 -11    8.69    1.28
  14   0 -11   10.74    1.51
 -14   0  11   10.13    1.80
 -14   0  11    8.03    1.20
  14   0 -11    8.97    1.23
  12   0 -11   12.77    1.58
  12   0 -11    9.44    1.21
 -12   0  11   10.04    1.17
  10   0 -11   22.86    1.49
  10   0 -11   25.92    1.99
 -10   0  11   26.57    1.55
  -8   0  11    7.25    0.90
   8   0 -11    9.42    1.46
   8   0 -11    7.81    1.37
   6   0 -11   18.02    1.69
  -6   0  11   16.21    1.03
  -6   0  11   14.76    1.61
   4   0 -11   25.79    2.16
  -4   0  11   25.04    1.22
  -4   0  11   25.11    1.82
   2   0 -11   14.94    0.77
  -2   0  11   14.83    0.84
   2   0 -11   12.34    1.50
  -2   0  11   13.69    1.45
   2   0 -11   11.71    1.05
   0   0  11   14.13    1.44
   0   0  11   15.11    0.88
   0   0 -11   13.48    1.59
  -2   0 -11   23.57    3.66
   2   0  11   16.87    1.01
   2   0  11   17.40    1.53
   4   0  11    7.36    0.83
   4   0  11    7.37    1.27
   6   0  11   14.06    1.06
   6   0  11   10.65    1.47
   8   0  11    7.76    1.44
   8   0  11    8.27    1.07
  10   0  11    2.29    0.73
  12   0  11    4.34    0.87
 -21  -1  11    1.33    1.31
  21  -1 -11    2.67    1.27
  21  -1 -11    1.52    1.29
 -21   1  11    0.55    2.64
  21   1 -11    0.91    1.25
  19  -1 -11    1.71    1.31
  19  -1 -11    4.50    1.34
 -19  -1  11    1.18    1.19
 -19   1  11    1.84    1.02
  19   1 -11    3.03    1.29
  19   1 -11    3.01    1.24
  19   1 -11    1.37    0.80
 -17  -1  11    5.11    1.20
  17  -1 -11    4.64    1.22
  17  -1 -11    4.17    1.03
 -17   1  11    4.32    1.11
  17   1 -11    4.57    1.22
  17   1 -11    3.51    0.69
  17   1 -11    4.37    1.33
 -15  -1  11   15.16    1.60
  15  -1 -11   10.99    1.32
  15  -1 -11   12.50    1.70
 -15   1  11   13.75    1.87
  15   1 -11   15.39    1.82
  15   1 -11   11.15    1.45
 -15   1  11   14.39    1.44
 -13  -1  11    3.65    1.00
  13  -1 -11    6.19    1.39
  13  -1 -11    3.02    0.87
 -13  -1  11    5.42    1.47
  13   1 -11    6.13    1.03
 -13   1  11    4.75    0.84
  13   1 -11    5.90    1.44
 -13   1  11    4.67    1.29
  11  -1 -11   10.08    1.06
  11  -1 -11   11.55    1.55
 -11  -1  11   11.25    1.23
  11   1 -11   10.80    1.24
 -11   1  11   11.46    1.10
  11   1 -11   13.52    1.61
  -9  -1  11   18.66    1.34
   9  -1 -11   19.02    1.75
   9   1 -11   19.71    1.80
   9   1 -11   16.68    1.03
   9   1 -11   18.82    1.32
  -9   1  11   21.52    1.27
  -7  -1  11   13.02    1.56
   7  -1 -11   11.02    1.46
  -7  -1  11   11.72    1.03
   7   1 -11   11.44    0.91
  -7   1  11   11.38    0.91
   7   1 -11   10.63    1.11
   7   1 -11   12.76    1.55
  -5  -1  11   19.28    1.17
  -5  -1  11   21.17    1.81
   5  -1 -11   19.37    1.71
   5  -1 -11   17.96    0.98
  -5  -1  11   18.89    1.18
   5   1 -11   19.70    1.73
   5   1 -11   21.68    1.28
  -5   1  11   16.41    1.29
   5   1 -11   20.29    1.20
  -5   1  11   19.29    1.57
  -3  -1  11   15.61    1.02
  -3  -1  11   15.60    1.69
   3  -1 -11   20.02    1.69
   3  -1 -11   15.41    0.75
   3   1 -11   16.37    1.18
   3   1 -11   16.05    1.63
  -3   1  11   18.01    1.44
   3   1 -11   16.11    1.48
  -1  -1  11    9.22    0.78
   1  -1 -11   10.51    1.45
  -1  -1  11    8.34    1.37
  -1   1  11    8.11    1.15
   1   1 -11    7.09    0.72
   1   1 -11    8.40    1.40
   1   1 -11    7.91    0.72
  -1   1  11    8.72    0.60
   1  -1  11   21.34    1.79
   1  -1  11   20.42    1.12
  -1   1 -11   18.20    0.97
   1   1  11   18.78    1.48
  -1   1 -11   18.14    0.98
   1   1  11   20.82    1.03
   3  -1  11   13.03    0.94
   3  -1  11   14.75    1.56
   3   1  11   12.53    0.87
  -3   1 -11    9.48    1.51
   3   1  11   13.61    1.31
   5  -1  11    5.64    1.35
   5  -1  11    4.68    0.79
   5   1  11    5.02    0.80
  -5   1 -11    5.16    1.31
   5   1  11    4.11    1.06
   7  -1  11   12.18    1.09
   7   1  11    9.87    1.28
   7   1  11   10.62    1.05
   9  -1  11    5.09    0.93
   9   1  11    4.22    1.19
   9   1  11    4.87    0.86
  11  -1  11    3.43    0.88
  11   1  11    4.06    0.86
  22  -2 -11    1.45    1.46
  22   2 -11   -0.17    1.62
  22   2 -11   -1.09    1.44
  20  -2 -11    3.13    1.31
 -20  -2  11    5.85    1.36
  20  -2 -11    5.33    1.34
  20   2 -11    5.08    1.44
 -20   2  11    4.68    1.21
  20   2 -11    6.22    1.43
  18  -2 -11    1.89    1.18
 -18  -2  11    1.31    1.24
  18  -2 -11    1.94    1.04
 -18   2  11    2.33    0.97
  18   2 -11    1.85    0.78
  18   2 -11    2.33    1.25
  18   2 -11    2.13    1.20
  16  -2 -11    5.77    1.49
  16  -2 -11    5.54    1.09
 -16  -2  11    4.26    1.19
  16   2 -11    5.29    1.23
  16   2 -11    6.56    1.54
 -14  -2  11    6.32    1.23
  14  -2 -11    7.32    1.57
  14  -2 -11    5.90    0.99
  14   2 -11    7.42    1.57
  14   2 -11    6.03    1.16
 -14   2  11    5.18    0.95
 -14   2  11    5.85    1.39
  14   2 -11    4.83    0.77
  12  -2 -11    7.13    1.05
  12  -2 -11   10.41    1.69
 -12  -2  11    8.71    1.33
  12   2 -11    8.42    1.68
 -12   2  11    8.17    1.03
  12   2 -11    5.01    0.82
 -12   2  11    7.84    1.43
  12   2 -11    5.70    1.10
  10  -2 -11   17.34    1.27
 -10  -2  11   18.82    1.43
  10  -2 -11   21.32    1.86
  10   2 -11   17.28    1.49
  10   2 -11   17.14    1.13
  10   2 -11   21.04    1.85
 -10   2  11   18.68    1.22
   8  -2 -11    7.28    1.43
   8  -2 -11    5.60    0.82
  -8  -2  11    6.57    0.96
   8   2 -11    5.80    0.83
  -8   2  11    4.74    0.73
   8   2 -11    6.76    1.43
   8   2 -11    5.28    0.95
  -6  -2  11   12.50    0.99
  -6  -2  11   11.05    1.10
   6  -2 -11   13.94    1.58
   6   2 -11   10.96    1.14
   6   2 -11   11.11    1.08
   6   2 -11   13.32    1.58
   4  -2 -11   15.95    0.81
  -4  -2  11   17.97    1.22
  -4   2  11   19.54    1.52
   4   2 -11   17.30    1.70
   4   2 -11   14.91    1.23
  -2  -2  11    9.66    0.93
   2   2 -11    9.14    1.13
   2   2 -11   11.44    1.51
  -2   2  11    9.49    1.23
   2   2 -11   11.54    0.85
   2   2 -11   10.51    1.21
   0  -2  11    9.87    0.92
   0   2 -11   10.96    1.53
   0   2 -11    9.22    0.87
   0   2 -11    9.32    1.06
   0   2  11    9.22    1.21
   0   2 -11   10.01    1.21
   0   2  11   10.64    0.66
   2  -2  11   13.14    1.01
  -2   2 -11   13.72    1.42
   2   2  11   11.69    1.27
   2   2  11   12.75    0.86
  -2   2 -11   10.28    0.95
   4  -2  11    5.17    0.83
   4   2  11    5.52    1.13
  -4   2 -11    5.36    0.76
   4   2  11    5.85    0.77
  -4   2 -11    6.51    1.38
  -4   2 -11    3.77    0.64
   6  -2  11   10.28    1.04
  -6   2 -11    6.83    0.98
  -6   2 -11   11.03    1.48
  -6   2 -11    8.08    0.88
   6   2  11    9.25    1.27
   8  -2  11    6.02    0.98
  -8   2 -11    4.68    0.75
   8   2  11    4.73    0.83
   8   2  11    5.49    1.13
  10  -2  11    1.53    0.75
  10   2  11    1.08    1.03
  10   2  11    1.64    0.78
  21  -3 -11   -0.88    1.33
  21   3 -11   -0.59    1.66
  21   3 -11    1.41    1.39
 -19  -3  11   -0.17    1.35
  19  -3 -11    2.08    1.35
  19   3 -11    5.81    1.66
  19   3 -11    1.27    0.90
 -19   3  11    3.32    1.04
  19   3 -11    0.97    1.34
  17  -3 -11    1.77    1.08
 -17  -3  11    1.96    1.26
 -17   3  11    2.88    0.97
  17   3 -11    4.86    1.56
  17   3 -11    3.07    1.24
  17   3 -11    1.16    0.78
  15  -3 -11    6.40    1.14
 -15  -3  11   10.88    1.63
  15   3 -11    6.64    1.39
 -15   3  11    8.13    1.23
  15   3 -11    6.66    1.61
  15   3 -11    7.46    1.07
  13  -3 -11    3.42    0.88
 -13  -3  11    4.55    1.09
  13   3 -11    4.86    1.50
  13   3 -11    2.18    1.05
 -13   3  11    4.13    1.75
  13   3 -11    2.27    0.71
 -13   3  11    3.57    0.77
  11  -3 -11    6.62    0.99
 -11  -3  11    6.51    1.17
  11   3 -11    7.45    1.61
  11   3 -11    5.41    0.90
  11   3 -11    6.44    1.22
 -11   3  11    6.46    0.95
 -11   3  11    6.78    1.27
  -9  -3  11   11.53    1.26
   9  -3 -11   10.85    1.02
   9   3 -11    8.02    1.04
   9   3 -11    9.66    1.25
  -9   3  11   10.12    0.94
   9   3 -11   10.31    1.69
   7  -3 -11    7.41    1.05
  -7  -3  11    7.80    1.01
   7   3 -11   10.34    1.67
  -7   3  11    7.49    0.77
   7   3 -11    7.78    1.01
   7   3 -11    6.44    1.05
  -5  -3  11   12.62    1.20
   5  -3 -11    9.97    0.75
  -5  -3  11   10.26    1.00
   5   3 -11   10.87    1.69
   5   3 -11    9.72    1.15
  -5   3  11    9.64    1.22
   5   3 -11   11.29    1.27
  -3  -3  11   11.22    1.17
   3   3 -11    8.31    1.22
   3   3 -11    9.45    1.13
  -3   3  11    8.65    1.17
   3   3 -11   12.31    1.66
   3   3 -11   10.88    1.04
  -1  -3  11    5.30    0.91
   1   3 -11    8.29    1.64
   1   3 -11    5.67    0.79
  -1   3  11    6.01    1.08
   1   3 -11    6.08    1.17
   1  -3  11   11.45    1.11
  -1   3 -11   11.16    1.32
  -1   3 -11   10.17    1.01
   1   3  11   11.26    0.79
  -1   3 -11   12.18    1.48
   1   3  11   12.01    1.25
  -1   3 -11   12.08    1.69
   3  -3  11    9.79    1.03
  -3   3 -11    8.95    1.24
  -3   3 -11    6.26    0.97
  -3   3 -11    7.45    1.59
   3   3  11   10.23    1.17
   3   3  11    8.70    0.80
   5  -3  11    3.77    0.80
   5   3  11    2.82    0.69
   5   3  11    2.29    0.85
  -5   3 -11    3.07    1.48
  -5   3 -11    1.46    1.06
   7  -3  11    7.68    1.17
  -7   3 -11    5.92    0.90
   7   3  11    8.48    1.01
  -7   3 -11    7.65    1.39
  -7   3 -11    6.66    1.47
   7   3  11    6.36    1.12
   9  -3  11    3.12    0.93
  -9   3 -11    3.09    1.27
   9   3  11    3.92    0.81
   9   3  11    4.53    1.31
  -9   3 -11    3.64    0.92
  11  -3  11    1.39    0.99
  11   3  11    1.90    0.81
  20  -4 -11    2.61    1.47
  20   4 -11    3.87    1.56
  20   4 -11    1.84    1.69
  18  -4 -11    2.62    1.26
 -18  -4  11    3.95    1.34
  18   4 -11   -0.57    1.28
  18   4 -11    1.11    1.49
 -16  -4  11    1.03    1.27
  16  -4 -11    2.40    1.08
  16   4 -11    1.86    1.19
 -16   4  11    1.75    0.94
  16   4 -11    5.91    1.56
  16   4 -11    0.46    0.81
 -14  -4  11    3.89    1.20
  14  -4 -11    2.79    1.00
 -14   4  11    1.63    0.81
  14   4 -11    1.78    0.78
  14   4 -11    2.53    1.42
 -12  -4  11    5.53    1.24
  12  -4 -11    1.94    0.81
  12   4 -11    2.09    1.15
  12   4 -11    3.89    1.46
  12   4 -11    1.58    0.69
 -12   4  11    2.16    0.72
 -10  -4  11    9.01    1.27
  10  -4 -11    7.94    1.03
  10   4 -11    8.10    1.06
  10   4 -11   10.34    1.50
  10   4 -11   12.70    1.85
 -10   4  11    7.99    0.98
  -8  -4  11    2.44    0.84
   8  -4 -11    3.69    1.23
   8   4 -11    1.19    0.80
   8   4 -11    0.66    0.92
  -8   4  11    3.43    0.61
   8   4 -11    4.23    1.48
  -6  -4  11    7.27    1.06
  -6  -4  11    7.32    1.18
   6  -4 -11    4.57    0.71
   6   4 -11    6.19    1.08
   6   4 -11    8.39    1.63
   6   4 -11    7.44    1.20
  -6   4  11    6.44    0.83
  -4  -4  11    6.60    2.25
   4  -4 -11    7.01    0.67
   4   4 -11    6.20    1.07
  -4   4  11    7.68    1.22
   4   4 -11   10.27    1.75
   4   4 -11    7.86    1.24
   4   4 -11    8.71    0.92
  -2  -4  11    7.51    1.24
   2   4 -11    6.27    1.20
  -2   4  11    5.44    1.16
   2   4 -11    6.47    0.91
   2   4 -11    4.98    1.07
   2   4 -11    5.59    1.53
   0  -4  11    5.65    0.95
   0   4  11    5.06    1.09
   0   4 -11    7.57    1.63
   0   4 -11    6.54    1.14
   0   4 -11    5.73    0.82
   2  -4  11    6.53    1.07
  -2   4 -11    6.32    1.35
  -2   4 -11    6.51    1.60
   2   4  11    7.52    1.18
  -2   4 -11    7.75    1.24
   2   4  11    6.78    0.70
  -2   4 -11    5.08    0.90
   4  -4  11    2.52    0.82
   4   4  11    3.55    0.97
  -4   4 -11    2.49    0.80
   4   4  11    2.77    0.61
  -4   4 -11    2.79    1.08
  -4   4 -11    2.61    1.19
  -4   4 -11    2.54    1.41
   6  -4  11    7.09    1.18
  -6   4 -11    5.36    1.74
   6   4  11    4.35    1.04
  -6   4 -11    4.38    1.65
  -6   4 -11    4.16    0.98
   6   4  11    4.24    0.82
   8  -4  11    4.39    1.00
  -8   4 -11    2.84    1.47
   8   4  11    4.50    1.13
  10  -4  11    1.46    1.01
  17  -5 -11    0.82    1.29
 -17  -5  11    5.69    1.60
  17   5 -11   -0.50    0.94
  17   5 -11   -0.82    1.43
  17   5 -11    1.12    1.77
 -15  -5  11    6.41    1.46
  15  -5 -11    1.09    1.07
  15   5 -11    5.52    2.39
  15   5 -11    1.74    0.89
  15   5 -11    2.27    1.45
 -13  -5  11    1.40    1.14
  13  -5 -11    1.08    0.89
  13   5 -11    1.31    1.25
  13   5 -11    1.35    1.65
 -13   5  11    1.90    0.79
  11  -5 -11    2.41    0.88
 -11  -5  11    1.45    1.10
  11   5 -11    3.25    1.74
  11   5 -11    2.09    1.27
 -11   5  11    1.97    0.74
  -9  -5  11    4.35    1.03
   9   5 -11    3.21    1.25
   9   5 -11    6.97    1.72
  -9   5  11    2.52    0.65
  -7  -5  11    2.90    0.93
   7  -5 -11    1.44    0.86
  -7   5  11    2.35    0.67
   7   5 -11    0.92    1.10
   7   5 -11    4.59    1.59
  -5  -5  11    3.78    1.10
   5  -5 -11    3.65    0.66
   5   5 -11    3.67    1.19
  -5   5  11    5.00    0.74
  -5   5  11    3.57    0.64
   5   5 -11    6.32    1.67
  -3  -5  11    2.48    0.96
   3   5 -11    2.89    1.14
   3   5 -11    1.65    1.07
   3   5 -11    6.24    1.63
  -1  -5  11    2.87    0.98
   1   5 -11    3.00    1.47
   1   5 -11    1.04    0.99
   1   5 -11    2.49    1.17
   1  -5  11    4.65    1.13
  -1   5 -11    5.62    1.67
   1   5  11    6.06    0.69
  -1   5 -11    4.07    1.28
  -1   5 -11    4.31    1.17
   3  -5  11    3.63    1.07
  -3   5 -11    4.14    1.64
  -3   5 -11    4.26    1.24
   3   5  11    3.99    0.67
   5  -5  11    0.34    0.75
   5   5  11    2.21    0.79
  -5   5 -11    2.11    1.65
   7  -5  11    4.32    1.26
   7   5  11    3.09    0.84
  -7   5 -11    5.41    1.70
  16   6 -11    2.85    1.63
 -14  -6  11    1.67    1.44
  14   6 -11    0.23    1.93
  14   6 -11    0.32    1.52
 -12  -6  11    2.84    1.24
  12  -6 -11    1.52    1.40
  12   6 -11   -0.10    1.36
  12   6 -11    2.95    1.86
 -10  -6  11    4.75    1.47
  10  -6 -11   -0.05    1.05
  10   6 -11    4.22    1.87
  10   6 -11    0.45    1.37
  10   6 -11    2.62    0.93
  -8  -6  11    4.33    1.09
   8  -6 -11   -0.46    1.00
   8   6 -11    1.46    2.25
   8   6 -11    0.04    0.89
   8   6 -11    4.10    1.80
  -6  -6  11    2.34    1.11
   6   6 -11    4.34    1.35
  -6   6  11    2.96    0.79
   6   6 -11    3.82    1.68
  -4  -6  11    1.67    1.07
  -4   6  11    2.02    0.47
  -4   6  11    2.76    0.61
   4   6 -11    5.86    1.71
   4   6 -11    1.06    1.39
   4   6 -11   -0.23    1.21
  -2  -6  11    3.01    1.13
   2   6 -11    1.48    1.28
   2   6 -11    5.64    1.63
   0   6 -11   -0.75    2.00
   0   6 -11    0.22    1.67
   2  -6  11    2.39    1.04
   2   6  11    1.22    0.63
  -2   6 -11    3.37    1.77
  -2   6 -11    0.63    1.30
   4  -6  11   -0.31    1.41
  -4   6 -11    2.18    1.84
   4   6  11    1.14    0.74
   6  -6  11    0.74    1.32
  -6   6 -11   -0.93    1.98
 -11  -7  11   -0.50    1.22
  11   7 -11    0.48    3.98
  11   7 -11    0.06    1.62
   9   7 -11    3.38    2.27
   9   7 -11    1.54    1.59
  -7   7  11    2.05    0.91
   7   7 -11    3.44    2.11
   7   7 -11    1.59    1.53
  -5  -7  11    1.40    1.30
   5   7 -11    1.51    1.59
   5   7 -11    1.07    1.97
  -5   7  11    1.25    0.83
  -3  -7  11    0.92    1.15
  -3   7  11    1.59    0.70
   3   7 -11    2.75    1.93
   3   7 -11    3.61    1.92
  -1  -7  11    0.41    1.25
   1   7 -11    1.75    1.71
   1   7 -11    2.51    1.89
   1  -7  11    1.67    1.55
  -1   7 -11    5.70    2.18
  -1   7 -11    2.28    1.77
  20   0 -12    0.20    1.29
  20   0 -12    0.16    1.34
  18   0 -12    0.98    1.17
 -18   0  12    4.30    1.19
  18   0 -12    4.28    1.46
  16   0 -12    0.53    1.25
 -16   0  12    3.97    1.06
  16   0 -12    1.90    1.03
  14   0 -12    0.79    0.92
 -14   0  12    1.62    0.93
  14   0 -12    1.68    1.29
  12   0 -12    1.64    0.84
 -12   0  12    2.24    0.81
  12   0 -12    2.26    1.25
 -10   0  12    5.80    0.85
  10   0 -12    4.52    0.96
  10   0 -12    4.61    1.39
   8   0 -12    4.27    1.36
  -8   0  12    4.95    1.27
   8   0 -12    4.36    0.77
  -8   0  12    4.52    0.73
  -6   0  12    3.59    0.64
   6   0 -12    5.59    1.29
   6   0 -12    5.87    0.80
  -6   0  12    5.12    1.29
   4   0 -12    4.97    0.69
   4   0 -12    6.37    1.39
  -4   0  12    5.76    1.34
  -2   0  12    2.96    1.20
   2   0 -12    2.59    1.23
  -2   0  12    2.63    0.54
   0   0  12    8.21    1.51
   0   0 -12    9.81    1.69
   0   0  12    6.23    0.68
  -2   0 -12    4.95    1.36
   2   0  12    4.01    1.19
   2   0  12    4.47    0.65
   4   0  12    4.99    1.30
   4   0  12    2.27    1.09
   6   0  12    2.71    0.66
   6   0  12    4.82    1.35
   8   0  12    2.86    0.76
   8   0  12    4.96    1.43
  10   0  12    1.24    0.69
  19  -1 -12    1.43    1.38
  19  -1 -12    0.17    1.44
 -19  -1  12    1.08    1.29
  19   1 -12    2.27    1.44
  19   1 -12   -0.11    1.29
 -19   1  12    0.13    1.36
  17  -1 -12    1.47    1.12
 -17  -1  12    2.03    1.13
  17  -1 -12    2.49    1.38
  17   1 -12    1.60    1.33
  17   1 -12    2.48    1.18
 -17   1  12    3.10    1.14
 -15  -1  12    0.86    1.00
  15  -1 -12    3.34    0.95
  15  -1 -12    1.63    1.16
  15   1 -12    2.94    1.26
 -15   1  12    2.33    0.95
  15   1 -12    1.45    0.98
  13  -1 -12    3.47    0.89
  13  -1 -12    2.15    1.23
 -13  -1  12    2.23    0.94
  13   1 -12    5.66    1.56
  13   1 -12    2.98    1.00
 -13   1  12    0.93    0.81
  11  -1 -12    5.00    0.86
  11  -1 -12    4.67    1.29
 -11  -1  12    5.09    0.93
 -11   1  12    3.64    0.83
  11   1 -12    3.81    0.91
  11   1 -12    4.81    1.46
   9  -1 -12    5.45    1.39
   9  -1 -12    2.98    0.76
  -9  -1  12    4.99    0.79
  -9   1  12    5.40    0.79
   9   1 -12    3.35    1.33
   9   1 -12    2.53    0.78
  -7  -1  12    1.93    0.58
  -7  -1  12    1.68    1.32
   7  -1 -12    1.51    1.29
   7  -1 -12    0.96    0.63
  -7   1  12    1.43    0.99
   7   1 -12    0.72    0.68
  -7   1  12    1.61    0.55
   7   1 -12    2.09    1.10
  -5  -1  12   12.26    1.65
   5  -1 -12    8.90    1.56
  -5  -1  12    8.52    0.82
  -5  -1  12    8.69    1.00
   5  -1 -12    9.19    0.73
  -5   1  12    7.98    1.34
   5   1 -12   10.48    1.04
   5   1 -12    9.57    1.55
  -3  -1  12    3.84    1.35
  -3  -1  12    4.20    0.67
   3  -1 -12    5.76    1.37
   3   1 -12    3.69    0.58
  -3   1  12    4.49    1.18
   3   1 -12    3.17    1.18
   3   1 -12    3.86    0.84
  -1  -1  12    4.02    0.66
   1  -1 -12    3.75    1.32
  -1  -1  12    2.74    1.24
  -1   1  12    3.54    1.06
   1   1 -12    3.97    1.34
   1   1 -12    2.08    0.52
   1   1 -12    2.48    0.56
  -1   1  12    3.43    0.47
   1  -1  12    5.75    0.79
   1  -1  12    8.38    1.57
   1   1  12    9.51    1.32
   1   1  12    8.05    0.67
  -1   1 -12    6.66    1.45
   3  -1  12    1.23    1.26
   3  -1  12    2.33    0.75
  -3   1 -12    2.98    1.27
   3   1  12    5.49    1.13
   3   1  12    2.44    0.56
   5  -1  12    3.10    0.68
  -5   1 -12    5.65    1.36
   5   1  12    3.39    0.71
   5   1  12    4.15    1.17
   7  -1  12    3.93    0.83
   7   1  12    4.30    0.79
   7   1  12    4.35    1.27
   9  -1  12    0.29    0.67
   9   1  12    0.52    0.73
 -20  -2  12    0.05    1.78
  20  -2 -12    0.89    1.42
  20   2 -12   -2.15    2.37
  20   2 -12   -1.29    1.50
 -18  -2  12    1.39    1.28
  18  -2 -12    2.40    1.35
  18  -2 -12    2.94    1.27
  18   2 -12    1.82    1.51
  18   2 -12    2.29    1.34
  16  -2 -12    3.73    1.39
  16  -2 -12    4.49    1.26
 -16  -2  12    2.80    1.18
 -16   2  12    3.49    1.02
  16   2 -12    1.70    0.81
  16   2 -12    2.19    1.44
  16   2 -12    2.85    1.17
  14  -2 -12    0.88    0.87
 -14  -2  12    2.19    1.07
  14  -2 -12   -0.58    1.19
  14   2 -12    1.04    1.01
 -14   2  12    1.25    0.81
  14   2 -12    2.14    1.28
  14   2 -12   -0.08    0.61
  12  -2 -12    3.38    0.87
  12  -2 -12    2.20    1.32
 -12  -2  12    1.75    0.95
 -12   2  12    2.21    0.72
  12   2 -12    2.65    1.26
  12   2 -12    3.86    0.99
  12   2 -12    1.06    0.59
 -10  -2  12    4.95    0.95
  10  -2 -12    4.38    1.10
  10  -2 -12    4.45    1.42
 -10   2  12    4.53    0.77
  10   2 -12    4.59    1.41
  10   2 -12    3.44    0.76
  10   2 -12    4.74    0.99
   8  -2 -12    5.62    1.45
   8  -2 -12    2.98    0.73
  -8  -2  12    4.13    0.77
   8   2 -12    5.40    1.42
   8   2 -12    2.62    0.82
  -8   2  12    2.80    0.65
   8   2 -12    2.52    0.78
   6  -2 -12    3.85    0.57
  -6  -2  12    4.14    0.70
  -6  -2  12    5.56    0.87
   6   2 -12    2.53    0.79
  -6   2  12    3.06    1.13
  -6   2  12    3.40    0.66
   6   2 -12    4.75    1.33
   6   2 -12    3.45    1.50
  -4  -2  12    5.68    0.94
   4   2 -12    6.15    1.00
  -4   2  12    5.37    1.17
   4   2 -12    5.00    0.76
   4   2 -12    5.24    0.90
   4   2 -12    5.56    1.38
  -2  -2  12    2.41    0.69
   2   2 -12    2.31    0.79
   2   2 -12    2.82    0.87
   2   2 -12    4.47    1.40
   2   2 -12    2.67    0.60
  -2   2  12    3.03    1.12
   0  -2  12    5.54    0.85
   0   2  12    5.87    1.23
   0   2  12    4.67    0.52
   0   2 -12    4.72    0.70
   0   2 -12    9.10    1.58
   0   2 -12    5.08    1.07
   2  -2  12    4.16    0.79
  -2   2 -12    4.07    1.08
   2   2  12    3.15    0.79
  -2   2 -12    2.20    0.60
  -2   2 -12    3.50    0.64
   2   2  12    3.38    1.00
  -2   2 -12    4.70    1.33
   4  -2  12    2.39    0.68
  -4   2 -12    2.75    0.64
   4   2  12    3.23    0.62
  -4   2 -12    1.85    0.61
  -4   2 -12    2.10    1.27
   4   2  12    0.92    1.03
   6  -2  12    3.35    0.83
  -6   2 -12    2.85    0.63
   6   2  12    0.23    1.02
   6   2  12    2.63    0.71
  -6   2 -12    3.58    1.46
   8  -2  12    0.91    0.67
   8   2  12    4.38    1.25
   8   2  12    1.48    0.79
 -19  -3  12    0.32    1.51
  19  -3 -12    0.65    2.64
  19   3 -12   -0.61    1.66
  19   3 -12   -0.41    1.97
 -17  -3  12    3.82    1.37
  17  -3 -12    1.13    1.16
  17   3 -12    0.27    1.16
  17   3 -12    0.77    1.58
  17   3 -12    1.03    1.34
 -15  -3  12    4.17    1.22
  15  -3 -12    0.62    0.94
 -15   3  12   -0.94    0.82
  15   3 -12   -0.42    1.17
  15   3 -12    0.03    1.33
  15   3 -12    0.73    0.71
  13  -3 -12    2.35    0.89
 -13  -3  12    1.28    1.04
  13   3 -12    0.66    0.72
  13   3 -12    2.36    1.54
  13   3 -12    3.10    1.13
 -13   3  12    1.52    0.82
 -11  -3  12    5.32    1.16
  11  -3 -12    4.12    0.84
 -11   3  12    4.19    0.78
  11   3 -12    2.90    1.10
  11   3 -12    3.17    1.50
  -9  -3  12    2.80    0.88
   9  -3 -12    5.26    1.46
  -9   3  12    3.11    0.66
   9   3 -12    2.02    0.99
   9   3 -12    2.19    0.79
   9   3 -12    4.32    1.45
  -7  -3  12    1.64    0.68
   7  -3 -12    1.43    0.52
   7   3 -12    1.69    1.24
  -7   3  12    1.60    0.51
   7   3 -12    0.67    0.77
   7   3 -12    0.14    0.86
  -5  -3  12    6.78    1.17
   5   3 -12    5.48    0.99
   5   3 -12    9.22    1.63
   5   3 -12    6.48    1.05
  -3  -3  12    2.41    0.92
   3   3 -12    3.96    0.99
   3   3 -12    1.02    0.78
   3   3 -12    2.09    0.59
   3   3 -12    3.15    1.29
  -3   3  12    2.91    1.33
  -1  -3  12    1.99    0.81
   1   3 -12    2.09    1.00
   1   3 -12    2.99    0.91
  -1   3  12    3.35    1.18
   1   3 -12    2.62    1.34
   1  -3  12    4.74    0.86
  -1   3 -12    4.82    1.28
  -1   3 -12    5.36    1.58
   1   3  12    5.34    0.59
   1   3  12    2.87    1.17
   3  -3  12    0.20    0.64
  -3   3 -12    0.59    1.15
  -3   3 -12   -0.63    1.25
  -3   3 -12    1.46    0.94
  -3   3 -12    3.22    0.92
   3   3  12    1.91    1.04
   3   3  12    1.79    0.55
   5  -3  12    2.14    0.72
  -5   3 -12    1.25    0.81
   5   3  12    3.58    0.84
  -5   3 -12    2.38    1.55
   7  -3  12    4.26    0.95
  -7   3 -12    2.47    0.90
   7   3  12    3.94    1.20
   7   3  12    2.96    0.73
  -7   3 -12    3.18    1.55
  18   4 -12   -0.08    1.41
  18   4 -12    2.66    2.37
  16  -4 -12    2.53    1.33
 -16  -4  12    1.25    1.40
  16   4 -12    0.29    1.32
  16   4 -12    1.55    1.79
 -14  -4  12    2.15    1.25
  14  -4 -12    1.85    1.06
  14   4 -12   -0.03    0.72
  14   4 -12    1.72    1.59
  14   4 -12   -0.02    1.46
  12  -4 -12    1.17    0.96
 -12  -4  12    1.72    1.08
 -12   4  12    0.49    0.83
  12   4 -12    2.04    0.79
  12   4 -12    3.10    1.25
  12   4 -12    2.46    1.53
 -10  -4  12    2.68    1.13
  10  -4 -12    2.18    0.83
  10   4 -12    0.59    0.80
  10   4 -12    3.52    1.53
  10   4 -12    1.43    1.13
 -10   4  12    1.52    0.66
  -8  -4  12    4.01    0.95
   8   4 -12    2.97    1.40
   8   4 -12    1.87    1.08
   8   4 -12    1.73    0.90
  -8   4  12    2.17    0.81
  -6  -4  12    1.50    0.95
   6  -4 -12    2.64    0.64
   6   4 -12    3.62    1.53
   6   4 -12    2.10    0.93
   6   4 -12    1.15    1.09
  -4  -4  12    3.43    1.36
   4   4 -12    4.62    0.83
   4   4 -12    5.57    1.72
   4   4 -12    3.59    1.02
   4   4 -12    2.86    1.04
  -2  -4  12    3.07    0.87
   2   4 -12    1.20    0.73
   2   4 -12    1.19    1.09
   2   4 -12    3.31    1.51
   0  -4  12    3.29    0.92
   0   4 -12    2.12    1.11
   0   4 -12    4.07    0.91
   0   4 -12    7.26    1.70
   0   4 -12    3.88    1.27
   2  -4  12    2.50    0.78
  -2   4 -12    2.07    0.90
  -2   4 -12    4.04    1.55
  -2   4 -12    0.32    1.25
   2   4  12    2.06    0.51
  -2   4 -12    4.52    1.36
   4  -4  12    2.86    0.88
   4   4  12    2.33    0.59
  -4   4 -12    2.58    1.57
   6  -4  12    0.84    0.94
   6   4  12    0.79    0.66
  -6   4 -12   -0.49    1.55
 -15  -5  12    1.89    2.18
  15   5 -12    4.24    1.58
  15   5 -12   -0.01    1.94
 -13  -5  12    0.81    1.26
  13   5 -12    3.05    1.51
  13   5 -12    2.85    1.85
  13   5 -12    0.62    0.88
 -11  -5  12    3.31    1.20
  11   5 -12    2.65    1.75
  11   5 -12    1.58    1.66
  -9  -5  12    3.02    1.04
   9   5 -12    1.85    1.61
   9   5 -12    1.73    1.27
   9   5 -12    0.39    0.81
  -7   5  12    0.92    0.57
   7   5 -12    1.30    0.92
   7   5 -12    0.34    1.20
   7   5 -12    2.21    1.63
  -5  -5  12    2.83    0.94
   5   5 -12    1.50    0.97
   5   5 -12    3.41    1.22
   5   5 -12    3.61    1.60
  -3  -5  12    2.97    1.63
   3   5 -12    1.66    1.14
   3   5 -12    1.26    1.56
   3   5 -12    1.12    1.21
  -1  -5  12    1.16    0.89
   1   5 -12    2.29    1.67
   1   5 -12    2.94    1.30
  -1   5 -12    5.30    1.84
   3  -5  12    0.43    0.90
  -3   5 -12   -0.58    1.67
   3   5  12    1.74    0.96
   5  -5  12    0.17    0.98
   5   5  12    0.84    0.66
  -5   5 -12    0.26    1.94
  12   6 -12   -0.07    1.57
  10   6 -12    0.89    2.12
  10   6 -12    2.87    1.65
   8   6 -12    2.67    1.93
   8   6 -12    2.13    2.95
  -6  -6  12    2.14    1.26
   6   6 -12    6.62    2.49
   6   6 -12   -1.38    1.38
  -6   6  12    0.98    0.91
  -4  -6  12    2.68    1.13
   4   6 -12    1.21    1.85
   4   6 -12    0.93    1.46
   2   6 -12    2.42    1.77
   2   6 -12    1.71    1.52
   0  -6  12    2.93    1.23
   0   6 -12    0.55    1.76
   2  -6  12    1.95    1.25
  -2   6 -12    1.28    1.96
  18   0 -13    0.68    1.37
  18   0 -13    0.75    1.56
  16   0 -13    0.63    1.11
  16   0 -13    0.40    1.41
  14   0 -13    2.74    1.57
 -14   0  13    1.28    0.99
  14   0 -13    0.87    1.01
  12   0 -13    2.32    0.95
 -12   0  13    4.23    1.02
  12   0 -13    2.71    1.49
  10   0 -13    2.91    0.88
 -10   0  13    3.81    0.83
  10   0 -13    3.84    1.41
   8   0 -13    2.86    1.33
  -8   0  13    1.85    0.63
   8   0 -13    1.02    0.84
   6   0 -13    3.37    0.79
  -6   0  13    5.71    0.90
   6   0 -13    7.47    1.67
   4   0 -13    5.93    0.75
   4   0 -13    7.91    1.80
   4   0 -13    5.86    0.72
  -2   0  13    2.62    1.55
   2   0 -13    4.61    1.48
  -2   0  13    2.59    0.55
   0   0 -13    6.75    1.62
   0   0  13    8.93    1.64
   0   0  13    5.32    0.74
   2   0  13    9.66    1.70
   2   0  13    5.88    0.83
   4   0  13    3.12    0.64
   4   0  13    1.47    1.42
   6   0  13    6.23    1.62
   6   0  13    7.25    1.27
  19  -1 -13   -1.42    1.61
  19   1 -13    3.00    1.81
  17  -1 -13    1.96    1.19
  17  -1 -13    0.29    1.62
  17   1 -13    5.15    1.67
  17   1 -13    0.99    1.31
  15  -1 -13    2.19    1.06
  15  -1 -13   -1.28    1.30
  15   1 -13    1.32    1.49
  15   1 -13    1.23    1.16
  13  -1 -13    1.01    0.90
 -13  -1  13   -0.04    0.95
  13  -1 -13    0.12    1.36
 -13   1  13   -0.28    0.82
  13   1 -13    2.38    1.40
  13   1 -13    1.34    1.00
 -11  -1  13    5.50    1.02
  11  -1 -13    4.18    0.94
  11  -1 -13    5.36    1.62
  11   1 -13    4.78    1.62
 -11   1  13    4.08    0.84
  11   1 -13    4.28    0.99
  -9  -1  13    2.10    0.70
   9  -1 -13    3.20    0.93
   9  -1 -13    2.91    1.32
   9   1 -13    2.88    0.83
   9   1 -13    0.89    1.32
  -9   1  13    1.55    0.67
   7  -1 -13    4.74    1.54
  -7  -1  13    3.45    0.63
   7  -1 -13    2.75    0.62
  -7   1  13    3.16    0.60
   7   1 -13    2.47    1.31
   7   1 -13    2.54    0.85
  -5  -1  13    6.70    0.97
   5  -1 -13    7.06    1.74
   5  -1 -13    4.31    0.66
   5   1 -13    5.83    1.58
  -3  -1  13    2.92    0.72
   3  -1 -13    3.65    1.37
   3   1 -13    3.45    0.61
   3   1 -13    3.78    1.40
   3   1 -13    3.14    0.61
  -1  -1  13    5.08    0.76
  -1  -1  13    5.23    1.61
  -1   1  13    4.14    0.60
   1   1 -13    4.23    1.36
   1   1 -13    3.92    0.85
   1  -1  13    5.10    0.90
   1  -1  13    7.03    1.69
   1   1  13    5.68    0.70
   1   1  13    7.57    1.75
  -1   1 -13    8.84    1.78
   3  -1  13    2.02    0.68
   3   1  13    5.21    1.43
   3   1  13    2.01    0.58
  -3   1 -13    2.96    1.53
   5  -1  13    6.01    0.99
   5   1  13    6.76    0.91
   7  -1  13    1.99    0.71
   7   1  13    2.19    0.72
  18  -2 -13   -0.86    1.60
  18   2 -13   -1.57    1.71
  18   2 -13   -0.83    1.45
  16  -2 -13    2.51    1.45
  16  -2 -13    2.29    1.46
  16   2 -13    1.38    1.33
  16   2 -13    1.64    1.75
 -14  -2  13    1.58    1.65
  14  -2 -13    0.42    0.99
  14  -2 -13    3.67    1.62
  14   2 -13    0.36    1.07
  14   2 -13    1.62    1.46
  12  -2 -13    2.33    1.50
  12  -2 -13    2.18    0.95
 -12  -2  13    3.80    1.00
  12   2 -13    2.53    1.44
  12   2 -13    2.25    1.09
  12   2 -13    3.35    0.75
 -12   2  13    5.60    1.31
  10  -2 -13    2.84    0.92
  10  -2 -13    2.99    1.43
 -10  -2  13    3.25    0.90
  10   2 -13    3.53    0.95
 -10   2  13    3.84    0.85
  10   2 -13    4.73    1.59
  10   2 -13    2.88    0.79
  -8  -2  13    1.85    0.70
   8  -2 -13    0.13    0.73
  -8   2  13    2.25    0.73
   8   2 -13    2.23    0.96
   8   2 -13    0.74    0.84
   8   2 -13    3.85    1.43
   6  -2 -13    4.26    0.60
  -6  -2  13    4.91    0.94
   6   2 -13    7.03    1.22
   6   2 -13    6.29    1.53
  -4  -2  13    5.45    0.93
   4   2 -13    6.07    1.05
   4   2 -13    6.50    1.62
   4   2 -13    4.51    1.29
  -2  -2  13    1.71    0.79
   2   2 -13    2.33    1.39
   2   2 -13    2.98    1.00
   0  -2  13    4.56    0.85
   0   2 -13    5.60    1.59
   0   2 -13    3.17    0.72
   2  -2  13    5.18    0.88
  -2   2 -13    4.79    0.76
   2   2  13    4.01    0.62
  -2   2 -13    4.58    1.51
   4  -2  13    1.51    0.69
  -4   2 -13    2.19    1.51
   6  -2  13    4.87    0.94
   6   2  13    3.10    0.69
  -6   2 -13    6.40    1.77
  17   3 -13    1.18    1.53
  15   3 -13    3.33    1.71
  15   3 -13    1.07    1.33
  13   3 -13   -0.50    1.15
  13   3 -13    0.66    1.01
  13   3 -13    1.32    1.63
 -11  -3  13    2.07    1.11
  11   3 -13    3.14    1.62
  11   3 -13    2.05    0.87
  11   3 -13    3.39    1.18
  -9  -3  13    3.35    0.84
   9   3 -13    3.82    1.61
   9   3 -13    1.10    0.85
   9   3 -13    1.09    1.04
  -7  -3  13    2.55    0.75
   7  -3 -13    1.84    0.65
   7   3 -13    1.33    1.00
   7   3 -13    2.23    1.00
   7   3 -13    1.82    1.40
  -5  -3  13    4.14    1.06
   5   3 -13    2.52    0.98
   5   3 -13    3.34    1.52
   5   3 -13    3.35    1.10
  -3  -3  13    3.98    0.93
   3   3 -13    2.95    1.46
   3   3 -13    4.27    1.15
   3   3 -13    2.14    1.32
   3   3 -13    2.81    0.75
  -1  -3  13    4.35    1.37
   1   3 -13    2.84    1.53
   1   3 -13    1.50    0.78
   1  -3  13    4.45    0.91
  -1   3 -13    4.41    1.37
   1   3  13    5.24    0.59
  -1   3 -13    4.10    1.68
  -1   3 -13    2.88    0.89
   3  -3  13    1.85    0.77
   3   3  13    0.92    0.51
  -3   3 -13    1.51    0.90
  -3   3 -13    3.07    1.58
   5  -3  13    1.97    0.84
  -5   3 -13    0.78    1.71
   5   3  13    2.78    0.70
  14   4 -13   -0.97    1.59
  14   4 -13   -2.46    1.89
  12   4 -13    0.81    0.86
  12   4 -13    0.72    1.39
  12   4 -13    0.31    1.78
  10   4 -13    1.86    1.83
  10   4 -13    0.83    1.27
  10   4 -13    0.62    0.85
   8   4 -13    2.66    1.19
   8   4 -13    0.56    0.95
   8   4 -13    0.78    1.64
  -6  -4  13    2.47    1.03
   6   4 -13    2.15    1.14
   6   4 -13    4.52    1.76
  -4  -4  13    2.32    0.96
   4   4 -13    1.16    1.24
   4   4 -13    4.04    1.58
  -2  -4  13    2.03    0.95
   2   4 -13    2.82    1.27
   2   4 -13    0.94    1.45
   0  -4  13    3.31    1.01
   0   4 -13    2.86    1.61
   0   4 -13    3.02    1.56
   2  -4  13    2.38    0.89
  -2   4 -13    1.94    1.69
  11   5 -13    7.29    2.89
   9   5 -13    0.59    1.46
   9   5 -13   -1.01    0.95
   9   5 -13    1.38    1.84
   7   5 -13    1.02    1.76
   7   5 -13   -0.28    1.46
   7   5 -13    1.67    1.18
  -5  -5  13    1.59    0.95
   5   5 -13   -2.25    1.66
   5   5 -13    0.27    1.33
  -3  -5  13   -0.10    0.95
   3   5 -13    3.06    1.87
  -1  -5  13    2.13    1.07
   1   5 -13    0.57    1.64
  14   0 -14    2.53    1.85
  12   0 -14    2.68    1.68
  10   0 -14    2.88    1.63
   8   0 -14    3.82    1.63
   6   0 -14    5.56    1.78
   4   0 -14    3.69    1.54
   2   0 -14    3.29    1.62
   0   0  14    5.35    0.81
   0   0 -14    4.29    1.66
   2   0  14    1.23    0.64
  15  -1 -14    3.09    2.15
  15   1 -14    1.31    2.12
  13  -1 -14    2.09    1.86
  13   1 -14    4.14    1.70
  11  -1 -14    6.08    2.02
  11   1 -14    2.36    1.66
   9  -1 -14    5.55    1.84
   9   1 -14    2.20    1.71
   7  -1 -14    4.61    1.82
   7   1 -14    8.39    1.82
  -5  -1  14    9.94    1.12
   5  -1 -14    8.25    1.99
   5   1 -14    7.76    1.90
  -3  -1  14    2.67    0.75
   3   1 -14    2.35    0.68
   3   1 -14    4.28    1.72
  -1  -1  14    2.92    0.74
  -1   1  14    2.74    0.58
   1   1 -14    4.43    1.66
   1  -1  14    3.86    0.76
  -1   1 -14    4.56    1.79
   1   1  14    2.94    0.67
   3  -1  14    0.61    0.66
   3   1  14    2.39    0.63
  14   2 -14    0.02    2.29
  12   2 -14    2.84    1.74
  10   2 -14    4.24    1.84
   8   2 -14    2.50    1.60
   6   2 -14    4.54    0.82
   6   2 -14    5.17    1.66
  -4  -2  14    3.14    0.90
   4   2 -14    2.08    1.23
   4   2 -14    4.23    0.77
   4   2 -14    2.01    1.50
  -2  -2  14    2.03    0.98
   2   2 -14    1.43    0.78
   2   2 -14    3.67    1.73
   0  -2  14    3.95    0.82
   0   2 -14    4.03    1.66
   2  -2  14    1.63    0.75
  -2   2 -14    3.05    1.73
  11   3 -14    2.58    1.93
   9   3 -14    3.20    1.71
   7   3 -14    4.18    1.77
   5   3 -14    5.03    1.55
   5   3 -14    6.22    1.80
  -3  -3  14    2.48    0.95
   3   3 -14    3.85    1.83
  -1  -3  14    3.06    1.03
   1   3 -14    3.12    1.81
   1   3 -14   -0.67    1.33
   8   4 -14    2.99    2.03
  -6  -4  14    2.94    1.09
   6   4 -14    0.56    1.74
  -4  -4  14    0.52    1.00
   4   4 -14    3.30    1.73
   4   4 -14    0.59    1.74
   8   0 -15    1.34    1.94
   6   0 -15    1.77    1.97
   4   0 -15   -0.89    1.90
   7  -1 -15    4.19    2.13
   7   1 -15    0.42    1.73
   5   1 -15    1.95    1.76
   0   0   0    0.00    0.00
;
_shelx_hkl_checksum              50221
loop_
_space_group_symop_operation_xyz
'x, y, z'
'-x, y, -z'
'x+1/2, y+1/2, z'
'-x+1/2, y+1/2, -z'
'-x, -y, -z'
'x, -y, z'
'-x+1/2, -y+1/2, -z'
'x+1/2, -y+1/2, z'
loop_
_atom_site_label
_atom_site_type_symbol
_atom_site_fract_x
_atom_site_fract_y
_atom_site_fract_z
_atom_site_U_iso_or_equiv
_atom_site_adp_type
_atom_site_occupancy
_atom_site_site_symmetry_order
_atom_site_calc_flag
_atom_site_refinement_flags_posn
_atom_site_refinement_flags_adp
_atom_site_refinement_flags_occupancy
_atom_site_disorder_assembly
_atom_site_disorder_group
C1 C 0.8155(5) 0.0000 0.3057(7) 0.0701(16) Uani 1 2 d S T P . .
H1 H 0.8422 0.0000 0.4098 0.084 Uiso 1 2 calc R U P . .
C2 C 0.8663(4) 0.0000 0.2052(7) 0.0630(13) Uani 1 2 d S T P . .
H2 H 0.9272 0.0000 0.2389 0.076 Uiso 1 2 calc R U P . .
C3 C 0.8238(3) 0.0000 0.0525(6) 0.0499(9) Uani 1 2 d S T P . .
C4 C 0.7330(3) 0.0000 0.0006(6) 0.0517(10) Uani 1 2 d S T P . .
H4 H 0.7049 0.0000 -0.1029 0.062 Uiso 1 2 calc R U P . .
C5 C 0.6860(3) 0.0000 0.1076(6) 0.0564(11) Uani 1 2 d S T P . .
H5 H 0.6250 0.0000 0.0768 0.068 Uiso 1 2 calc R U P . .
N1 N 0.7275(4) 0.0000 0.2553(6) 0.0629(11) Uani 1 2 d DS T P . .
O1 O 1.0000 0.2417(7) 0.5000 0.0753(12) Uani 1 2 d S T P A .
Cl2 Cl 1.17584(7) 0.5000 0.56887(14) 0.0601(3) Uani 1 2 d S T P A .
Cl3 Cl 0.88369(11) 0.0000 -0.0780(2) 0.0849(5) Uani 1 2 d S T P . .
Pu1 Pu 1.0000 0.5000 0.5000 0.03709(7) Uani 1 4 d S T P . .
Cl1A Cl 0.99257(16) 0.5000 0.2077(3) 0.0450(3) Uiso 0.491(5) 2 d S . P A 1
Cl1B Cl 0.9946(2) 0.5762(7) 0.2119(4) 0.0450(3) Uiso 0.254(2) 1 d . . P A 2
HN1 H 0.688(3) 0.0000 0.308(6) 0.054 Uiso 1 2 d DS U P . .
loop_
_atom_site_aniso_label
_atom_site_aniso_U_11
_atom_site_aniso_U_22
_atom_site_aniso_U_33
_atom_site_aniso_U_23
_atom_site_aniso_U_13
_atom_site_aniso_U_12
C1 0.082(4) 0.067(3) 0.050(3) 0.000 0.000(3) 0.000
C2 0.047(2) 0.067(3) 0.064(3) 0.000 -0.005(2) 0.000
C3 0.0385(19) 0.052(2) 0.057(2) 0.000 0.0097(17) 0.000
C4 0.0375(19) 0.065(3) 0.051(2) 0.000 0.0085(16) 0.000
C5 0.042(2) 0.066(3) 0.063(3) 0.000 0.0152(19) 0.000
N1 0.077(3) 0.059(3) 0.058(2) 0.000 0.028(2) 0.000
O1 0.060(2) 0.057(2) 0.096(3) 0.000 -0.002(2) 0.000
Cl2 0.0380(5) 0.0931(9) 0.0464(5) 0.000 0.0061(4) 0.000
Cl3 0.0549(7) 0.1136(14) 0.0966(12) 0.000 0.0385(8) 0.000
Pu1 0.02982(10) 0.04698(13) 0.03182(10) 0.000 0.00352(6) 0.000
loop_
_atom_type_symbol
_atom_type_description
_atom_type_scat_dispersion_real
_atom_type_scat_dispersion_imag
_atom_type_scat_source
C C 0.0015 0.0009 'International Tables Vol C Tables 4.2.6.8 and 6.1.1.4'
H H 0.0000 0.0000 'International Tables Vol C Tables 4.2.6.8 and 6.1.1.4'
N N 0.0030 0.0019 'International Tables Vol C Tables 4.2.6.8 and 6.1.1.4'
O O 0.0056 0.0036 'International Tables Vol C Tables 4.2.6.8 and 6.1.1.4'
Cl Cl 0.0998 0.0984 'International Tables Vol C Tables 4.2.6.8 and 6.1.1.4'
Pu Pu -13.5905 6.9468 'International Tables Vol C Tables 4.2.6.8 and 6.1.1.4'
loop_
_geom_angle_atom_site_label_1
_geom_angle_atom_site_label_2
_geom_angle_atom_site_label_3
_geom_angle
_geom_angle_site_symmetry_1
_geom_angle_site_symmetry_3
N1 C1 C2 120.6(5) . .
N1 C1 H1 119.7 . .
C2 C1 H1 119.7 . .
C1 C2 C3 117.5(5) . .
C1 C2 H2 121.3 . .
C3 C2 H2 121.3 . .
C2 C3 C4 121.9(5) . .
C2 C3 Cl3 119.6(4) . .
C4 C3 Cl3 118.6(4) . .
C5 C4 C3 117.6(5) . .
C5 C4 H4 121.2 . .
C3 C4 H4 121.2 . .
N1 C5 C4 120.3(5) . .
N1 C5 H5 119.9 . .
C4 C5 H5 119.9 . .
C5 N1 C1 122.2(5) . .
C5 N1 HN1 109(4) . .
C1 N1 HN1 129(4) . .
O1 Pu1 O1 180.0 5_766 .
O1 Pu1 Cl1A 90.0 5_766 .
O1 Pu1 Cl1A 90.0 . .
O1 Pu1 Cl1A 90.0 5_766 5_766
O1 Pu1 Cl1A 90.0 . 5_766
Cl1A Pu1 Cl1A 180.00(11) . 5_766
O1 Pu1 Cl1B 78.90(10) 5_766 .
O1 Pu1 Cl1B 101.10(10) . .
O1 Pu1 Cl1B 101.10(10) 5_766 6_565
O1 Pu1 Cl1B 78.90(10) . 6_565
Cl1B Pu1 Cl1B 22.19(19) . 6_565
O1 Pu1 Cl1B 78.90(10) 5_766 2_756
O1 Pu1 Cl1B 101.10(10) . 2_756
Cl1B Pu1 Cl1B 157.81(19) . 2_756
Cl1B Pu1 Cl1B 180.0 6_565 2_756
O1 Pu1 Cl1B 101.10(10) 5_766 5_766
O1 Pu1 Cl1B 78.90(10) . 5_766
Cl1B Pu1 Cl1B 180.0 . 5_766
Cl1B Pu1 Cl1B 157.81(19) 6_565 5_766
Cl1B Pu1 Cl1B 22.19(19) 2_756 5_766
O1 Pu1 Cl2 90.000(1) 5_766 5_766
O1 Pu1 Cl2 90.000(2) . 5_766
Cl1A Pu1 Cl2 89.88(6) . 5_766
Cl1A Pu1 Cl2 90.12(6) 5_766 5_766
Cl1B Pu1 Cl2 90.54(7) . 5_766
Cl1B Pu1 Cl2 90.54(7) 6_565 5_766
Cl1B Pu1 Cl2 89.46(7) 2_756 5_766
Cl1B Pu1 Cl2 89.46(7) 5_766 5_766
O1 Pu1 Cl2 90.000(1) 5_766 .
O1 Pu1 Cl2 90.000(1) . .
Cl1A Pu1 Cl2 90.12(6) . .
Cl1A Pu1 Cl2 89.88(6) 5_766 .
Cl1B Pu1 Cl2 89.46(7) . .
Cl1B Pu1 Cl2 89.46(7) 6_565 .
Cl1B Pu1 Cl2 90.54(7) 2_756 .
Cl1B Pu1 Cl2 90.54(7) 5_766 .
Cl2 Pu1 Cl2 180.0 5_766 .
Cl1B Cl1B Pu1 78.91(10) 6_565 .
loop_
_geom_bond_atom_site_label_1
_geom_bond_atom_site_label_2
_geom_bond_distance
_geom_bond_site_symmetry_2
C1 N1 1.344(9) .
C1 C2 1.368(9) .
C1 H1 0.9300 .
C2 C3 1.375(7) .
C2 H2 0.9300 .
C3 C4 1.387(6) .
C3 Cl3 1.705(5) .
C4 C5 1.373(7) .
C4 H4 0.9300 .
C5 N1 1.331(8) .
C5 H5 0.9300 .
N1 HN1 0.880(19) .
O1 Pu1 1.732(4) .
Cl2 Pu1 2.6814(12) .
Pu1 O1 1.732(4) 5_766
Pu1 Cl1A 2.634(2) .
Pu1 Cl1A 2.634(2) 5_766
Pu1 Cl1B 2.653(3) .
Pu1 Cl1B 2.653(3) 6_565
Pu1 Cl1B 2.653(3) 2_756
Pu1 Cl1B 2.653(3) 5_766
Pu1 Cl2 2.6814(12) 5_766
Cl1B Cl1B 1.021(9) 6_565
loop_
_geom_hbond_atom_site_label_D
_geom_hbond_atom_site_label_H
_geom_hbond_atom_site_label_A
_geom_hbond_distance_DH
_geom_hbond_distance_HA
_geom_hbond_distance_DA
_geom_hbond_angle_DHA
_geom_hbond_site_symmetry_A
C4 H4 Cl2 0.93 2.90 3.795(5) 161.4 3_444
C5 H5 Cl1A 0.93 2.67 3.414(6) 137.6 3_445
C5 H5 Cl1A 0.93 2.76 3.452(6) 132.0 7_655
C5 H5 Cl1B 0.93 2.71 3.440(6) 135.6 3_445
C5 H5 Cl1B 0.93 2.85 3.532(6) 131.3 7_655
C5 H5 Cl1B 0.93 2.85 3.532(6) 131.3 4_645
C5 H5 Cl1B 0.93 2.71 3.440(6) 135.6 8_455
N1 HN1 Cl2 0.880(19) 2.44(4) 3.172(5) 141(5) 3_445
N1 HN1 Cl1A 0.880(19) 2.98(5) 3.622(6) 131(5) 3_445
C4 H4 Cl2 0.93 2.90 3.795(5) 161.4 3_444
C5 H5 Cl1A 0.93 2.67 3.414(6) 137.6 3_445
C5 H5 Cl1A 0.93 2.76 3.452(6) 132.0 7_655
C5 H5 Cl1B 0.93 2.71 3.440(6) 135.6 3_445
C5 H5 Cl1B 0.93 2.85 3.532(6) 131.3 7_655
C5 H5 Cl1B 0.93 2.85 3.532(6) 131.3 4_645
C5 H5 Cl1B 0.93 2.71 3.440(6) 135.6 8_455
N1 HN1 Cl2 0.880(19) 2.44(4) 3.172(5) 141(5) 3_445
N1 HN1 Cl1A 0.880(19) 2.98(5) 3.622(6) 131(5) 3_445
loop_
_geom_torsion_atom_site_label_1
_geom_torsion_atom_site_label_2
_geom_torsion_atom_site_label_3
_geom_torsion_atom_site_label_4
_geom_torsion
N1 C1 C2 C3 0.000(1)
C1 C2 C3 C4 0.000(0)
C1 C2 C3 Cl3 180.000(0)
C2 C3 C4 C5 0.000(0)
Cl3 C3 C4 C5 180.000(0)
C3 C4 C5 N1 0.000(0)
C4 C5 N1 C1 0.000(1)
C2 C1 N1 C5 0.000(1)
