#------------------------------------------------------------------------------
#$Date: 2017-11-11 02:29:37 +0200 (Sat, 11 Nov 2017) $
#$Revision: 203087 $
#$URL: file:///home/coder/svn-repositories/cod/cif/4/12/67/4126720.cif $
#------------------------------------------------------------------------------
#
# This file is available in the Crystallography Open Database (COD),
# http://www.crystallography.net/
#
# All data on this site have been placed in the public domain by the
# contributors.
#
data_4126720
loop_
_publ_author_name
'Xiao, Chengliang'
'Hassanzadeh Fard, Zohreh'
'Sarma, Debajit'
'Song, Tze-Bin'
'Xu, Chao'
'Kanatzidis, Mercouri G.'
_publ_section_title
;
 Highly Efficient Separation of Trivalent Minor Actinides by a Layered
 Metal Sulfide (KInSn2S6) from Acidic Radioactive Waste.
;
_journal_name_full               'Journal of the American Chemical Society'
_journal_paper_doi               10.1021/jacs.7b10464
_journal_year                    2017
_chemical_formula_sum            'In K S6 Sn2'
_chemical_formula_weight         583.66
_space_group_crystal_system      trigonal
_space_group_IT_number           166
_space_group_name_Hall           '-R 3 2"'
_space_group_name_H-M_alt        'R -3 m :H'
_symmetry_space_group_name_Hall  '-R 3 2"'
_symmetry_space_group_name_H-M   'R -3 m :H'
_audit_creation_method           SHELXL-2014/6
_cell_angle_alpha                90
_cell_angle_beta                 90
_cell_angle_gamma                120
_cell_formula_units_Z            1
_cell_length_a                   3.68030(10)
_cell_length_b                   3.68030(10)
_cell_length_c                   26.1276(16)
_cell_measurement_reflns_used    6906
_cell_measurement_temperature    100(2)
_cell_measurement_theta_max      52.142
_cell_measurement_theta_min      2.339
_cell_volume                     306.48(2)
_computing_cell_refinement       'Bruker SMART'
_computing_data_collection       'Bruker SMART'
_computing_data_reduction        'Bruker SAINT'
_computing_molecular_graphics    'Bruker SHELXTL'
_computing_publication_material  'Bruker SHELXTL'
_computing_structure_refinement  'SHELXL-2014/6 (Sheldrick, 2014)'
_computing_structure_solution    'Bruker SHELXTL'
_diffrn_ambient_temperature      100(2)
_diffrn_measured_fraction_theta_full 0.990
_diffrn_measured_fraction_theta_max 0.992
_diffrn_measurement_device_type  'CCD area detector'
_diffrn_measurement_method       'phi and omega scans'
_diffrn_radiation_type           MoK\a
_diffrn_radiation_wavelength     0.71073
_diffrn_reflns_av_R_equivalents  0.0383
_diffrn_reflns_av_unetI/netI     0.0138
_diffrn_reflns_Laue_measured_fraction_full 0.990
_diffrn_reflns_Laue_measured_fraction_max 0.992
_diffrn_reflns_limit_h_max       4
_diffrn_reflns_limit_h_min       -4
_diffrn_reflns_limit_k_max       4
_diffrn_reflns_limit_k_min       -4
_diffrn_reflns_limit_l_max       33
_diffrn_reflns_limit_l_min       -33
_diffrn_reflns_number            2654
_diffrn_reflns_point_group_measured_fraction_full 0.990
_diffrn_reflns_point_group_measured_fraction_max 0.992
_diffrn_reflns_theta_full        25.242
_diffrn_reflns_theta_max         27.864
_diffrn_reflns_theta_min         4.681
_exptl_absorpt_coefficient_mu    7.208
_exptl_absorpt_correction_T_max  0.478
_exptl_absorpt_correction_T_min  0.237
_exptl_absorpt_correction_type   multi-scan
_exptl_absorpt_process_details   SADABS
_exptl_crystal_colour            yellow
_exptl_crystal_density_diffrn    3.162
_exptl_crystal_description       sheet
_exptl_crystal_F_000             264
_exptl_crystal_size_max          0.280
_exptl_crystal_size_mid          0.280
_exptl_crystal_size_min          0.120
_refine_diff_density_max         3.000
_refine_diff_density_min         -0.510
_refine_diff_density_rms         0.367
_refine_ls_extinction_method     none
_refine_ls_goodness_of_fit_ref   1.091
_refine_ls_hydrogen_treatment    undef
_refine_ls_matrix_type           full
_refine_ls_number_parameters     13
_refine_ls_number_reflns         124
_refine_ls_number_restraints     12
_refine_ls_restrained_S_all      1.064
_refine_ls_R_factor_all          0.0308
_refine_ls_R_factor_gt           0.0308
_refine_ls_shift/su_max          0.000
_refine_ls_shift/su_mean         0.000
_refine_ls_structure_factor_coef Fsqd
_refine_ls_weighting_details
'w=1/[\s^2^(Fo^2^)+(0.0999P)^2^+2.7784P] where P=(Fo^2^+2Fc^2^)/3'
_refine_ls_weighting_scheme      calc
_refine_ls_wR_factor_gt          0.1090
_refine_ls_wR_factor_ref         0.1090
_reflns_Friedel_coverage         0.000
_reflns_number_gt                124
_reflns_number_total             124
_reflns_threshold_expression     'I > 2\s(I)'
_cod_data_source_file            ja7b10464_si_002.cif
_cod_data_source_block           DS2112D
_cod_original_cell_volume        306.48(3)
_cod_database_code               4126720
_shelx_space_group_comment
; 
The symmetry employed for this shelxl refinement is uniquely defined 
by the following loop, which should always be used as a source of 
symmetry information in preference to the above space-group names. 
They are only intended as comments. 
;
_shelx_estimated_absorpt_t_min   0.237
_shelx_estimated_absorpt_t_max   0.478
_shelxl_version_number           2014/6
_shelx_res_file
; 
TITL DS2112D in R-3m 
CELL  0.71073    3.6803    3.6803   26.1276    90.000    90.000   120.000 
ZERR       1    0.0001    0.0001    0.0016     0.000     0.000     0.000 
LATT 3 
SYMM             - Y ,          X - Y ,              Z 
SYMM         - X + Y ,            - X ,              Z 
SYMM               Y ,              X ,            - Z 
SYMM             - X ,        - X + Y ,            - Z 
SYMM           X - Y ,            - Y ,            - Z 
SFAC In K  S  Sn 
UNIT 1  1  6  2 
OMIT -2 56 
L.S. 20 
ACTA 
BOND 
FMAP 2 
PLAN 5 
CONF 
eadp in1 sn1 
exyz in1 sn1 
size 0.28 0.28 0.12 
ISOR 0.01 K1 K2 
temp -173.15 
WGHT    0.099900    2.778390 
FVAR       0.15332 
PART 4 
MOLE 1 
IN1   1    0.000000    0.000000    0.000000    10.02777    0.00214    0.00214 = 
         0.01667    0.00000    0.00000    0.00107 
SN1   4    0.000000    0.000000    0.000000    10.05556    0.00214    0.00214 = 
         0.01667    0.00000    0.00000    0.00107 
S1    3    0.333333    0.666667    0.055437    10.16667    0.00597    0.00597 = 
         0.01344    0.00000    0.00000    0.00298 
PART 1 
K1    2   -0.166667    0.666667    0.166667    10.01500    0.02542    0.03196 = 
         0.00588   -0.00254   -0.00127    0.01598 
PART 2 
K2    2    0.000000    0.000000    0.166037    10.01278    0.03317    0.03317 = 
         0.01400    0.00000    0.00000    0.01659 
PART 
HKLF 4 1 -1.0000 -1.0000  0.0000  0.0000  1.0000  0.0000  0.0000  0.0000 -1.0000 
  
REM  DS2112D in R-3m 
REM R1 =  0.0308 for     124 Fo > 4sig(Fo)  and  0.0308 for all     124 data 
REM     13 parameters refined using     12 restraints 
  
END 
  
WGHT      0.0562      9.8607 
  
REM Highest difference peak  3.000,  deepest hole -0.510,  1-sigma level  0.367 
Q1    1   0.0000  0.0000  0.0288  10.16667  0.05    3.00 
Q2    1   0.3333  0.6667  0.0301  10.16667  0.05    1.11 
Q3    1   0.0000  0.0000  0.0580  10.16667  0.05    0.77 
Q4    1   0.3333  0.6667  0.0805  10.16667  0.05    0.56 
Q5    1   0.1677  0.3355  0.0336  10.50000  0.05    0.45 
;
_shelx_res_checksum              67753
_shelx_hkl_file
; 
  -1  -1   0  709.66   35.17 
   1  -2   0  698.72   34.91 
   2  -1   0  636.55   34.88 
   2  -1   0  698.88   34.96 
   2  -1   0  686.06   35.13 
  -2   1   0  672.90   34.94 
  -2   1   0  713.39   34.91 
  -2   1   0  685.42   34.88 
  -3   0   0  328.25   18.44 
  -3   0   0  335.95   18.51 
  -3   0   0  349.14   18.36 
  -3   0   0  376.40   18.12 
  -3   0   0  319.04   18.39 
  -3   0   0  329.95   18.38 
   3   0   0  347.22   18.37 
   3   0   0  366.36   18.19 
   3   0   0  338.60   18.39 
   0  -3   0  363.25   18.07 
   3  -3   0  367.18   18.23 
   3  -3   0  374.13   18.40 
   3  -3   0  392.18   18.38 
   3  -3   0  332.20   18.33 
  -3   3   0  388.55   18.44 
  -3   3   0  411.49   18.15 
  -3   0   0  342.64   18.14 
  -4   2   0  265.12   14.10 
  -4   2   0  265.51   14.11 
  -4   2   0  275.89   13.79 
   2  -4   0  249.24   13.93 
   4  -2   0  258.55   14.16 
  -4   2   0  252.29   14.11 
   4  -2   0  261.25   14.03 
   4  -2   0  271.27   13.79 
   4  -2   0  278.35   14.01 
   4  -2   0  252.38   13.89 
   4  -2   0  265.86   14.12 
   4  -2   0  269.86   13.96 
  -4   2   0  277.04   13.95 
  -2  -2   0  290.39   13.66 
  -2  -2   0  278.32   13.89 
   2  -4   0  293.18   13.67 
  -5   4   0  168.10    8.14 
  -4  -1   0  151.59    8.07 
  -1  -4   0  160.02    7.98 
   4  -5   0  172.73    8.10 
  -5   1   0  149.81    8.36 
   5  -1   0  149.61    8.59 
  -4  -1   0  150.08    8.50 
  -4  -1   0  147.90    8.43 
  -5   1   0  144.24    8.12 
  -5   1   0  167.88    9.03 
   1  -5   0  154.96    7.98 
   4   1   0  157.68    8.15 
   5  -4   0  158.69    8.15 
   5  -4   0  167.24    8.65 
   5  -4   0  162.57    8.55 
   5  -4   0  142.01    8.44 
   5  -4   0  148.72    8.78 
  -5   1   0  150.92    8.58 
  -5   1   0  149.93    8.63 
   5  -1   0  148.96    8.15 
  -5   1   0  151.39    8.07 
   6  -3   0  110.66    6.38 
   6  -3   0  110.02    6.04 
  -6   3   0  111.88    6.08 
   6  -3   0  120.77    6.69 
   6  -3   0  115.55    6.73 
  -3  -3   0  112.20    5.87 
  -6   3   0  115.66    6.65 
  -6   6   0   85.71    4.72 
   6  -6   0   84.06    4.80 
   6   0   0   72.16    4.64 
  -6   0   0   74.33    4.94 
  -6   0   0   77.33    5.01 
   6  -6   0   89.59    4.67 
   6  -6   0   86.79    4.92 
   5   2   0   60.81    3.91 
  -5  -2   0   66.53    4.03 
  -7   5   0   62.11    3.94 
   7  -5   0   60.41    6.02 
  -7   2   0   70.52    4.59 
   7  -2   0   71.03    4.54 
  -5  -2   0   65.96    3.74 
  -7   2   0   74.66    5.52 
   5  -7   0   67.18    3.79 
   7  -2   0   62.09    3.76 
   7  -5   0   67.01    4.39 
  -7   2   0   66.72    3.73 
   8  -4   0   39.98    5.68 
  -4  -4   0   44.66    2.63 
  -8   4   0   42.59    2.77 
   1  -1  -1  165.35    8.86 
  -1   0  -1  172.64    8.88 
   1  -1  -1  171.79    8.86 
  -1   0  -1  182.84    8.90 
  -1   1   1  182.71    8.89 
   1   0   1  169.80    8.89 
  -2   2  -1   80.91    4.25 
   2   0  -1   80.79    4.29 
   2  -2   1   83.82    4.25 
   2  -2   1   75.97    4.21 
  -2   0   1   77.30    4.37 
  -2   0   1   78.37    4.14 
   2  -2   1   81.73    4.27 
  -2   0   1   73.91    4.26 
  -2   0   1   90.30    4.34 
   2   0  -1   80.48    4.27 
   2  -2   1   77.54    4.23 
  -2   0   1   76.49    4.39 
   3  -2  -1   82.14    3.94 
   3  -2  -1   83.40    3.77 
   3  -1   1   63.29    3.84 
   3  -1   1   65.90    3.80 
   3  -1   1   69.33    3.64 
  -2  -1  -1   66.15    3.75 
  -2  -1  -1   67.32    3.73 
  -1  -2   1   71.87    3.52 
   3  -1   1   64.57    3.81 
  -3   1  -1   63.96    3.82 
  -3   1  -1   62.58    3.83 
   2  -3  -1   67.14    3.66 
  -3   1  -1   62.59    4.04 
  -3   1  -1   67.80    3.83 
   2  -3  -1   64.35    3.69 
   2   1   1   68.60    3.73 
  -3   1  -1   71.39    3.61 
   1  -3   1   71.88    3.75 
  -3   1  -1   63.43    3.64 
  -4   1   1   37.93    2.33 
   1  -4  -1   37.78    2.00 
  -4   3  -1   33.39    2.84 
   3   1  -1   41.05    2.14 
  -4   1   1   37.29    2.43 
  -4   1   1   36.29    2.14 
  -4   1   1   36.95    2.08 
  -4   3  -1   41.22    2.58 
  -4   1   1   35.85    2.39 
  -4   3  -1   37.64    2.11 
  -4   1   1   33.67    2.41 
  -3  -1   1   35.85    2.30 
   4  -3   1   37.88    2.44 
   4  -3   1   34.66    2.56 
   4  -3   1   36.54    2.07 
   4  -1  -1   34.39    2.42 
  -1  -3  -1   37.24    1.99 
   4  -3   1   37.60    2.27 
  -3  -1   1   36.08    2.34 
  -3  -1   1   39.33    2.07 
   4  -3   1   37.25    2.40 
   4  -3   1   38.35    2.37 
   4  -3   1   37.83    2.31 
   4  -1  -1   36.42    2.14 
   4  -3   1   37.31    2.41 
   4  -1  -1   36.72    2.42 
   4  -1  -1   37.90    2.39 
  -4   0  -1   29.49    2.20 
  -4   0  -1   30.01    2.18 
  -4   0  -1   30.67    1.83 
   4  -4  -1   36.77    2.25 
   4  -4  -1   35.45    2.16 
  -4   0  -1   29.73    1.81 
   4   0   1   29.91    1.92 
   0  -4   1   31.34    1.77 
  -4   0  -1   31.95    2.10 
   4  -4  -1   37.64    1.90 
   4  -4  -1   29.10    2.13 
  -4   4   1   35.14    1.89 
   5  -2   1   29.64    1.98 
   5  -2   1   28.47    2.06 
   5  -2   1   28.78    2.16 
  -3  -2  -1   28.83    1.58 
   5  -2   1   25.78    1.76 
  -2  -3   1   28.38    1.60 
   5  -2   1   26.52    2.16 
   5  -3  -1   34.33    2.33 
   5  -3  -1   33.56    2.03 
  -3  -2  -1   28.56    1.92 
   5  -3  -1   32.07    2.21 
  -3  -2  -1   28.95    1.96 
  -3  -2  -1   28.03    1.68 
   5  -3  -1   33.53    2.06 
   2  -5   1   27.92    1.60 
  -5   2  -1   28.30    2.15 
  -5   2  -1   27.58    2.14 
  -5   2  -1   28.03    2.19 
  -5   2  -1   27.26    1.86 
  -5   3   1   34.07    1.80 
  -5   2  -1   27.19    1.99 
  -5   2  -1   26.09    1.73 
   0  -5  -1   21.76    1.38 
  -5   0   1   22.43    1.93 
   5  -5   1   27.13    1.97 
   5  -5   1   24.26    1.58 
  -5   5  -1   24.92    1.57 
  -5   0   1   23.20    1.91 
   5   0  -1   23.10    1.61 
   5  -5   1   23.38    1.90 
   5  -5   1   24.94    1.83 
   5  -5   1   24.31    2.34 
  -6   2   1   24.20    1.60 
  -6   2   1   22.09    1.49 
  -6   4  -1   20.83    1.55 
  -6   2   1   22.51    1.75 
  -6   2   1   27.71    2.18 
   4   2  -1   22.59    1.53 
   6  -4   1   23.36    2.04 
   6  -4   1   23.41    1.98 
   6  -4   1   21.93    1.84 
  -4  -2   1   23.46    1.77 
   6  -2  -1   23.68    1.79 
   6  -2  -1   26.56    1.61 
  -2  -4  -1   21.58    1.32 
  -4  -2   1   19.94    1.42 
   6  -2  -1   27.13    2.17 
   6  -4   1   18.55    2.52 
  -4  -2   1   22.13    1.69 
  -5  -1  -1   18.60    1.35 
  -5  -1  -1   19.76    1.74 
   6  -1   1   18.81    1.49 
   6  -1   1   21.39    1.70 
  -5  -1  -1   19.75    1.72 
   5  -6  -1   23.62    1.60 
   5   1   1   18.60    1.50 
  -6   1  -1   19.01    1.94 
  -6   1  -1   19.46    1.86 
   5  -6  -1   21.96    1.47 
   7  -4  -1   21.40    2.24 
  -4  -3  -1   17.29    1.30 
  -4  -3  -1   16.83    1.27 
   7  -3   1   16.38    1.34 
   7  -3   1   18.29    2.06 
   7  -3   1   18.67    3.58 
   7  -4  -1   22.56    4.61 
   7  -4  -1   21.34    2.01 
  -7   3  -1   15.94    1.66 
  -7   4   1   17.66    1.43 
  -7   3  -1   21.34    2.44 
  -7   3  -1   16.54    1.34 
  -7   1   1   20.71    3.90 
   6   1  -1   16.46    1.94 
  -7   6  -1   15.55    2.01 
   6  -7   1   20.17    1.98 
   7  -1  -1   18.15    1.93 
   7   0   1   13.27    1.92 
  -8   5  -1   13.32    1.89 
  -8   3   1   15.45    2.08 
  -5  -3   1   12.53    1.37 
   8  -3  -1   16.45    5.25 
   8  -5   1   14.04    3.51 
   8  -3  -1   15.39    1.52 
   1  -1   2  391.38   21.00 
   1  -1   2  420.43   20.94 
   1  -1   2  427.58   21.25 
  -1   1  -2  392.47   20.92 
  -1   0   2  417.77   21.05 
   1   0  -2  419.37   21.21 
  -1   0   2  421.22   21.19 
   2  -2  -2  285.44   15.24 
  -2   0  -2  289.66   15.32 
  -2   0  -2  288.78   15.43 
  -2   0  -2  288.74   15.38 
  -2   0  -2  319.05   15.32 
   0  -2   2  304.71   15.26 
   2   0   2  302.26   15.30 
   2  -2  -2  295.01   15.28 
   2  -2  -2  292.93   15.30 
   2   0   2  307.04   15.33 
  -2   2   2  309.94   15.29 
  -2   0  -2  296.55   15.31 
  -2   0  -2  302.79   15.17 
   2  -3   2  196.88    9.98 
  -3   2  -2  185.68   10.13 
  -3   2  -2  201.49    9.93 
  -3   1   2  192.27    9.97 
  -3   1   2  188.25   10.19 
  -3   1   2  212.37    9.93 
   2   1  -2  194.92   10.05 
  -3   2  -2  184.81   10.14 
  -3   1   2  198.79   10.18 
   2  -3   2  191.01   10.04 
  -3   1   2  186.07   10.13 
  -3   2  -2  183.57   10.11 
  -3   1   2  190.26   10.41 
   1  -3  -2  209.26    9.85 
   3  -1  -2  194.35   10.16 
  -1  -2  -2  215.25    9.85 
   3  -2   2  186.58   10.13 
   3  -1  -2  185.96   10.18 
   3  -2   2  190.10   10.22 
  -2  -1   2  192.09   10.07 
   3  -1  -2  197.56   10.15 
   3  -1  -2  210.41    9.96 
  -2  -1   2  195.78   10.10 
   3  -2   2  195.57   10.06 
   3  -2   2  179.06   10.15 
   3  -2   2  184.85   10.27 
   3  -2   2  188.72   10.08 
   4  -3  -2  120.97    6.45 
   4  -3  -2  123.49    6.69 
  -3  -1  -2  125.64    6.79 
   4  -1   2  127.33    6.57 
  -3  -1  -2  123.52    6.75 
  -1  -3   2  131.25    6.41 
   4  -3  -2  128.27    6.86 
   4  -3  -2  126.95    6.80 
  -3  -1  -2  129.91    6.47 
   4  -3  -2  115.89    6.69 
   4  -1   2  124.02    6.85 
   4  -1   2  117.56    6.87 
   4  -3  -2  126.99    6.82 
   4  -1   2  122.19    6.81 
   4  -1   2  124.65    6.64 
   4  -3  -2  119.15    6.87 
   4  -3  -2  116.56    6.96 
   1  -4   2  135.09    6.42 
   3   1   2  136.50    6.55 
  -4   1  -2  125.84    6.75 
  -4   1  -2  124.13    6.84 
  -4   1  -2  119.52    6.88 
  -4   1  -2  126.56    6.88 
  -4   1  -2  124.99    6.71 
  -4   1  -2  125.58    6.50 
  -4   1  -2  116.18    6.55 
  -4   3   2  131.89    6.53 
   3  -4  -2  115.94    6.62 
  -4   3   2  132.18    7.13 
  -4   0   2  101.28    5.88 
  -4   0   2  100.94    5.70 
   4   0  -2  101.67    5.56 
  -4   0   2  101.81    5.45 
   4  -4   2  104.29    5.78 
  -4   0   2   97.67    5.89 
   4  -4   2  114.28    5.54 
  -4   4  -2  106.01    5.51 
  -4   0   2  107.34    5.49 
  -4   0   2  106.58    5.79 
   4  -4   2   91.36    5.81 
  -4   0   2  105.73    5.49 
  -4   0   2  101.80    5.89 
   4  -4   2  104.32    5.64 
   0  -4  -2  106.36    5.41 
   4  -4   2  109.60    5.87 
   4  -4   2  114.85    6.13 
  -5   2   2   88.30    4.91 
  -5   2   2   85.67    5.15 
  -5   2   2   82.70    4.68 
  -5   3  -2   91.43    5.16 
  -5   3  -2   84.07    4.70 
  -5   2   2   90.29    4.88 
  -5   2   2   87.43    5.21 
  -5   2   2   87.19    5.14 
   2  -5  -2   87.51    4.56 
   5  -3   2   91.60    4.91 
   5  -3   2   87.31    4.97 
   5  -2  -2   82.48    5.17 
   5  -2  -2   84.90    4.93 
   5  -2  -2   83.38    4.71 
  -3  -2   2   89.77    4.96 
   5  -3   2   89.45    5.16 
  -2  -3  -2   91.47    4.56 
  -3  -2   2   89.51    4.64 
   5  -3   2   91.63    4.98 
   5  -2  -2   84.79    5.05 
   5  -3   2   86.49    5.20 
   5  -3   2   94.11    4.71 
   5  -3   2   88.35    5.27 
   5  -2  -2   88.74    5.17 
   5  -3   2   83.50    5.43 
  -3  -2   2   87.04    4.90 
   5  -5  -2   60.94    4.31 
   5  -5  -2   66.21    4.02 
   5  -5  -2   70.57    4.09 
  -5   0  -2   65.71    4.08 
  -5   0  -2   65.60    4.13 
   5  -5  -2   64.33    3.69 
   5   0   2   67.24    3.72 
  -5   5   2   70.21    3.66 
   0  -5   2   65.40    3.50 
   5  -5  -2   63.05    3.93 
   6  -2   2   61.70    3.68 
   6  -4  -2   60.05    3.90 
  -4  -2  -2   59.06    3.59 
   6  -4  -2   51.02    4.24 
   6  -4  -2   50.47    3.66 
   6  -4  -2   58.07    3.94 
   6  -2   2   70.56    4.10 
  -4  -2  -2   56.76    3.31 
   6  -2   2   66.18    3.47 
   4   2   2   61.41    3.40 
  -6   2  -2   69.31    4.08 
  -6   2  -2   61.77    3.66 
  -6   4   2   58.31    3.40 
  -6   2  -2   62.73    3.47 
  -6   2  -2   57.47    3.36 
  -6   1   2   50.49    3.58 
   5  -6   2   58.44    3.04 
  -6   1   2   51.34    3.52 
   5   1  -2   47.73    3.02 
   1  -6  -2   48.44    2.79 
  -6   5  -2   49.89    3.02 
   6  -5   2   56.16    3.44 
   6  -5   2   50.10    3.32 
  -5  -1   2   50.24    3.33 
  -1  -5  -2   51.42    2.80 
   6  -1  -2   47.92    3.00 
  -5  -1   2   50.03    2.93 
   6  -5   2   52.00    4.01 
   6  -5   2   50.31    3.45 
   6  -5   2   58.70    3.54 
  -5  -1   2   51.64    3.39 
  -7   4  -2   40.45    2.51 
  -7   3   2   38.80    2.41 
  -7   3   2   37.47    2.76 
  -7   3   2   44.49    3.86 
   7  -4   2   46.65    3.13 
  -4  -3   2   39.12    2.39 
   7  -3  -2   39.69    3.16 
   7  -4   2   47.39    3.34 
  -3  -4  -2   40.25    2.31 
   7  -3  -2   33.29    5.37 
   7  -3  -2   37.01    2.41 
   7  -4   2   42.83    5.10 
   7  -1   2   33.30    2.47 
   6  -7  -2   29.40    2.51 
   6   1   2   32.70    2.46 
  -7   6   2   32.06    2.53 
   7   0  -2   25.65    2.41 
   8  -3   2   28.07    1.95 
   8  -3   2   26.30    5.71 
  -3  -5   2   26.13    1.83 
  -5  -3  -2   26.13    1.85 
   8  -5  -2   25.70    5.09 
  -8   5   2   26.37    2.24 
   5  -8  -2   22.72    2.14 
   1  -2   3  436.74   21.26 
  -2   1  -3  400.74   21.31 
  -2   1   3  432.21   21.34 
   2  -1  -3  393.65   21.32 
  -2   1  -3  412.04   21.30 
   2  -1   3  391.20   21.31 
   2  -1   3  401.02   21.28 
   2  -1  -3  401.57   21.30 
  -1  -1  -3  433.70   21.31 
  -2   1  -3  400.87   21.32 
  -1  -1   3  460.40   21.32 
   2  -1   3  405.24   21.30 
  -2   1   3  468.60   21.34 
  -2   1   3  422.69   21.32 
   2  -1  -3  412.14   21.29 
  -3   0   3  229.01   11.87 
   3   0   3  225.21   11.69 
  -3   0   3  224.70   11.84 
  -3   0   3  220.50   11.74 
  -3   0   3  228.89   11.70 
  -3   0   3  234.10   11.44 
  -3   3  -3  234.70   11.77 
  -3   3  -3  224.72   11.46 
   0  -3  -3  234.28   11.40 
   3  -3   3  221.54   11.57 
   3  -3   3  206.84   11.68 
   3   0  -3  232.72   11.73 
   0  -3   3  245.78   11.40 
   3  -3  -3  205.29   11.68 
  -3   0  -3  223.64   11.68 
   3  -3   3  214.19   11.66 
  -3   0  -3  223.44   11.88 
  -3   0  -3  237.39   11.46 
  -3   0  -3  202.69   11.73 
   3   0   3  235.01   11.52 
   3   0  -3  216.60   11.73 
  -3   0  -3  217.89   11.72 
   3  -3  -3  217.83   11.52 
  -3   3   3  251.48   12.08 
  -3   3   3  234.33   11.46 
  -3   0   3  217.08   11.77 
  -3   0  -3  217.79   11.47 
  -3   0   3  224.30   11.48 
   3  -3   3  207.95   11.69 
   3  -3  -3  215.89   11.66 
  -3   0  -3  212.16   11.74 
   3   0   3  213.83   11.72 
   3   0  -3  248.89   11.53 
  -4   2  -3  176.84    9.47 
   4  -2   3  175.23    9.49 
  -4   2  -3  170.14    9.77 
   4  -2   3  177.18    9.69 
   2  -4  -3  187.15    9.36 
  -2  -2  -3  182.58    9.57 
  -4   2   3  205.16    9.50 
  -4   2   3  191.09    9.80 
  -2  -2   3  183.63    9.35 
   4  -2  -3  179.15    9.60 
   4  -2  -3  195.87    9.86 
   4  -2  -3  188.17    9.74 
  -4   2  -3  170.76    9.80 
   2  -4   3  183.93    9.67 
   4  -2   3  171.28    9.63 
   4  -2   3  174.34    9.79 
   4  -2  -3  201.11    9.73 
   4  -2   3  163.87    9.80 
  -4   2   3  198.03    9.86 
  -2  -2  -3  181.09    9.35 
   2  -4   3  204.29    9.36 
  -4   2   3  184.38    9.85 
  -2  -2   3  178.56    9.59 
   4  -2   3  170.43    9.70 
  -4   2  -3  180.04    9.64 
   4  -2  -3  189.04    9.89 
  -4   2  -3  176.43    9.80 
   4  -2  -3  187.46    9.66 
   4  -2  -3  200.15    9.50 
  -5   1   3  121.18    6.75 
   5  -4  -3  116.64    5.66 
  -5   4  -3  101.25    5.60 
  -1  -4   3  104.57    5.45 
   4   1  -3  112.29    5.64 
   5  -1   3  101.66    5.65 
  -5   1   3  104.51    6.08 
   5  -4  -3   97.16    5.90 
   1  -5  -3  104.96    5.46 
  -4  -1  -3  100.96    5.95 
   5  -4  -3  113.93    6.06 
  -4  -1  -3  102.24    5.54 
  -5   1   3  101.59    6.11 
   4  -5   3  113.64    5.82 
   5  -4  -3  114.41    6.14 
  -4  -1  -3  100.59    5.54 
  -4  -1  -3  104.74    5.93 
  -5   1   3  101.48    5.62 
   5  -1   3   98.81    6.05 
  -5   1   3  104.81    5.55 
   4  -5  -3  103.36    5.75 
  -4  -1   3   98.64    5.91 
  -1  -4  -3  105.70    5.46 
  -5   1  -3  102.17    6.10 
  -4  -1   3  103.77    5.56 
  -5   4   3  118.57    5.64 
   5  -4   3  101.41    5.97 
   4  -5  -3  111.67    5.57 
  -5   1  -3   99.51    5.61 
   4   1   3  106.54    5.65 
  -5   1  -3  104.33    5.57 
   5  -1  -3  102.44    6.09 
   5  -4   3   96.49    5.94 
   5  -4   3  104.73    5.64 
   5  -4   3  102.65    6.05 
  -5   1  -3  103.69    5.87 
  -5   1  -3  103.12    6.06 
  -4  -1   3  103.81    5.99 
   5  -1  -3  106.09    5.65 
  -5   1  -3  107.81    6.43 
   1  -5   3  102.12    5.45 
  -6   3  -3   74.83    4.50 
   6  -3  -3   89.78    5.22 
   6  -3  -3   82.52    5.53 
   6  -3   3   72.56    4.47 
  -6   3   3   81.47    4.51 
  -3  -3  -3   82.22    4.42 
   6  -3   3   84.04    5.07 
   6  -3  -3   95.34    5.20 
  -6   3  -3   82.94    5.07 
   6  -3  -3   80.15    4.80 
   6  -3   3   82.88    5.13 
   6  -3   3   75.24    4.78 
  -6   3   3   93.24    5.20 
  -3  -3  -3   79.55    4.31 
   6  -3  -3   87.59    4.49 
   6  -6   3   54.64    3.51 
   6  -6   3   49.51    3.35 
   6  -6  -3   53.57    3.28 
  -6   0  -3   52.14    3.61 
   6  -6  -3   55.36    3.41 
   6  -6   3   51.37    3.25 
  -6   6  -3   53.59    3.41 
  -6   6   3   55.82    3.40 
   6   0   3   49.14    3.34 
   6   0  -3   57.33    3.36 
  -6   0  -3   51.41    3.55 
  -6   0   3   57.27    3.70 
   6  -6  -3   58.62    3.54 
  -6   0   3   55.00    3.63 
   7  -2   3   41.80    2.95 
   7  -2   3   47.83    3.81 
   7  -5  -3   57.89    5.61 
  -7   2   3   56.07    2.97 
  -7   5  -3   47.18    3.22 
  -7   2   3   56.30    4.96 
   5   2  -3   47.64    3.22 
  -7   2   3   54.36    3.87 
   5  -7   3   54.10    3.01 
  -5  -2  -3   45.01    2.90 
  -5  -2  -3   49.03    3.20 
   7  -5  -3   59.05    3.72 
   7  -2  -3   55.78    3.51 
  -7   2  -3   46.99    3.72 
   7  -5   3   48.94    3.57 
  -7   2  -3   42.56    2.99 
   5  -7  -3   52.08    3.01 
  -7   5   3   54.15    3.24 
   7  -2  -3   51.24    6.43 
   7  -2  -3   50.04    2.99 
  -5  -2   3   48.01    2.94 
   5   2   3   44.50    3.21 
  -8   4  -3   32.22    2.34 
   8  -4   3   25.87    5.41 
  -4  -4   3   32.53    2.19 
   8  -4  -3   38.57    5.38 
  -8   4   3   34.53    2.38 
  -4  -4  -3   33.16    2.17 
  -1   0  -4   46.86    2.46 
  -1   0  -4   49.02    2.50 
   1   0   4   49.44    2.46 
   1  -1  -4   44.04    2.44 
   1  -1  -4   46.09    2.52 
  -1   0  -4   47.86    2.46 
   1  -1  -4   45.10    2.45 
   1  -1  -4   41.88    2.42 
   2  -2   4   67.40    3.65 
   2  -2   4   64.53    3.64 
  -2   2  -4   67.02    3.72 
   2  -2   4   71.76    3.73 
   2  -2   4   67.34    3.70 
  -2   0   4   82.82    3.63 
   2  -2   4   62.26    3.71 
   3  -2  -4   37.73    2.24 
   3  -1   4   38.32    2.39 
   3  -2  -4   36.46    2.44 
   3  -1   4   41.19    2.19 
   3  -1   4   38.68    2.34 
   3  -2  -4   38.11    2.31 
   3  -2  -4   37.11    2.44 
   3  -2  -4   36.36    2.37 
  -2  -1  -4   44.50    2.33 
  -2  -1  -4   45.87    2.32 
   3  -1   4   40.84    2.37 
   3  -2  -4   36.75    2.35 
  -3   1  -4   42.51    2.40 
  -3   2   4   38.89    2.37 
   2  -3  -4   36.25    2.20 
  -3   2   4   35.76    2.34 
  -3   2   4   39.23    2.14 
  -3   1  -4   40.18    2.15 
  -3   1  -4   38.64    2.61 
  -3   1  -4   41.62    2.22 
  -3   1  -4   39.21    2.40 
  -3   1  -4   42.10    2.41 
  -3   2   4   36.53    2.33 
   2   1   4   44.35    2.29 
  -4   3  -4   22.77    2.15 
  -4   3  -4   23.51    1.55 
   1  -4  -4   29.97    1.47 
   3  -4   4   24.41    1.67 
  -4   3  -4   22.65    1.91 
   3  -4   4   26.05    1.72 
   3   1  -4   30.17    1.60 
   4  -3   4   26.39    1.56 
   4  -3   4   25.24    1.89 
  -1  -3  -4   28.18    1.46 
  -3  -1   4   28.93    1.54 
   4  -3   4   26.16    1.77 
   4  -3   4   27.52    1.85 
   4  -3   4   24.52    1.70 
   4  -3   4   24.16    1.85 
  -3  -1   4   28.07    1.80 
   4  -3   4   30.50    2.15 
   4  -3   4   26.91    1.83 
   4  -3   4   23.65    1.82 
  -4   0  -4   21.83    1.33 
   4  -4  -4   20.94    1.59 
  -4   0  -4   21.92    1.33 
   4   0   4   22.40    1.44 
  -4   0  -4   20.72    1.68 
   4  -4  -4   21.72    1.68 
   4  -4  -4   25.57    1.91 
   4  -4  -4   23.29    1.39 
   4  -4  -4   19.74    1.59 
  -4   0  -4   21.40    1.63 
  -4   0  -4   22.51    1.58 
  -4   4   4   21.21    1.35 
  -4   0  -4   22.69    1.70 
   0  -4   4   22.54    1.26 
  -3  -2  -4   20.67    1.55 
   5  -3  -4   24.17    1.63 
   5  -2   4   22.40    1.70 
  -3  -2  -4   21.00    1.53 
  -2  -3   4   19.55    1.22 
  -3  -2  -4   18.92    1.30 
   5  -2   4   24.34    1.82 
   5  -2   4   23.77    1.85 
   5  -2   4   21.98    1.58 
   5  -2   4   22.86    1.45 
  -3  -2  -4   19.86    1.21 
  -5   2  -4   22.18    1.66 
  -5   2  -4   21.61    1.50 
  -5   2  -4   21.46    1.39 
  -5   2  -4   23.32    1.80 
  -5   2  -4   24.63    1.87 
  -5   2  -4   24.33    1.84 
  -5   0   4   16.91    1.61 
   0  -5  -4   16.76    1.06 
  -5   5  -4   16.28    1.24 
   5   0  -4   15.94    1.27 
   5  -5   4   20.05    2.11 
  -5   0   4   16.89    1.56 
   5  -5   4   18.57    1.49 
   5  -5   4   15.68    1.23 
   5  -5   4   19.32    1.59 
  -6   2   4   20.72    1.41 
  -6   4  -4   16.20    1.35 
   4   2  -4   17.03    1.31 
   2  -6  -4   16.37    1.11 
  -6   2   4   20.01    1.31 
  -6   2   4   23.42    1.99 
   6  -2  -4   19.39    1.58 
  -4  -2   4   15.85    1.22 
   6  -4   4   19.23    1.74 
  -2  -4  -4   16.52    1.10 
  -4  -2   4   16.89    1.47 
   6  -4   4   21.01    1.85 
   6  -4   4   17.72    2.41 
  -4  -2   4   17.41    1.54 
   6  -2  -4   19.87    1.37 
   6  -2  -4   23.44    1.99 
   6  -4   4   20.50    1.69 
  -5  -1  -4   17.12    1.53 
   6  -5  -4   17.00    1.62 
   6  -1   4   15.45    1.30 
   6  -5  -4   17.63    2.49 
   6  -1   4   17.62    1.49 
  -5  -1  -4   14.08    1.43 
  -5  -1  -4   13.53    1.09 
   6  -5  -4   17.38    1.78 
   6  -5  -4   15.11    1.38 
   6  -5  -4   16.45    1.66 
  -6   5   4   14.07    1.29 
  -6   1  -4   17.28    1.67 
   5  -6  -4   14.71    1.22 
   5  -6  -4   14.16    1.29 
   5   1   4   13.27    1.29 
  -6   1  -4   19.18    1.81 
  -3  -4   4   13.73    1.09 
   7  -3   4   15.69    1.25 
   7  -3   4   15.44    3.95 
   7  -3   4   16.98    1.99 
  -4  -3  -4   13.52    1.12 
  -7   3  -4   17.69    2.21 
  -7   3  -4   13.65    1.20 
  -7   3  -4   13.15    1.52 
   6   1  -4   12.48    1.86 
   6  -7   4   11.06    1.75 
  -7   6  -4   11.29    1.90 
  -7   1   4   20.55    3.83 
   7  -1  -4   11.48    1.74 
   7   0   4   12.73    1.69 
   5  -8   4   15.84    1.73 
  -8   3   4    8.68    1.96 
  -8   5  -4   12.98    1.91 
   8  -3  -4   11.48    1.51 
   8  -5   4   12.85    3.47 
  -5  -3   4   11.13    1.37 
   8  -3  -4   14.70    3.72 
   1  -1   5  949.37   47.88 
  -1   0   5 1000.00   48.05 
  -1   0   5  934.12   47.86 
   1  -1   5  933.97   47.84 
   1  -1   5  992.80   47.99 
   1  -1   5  885.82   47.71 
  -1   1  -5  932.99   47.85 
  -1   0   5  920.18   47.93 
   1   0  -5  921.32   47.94 
   2  -2  -5  442.85   23.34 
  -2   0  -5  492.42   23.35 
  -2   0  -5  474.38   23.22 
  -2   0  -5  460.92   23.36 
  -2   0  -5  433.74   23.40 
   2   0   5  464.14   23.34 
  -2   2   5  457.22   23.33 
  -2   0  -5  453.92   23.37 
   2   0   5  486.82   23.38 
   0  -2   5  470.20   23.31 
   2  -2  -5  386.71   23.24 
   2  -2  -5  452.44   23.32 
  -2   0  -5  481.61   23.53 
  -3   1   5  360.14   18.77 
  -3   2  -5  373.09   18.54 
  -3   2  -5  374.09   18.79 
   2  -3   5  345.12   18.66 
  -3   1   5  404.59   18.55 
  -3   1   5  364.44   18.80 
   2   1  -5  371.45   18.68 
  -3   1   5  370.28   19.21 
  -3   2  -5  351.67   18.75 
   2  -3   5  351.44   18.59 
  -3   2  -5  362.43   18.75 
  -3   1   5  347.51   18.80 
  -3   1   5  359.21   18.59 
   3  -1  -5  362.67   18.76 
   3  -1  -5  350.59   18.81 
   3  -2   5  380.40   18.69 
   3  -2   5  337.71   18.77 
  -2  -1   5  379.15   18.75 
   3  -2   5  346.89   18.56 
  -2  -1   5  382.61   18.75 
   3  -2   5  358.62   18.69 
  -2  -1   5  377.46   18.71 
   3  -1  -5  388.38   18.56 
   3  -2   5  362.00   18.75 
   3  -2   5  366.14   18.91 
   3  -2   5  348.91   18.90 
   3  -1  -5  370.92   18.80 
   4  -3  -5  212.24   11.71 
  -3  -1  -5  218.16   11.61 
   4  -3  -5  227.75   11.66 
  -3  -1  -5  221.06   11.59 
   4  -1   5  225.74   11.41 
  -3  -1  -5  226.08   11.29 
   4  -1   5  209.88   11.69 
   4  -1   5  225.21   11.69 
   4  -3  -5  215.66   11.53 
   4  -3  -5  217.65   11.67 
   4  -1   5  218.19   11.65 
  -1  -3   5  237.48   11.24 
   4  -3  -5  216.60   11.66 
   4  -3  -5  212.27   11.28 
   4  -3  -5  219.41   11.81 
  -4   1  -5  226.10   11.35 
  -4   1  -5  217.59   11.54 
   1  -4   5  232.43   11.24 
  -4   1  -5  209.63   11.72 
   1  -4   5  212.49   11.55 
  -4   3   5  227.40   11.35 
  -4   1  -5  221.95   11.42 
  -4   1  -5  226.62   11.72 
   3   1   5  237.73   11.38 
  -4   1  -5  213.35   11.65 
   3  -4  -5  204.13   11.46 
  -4   1  -5  225.26   11.57 
  -4   4  -5  180.61    9.60 
  -4   0   5  193.65   10.04 
   4  -4   5  171.30    9.72 
   4   0  -5  190.92    9.66 
   4  -4   5  175.95    9.91 
   4  -4   5  176.74    9.85 
  -4   0   5  187.97    9.99 
  -4   0   5  184.01   10.04 
   4  -4   5  165.23    9.94 
  -4   0   5  202.84    9.62 
  -4   0   5  187.14    9.57 
   0  -4  -5  187.04    9.51 
   4  -4   5  199.76    9.64 
  -4   0   5  187.09   10.01 
  -4   0   5  194.86    9.92 
   2  -5  -5  157.48    7.88 
   3  -5   5  142.07    8.23 
  -5   2   5  155.77    8.55 
   3   2  -5  178.65    8.04 
  -5   2   5  157.78    8.52 
  -5   2   5  161.58    8.37 
  -5   3  -5  147.96    8.42 
  -5   3  -5  153.54    8.04 
  -5   2   5  148.56    8.45 
  -5   2   5  155.44    8.21 
  -5   2   5  154.09    8.01 
   5  -3   5  158.47    8.48 
  -3  -2   5  150.91    8.23 
   5  -3   5  148.36    8.51 
   5  -2  -5  155.79    8.29 
   5  -3   5  150.78    8.29 
   5  -3   5  153.72    8.02 
   5  -3   5  147.42    8.58 
  -3  -2   5  159.62    7.98 
   5  -2  -5  151.28    8.56 
   5  -2  -5  145.16    8.00 
   5  -3   5  148.17    8.26 
  -3  -2   5  161.24    8.31 
   5  -2  -5  159.37    8.53 
   5  -2  -5  149.41    8.37 
   5  -3   5  135.87    8.69 
  -2  -3  -5  157.17    7.88 
  -5   0  -5  104.23    6.36 
   5  -5  -5  112.65    6.28 
   5   0   5  108.37    5.98 
   5  -5  -5  108.88    6.23 
  -5   5   5  114.68    5.91 
   5  -5  -5  115.43    6.37 
   5  -5  -5  108.99    6.57 
  -5   0  -5  108.76    6.35 
   5  -5  -5  114.33    5.97 
   6  -2   5   96.47    5.34 
   6  -4  -5   83.80    5.57 
  -4  -2  -5   95.30    5.20 
   6  -2   5   98.45    5.88 
   6  -2   5   95.36    5.57 
   6  -4  -5   92.46    6.12 
  -4  -2  -5  100.64    5.57 
  -4  -2  -5   99.53    5.50 
   6  -4  -5  100.76    5.86 
   6  -4  -5   97.76    5.92 
  -6   2  -5   97.23    5.28 
  -6   4   5   93.15    5.28 
  -6   2  -5   99.25    5.56 
  -6   2  -5  107.16    5.76 
  -6   2  -5  106.76    5.95 
  -6   2  -5  100.03    5.37 
   4   2   5   99.53    5.31 
  -6   5  -5   81.45    4.66 
  -6   1   5   85.51    5.29 
   5   1  -5   80.32    4.62 
  -6   1   5   87.83    4.98 
   5  -6   5   84.33    4.64 
  -6   1   5   85.10    5.21 
   1  -6  -5   83.36    4.44 
   6  -1  -5   81.92    4.63 
  -5  -1   5   83.58    5.01 
  -5  -1   5   83.46    4.59 
   6  -5   5   84.32    5.03 
  -1  -5  -5   86.51    4.45 
   6  -5   5   86.84    5.13 
  -5  -1   5   84.87    5.09 
   6  -5   5   82.27    5.12 
  -7   3   5   65.28    4.00 
  -7   3   5   65.23    3.65 
  -7   4  -5   63.01    3.73 
   7  -4   5   69.24    4.50 
   7  -3  -5   72.26    4.56 
   7  -4   5   54.93    5.58 
  -4  -3   5   63.70    3.65 
   7  -3  -5   66.34    3.65 
   7  -3  -5   61.70    6.30 
   7  -4   5   68.80    4.33 
   7  -1   5   48.24    3.18 
   6   1   5   47.83    3.20 
   6  -7  -5   48.67    3.29 
  -7   6   5   49.18    3.26 
  -7   7  -5   31.83    3.60 
   7   0  -5   41.44    2.92 
   8  -3   5   36.24    5.99 
   8  -5  -5   39.35    5.31 
   8  -3   5   37.34    2.52 
  -3  -5   5   38.92    2.44 
  -5  -3  -5   38.45    2.41 
   5  -8  -5   38.51    2.73 
  -8   5   5   40.67    2.78 
   0   0   6  346.55   16.60 
   0   0  -6  332.66   16.64 
   0   0  -6  323.79   16.69 
   0   0   6  306.24   16.63 
  -1  -1   6  149.38    7.61 
   2  -1   6  140.55    7.67 
  -2   1   6  135.28    7.67 
   2  -1  -6  140.77    7.64 
   1  -2   6  142.95    7.61 
  -2   1   6  145.43    7.68 
  -1  -1   6  154.60    7.60 
   2  -1  -6  140.54    7.68 
   1  -2  -6  144.44    7.53 
   2  -1   6  147.49    7.64 
  -2   1   6  143.72    7.67 
   2  -1   6  148.36    7.66 
   1  -2   6  150.19    7.54 
   1   1  -6  146.00    7.57 
  -2   1  -6  149.19    7.68 
   2  -1  -6  145.60    7.66 
   2  -1   6  152.26    7.61 
  -2   1  -6  152.06    7.68 
  -1  -1  -6  158.67    7.59 
  -2   1  -6  155.02    7.68 
   3  -3  -6   69.58    4.04 
  -3   0  -6   68.43    4.09 
   3  -3  -6   67.06    4.06 
  -3   0  -6   69.59    4.07 
  -3   0   6   76.52    3.84 
  -3   0   6   85.49    4.09 
  -3   0   6   80.08    4.15 
  -3   3   6   73.53    3.82 
  -3   0   6   79.00    4.17 
  -3   0  -6   76.38    3.82 
  -3   0  -6   74.66    4.04 
   3  -3  -6   65.52    3.95 
   3  -3   6   68.59    3.94 
   3  -3   6   65.82    4.03 
  -3   3  -6   67.34    3.80 
   3  -3   6   69.13    4.07 
   3   0   6   71.11    4.05 
  -3   0  -6   70.80    3.84 
   3   0   6   70.89    4.07 
  -3   0  -6   67.82    4.12 
   3  -3   6   68.04    4.01 
  -3   0   6   81.83    4.24 
  -3   0  -6   69.70    4.22 
   3   0   6   73.63    3.88 
   0  -3   6   83.92    3.76 
  -4   2   6   56.88    3.49 
   4  -2  -6   55.72    3.54 
   4  -2  -6   57.45    3.34 
   2  -4   6   55.12    3.36 
  -4   2   6   54.69    3.50 
   4  -2   6   57.91    3.34 
  -4   2  -6   57.55    3.19 
   4  -2  -6   57.23    3.51 
  -2  -2   6   67.85    3.06 
   4  -2   6   58.65    3.22 
  -4   2  -6   57.76    3.49 
  -2  -2  -6   62.53    3.28 
   2  -4  -6   57.83    3.06 
  -4   2   6   61.16    3.19 
  -2  -2  -6   61.57    3.07 
   4  -2   6   54.28    3.49 
  -4   2  -6   57.27    3.50 
   4  -2   6   56.47    3.33 
  -4   2   6   59.29    3.50 
  -2  -2   6   68.90    3.36 
  -4   2  -6   61.86    3.53 
   4  -2  -6   59.66    3.46 
   4  -2  -6   55.39    3.16 
   4  -2  -6   61.72    3.43 
   4  -2   6   53.96    3.34 
   4  -2   6   58.35    3.49 
   4  -2   6   58.51    3.42 
   5  -4  -6   37.28    2.62 
  -5   4  -6   34.46    2.18 
   4  -5   6   32.03    2.27 
  -5   1   6   42.50    2.15 
  -5   1   6   41.24    2.71 
   5  -1   6   34.51    2.23 
   4  -5   6   32.09    2.30 
   1  -5  -6   35.84    2.03 
  -4  -1  -6   35.49    2.47 
  -4  -1  -6   34.43    2.42 
   5  -4  -6   37.31    2.21 
  -5   1   6   40.79    3.18 
  -5   1   6   42.87    2.69 
  -4  -1  -6   34.48    2.09 
   4   1  -6   39.32    2.20 
   5  -4  -6   37.62    2.56 
   4  -5   6   36.72    2.14 
  -5   1   6   40.19    2.20 
   5  -1   6   34.93    2.55 
  -5   1  -6   36.79    2.60 
   5  -1  -6   42.08    2.24 
   5  -4   6   34.62    2.53 
   5  -1  -6   44.49    2.75 
   5  -4   6   35.35    2.50 
   4   1   6   36.19    2.22 
  -1  -4  -6   36.64    2.03 
  -4  -1   6   36.26    2.52 
   5  -4   6   35.09    2.20 
  -4  -1   6   37.58    2.15 
   4  -5  -6   35.44    2.32 
  -5   1  -6   35.04    2.46 
  -5   4   6   36.93    2.18 
  -4  -1   6   36.53    2.47 
  -5   1  -6   38.17    2.60 
  -5   1  -6   35.13    2.13 
   5  -4   6   35.89    2.53 
  -5   1  -6   39.30    2.96 
  -5   1  -6   36.23    2.19 
   6  -3   6   28.77    2.28 
  -3  -3   6   29.84    1.76 
   6  -3  -6   32.53    2.14 
   6  -3   6   28.43    2.10 
   6  -3   6   29.48    2.35 
  -6   3  -6   27.48    1.83 
   6  -3   6   23.98    2.82 
  -6   3  -6   31.97    2.39 
   6  -3   6   28.83    1.85 
  -3  -3  -6   27.82    1.70 
  -3  -3  -6   30.18    1.63 
  -6   6   6   25.15    2.15 
   0  -6  -6   21.52    1.42 
   6  -6  -6   27.35    2.07 
   6  -6  -6   23.18    1.83 
  -6   0   6   23.20    2.10 
   6   0   6   21.65    2.03 
  -6   0  -6   21.10    1.98 
   6  -6   6   25.29    2.03 
   6  -6   6   20.08    1.74 
   6  -6  -6   25.60    1.91 
   6  -6   6   19.14    1.78 
  -6   0  -6   22.16    2.03 
  -6   6  -6   21.76    2.17 
   6   0  -6   26.35    2.02 
  -6   0   6   25.59    2.21 
  -5  -2  -6   19.07    1.55 
  -7   2   6   28.79    2.68 
   7  -2   6   21.28    2.18 
   5  -7   6   20.36    1.68 
  -7   5  -6   20.02    2.07 
   5   2  -6   24.19    2.15 
   7  -2   6   19.81    4.74 
   7  -5  -6   26.06    2.36 
   7  -2   6   19.64    1.70 
  -7   2   6   26.94    1.66 
  -2  -5  -6   21.84    1.37 
  -7   2  -6   30.26    4.43 
  -5  -2   6   21.37    1.63 
   7  -2  -6   25.00    2.07 
  -7   5   6   21.72    2.05 
   7  -5   6   20.62    2.21 
   5  -7  -6   21.11    1.67 
   7  -5   6   17.37    4.12 
  -7   2  -6   23.62    2.54 
   5   2   6   19.65    2.04 
   7  -2  -6   29.10    5.67 
  -5  -2   6   23.23    1.91 
  -4  -4   6   15.66    1.62 
  -8   4  -6   16.36    1.70 
  -4  -4  -6   15.31    1.42 
   8  -4  -6   23.63    4.94 
  -4  -4   6   16.15    1.52 
   8  -4   6   13.67    3.64 
  -1   0  -7  316.81   15.23 
  -1   0  -7  310.80   15.18 
   1  -1  -7  302.25   15.23 
   1  -1  -7  285.65   15.21 
   1  -1  -7  293.18   15.25 
  -1   0  -7  314.42   15.24 
   0  -1   7  275.70   15.21 
  -1   0  -7  297.04   15.22 
   1   0   7  320.47   15.23 
   1  -1  -7  277.69   15.18 
  -2   0   7  156.96    8.07 
   2  -2   7  159.00    7.99 
  -2   0   7  158.18    8.23 
   2   0  -7  150.80    8.09 
   2  -2   7  150.99    7.99 
  -2   0   7  152.47    8.18 
  -2   0   7  152.39    8.11 
   2  -2   7  151.71    8.03 
  -2   0   7  155.86    8.11 
  -2   2  -7  159.25    8.07 
   2  -2   7  149.98    8.05 
   2  -2   7  149.12    8.01 
   2  -2   7  169.83    8.09 
   2   0  -7  153.88    8.06 
  -2   0   7  155.24    7.93 
   2  -2   7  148.05    8.09 
   2   0  -7  157.02    8.07 
   3  -1   7  118.30    6.78 
   3  -1   7  124.93    6.76 
  -1  -2   7  133.76    6.63 
  -2  -1  -7  127.64    6.71 
   3  -2  -7  126.04    6.85 
   3  -2  -7  132.04    7.00 
  -2  -1  -7  131.77    6.70 
   3  -2  -7  115.87    6.63 
   3  -1   7  123.60    6.73 
   3  -2  -7  124.22    6.72 
   3  -2  -7  116.11    6.80 
   3  -1   7  131.56    6.59 
  -1  -2   7  133.89    6.46 
   3  -2  -7  121.77    6.77 
  -1  -2   7  143.05    6.65 
  -3   2   7  123.37    6.77 
  -3   1  -7  129.14    6.79 
  -3   1  -7  124.18    7.16 
  -3   1  -7  133.37    6.56 
  -3   2   7  125.59    6.78 
   1  -3   7  120.60    6.69 
  -3   2   7  139.26    6.56 
   2   1   7  132.36    6.68 
   2  -3  -7  122.43    6.62 
  -3   1  -7  119.14    6.79 
  -3   1  -7  125.53    6.78 
  -3   2   7  122.58    6.79 
  -3   1  -7  125.58    6.61 
  -4   3  -7   63.87    4.63 
  -4   1   7   78.06    4.43 
  -4   1   7   78.56    4.02 
  -4   1   7   74.22    4.18 
   1  -4  -7   75.14    3.93 
  -4   3  -7   72.89    4.03 
  -4   3  -7   67.40    4.67 
   3  -4   7   74.02    4.15 
  -4   1   7   79.52    4.33 
  -4   1   7   74.70    4.45 
  -4   1   7   77.14    4.34 
  -4   1   7   73.09    4.09 
   3  -4   7   72.11    4.21 
  -1  -3  -7   79.62    3.94 
   4  -1  -7   80.50    4.39 
   4  -3   7   75.48    4.41 
   4  -3   7   77.88    4.30 
   4  -3   7   82.22    4.37 
  -3   4  -7   79.32    4.21 
   4  -1  -7   74.27    4.42 
   4  -3   7   71.21    4.30 
   4  -3   7   70.56    4.35 
   4  -1  -7   75.70    4.39 
   4  -1  -7   77.76    4.07 
   4  -3   7   76.36    4.35 
   4  -3   7   75.28    4.21 
   4  -3   7   80.36    4.04 
  -4   0  -7   64.25    3.87 
  -4   0  -7   67.49    3.75 
  -4   0  -7   65.60    3.86 
   4  -4  -7   61.56    3.93 
   4  -4  -7   61.24    3.77 
   4  -4  -7   59.79    3.73 
  -4   0  -7   67.98    3.49 
  -4   4   7   65.45    3.50 
   4  -4  -7   69.23    3.54 
   4   0   7   66.17    3.58 
   4  -4  -7   61.35    3.83 
  -4   0  -7   64.84    3.47 
   5  -3  -7   55.15    3.63 
  -3  -2  -7   58.18    2.97 
   5  -2   7   56.28    3.55 
  -3  -2  -7   59.30    3.34 
   5  -3  -7   56.89    3.44 
   5  -3  -7   52.50    3.07 
   5  -3  -7   54.59    3.75 
  -3  -2  -7   59.33    3.30 
  -3  -2  -7   56.52    3.04 
   5  -2   7   54.30    3.33 
   5  -2   7   60.58    3.36 
   5  -2   7   55.08    3.57 
   5  -2   7   55.74    3.45 
   5  -3  -7   57.84    3.60 
   5  -3  -7   54.48    3.62 
   5  -2   7   55.95    3.18 
  -5   2  -7   55.99    3.40 
  -5   2  -7   57.26    3.54 
  -5   3   7   51.98    3.53 
  -5   2  -7   56.33    3.58 
  -5   2  -7   55.95    3.14 
  -5   3   7   55.45    3.13 
  -5   2  -7   57.14    3.57 
   2  -5   7   55.20    3.38 
  -5   2  -7   55.58    3.25 
   3   2   7   60.78    3.19 
   5  -5   7   44.14    2.79 
   5   0  -7   55.89    2.85 
   5  -5   7   44.79    3.00 
   5  -5   7   45.27    3.53 
  -5   0   7   54.06    3.28 
  -5   0   7   54.40    3.34 
   5  -5   7   52.00    3.25 
  -5   5  -7   41.58    2.75 
   5  -5   7   49.24    3.14 
   0  -5  -7   46.11    2.62 
  -6   2   7   51.53    3.32 
  -6   2   7   50.85    2.61 
  -6   2   7   48.60    2.86 
   4  -6   7   40.31    2.52 
  -6   2   7   50.48    2.94 
   4   2  -7   40.16    2.55 
  -6   4  -7   36.45    2.60 
  -6   2   7   50.20    2.72 
   2  -6  -7   40.86    2.41 
   6  -4   7   41.48    3.02 
  -4  -2   7   38.88    2.54 
   6  -2  -7   53.56    3.37 
   6  -4   7   45.98    3.03 
   6  -4   7   45.53    3.66 
  -4  -2   7   41.24    2.87 
  -2  -4  -7   38.30    2.40 
   6  -2  -7   48.42    2.63 
   6  -4   7   42.64    3.11 
   6  -2  -7   41.29    2.86 
  -4  -2   7   42.52    2.82 
   6  -5  -7   35.21    2.66 
  -5  -1  -7   32.54    2.04 
  -5  -1  -7   33.71    2.42 
   6  -5  -7   33.88    3.33 
   6  -1   7   35.65    2.23 
   6  -5  -7   33.73    2.57 
   6  -1   7   37.45    2.47 
  -5  -1  -7   35.10    2.48 
   5  -6  -7   32.64    2.15 
  -6   1  -7   42.00    2.80 
   5  -6  -7   31.27    2.24 
   5   1   7   32.06    2.23 
  -6   1  -7   36.82    2.63 
  -6   5   7   32.13    2.19 
   7  -4  -7   29.39    2.83 
   7  -3   7   30.86    1.94 
   7  -4  -7   27.24    2.52 
   7  -4  -7   27.99    4.73 
   7  -3   7   33.98    2.77 
  -4  -3  -7   29.79    1.88 
  -3  -4   7   28.00    1.83 
   7  -3   7   32.97    4.08 
  -7   3  -7   27.87    2.26 
  -7   3  -7   33.33    3.27 
  -7   3  -7   28.91    2.27 
  -7   4   7   26.19    1.96 
  -7   3  -7   28.24    1.93 
  -7   6  -7   22.32    2.24 
   6  -7   7   25.31    2.16 
   6   1  -7   21.01    2.29 
   7  -1  -7   23.42    2.16 
   7   0   7   20.37    2.17 
   5  -8   7   20.16    1.98 
  -8   5  -7   19.49    2.16 
   8  -3  -7   19.69    1.91 
  -3  -5  -7   20.65    1.57 
  -5  -3   7   20.85    1.74 
   8  -3  -7   26.24    5.39 
   8  -5   7   23.33    5.10 
   1  -1   8  540.27   27.32 
   1  -1   8  535.82   27.23 
   1  -1   8  555.66   27.35 
  -1   0   8  554.53   27.26 
  -1   0   8  542.18   27.20 
  -1   0   8  492.60   27.21 
   1  -1   8  554.55   27.34 
   1   0  -8  542.84   27.24 
  -1   0   8  530.46   27.38 
   0  -1  -8  515.99   27.23 
  -1   1  -8  544.82   27.24 
   1  -1   8  540.92   27.24 
   2  -2  -8  379.96   20.55 
   2   0   8  425.11   20.56 
  -2   0  -8  417.47   20.43 
  -2   0  -8  376.50   20.62 
  -2   0  -8  419.00   20.58 
   2  -2  -8  394.98   20.54 
  -2   0  -8  426.53   20.55 
  -2   0  -8  403.68   20.74 
  -2   0  -8  400.53   20.58 
   2   0   8  402.14   20.57 
   2   0   8  413.48   20.55 
   0  -2   8  395.09   20.50 
   2  -2  -8  379.48   20.44 
  -3   1   8  260.25   13.93 
  -3   1   8  257.41   13.74 
   2  -3   8  263.08   13.85 
  -3   1   8  262.63   13.99 
  -3   2  -8  272.64   13.69 
  -3   1   8  253.67   13.98 
  -3   2  -8  271.23   13.91 
  -3   2  -8  277.97   13.95 
   2  -3   8  272.90   13.77 
   2   1  -8  267.87   13.83 
  -3   1   8  271.85   13.97 
  -3   2  -8  257.67   13.90 
  -3   1   8  293.05   13.69 
   3  -2   8  271.79   13.92 
  -2  -1   8  263.77   13.87 
   3  -1  -8  266.57   13.92 
   3  -2   8  267.28   13.85 
  -2  -1   8  264.28   13.89 
   3  -2   8  283.08   13.86 
   3  -2   8  281.00   13.71 
   3  -2   8  250.97   14.06 
   3  -2   8  254.69   13.93 
   3  -1  -8  250.85   13.96 
   3  -1  -8  265.42   13.94 
  -1  -2  -8  294.69   13.72 
   3  -1  -8  283.95   13.71 
   4  -3  -8  161.00    9.42 
  -3  -1  -8  182.24    9.53 
   4  -3  -8  184.46    9.66 
  -3  -1  -8  180.43    9.55 
   4  -1   8  172.72    9.56 
   4  -3  -8  169.18    9.21 
   4  -3  -8  185.64    9.59 
   4  -1   8  168.39    9.61 
   4  -3  -8  172.47    9.47 
   4  -3  -8  174.23    9.67 
   4  -1   8  178.44    9.34 
  -3  -1  -8  184.54    9.24 
   4  -3  -8  208.63    9.82 
   4  -3  -8  168.40    9.56 
   4  -1   8  186.79    9.96 
   4  -3  -8  197.80    9.33 
   1  -4   8  172.91    9.51 
  -4   1  -8  188.48    9.55 
  -4   1  -8  172.40    9.64 
  -4   1  -8  175.89    9.58 
  -4   1  -8  179.22    9.29 
  -4   1  -8  181.22    9.36 
   3   1   8  189.01    9.32 
   3  -4  -8  171.17    9.42 
  -4   1  -8  179.81    9.64 
  -4   3   8  187.99    9.29 
  -4   1  -8  178.38    9.51 
  -4   0   8  162.52    8.32 
  -4   0   8  146.34    7.86 
  -4   0   8  149.42    7.68 
   4   0  -8  149.72    7.75 
   0  -4  -8  151.14    7.62 
   4  -4   8  146.58    7.98 
   4  -4   8  146.07    8.03 
  -4   0   8  145.84    8.11 
  -4   0   8  160.45    7.73 
  -4   4  -8  147.39    7.71 
  -4   0   8  151.70    8.02 
   4  -4   8  141.95    7.87 
   4  -4   8  156.51    7.75 
   4  -4   8  142.46    8.11 
  -4   0   8  141.61    8.14 
   4  -4   8  131.15    8.22 
  -5   2   8  127.71    7.09 
  -5   2   8  126.17    7.05 
  -5   2   8  125.09    7.21 
  -5   2   8  122.88    6.52 
  -5   2   8  118.82    6.93 
  -5   3  -8  122.79    6.95 
   3   2  -8  140.39    6.52 
   3  -5   8  118.90    6.79 
   2  -5  -8  128.01    6.41 
  -5   3  -8  123.47    6.57 
   5  -3   8  122.84    6.81 
   5  -3   8  122.47    6.75 
   5  -3   8  125.51    6.84 
  -3  -2   8  130.04    6.79 
   5  -3   8  114.08    7.24 
   5  -3   8  126.89    6.98 
   5  -2  -8  116.02    6.76 
   5  -2  -8  127.83    7.05 
   5  -2  -8  118.42    6.52 
  -3  -2   8  133.90    6.86 
  -2  -3  -8  126.96    6.41 
   5  -2  -8  124.63    6.93 
   5  -2  -8  120.68    7.06 
   5  -3   8  119.69    7.00 
   5  -3   8  118.77    7.12 
   5  -3   8  123.98    6.55 
   5  -5  -8   92.25    5.38 
  -5   5   8   99.04    5.05 
   5  -5  -8   92.66    5.11 
   5   0   8   91.81    5.14 
  -5   0  -8   91.23    5.46 
   5  -5  -8   95.44    5.50 
  -5   0  -8   92.99    5.52 
   6  -4  -8   86.26    5.14 
   6  -4  -8   86.74    5.22 
   6  -2   8   77.28    4.60 
  -4  -2  -8   83.44    4.49 
  -4  -2  -8   85.93    4.83 
  -4  -2  -8   82.91    4.76 
   6  -2   8   82.98    5.15 
   6  -4  -8   91.31    5.47 
   6  -4  -8   82.13    4.91 
   6  -2   8   78.41    4.82 
  -6   2  -8   81.58    4.64 
   4   2   8   85.12    4.60 
  -6   2  -8   80.64    4.56 
  -6   2  -8   86.52    5.02 
  -6   2  -8   82.73    4.85 
  -6   4   8   79.72    4.54 
  -6   2  -8   83.38    5.14 
   5  -6   8   72.30    4.09 
   5   1  -8   75.60    4.10 
   5  -6   8   61.91    4.15 
   1  -6  -8   70.95    3.87 
  -6   1   8   78.18    4.67 
  -6   1   8   77.88    4.76 
  -6   5  -8   70.03    4.13 
   6  -5   8   68.98    4.42 
  -5  -1   8   78.80    4.57 
  -5  -1   8   76.10    4.47 
   6  -5   8   60.68    4.87 
  -1  -5  -8   73.88    3.88 
   6  -5   8   69.59    4.54 
   6  -5   8   72.51    4.53 
   6  -1  -8   77.53    4.08 
  -5  -1   8   79.42    4.05 
  -7   3   8   53.76    3.55 
  -7   3   8   55.32    3.23 
  -7   4  -8   54.27    3.35 
   7  -4   8   54.62    3.93 
  -3  -4  -8   56.78    3.12 
   7  -4   8   49.68    4.97 
  -3  -4  -8   57.03    3.06 
   7  -3  -8   59.99    3.24 
  -4  -3   8   57.43    3.30 
   7  -3  -8   61.64    5.91 
   7  -3  -8   60.99    4.18 
   7  -4   8   56.60    4.09 
   7  -1   8   40.15    2.97 
  -7   6   8   44.30    3.00 
   6   1   8   39.74    2.92 
   6  -7  -8   42.56    3.04 
   7   0  -8   39.84    2.97 
   8  -3   8   28.63    2.54 
   8  -5  -8   39.16    5.06 
   8  -3   8   33.44    5.76 
  -8   5   8   33.35    2.55 
   0   0   9    8.44    0.56 
   0   0   9    8.44    0.59 
   0   0  -9    8.56    0.57 
   0   0  -9    8.47    0.56 
   2  -1  -9   39.34    2.28 
   1  -2   9   40.77    2.19 
   1   1  -9   39.86    2.20 
   2  -1   9   38.78    2.28 
   2  -1   9   41.48    2.26 
  -1  -1   9   40.32    2.23 
   2  -1  -9   42.65    2.55 
  -2   1  -9   40.76    2.29 
   1   1   9   42.03    2.20 
   1  -2  -9   39.23    2.17 
  -1  -1  -9   40.99    2.20 
  -1  -1  -9   41.16    2.21 
   1  -2   9   38.32    2.22 
   2  -1   9   41.02    2.21 
  -2   1   9   40.04    2.30 
  -2   1   9   37.33    2.30 
  -2   1   9   42.20    2.33 
   2  -1  -9   35.98    2.28 
   2  -1   9   41.26    2.28 
   1  -2   9   41.90    2.20 
   2  -1  -9   36.23    2.25 
  -1  -1   9   40.98    2.25 
  -2   1  -9   40.88    2.28 
  -2   1  -9   37.82    2.27 
   3   0  -9   24.31    1.67 
  -3   0  -9   25.86    1.41 
  -3   0   9   24.40    1.37 
   3   0  -9   24.30    1.43 
   3  -3  -9   23.01    1.64 
  -3   0   9   25.29    1.81 
  -3   0   9   24.68    1.76 
   3  -3   9   23.60    1.61 
  -3   0   9   24.82    1.71 
   3  -3   9   24.78    1.67 
   3  -3   9   25.15    1.60 
   3  -3  -9   24.32    1.62 
  -3   0  -9   23.53    1.68 
   3   0   9   24.86    1.46 
  -3   0  -9   24.00    1.65 
   3  -3  -9   24.40    1.53 
  -3   3   9   25.02    1.40 
  -3   0   9   26.02    1.69 
   0  -3   9   23.64    1.56 
  -3   0  -9   25.05    1.59 
  -3   0   9   24.48    1.71 
  -3   3  -9   23.81    1.40 
  -3   0   9   23.19    1.41 
   3   0   9   24.18    1.60 
  -3   0  -9   24.31    1.81 
   3   0  -9   24.78    1.64 
   3  -3   9   23.29    1.52 
   3   0   9   26.25    1.66 
  -3   0   9   23.69    1.61 
  -3   0  -9   23.65    1.62 
   2  -4   9   17.50    1.31 
   4  -2  -9   18.78    1.46 
   4  -2   9   18.26    1.33 
  -4   2   9   18.10    1.43 
  -4   2  -9   17.37    1.38 
   4  -2   9   17.39    1.42 
   2  -4  -9   17.80    1.01 
   4  -2  -9   18.51    1.36 
   4  -2   9   18.40    1.34 
   4  -2   9   17.31    1.16 
   4  -2  -9   16.81    1.25 
  -2  -2   9   18.27    1.26 
   4  -2  -9   18.01    1.48 
  -2  -2  -9   19.68    1.22 
   4  -2  -9   18.04    1.39 
   4  -2   9   18.19    1.28 
  -2  -2   9   19.08    1.30 
  -4   2   9   17.78    1.45 
   4  -2  -9   16.68    1.10 
  -4   2  -9   17.18    1.13 
  -4   2  -9   18.15    1.42 
   4  -2   9   17.26    1.30 
  -4   2   9   18.14    1.12 
  -4   2  -9   17.98    1.41 
   4  -2   9   18.67    1.40 
  -4   2   9   17.88    1.42 
   5  -4  -9   15.95    1.43 
   5  -1   9   13.19    1.15 
  -4  -1  -9   15.79    1.36 
   5  -4  -9   16.89    1.37 
   4  -5   9   13.01    1.18 
   5  -4  -9   14.63    1.46 
  -5   1   9   16.16    1.42 
  -5   1   9   14.87    1.04 
   5  -1   9   15.39    1.48 
  -5   1   9   13.96    1.48 
   4  -5   9   14.69    1.04 
   5  -4  -9   14.98    1.13 
   4  -5   9   16.12    1.36 
   1  -5  -9   13.35    0.92 
  -4  -1  -9   15.13    1.29 
  -5   4  -9   13.81    1.11 
  -5   1   9   14.54    1.44 
  -5   1   9   15.42    1.12 
   4  -5   9   14.71    1.28 
  -4  -1  -9   14.91    1.01 
   4   1  -9   16.24    1.10 
   5  -1   9   14.60    1.26 
   4  -5  -9   15.10    1.24 
  -5   1  -9   14.05    1.39 
  -4  -1   9   19.13    1.50 
   5  -4   9   14.21    1.10 
  -5   1  -9   15.01    1.44 
  -5   1  -9   14.16    1.05 
   5  -1  -9   14.97    1.11 
   5  -4   9   15.62    1.45 
   5  -4   9   15.23    1.43 
  -5   1  -9   14.47    1.10 
  -1  -4  -9   14.56    0.94 
   5  -1  -9   15.33    1.52 
   5  -4   9   17.83    1.89 
   4   1   9   14.57    1.13 
  -5   1  -9   16.40    1.81 
   5  -4   9   14.50    1.36 
  -4  -1   9   16.66    1.09 
  -4  -1   9   17.77    1.40 
   4  -5  -9   16.82    1.13 
  -5   4   9   15.19    1.10 
   6  -3  -9   17.00    2.20 
  -6   3  -9   13.20    1.18 
   6  -3  -9   17.73    1.16 
   6  -3   9   12.93    1.18 
   6  -3  -9   15.35    1.73 
   6  -3   9   14.01    1.50 
   6  -3   9   15.20    1.40 
  -3  -3  -9   13.59    0.98 
  -6   3   9   15.65    1.68 
   6  -3   9   15.05    2.20 
  -3  -3   9   16.25    1.10 
  -3  -3  -9   14.18    0.93 
   6  -3   9   14.62    1.59 
   6  -3   9   15.07    1.73 
  -6   3   9   14.09    1.13 
   6  -3  -9   13.47    1.32 
  -6   3  -9   16.40    1.67 
   6  -3  -9   13.72    1.56 
   6  -6   9   14.23    1.53 
   6  -6   9   11.38    1.31 
  -6   6  -9   13.71    1.70 
  -6   0   9   13.08    1.65 
  -6   0  -9   11.33    1.49 
   6  -6  -9   10.35    1.39 
   6  -6   9   11.56    1.29 
   6   0  -9   16.86    1.79 
   6  -6  -9   11.79    1.35 
  -6   6   9   13.03    1.85 
  -6   0  -9   12.06    1.49 
   6   0   9   11.00    1.69 
   0  -6  -9   11.47    0.95 
  -6   0   9   14.76    1.75 
   6  -6  -9   12.67    1.55 
  -5  -2  -9    9.21    1.08 
  -5  -2  -9   10.00    1.36 
   5   2  -9   14.04    1.92 
   7  -5  -9   12.58    1.87 
  -7   2   9   15.41    2.35 
  -7   5  -9   10.80    1.84 
   7  -2   9   11.93    1.39 
   7  -5  -9   13.33    4.21 
   7  -2   9   12.19    1.55 
   7  -2   9   11.54    3.17 
   5  -7   9   11.15    1.40 
  -7   2   9   20.99    3.96 
  -7   2  -9   11.70    1.96 
   7  -2  -9   14.58    1.33 
   7  -5   9   14.78    3.73 
  -5  -2   9   12.83    1.43 
   7  -2  -9   12.27    1.57 
  -7   5   9   12.26    1.74 
   5   2   9    9.62    1.72 
  -2  -5  -9   11.02    0.89 
   7  -5   9   10.76    1.80 
   5  -7  -9   10.35    1.29 
  -5  -2   9   12.94    1.23 
   7  -2  -9   16.53    5.13 
  -4  -4  -9    9.22    1.18 
  -4  -4   9    9.67    1.51 
  -8   4   9   10.74    1.65 
   8  -4   9   11.63    3.50 
   8  -4  -9   11.08    3.28 
  -8   4  -9    8.58    1.52 
   0  -1  10  425.15   23.06 
  -1   0 -10  456.05   23.05 
  -1   0 -10  485.12   23.22 
   0   1 -10  469.04   23.06 
   1  -1 -10  441.33   23.04 
   0  -1  10  449.18   22.93 
   1  -1 -10  451.37   23.12 
   1  -1 -10  463.10   23.06 
   1  -1 -10  419.73   23.04 
   1   0  10  473.98   23.06 
   1  -1 -10  438.48   23.01 
  -1   0 -10  472.45   23.06 
   0  -1  10  457.07   23.03 
  -1   0 -10  456.33   23.05 
   2  -2  10  357.06   18.17 
  -2   0  10  351.99   18.40 
  -2   0  10  358.05   18.35 
  -2   2 -10  342.36   18.29 
   2  -2  10  359.75   18.32 
  -2   0  10  371.93   18.42 
  -2   0  10  354.36   18.36 
   2  -2  10  355.31   18.38 
  -2   0  10  364.34   18.21 
   2  -2  10  339.86   18.29 
   2  -2  10  363.32   18.35 
   2   0 -10  366.33   18.36 
   2   0 -10  349.83   18.37 
  -2   0  10  371.80   18.54 
   2   0 -10  359.96   18.35 
   2  -2  10  348.25   18.41 
   2  -2  10  374.92   18.38 
   2  -2  10  363.15   18.27 
  -2   2 -10  367.60   18.35 
  -2   0  10  349.09   18.48 
   3  -1  10  228.50   12.73 
   3  -2 -10  241.34   12.74 
   3  -1  10  258.58   12.55 
   3  -2 -10  207.60   12.55 
   3  -2 -10  242.55   12.69 
  -2  -1 -10  243.76   12.66 
  -2  -1 -10  254.32   12.65 
   3  -1  10  252.01   12.71 
  -1  -2  10  243.76   12.58 
   3  -2 -10  233.89   12.82 
   3  -1  10  245.35   12.72 
   3  -1  10  251.71   12.64 
   3  -2 -10  244.35   12.46 
   3  -2 -10  230.08   12.76 
  -1  -2  10  255.31   12.59 
  -3   2  10  231.14   12.76 
  -3   2  10  266.96   12.50 
  -3   1 -10  260.08   12.51 
  -3   1 -10  241.94   12.75 
  -3   2  10  238.21   12.76 
   1  -3  10  235.36   12.65 
  -3   1 -10  250.72   12.75 
  -3   1 -10  248.31   12.74 
   2   1  10  250.72   12.64 
  -3   2  10  246.12   12.75 
  -3   1 -10  249.92   12.57 
  -3   2  10  246.40   12.75 
   2  -3 -10  251.21   12.61 
  -4   1  10  155.89    8.56 
  -4   1  10  156.14    8.61 
   3   1 -10  171.09    8.51 
  -4   1  10  174.70    8.84 
  -4   1  10  157.50    8.82 
   3  -4  10  163.02    8.65 
  -4   3 -10  161.27    8.52 
   3  -4  10  158.27    8.71 
   1  -4 -10  160.30    8.41 
  -4   1  10  162.58    8.91 
  -4   1  10  157.40    8.92 
  -4   1  10  165.80    8.49 
   4  -3  10  166.31    8.95 
   4  -3  10  180.74    8.57 
  -3  -1  10  155.49    8.78 
  -3  -1  10  161.98    8.84 
   4  -1 -10  163.05    8.89 
  -3  -1  10  176.45    8.54 
   4  -3  10  173.35    8.52 
   4  -3  10  170.80    8.81 
   4  -3  10  167.16    9.10 
   4  -3  10  163.23    8.70 
   4  -3  10  177.47    9.12 
   4  -1 -10  167.34    8.86 
   4  -3  10  165.82    8.82 
   4  -3  10  157.19    8.60 
  -3   4 -10  169.40    8.47 
   4  -3  10  161.73    8.86 
   4  -1 -10  149.64    8.88 
   4  -1 -10  157.80    8.51 
   4  -4 -10  121.90    7.48 
   4  -4 -10  131.75    7.44 
   4   0  10  137.40    7.21 
  -4   0 -10  140.95    7.38 
  -4   0 -10  136.04    7.49 
  -4   4  10  141.01    7.13 
   4  -4 -10  149.03    7.20 
  -4   0 -10  143.40    7.11 
  -4   0 -10  129.89    7.17 
  -4   0 -10  139.37    7.53 
   4  -4 -10  132.58    7.50 
   5  -2  10  110.57    6.34 
   5  -2  10  112.71    6.54 
   5  -3 -10  114.84    6.71 
   5  -3 -10  110.75    6.48 
  -3  -2 -10  124.34    6.31 
   5  -3 -10  108.58    6.31 
   5  -2  10  114.49    6.60 
   5  -3 -10  117.37    6.65 
  -3  -2 -10  117.27    6.32 
   5  -2  10  119.70    6.20 
  -3  -2 -10  118.22    6.05 
   5  -2  10  111.45    6.45 
  -3  -2 -10  116.39    5.96 
   5  -3 -10  115.24    6.59 
   5  -3 -10  114.08    6.06 
   5  -3 -10  113.82    6.65 
  -5   3  10  113.68    6.11 
   3   2  10  122.21    6.14 
  -5   2 -10  115.74    6.56 
  -5   3  10  121.64    6.79 
  -5   2 -10  121.58    6.27 
  -5   2 -10  118.25    6.60 
  -5   2 -10  117.11    6.15 
  -5   2 -10  111.45    6.51 
   2  -5  10  111.48    6.39 
  -5   5 -10   86.58    4.66 
   5  -5  10   86.74    5.01 
   5  -5  10   82.29    4.91 
   5  -5  10   91.31    5.15 
   0  -5 -10   84.18    4.49 
  -5   0  10   82.43    5.10 
   5   0 -10   81.51    4.64 
   5  -5  10   89.88    4.71 
   5  -5  10   85.52    5.44 
  -5   0  10   82.04    5.14 
   4  -6  10   75.73    4.29 
  -6   2  10   79.64    5.01 
   4  -6  10   74.53    4.60 
  -6   2  10   76.74    4.43 
   4   2 -10   86.96    4.34 
   2  -6 -10   76.96    4.17 
  -6   2  10   75.92    4.62 
  -6   2  10   75.36    4.29 
  -6   4 -10   72.59    4.38 
   6  -4  10   77.87    4.79 
  -4  -2  10   88.33    4.77 
   6  -2 -10   72.28    4.32 
   6  -2 -10   74.15    4.96 
   6  -4  10   77.93    4.83 
   6  -4  10   80.22    4.93 
  -2  -4 -10   81.87    4.19 
  -4  -2  10   89.36    4.40 
   6  -4  10   77.91    5.33 
  -4  -2  10   87.27    4.68 
  -5  -1 -10   63.41    3.58 
   6  -5 -10   61.45    4.75 
   6  -5 -10   64.12    4.14 
   6  -1  10   63.55    3.75 
   6  -5 -10   67.45    4.25 
  -5  -1 -10   64.92    3.98 
   6  -1  10   65.86    3.97 
  -5  -1 -10   66.30    4.03 
  -6   5  10   63.51    3.73 
   5  -6 -10   62.19    3.82 
   5   1  10   64.45    3.81 
   5  -6 -10   65.75    3.75 
  -6   1 -10   65.43    4.22 
  -6   1 -10   69.38    4.27 
  -6   1 -10   66.53    4.17 
   7  -4 -10   49.09    4.59 
  -3  -4  10   54.93    3.01 
  -4  -3 -10   53.77    3.01 
   7  -4 -10   47.68    5.20 
   7  -3  10   57.23    3.91 
   7  -3  10   52.45    4.76 
   7  -4 -10   52.41    4.00 
   7  -3  10   51.90    3.08 
  -7   4  10   49.40    3.08 
  -7   3 -10   48.61    3.50 
  -7   3 -10   51.67    3.08 
   6   1 -10   43.21    3.15 
  -7   6 -10   38.87    3.10 
  -7   1  10   54.21    4.49 
   6  -7  10   41.60    2.99 
   7  -1 -10   45.60    3.03 
  -1  -6 -10   41.69    2.48 
   1   0 -11  233.61   12.19 
   1   0 -11  210.85   12.20 
  -1   0  11  222.70   12.20 
  -1   0  11  230.23   12.09 
   0  -1 -11  242.72   12.18 
   1  -1  11  233.16   12.18 
   1  -1  11  233.57   12.21 
   0  -1 -11  262.53   12.20 
   1  -1  11  231.57   12.19 
  -1   1 -11  245.63   12.19 
   0   1  11  241.83   12.17 
   1  -1  11  230.73   12.30 
   1  -1  11  248.43   12.19 
  -1   0  11  250.57   12.22 
   1   0 -11  241.33   12.19 
   1  -1  11  249.71   12.17 
  -2   0 -11  123.46    6.59 
   2  -2 -11  121.68    6.51 
   2  -2 -11  125.76    6.56 
   2  -2 -11  109.19    6.45 
   0  -2  11  128.35    6.53 
  -2   0 -11  122.68    6.68 
  -2   0 -11  124.37    6.76 
  -2   0 -11  130.05    6.55 
   2   0  11  134.59    6.60 
   2  -2 -11  126.57    6.42 
   2   0  11  132.22    6.57 
   2  -2 -11  121.82    6.61 
   2   0  11  136.35    6.58 
   2  -2 -11  118.29    6.56 
   2  -2 -11  118.90    6.55 
  -2   2  11  115.54    6.57 
  -2   0 -11  128.95    6.58 
   2   1 -11  117.40    5.56 
  -3   2 -11  106.55    5.57 
  -3   1  11   99.97    5.86 
  -3   1  11  107.08    5.64 
  -3   1  11  103.78    5.82 
   2   1 -11  109.24    5.74 
  -3   2 -11  106.03    5.79 
  -3   2 -11  107.40    5.78 
  -3   2 -11  107.35    5.81 
  -3   1  11  106.85    5.86 
   2  -3  11  103.26    5.73 
   2  -3  11  109.32    5.69 
   2  -3  11  109.86    5.68 
  -3   1  11  112.01    5.56 
   3  -2  11  108.77    5.59 
   3  -1 -11  101.42    5.80 
   3  -1 -11  106.68    5.56 
  -1  -2 -11  119.95    5.63 
   3  -2  11  104.91    6.00 
   3  -2  11  104.77    5.79 
   3  -2  11  108.62    5.74 
   3  -1 -11   98.32    5.84 
   3  -2  11  101.83    5.81 
   3  -2  11  114.35    5.76 
  -2  -1  11  105.84    5.79 
   3  -1 -11  105.95    5.81 
  -2  -1  11  105.54    5.78 
   4  -3 -11   70.31    3.92 
   4  -1  11   67.76    3.90 
   4  -3 -11   65.42    3.55 
   4  -3 -11   74.19    3.69 
  -3  -1 -11   71.53    3.57 
  -3  -1 -11   67.39    3.86 
  -3  -1 -11   64.34    3.82 
   4  -3 -11   67.35    3.97 
   4  -3 -11   69.19    3.77 
   4  -1  11   66.98    3.68 
   4  -1  11   65.12    3.95 
   4  -3 -11   63.89    3.99 
   4  -3 -11   61.04    3.87 
   4  -1  11   66.51    3.80 
   4  -3 -11   67.07    3.84 
  -4   1 -11   71.47    3.71 
   1  -4  11   65.70    3.84 
   3  -4 -11   63.75    3.77 
  -4   1 -11   67.81    3.63 
  -4   1 -11   64.55    3.89 
  -4   1 -11   67.79    3.95 
   3  -4 -11   66.55    3.83 
   3   1  11   68.32    3.66 
  -4   1 -11   64.51    3.96 
  -4   3  11   65.91    3.60 
  -4   1 -11   64.59    3.85 
  -4   1 -11   72.59    3.93 
  -4   0  11   55.26    3.33 
   4  -4  11   57.64    3.40 
   4  -4  11   55.58    3.65 
  -4   4 -11   54.53    3.06 
  -4   0  11   56.11    3.00 
   4  -4  11   52.75    3.22 
   4  -4  11   56.16    3.47 
   0  -4 -11   54.01    2.96 
   4   0 -11   54.39    3.07 
  -4   0  11   54.94    3.03 
   4  -4  11   54.68    3.32 
  -4   0  11   60.64    3.10 
   4  -4  11   58.78    3.11 
  -4   0  11   55.06    3.44 
  -4   0  11   52.73    3.17 
  -4   0  11   62.16    3.58 
  -4   0  11   51.57    3.45 
   3  -5  11   48.80    3.05 
   2  -5 -11   48.06    2.63 
  -5   3 -11   49.06    3.16 
  -5   2  11   49.35    2.75 
  -5   2  11   51.34    3.30 
  -5   2  11   53.73    3.44 
   3   2 -11   52.32    2.73 
  -5   3 -11   49.71    2.81 
  -5   2  11   44.68    3.11 
  -5   2  11   49.90    2.93 
   5  -2 -11   50.62    3.24 
   5  -3  11   52.19    3.46 
  -3  -2  11   54.62    2.83 
  -2  -3 -11   50.10    2.64 
   5  -2 -11   50.37    3.19 
   5  -2 -11   48.14    2.75 
   5  -3  11   47.84    3.04 
   5  -3  11   48.24    3.15 
   5  -3  11   48.43    3.40 
  -3  -2  11   49.88    3.06 
  -3  -2  11   46.93    2.98 
   5  -3  11   45.48    3.18 
   5  -2 -11   46.70    3.25 
   5  -3  11   50.25    2.81 
   5  -3  11   47.45    3.48 
   5  -2 -11   42.79    2.94 
  -5   0 -11   38.66    2.68 
   5  -5 -11   38.11    2.37 
   5   0  11   35.59    2.39 
  -5   0 -11   37.23    2.70 
  -5   5  11   42.40    2.32 
   5  -5 -11   42.79    2.81 
   5  -5 -11   38.44    2.64 
  -4  -2 -11   35.15    2.08 
   6  -4 -11   37.81    2.85 
   6  -2  11   32.24    2.22 
   6  -4 -11   38.11    2.74 
   6  -2  11   34.29    2.71 
  -4  -2 -11   34.91    2.31 
  -4  -2 -11   37.01    2.40 
   6  -2  11   34.53    2.42 
  -6   2 -11   34.94    2.25 
  -6   4  11   36.74    2.17 
  -6   2 -11   33.67    2.17 
   4  -6 -11   37.42    2.19 
   4   2  11   32.72    2.18 
  -6   2 -11   34.64    2.71 
  -6   2 -11   33.78    2.70 
  -6   1  11   35.81    2.80 
   5  -6  11   31.58    2.11 
   1  -6 -11   30.77    1.89 
  -6   5 -11   31.39    2.31 
   5   1 -11   35.17    2.29 
  -6   1  11   37.21    2.69 
  -6   1  11   32.41    2.59 
   6  -5  11   32.31    2.55 
   6  -1 -11   36.00    2.14 
  -5  -1  11   30.81    2.40 
   6  -5  11   30.60    2.42 
  -5  -1  11   33.46    2.10 
   6  -5  11   32.61    2.52 
  -5  -1  11   31.88    2.05 
  -1  -5 -11   31.97    1.89 
  -5  -1  11   33.89    2.52 
   6  -5  11   32.31    3.08 
  -7   3  11   24.25    2.08 
  -7   3  11   28.47    1.83 
  -7   4 -11   25.91    2.01 
  -7   3  11   26.46    2.20 
   7  -4  11   28.84    4.26 
  -3  -4 -11   27.79    1.67 
   7  -3 -11   31.02    2.86 
   7  -4  11   25.49    3.73 
  -3  -4 -11   27.14    1.62 
   7  -4  11   27.36    2.81 
   7  -1  11   19.41    2.22 
   6   1  11   19.83    2.14 
   6  -7 -11   21.40    2.29 
  -7   6  11   23.82    2.34 
   0   0 -12  211.63   11.28 
   0   0  12  212.50   11.23 
   0   0  12  238.11   11.30 
   0   0 -12  222.49   11.24 
   0   0 -12  213.22   11.24 
   1   1  12  103.80    5.37 
  -2   1 -12   99.57    5.33 
   2  -1  12   94.68    5.75 
   2  -1 -12   99.37    5.58 
  -1  -1  12  104.34    5.43 
  -2   1 -12  104.69    5.44 
   2  -1 -12   92.61    5.44 
  -1  -1  12  108.31    5.43 
   1  -2 -12  102.01    5.36 
   2  -1  12  106.00    5.45 
   1  -2  12  112.10    5.41 
   2  -1  12  106.04    5.43 
  -1  -1 -12  107.27    5.37 
  -1   2 -12   99.10    5.36 
   2  -1 -12  101.17    5.45 
  -1  -1  12  101.27    5.32 
   2  -1 -12   99.97    5.44 
  -2   1 -12  100.39    5.44 
   2  -1  12  103.95    5.37 
   1  -2  12   97.99    5.39 
   2  -1  12   98.75    5.45 
  -2   1  12   91.79    5.46 
  -2   1  12  106.52    5.52 
  -2   1  12  101.93    5.47 
  -2   1 -12  104.19    5.45 
   1  -2 -12  104.80    5.37 
  -1  -1 -12  102.16    5.37 
   1   1 -12  107.55    5.41 
   1  -2  12  106.74    5.39 
  -2   1  12  101.88    5.32 
   3  -3  12   51.74    3.02 
  -3   0  12   52.97    3.20 
   3   0 -12   51.16    3.04 
  -3   0 -12   51.63    3.04 
  -3   0 -12   49.48    3.12 
   3   0  12   51.06    3.03 
   3  -3 -12   49.47    2.86 
  -3   3 -12   52.52    2.78 
  -3   0  12   50.22    3.01 
  -3   0 -12   53.94    3.29 
   3  -3 -12   50.62    3.01 
  -3   3  12   53.23    2.76 
  -3   0  12   51.68    2.74 
   3  -3  12   52.66    3.09 
   3  -3  12   52.96    2.99 
  -3   0 -12   55.27    2.99 
  -3   0 -12   50.72    3.01 
   3   0 -12   46.58    3.04 
  -3   0  12   50.33    2.79 
  -3   0 -12   54.66    2.78 
   0  -3  12   49.75    2.94 
   3   0 -12   51.28    2.79 
  -3   0  12   49.21    3.10 
  -3   0  12   50.31    3.07 
   3  -3 -12   48.41    3.03 
   3   0  12   54.62    2.85 
   3  -3  12   51.52    2.94 
   3   0  12   51.76    3.00 
   2  -4  12   45.67    2.73 
  -2  -2 -12   49.45    2.61 
  -4   2 -12   44.18    2.80 
  -4   2 -12   43.22    2.77 
   4  -2  12   45.96    2.68 
  -4   2  12   43.49    2.58 
   4  -2 -12   39.04    2.60 
   4  -2 -12   44.82    2.79 
   4  -2 -12   41.62    2.46 
   4  -2  12   45.11    2.80 
  -4   2 -12   44.59    2.80 
   2   2 -12   49.59    2.46 
   4  -2 -12   42.94    2.87 
  -4   2  12   44.36    2.48 
  -4   2 -12   44.74    2.51 
   4  -2 -12   48.93    2.81 
  -4   2  12   46.20    2.85 
   4  -2  12   42.26    2.81 
   4  -2  12   46.85    2.75 
  -4   2  12   44.46    2.84 
   4  -2 -12   46.07    2.86 
   4  -2  12   42.39    2.52 
   4  -2  12   45.59    2.75 
  -2  -2  12   44.56    2.70 
  -2  -2  12   48.85    2.50 
  -4   2  12   42.53    2.85 
  -2  -2  12   44.29    2.67 
   4  -2  12   45.74    2.69 
  -4  -1 -12   28.41    1.68 
  -4  -1 -12   29.00    1.99 
   5  -4 -12   28.30    2.20 
   5  -1  12   30.26    1.99 
  -4  -1 -12   28.60    2.03 
  -5   1  12   27.34    1.98 
   5  -1  12   29.24    2.85 
   4   1 -12   27.29    1.72 
  -5   1  12   27.80    1.69 
   5  -1  12   26.36    1.82 
   5  -4 -12   25.92    2.25 
   4  -5  12   27.08    1.95 
   5  -4 -12   27.67    2.11 
  -5   1  12   28.01    2.23 
   1  -5 -12   26.83    1.59 
  -5   4 -12   27.90    1.78 
  -5   1  12   28.36    1.78 
   4  -5  12   29.94    1.75 
  -5   1  12   29.19    2.20 
   5  -4 -12   27.85    1.81 
   4  -5  12   27.16    1.90 
   5  -1 -12   25.81    1.73 
   5  -1 -12   26.38    2.18 
   1  -5  12   29.66    2.04 
   5  -4  12   29.84    2.16 
  -1  -4 -12   28.56    1.61 
  -5   1 -12   27.20    1.73 
  -4  -1  12   30.23    1.78 
   5  -4  12   29.05    2.14 
  -4  -1  12   28.62    2.13 
   4  -5 -12   31.93    1.82 
   4  -5 -12   25.64    1.90 
  -5   1 -12   27.60    2.13 
  -5   1 -12   30.23    2.14 
  -5   4  12   26.88    1.73 
  -5   1 -12   29.87    2.58 
   5  -4  12   29.84    1.80 
   5  -4  12   28.59    2.08 
  -4   5 -12   27.10    1.73 
  -5   1 -12   27.13    2.10 
  -4  -1  12   27.66    2.05 
   4   1  12   28.27    1.80 
   6  -3 -12   25.07    2.31 
   3  -6  12   24.36    1.93 
  -3  -3 -12   23.76    1.42 
   6  -3  12   23.07    1.69 
  -6   3  12   22.99    1.61 
  -6   3 -12   23.62    1.68 
   6  -3  12   26.46    2.21 
   6  -3 -12   26.26    2.20 
   6  -3  12   24.61    1.91 
   6  -3 -12   23.32    1.59 
  -3  -3  12   25.55    1.73 
  -3  -3  12   23.53    1.61 
  -6   3  12   24.44    2.84 
   6  -3  12   25.47    2.09 
  -6   3 -12   29.12    2.22 
  -3  -3 -12   24.98    1.50 
   6  -3  12   27.82    2.74 
   6  -3 -12   24.09    1.88 
   6  -3 -12   22.25    2.44 
   6   0  12   17.25    1.97 
   6  -6  12   19.29    1.62 
   6  -6 -12   16.63    1.75 
  -6   0 -12   17.86    2.07 
   6   0 -12   17.67    1.97 
   6  -6  12   15.23    1.73 
  -6   6 -12   19.07    2.07 
  -6   0  12   17.62    2.03 
  -6   6  12   19.09    2.10 
   6  -6 -12   18.13    1.88 
   6  -6  12   22.47    1.85 
  -6   0 -12   20.02    1.92 
   6  -6 -12   16.96    1.80 
   0  -6 -12   17.05    1.24 
  -6   0  12   17.74    2.14 
   7  -2  12   22.59    4.36 
   7  -5 -12   16.81    4.24 
  -7   5 -12   16.56    2.06 
   2  -7 -12   16.30    1.39 
   7  -5 -12   16.41    2.88 
   5   2 -12   18.96    2.20 
  -5  -2 -12   17.02    1.40 
  -7   2  12   22.78    3.96 
   7  -2  12   18.42    1.71 
   5  -7  12   18.49    1.75 
   7  -2  12   18.08    1.83 
   7  -5  12   23.77    3.87 
   7  -2 -12   19.13    5.05 
   5   2  12   16.12    1.96 
   5  -7 -12   15.75    1.75 
  -7   5  12   16.12    1.97 
  -5  -2  12   18.97    1.55 
  -5  -2  12   19.02    1.74 
  -2  -5 -12   17.03    1.19 
   7  -2 -12   17.35    1.86 
   7  -2 -12   15.67    1.57 
  -8   4  12   13.24    1.76 
  -8   4 -12   12.96    1.65 
   0  -1  13  483.82   25.68 
   1  -1 -13  503.61   25.67 
  -1   0 -13  508.82   25.79 
  -1   0 -13  498.20   25.65 
  -1   0 -13  494.98   25.64 
   0  -1  13  533.43   25.70 
   0  -1  13  491.66   25.71 
  -1   0 -13  501.49   25.65 
   0   1 -13  511.14   25.66 
   1  -1 -13  496.32   25.64 
   1   0  13  540.90   25.68 
   1   0  13  515.64   25.68 
   0  -1  13  530.19   25.53 
   1  -1 -13  450.69   25.73 
   1   0  13  516.46   25.56 
   0  -1  13  513.91   25.71 
  -1   1  13  480.76   25.74 
   1  -1 -13  514.21   25.67 
   1   0  13  508.07   25.64 
   2  -2  13  312.01   15.87 
   2  -2  13  287.35   15.77 
  -2   0  13  310.88   16.13 
  -2   0  13  314.38   15.80 
   2   0 -13  309.57   15.96 
  -2   0  13  314.87   15.97 
  -2   2 -13  319.36   15.90 
  -2   2 -13  320.10   15.95 
  -2   0  13  304.41   16.01 
   2  -2  13  300.98   16.05 
   2  -2  13  313.17   15.98 
  -2   0  13  307.83   16.13 
   2  -2  13  306.53   16.03 
   0  -2 -13  357.32   15.86 
   2  -2  13  304.86   15.94 
  -2   0  13  311.11   15.98 
   2   0 -13  298.12   15.96 
   2   0 -13  306.17   15.94 
  -2   2 -13  282.49   15.89 
   2  -2  13  323.22   15.94 
   3  -1  13  261.47   13.44 
   3  -1  13  266.95   13.53 
   3  -1  13  267.23   13.55 
   3  -2 -13  254.67   13.56 
   3  -2 -13  251.99   13.63 
   3  -2 -13  256.81   13.37 
   3  -2 -13  255.07   13.51 
   3  -1  13  244.32   13.55 
   3  -2 -13  283.30   13.48 
  -2  -1 -13  263.52   13.46 
   3  -2 -13  264.44   13.27 
  -1  -2  13  272.52   13.43 
  -2  -1 -13  275.07   13.49 
  -1  -2  13  248.40   13.38 
   3  -1  13  270.33   13.36 
   3  -2 -13  240.72   13.57 
  -3   2  13  254.57   13.58 
  -3   1 -13  253.72   13.56 
   2   1  13  277.26   13.32 
   2  -3 -13  259.30   13.43 
  -3   1 -13  256.41   13.54 
   2  -3 -13  243.49   13.43 
   1  -3  13  258.69   13.49 
  -3   1 -13  265.91   13.38 
  -3   1 -13  273.62   13.32 
  -3   2  13  262.85   13.58 
  -3   2  13  239.60   13.57 
  -3   2  13  272.57   13.30 
  -3   1 -13  258.38   13.54 
  -4   1  13  169.96    8.60 
  -4   1  13  161.33    8.95 
  -4   1  13  168.54    9.06 
   3   1 -13  171.46    8.61 
   3  -4  13  161.73    8.85 
  -4   1  13  163.64    8.70 
  -4   3 -13  164.36    8.64 
   3  -4  13  175.60    8.84 
  -4   1  13  176.85    8.97 
   3  -4  13  168.17    8.80 
  -4   1  13  159.71    9.06 
  -4   1  13  156.81    8.71 
  -3   4 -13  169.11    8.59 
   4  -3  13  162.92    8.75 
   4  -3  13  175.81    8.64 
   4  -1 -13  157.44    8.61 
   4  -3  13  167.53    9.09 
   4  -3  13  167.87    9.18 
   4  -3  13  161.08    8.80 
   4  -1 -13  176.50    9.57 
  -3  -1  13  161.00    8.92 
  -3  -1  13  170.11    8.66 
  -3  -1  13  155.88    8.95 
   4  -1 -13  163.83    8.96 
   4  -3  13  168.19    8.93 
   4  -3  13  167.93    8.82 
   4  -3  13  169.51    8.95 
   4  -3  13  187.82    8.69 
  -3  -1  13  158.84    8.96 
   4  -3  13  162.00    8.97 
   4  -1 -13  156.21    9.03 
   4  -4 -13  138.95    7.60 
   4  -4 -13  134.68    7.62 
   4   0  13  139.12    7.34 
  -4   0 -13  143.60    7.50 
  -4   0 -13  139.49    7.22 
   4  -4 -13  151.03    7.35 
   0  -4  13  132.44    7.47 
   4  -4 -13  136.51    7.66 
  -4   4  13  138.00    7.23 
  -4   0 -13  138.18    7.63 
  -4   0 -13  135.14    7.59 
   5  -3 -13  126.09    6.35 
  -3  -2 -13  129.77    6.34 
   5  -2  13  115.63    6.62 
   5  -3 -13  132.80    6.96 
  -3  -2 -13  124.13    6.60 
  -2  -3  13  118.40    6.50 
   5  -2  13  118.17    6.87 
   5  -3 -13  116.13    6.90 
   5  -3 -13  113.30    6.91 
   5  -3 -13  121.81    6.91 
   5  -2  13  119.83    6.47 
   5  -3 -13  123.88    6.60 
   5  -2  13  120.82    6.84 
  -3  -2 -13  125.91    6.58 
   5  -2  13  119.82    6.79 
  -5   2 -13  126.34    6.55 
  -5   2 -13  120.48    6.83 
  -5   2 -13  120.97    6.43 
   2  -5  13  113.33    6.68 
   3   2  13  125.26    6.42 
  -5   2 -13  116.01    6.83 
  -5   3  13  116.75    6.38 
  -5   2 -13  118.84    6.84 
  -5   2 -13  119.71    6.71 
  -5   5 -13   85.41    4.78 
   5  -5  13   90.11    5.15 
  -5   0  13   85.79    5.25 
   5  -5  13   83.10    5.04 
   5  -5  13   93.95    5.64 
   5  -5  13   91.31    4.84 
  -5   0  13   87.27    5.31 
   5   0 -13   84.07    4.76 
   0  -5 -13   86.82    4.61 
   4  -6  13   71.85    4.52 
   4  -6  13   75.16    4.23 
  -6   2  13   77.49    4.57 
  -6   2  13   75.23    4.35 
   2  -6 -13   77.17    4.09 
  -6   4 -13   74.56    4.32 
   4   2 -13   74.23    4.22 
  -6   2  13   81.10    4.22 
  -6   2  13   80.51    4.97 
  -4  -2  13   77.77    4.63 
  -4  -2  13   83.04    4.35 
   6  -2 -13   80.25    5.28 
   6  -4  13   75.81    4.71 
   6  -4  13   80.26    4.86 
   6  -2 -13   73.63    4.53 
   6  -2 -13   77.02    4.96 
   6  -4  13   77.26    4.76 
  -2  -4 -13   77.70    4.09 
   6  -4  13   73.40    5.19 
  -4  -2  13   76.19    4.54 
   6  -2 -13   77.98    4.25 
  -5  -1 -13   66.85    4.13 
   6  -1  13   65.62    4.05 
   6  -5 -13   72.08    5.06 
   6  -5 -13   68.41    4.39 
  -5  -1 -13   65.08    4.06 
   6  -5 -13   65.72    4.28 
   6  -1  13   62.42    3.86 
  -5  -1 -13   66.46    3.71 
  -6   1 -13   66.95    4.26 
  -6   5  13   69.57    3.91 
   5  -6 -13   64.81    3.95 
   5  -6 -13   69.49    3.92 
  -6   1 -13   66.57    4.33 
   5   1  13   65.26    4.02 
  -4  -3 -13   53.21    3.02 
  -3  -4  13   50.70    3.05 
   7  -4 -13   58.49    5.37 
   7  -3  13   54.03    3.96 
   7  -3  13   48.45    3.10 
   7  -3  13   49.32    4.69 
   7  -4 -13   55.55    4.24 
  -7   4  13   51.86    3.13 
  -7   3 -13   50.29    3.10 
   6  -7  13   41.21    3.03 
   1  -7 -13   43.76    2.61 
  -7   6 -13   40.75    3.13 
  -7   1  13   48.02    4.49 
   6   1 -13   45.39    3.20 
   7  -1 -13   46.05    3.10 
  -1  -6 -13   41.53    2.52 
   1  -1  14   31.95    1.90 
   1   0 -14   33.64    1.95 
   0   1  14   33.28    1.93 
   0  -1 -14   36.96    2.00 
   0  -1 -14   36.87    1.93 
   1  -1  14   34.81    1.94 
  -1   0  14   33.36    1.83 
  -1   0  14   37.47    2.00 
   0  -1 -14   34.84    1.92 
  -1   1 -14   32.94    1.93 
  -1   0  14   33.37    1.99 
   1  -1  14   34.23    1.94 
   1  -1  14   31.60    1.93 
   0  -1 -14   32.21    2.00 
  -1   0  14   33.43    2.17 
   1   0 -14   32.69    1.93 
   0  -1 -14   30.95    1.88 
  -1   1 -14   33.50    1.93 
  -1   1 -14   32.72    1.92 
   1  -1  14   33.49    2.07 
   1   0 -14   35.38    1.95 
   0  -2  14   39.12    2.19 
   2   0  14   41.36    2.24 
   0  -2  14   36.39    2.14 
  -2   0 -14   38.39    2.18 
  -2   2  14   34.80    2.21 
  -2   0 -14   37.67    2.40 
   2  -2 -14   34.84    2.20 
   2  -2 -14   38.27    2.21 
  -2   0 -14   37.77    2.20 
   2  -2 -14   38.74    2.30 
   2  -2 -14   37.32    2.16 
   2   0  14   39.34    2.21 
  -2   0 -14   38.70    2.22 
   0   2 -14   36.56    2.13 
   2   0  14   39.25    2.07 
   0  -2  14   35.97    2.16 
   2   0  14   38.55    2.19 
   2  -2 -14   34.35    2.21 
  -2   0 -14   35.55    2.33 
   2   1 -14   22.68    1.52 
  -3   2 -14   22.49    1.32 
  -3   1  14   21.88    1.29 
   2  -3  14   22.37    1.43 
   1  -3 -14   23.54    1.37 
  -3   1  14   21.80    1.57 
  -3   1  14   20.11    1.58 
   2   1 -14   23.92    1.30 
  -3   2 -14   22.46    1.52 
  -3   2 -14   22.87    1.54 
   2  -3  14   23.08    1.46 
  -3   1  14   22.11    1.55 
  -3   2 -14   21.77    1.50 
   2  -3  14   22.23    1.47 
  -3   1  14   22.14    1.37 
   3  -2  14   24.02    1.49 
   3  -2  14   23.45    1.54 
   3  -1 -14   21.59    1.58 
   3  -1 -14   20.94    1.29 
  -2  -1  14   21.44    1.49 
   3  -1 -14   22.30    1.55 
   3  -2  14   22.28    1.74 
  -2  -1  14   21.36    1.53 
  -2   3 -14   21.78    1.27 
   3  -1 -14   21.03    1.53 
  -2  -1  14   21.67    1.52 
   3  -2  14   22.11    1.33 
   3  -2  14   20.42    1.52 
   3  -2  14   23.32    1.48 
   3  -2  14   23.67    1.56 
   3  -2  14   25.88    1.72 
   4  -3 -14   16.64    1.44 
   4  -1  14   16.90    1.36 
   4  -1  14   15.89    1.17 
  -1  -3  14   17.35    1.25 
   4  -3 -14   17.96    1.44 
   4  -3 -14   17.03    1.48 
  -1  -3  14   18.21    1.21 
  -3  -1 -14   18.22    1.35 
   4  -1  14   17.52    1.43 
  -3  -1 -14   17.31    1.30 
   4  -3 -14   15.85    1.06 
  -3   4  14   16.97    1.06 
   4  -3 -14   19.52    1.23 
   4  -3 -14   17.79    1.37 
   4  -3 -14   17.19    1.41 
   4  -1  14   18.63    1.31 
  -3  -1 -14   18.09    1.07 
  -4   1 -14   16.93    1.42 
   1  -4  14   17.11    1.33 
  -4   1 -14   17.53    1.40 
  -4   1 -14   19.10    1.22 
  -4   1 -14   16.60    1.36 
  -4   1 -14   16.23    1.35 
   3   1  14   16.92    1.15 
  -4   3  14   16.83    1.10 
   3  -4 -14   17.96    1.36 
   3  -4 -14   16.44    1.27 
  -4   1 -14   16.86    1.12 
  -4   1 -14   18.75    1.41 
   4   0 -14   14.57    1.06 
   4  -4  14   17.70    1.67 
  -4   0  14   15.14    1.28 
   4  -4  14   16.21    1.11 
  -4   4 -14   15.32    1.06 
   4  -4  14   15.26    1.25 
   4  -4  14   15.29    1.36 
   4  -4  14   16.02    1.30 
  -4   0  14   15.17    1.00 
  -4   0  14   15.20    1.42 
  -4   0  14   16.27    1.41 
  -4   0  14   16.70    1.15 
   4  -4  14   16.24    1.42 
  -5   2  14   13.15    1.44 
  -5   3 -14   13.50    1.06 
  -5   2  14   13.90    1.00 
  -5   3 -14   13.38    1.34 
   2  -5 -14   13.66    0.87 
   3  -5  14   14.32    1.28 
   3   2 -14   14.85    0.99 
  -5   2  14   15.03    1.48 
   5  -3  14   13.97    1.73 
   5  -3  14   14.97    1.35 
  -3  -2  14   13.18    1.23 
   5  -3  14   13.56    1.36 
   5  -2 -14   13.72    1.01 
   5  -3  14   13.63    1.25 
   5  -2 -14   14.53    1.47 
   5  -2 -14   14.34    1.41 
   5  -3  14   13.98    1.08 
  -3  -2  14   13.77    1.19 
  -3  -2  14   12.78    1.04 
   5  -3  14   14.20    1.64 
   5  -3  14   12.85    1.37 
   5  -2 -14   13.98    1.91 
   5  -2 -14   14.51    1.20 
   5  -5 -14   13.14    1.46 
  -5   5  14   13.67    1.06 
   5   0  14   11.31    1.14 
  -5   0 -14   13.50    1.33 
   5  -5 -14   11.71    1.28 
   5  -5 -14   12.25    1.11 
  -5   0 -14   13.08    1.36 
   5   0  14   13.68    1.25 
   6  -2  14   10.44    1.15 
   6  -2  14   12.32    1.28 
   6  -2  14   13.19    1.59 
  -4  -2 -14   12.99    1.22 
  -4  -2 -14   11.95    0.93 
   6  -4 -14   13.91    1.57 
  -4  -2 -14   12.79    1.16 
   6  -4 -14   14.79    1.82 
  -6   2 -14   12.39    1.59 
  -6   2 -14   11.55    1.90 
   4  -6 -14   11.60    1.04 
   4   2  14   10.57    1.11 
  -6   2 -14   12.15    1.09 
  -6   4  14   12.53    1.09 
   5  -6  14   12.81    1.47 
   1  -6 -14   10.53    0.90 
  -6   1  14   11.40    1.53 
  -6   1  14   12.86    1.80 
  -6   5 -14   11.91    1.68 
   5  -6  14    9.07    1.11 
  -6   1  14   15.06    2.14 
   5  -6  14   11.06    1.14 
   5   1 -14   11.86    1.68 
  -5  -1  14   12.73    1.41 
   6  -1 -14   14.52    1.20 
  -1  -5 -14   12.08    0.88 
  -5  -1  14   12.00    1.46 
   6  -5  14   12.88    1.42 
   6  -5  14   12.70    1.51 
   6  -5  14   13.07    1.50 
  -7   3  14    9.74    1.46 
  -7   3  14   11.25    1.18 
  -7   4 -14   10.26    1.41 
   4  -7  14    9.47    1.02 
   7  -3 -14   11.13    2.08 
   7  -4  14   11.29    2.05 
  -3  -4 -14   10.27    0.89 
  -4  -3  14   10.68    1.39 
   7  -4  14   13.09    3.18 
   7  -4  14   15.64    3.70 
  -3  -4 -14   10.36    0.89 
   7  -1  14   10.25    1.67 
   6   1  14    7.75    1.57 
   6  -7 -14    9.93    1.81 
  -7   6  14   12.09    2.09 
  -7   1 -14   16.07    4.12 
   0   0  15  252.67   11.64 
   0   0 -15  227.18   11.56 
   0   0  15  219.48   11.60 
   0   0 -15  222.86   11.56 
   0   0 -15  214.42   11.55 
   0   0  15  214.25   11.54 
  -1  -1 -15  209.53   10.98 
  -2   1 -15  214.96   11.05 
  -1  -1 -15  215.58   10.99 
   1  -2  15  215.17   11.05 
  -2   1  15  192.12   11.08 
   2  -1  15  211.31   11.29 
  -1  -1  15  213.70   10.84 
  -1  -1  15  204.88   11.07 
   2  -1  15  210.25   11.01 
   1  -2  15  224.76   11.06 
  -2   1 -15  224.43   11.08 
  -1  -1  15  206.89   10.91 
  -1  -1  15  224.41   11.08 
  -1  -1  15  213.58   11.03 
  -2   1 -15  205.19   11.04 
  -2   1  15  218.67   11.10 
   1   1  15  218.99   10.98 
  -2   1  15  209.88   10.92 
   2  -1  15  214.54   11.06 
   2  -1 -15  215.04   11.07 
   2  -1 -15  204.90   11.17 
  -2   1 -15  215.25   10.94 
   2  -1 -15  197.86   11.06 
  -1  -1  15  227.55   11.07 
   1  -2 -15  215.31   11.00 
  -2   1  15  219.77   11.00 
  -1   2 -15  206.10   10.98 
  -2   1 -15  214.09   11.04 
  -1  -1 -15  207.82   10.97 
   1   1 -15  214.95   11.01 
   2  -1  15  214.31   10.97 
   2  -1  15  204.13   11.06 
   1   1 -15  223.11   11.03 
   2  -1 -15  211.66   11.07 
   1  -2 -15  215.27   11.00 
   0  -3  15  132.43    7.36 
   3  -3  15  135.99    7.60 
  -3   0 -15  142.05    7.41 
   3   0 -15  141.51    7.49 
   3   0  15  142.85    7.45 
  -3   0  15  140.47    7.15 
   3   0 -15  132.03    7.50 
  -3   0  15  135.26    7.44 
  -3   0  15  136.92    7.22 
  -3   0 -15  142.85    7.77 
  -3   0 -15  134.69    7.38 
   0  -3  15  154.31    7.31 
  -3   0  15  134.06    7.55 
   3  -3 -15  133.26    7.49 
  -3   0 -15  133.25    7.44 
   3  -3 -15  147.37    7.25 
   3  -3  15  139.07    7.52 
   3  -3  15  131.68    7.31 
  -3   0  15  137.88    7.54 
   3  -3  15  133.91    7.37 
   3  -3  15  144.09    7.33 
  -3   0  15  140.22    7.68 
  -3   3  15  139.47    7.17 
   3   0  15  144.12    7.27 
   3  -3  15  142.05    7.44 
   3   0 -15  136.48    7.19 
   3  -3  15  140.51    7.46 
  -3   0  15  134.20    7.26 
  -3   3 -15  142.94    7.20 
  -3   0 -15  142.79    7.19 
   3  -3 -15  137.49    7.46 
   3   0  15  137.19    7.46 
  -3   0 -15  136.21    7.47 
  -4   2 -15  109.03    6.17 
   2  -4  15  109.28    6.10 
  -2  -2  15  107.79    6.06 
   2   2 -15  120.40    5.80 
   4  -2  15  110.55    6.11 
   4  -2  15  110.88    6.18 
   4  -2  15  112.18    6.06 
  -2  -2 -15  113.78    5.97 
  -2  -2 -15  120.82    5.99 
  -4   2  15  106.68    6.27 
   4  -2 -15  104.49    6.26 
   4  -2 -15  109.10    6.22 
   4  -2 -15  113.75    6.00 
   4  -2 -15  110.97    6.17 
   4  -2 -15  104.70    5.81 
   4  -2  15  114.37    6.17 
  -4   2 -15  104.76    6.15 
   2   2  15  120.79    5.86 
  -2  -2  15  108.84    6.09 
   4  -2  15  108.28    5.89 
   4  -2 -15  119.41    6.18 
   4  -2  15  108.17    6.04 
  -4   2  15  111.53    5.83 
  -4   2 -15  108.64    6.16 
  -4   2  15  108.90    6.67 
  -4   2 -15  111.26    5.87 
  -2  -2  15  124.53    5.89 
   2  -4 -15  109.06    5.92 
   4  -2  15  105.67    6.20 
  -4   2  15  107.11    6.20 
  -5   1  15   67.90    4.41 
   4   1 -15   71.68    3.84 
   5  -4 -15   70.59    4.33 
   4  -5  15   73.87    3.89 
  -5   1  15   69.55    3.80 
   4  -5  15   68.07    4.11 
  -4  -1 -15   69.04    4.13 
  -4  -1 -15   71.28    4.18 
   5  -4 -15   70.12    4.39 
   5  -1  15   69.69    3.95 
   5  -4 -15   66.13    3.93 
   5  -1  15   70.74    4.09 
  -5   4 -15   73.49    3.91 
  -4  -1 -15   68.85    3.79 
   4  -5  15   72.64    4.14 
   4  -5  15   64.97    4.04 
  -5   1  15   68.73    3.88 
   1  -5 -15   67.21    3.70 
  -5   1  15   71.88    4.40 
  -1  -4 -15   68.94    3.72 
  -5   1 -15   68.03    4.27 
   4  -5 -15   69.01    4.09 
   4  -5 -15   72.61    3.94 
   5  -4  15   71.09    4.24 
  -4  -1  15   68.71    4.28 
   5  -4  15   78.53    4.66 
   5  -1 -15   65.47    3.83 
   5  -1 -15   66.26    4.36 
  -5   4  15   66.44    3.82 
   5  -4  15   70.20    4.28 
   1  -5  15   69.63    4.15 
  -4   5 -15   68.61    3.82 
  -5   1 -15   76.57    4.82 
  -5   1 -15   71.75    3.87 
  -4  -1  15   71.98    3.92 
   5  -4  15   68.37    4.29 
  -4  -1  15   67.39    4.20 
   4   1  15   70.68    3.93 
  -5   1 -15   70.78    4.25 
  -5   1 -15   70.56    4.27 
   6  -3  15   53.70    3.44 
  -3  -3 -15   58.78    3.01 
   3  -6  15   53.30    3.44 
  -6   3 -15   55.61    3.18 
   6  -3 -15   54.06    3.06 
   6  -3 -15   48.66    4.27 
   6  -3  15   53.46    3.17 
   6  -3  15   57.37    3.63 
   6  -3  15   55.06    4.10 
  -3  -3  15   45.67    3.09 
  -6   3  15   51.87    3.07 
  -3  -3  15   54.11    3.23 
   6  -3  15   57.19    3.73 
  -6   3 -15   53.09    3.64 
   6  -3 -15   55.32    3.88 
   6  -3  15   57.69    3.67 
  -3  -3 -15   53.59    2.91 
   6  -3 -15   54.36    3.72 
   6   0  15   38.45    2.91 
   6  -6  15   39.56    2.62 
  -6   6 -15   37.08    2.85 
  -6   0 -15   41.20    2.94 
   6  -6 -15   32.87    2.72 
   0  -6 -15   39.09    2.26 
   6   0 -15   36.48    2.84 
   6  -6 -15   39.23    2.93 
  -6   6  15   39.80    2.88 
   6  -6  15   39.63    2.80 
  -6   0  15   38.90    3.15 
  -7   5 -15   33.15    2.77 
   7  -2  15   39.53    4.98 
   2  -7 -15   34.33    2.14 
   5  -7  15   32.82    2.45 
   5   2 -15   33.15    2.74 
   7  -2  15   34.00    2.48 
   7  -2  15   35.20    2.70 
  -5  -2 -15   34.06    2.19 
  -7   5  15   31.44    2.62 
  -5  -2  15   32.00    2.29 
   7  -2 -15   29.58    2.59 
  -2  -5 -15   33.06    1.98 
   7  -5  15   40.45    4.24 
   5  -7 -15   31.73    2.60 
   7  -5  15   40.73    4.40 
   7  -2 -15   32.53    2.35 
   5   2  15   32.12    2.67 
  -5  -2  15   34.44    2.51 
   1  -1 -16  170.56    8.86 
   0   1 -16  175.45    8.87 
  -1   1  16  188.47    8.93 
  -1   1  16  169.33    8.91 
   1   0  16  172.13    8.83 
   0  -1  16  154.64    8.94 
   1  -1 -16  165.54    8.88 
   0  -1  16  175.61    8.72 
   1  -1 -16  160.50    8.93 
  -1   0 -16  170.98    8.85 
   0  -1  16  170.68    8.90 
   0  -1  16  177.42    8.90 
  -1   0 -16  157.84    8.84 
   1  -1 -16  176.99    8.90 
   1   0  16  183.53    8.90 
   0  -1  16  169.40    8.94 
   1  -1 -16  157.39    9.21 
   1   0  16  167.17    8.88 
   1   0  16  179.92    8.74 
  -1   0 -16  174.42    9.05 
  -1   0 -16  166.75    8.86 
  -2   2 -16  154.50    7.94 
  -2   0  16  146.61    8.20 
   2  -2  16  148.01    8.27 
   2  -2  16  155.45    8.15 
  -2   0  16  155.45    8.39 
   2  -2  16  149.46    8.07 
  -2   0  16  157.13    8.20 
   2   0 -16  163.23    8.18 
   2  -2  16  158.17    8.24 
   0  -2 -16  165.70    8.05 
   2  -2  16  150.73    8.15 
  -2   2 -16  154.42    8.13 
  -2   2 -16  160.03    8.11 
   2   0 -16  160.07    7.94 
   2   0 -16  144.98    8.15 
  -2   0  16  144.79    7.96 
   2  -2  16  155.81    8.14 
   2   0 -16  154.07    8.15 
  -2   0  16  159.37    7.92 
   3  -2 -16  104.55    6.06 
   3  -2 -16  106.73    5.96 
  -1  -2  16  119.66    5.92 
   3  -1  16  110.45    5.95 
  -1  -2  16  111.78    5.93 
   3  -1  16  109.45    5.98 
  -1  -2  16  102.88    5.81 
   3  -2 -16  120.91    5.95 
   3  -2 -16  111.02    5.77 
   3  -1  16  111.61    5.78 
   3  -2 -16  107.34    6.01 
   3  -2 -16  108.18    5.69 
   3  -1  16  101.55    5.98 
  -2  -1 -16  111.19    5.91 
  -2  -1 -16  109.39    5.89 
   3  -2 -16  105.29    6.04 
  -2   3  16  112.08    5.67 
   3  -1  16  107.51    5.85 
   1   2 -16  118.47    5.68 
   1  -3  16  122.87    5.92 
  -3   1 -16  109.48    5.98 
  -3   1 -16  112.53    5.82 
  -3   2  16  111.55    5.71 
   2  -3 -16  102.29    5.88 
  -3   1 -16  105.29    5.98 
  -3   2  16   97.81    6.00 
  -3   2  16  111.51    6.04 
  -3   1 -16  110.32    5.74 
   2  -3 -16  107.79    5.89 
  -3   1 -16  111.74    5.94 
   1  -3  16  103.46    5.90 
  -3   1 -16  109.78    5.97 
   2   1  16  116.39    5.76 
   3  -4  16   78.82    4.36 
   3  -4  16   75.84    4.39 
  -4   1  16   76.24    4.59 
  -4   1  16   74.21    4.47 
  -4   1  16   84.25    4.52 
   3   1 -16   78.80    4.10 
  -4   1  16   78.53    4.57 
   3  -4  16   75.46    4.11 
  -4   1  16   74.62    4.60 
  -4   1  16   74.90    4.08 
  -4   3 -16   78.84    4.15 
  -4   1  16   73.80    4.20 
   3  -4  16   75.41    4.32 
  -4   1  16   78.26    4.22 
   4  -3  16   77.47    4.45 
   4  -3  16   75.49    4.47 
  -3  -1  16   74.02    4.44 
   4  -1 -16   76.80    4.49 
   4  -3  16   76.18    4.66 
   4  -3  16   84.64    4.20 
   4  -3  16   76.55    4.33 
  -3   4 -16   79.19    4.11 
   4  -3  16   79.08    4.46 
   4  -3  16   74.79    4.28 
   4  -3  16   72.58    4.29 
   4  -1 -16   73.69    4.54 
   4  -1 -16   72.34    4.10 
   4  -3  16   79.10    4.14 
  -3  -1  16   75.20    4.49 
   4  -3  16   77.96    4.63 
  -4   0 -16   71.21    3.83 
   0  -4  16   64.79    3.79 
   4   0  16   66.93    3.65 
  -4   4  16   62.83    3.51 
   4  -4 -16   64.79    3.97 
   4  -4 -16   66.60    3.65 
   4  -4 -16   63.37    3.88 
  -4   0 -16   65.16    3.52 
  -4   0 -16   60.79    3.87 
  -4   0 -16   64.02    3.88 
  -3  -2 -16   57.35    3.37 
   5  -2  16   54.47    3.63 
  -2  -3  16   57.45    3.34 
  -3  -2 -16   58.69    3.39 
  -3  -2 -16   60.42    3.14 
   5  -3 -16   60.62    3.17 
   5  -3 -16   62.18    3.77 
   5  -2  16   57.45    3.45 
   5  -3 -16   57.87    3.72 
   5  -2  16   55.47    3.29 
   5  -3 -16   55.53    3.76 
  -5   2 -16   57.86    3.59 
  -5   2 -16   56.22    3.25 
  -5   2 -16   53.16    3.79 
   2  -5  16   57.08    3.52 
   3   2  16   57.93    3.25 
  -5   2 -16   56.11    3.63 
  -5   3  16   55.94    3.19 
  -5   2 -16   57.82    3.36 
   5  -5  16   43.33    2.92 
  -5   0  16   44.67    3.13 
   5  -5  16   44.76    2.64 
   5  -5  16   42.24    2.85 
   0  -5 -16   42.83    2.41 
  -5   0  16   43.01    3.03 
   5  -5  16   45.52    3.18 
  -5   5 -16   43.42    2.61 
   5   0 -16   41.97    2.57 
   4  -6  16   39.69    2.43 
   2  -6 -16   39.70    2.26 
  -6   2  16   38.89    2.54 
  -6   2  16   44.33    2.43 
   4   2 -16   39.87    2.50 
   4  -6  16   39.05    2.74 
  -6   2  16   40.80    3.16 
  -6   4 -16   39.13    2.53 
   6  -4  16   40.21    3.00 
   6  -2 -16   40.93    2.94 
   6  -2 -16   47.86    2.50 
   6  -4  16   38.88    2.89 
  -4  -2  16   39.08    2.71 
   6  -4  16   39.20    3.40 
  -2  -4 -16   40.02    2.26 
   6  -4  16   40.83    2.93 
   6  -2 -16   42.62    3.22 
  -4  -2  16   37.78    2.51 
  -4  -2  16   40.26    2.81 
   6  -1  16   32.02    2.34 
  -5  -1 -16   32.86    2.23 
   6  -1  16   35.98    2.51 
  -5  -1 -16   35.26    2.54 
   6  -5 -16   35.42    2.74 
  -5  -1 -16   35.11    2.50 
   6  -5 -16   38.26    2.94 
  -6   5  16   38.04    2.57 
  -6   1 -16   36.42    2.80 
   5   1  16   35.54    2.70 
   5  -6 -16   32.79    2.38 
  -6   1 -16   35.75    2.67 
   5   1  16   37.80    2.51 
   5  -6 -16   34.74    2.39 
  -6   1 -16   35.35    3.33 
   7  -4 -16   29.16    3.68 
   7  -3  16   26.16    1.95 
  -3  -4  16   23.98    1.97 
   7  -3  16   30.67    3.91 
  -4  -3 -16   28.50    1.85 
   7  -3  16   30.71    3.55 
  -7   3 -16   26.69    1.96 
  -7   4  16   31.37    2.13 
   4  -7 -16   23.60    1.89 
   1  -7 -16   23.06    1.82 
   6   1 -16   27.32    2.58 
  -7   6 -16   24.60    2.54 
   6  -7  16   23.87    2.36 
   7  -1 -16   28.72    2.47 
  -1  -6 -16   24.53    1.74 
  -1   0  17   60.94    3.44 
   1  -1  17   58.03    3.36 
   1  -1  17   63.22    3.56 
   1  -1  17   61.24    3.30 
  -1   1 -17   53.25    3.37 
   0   1  17   64.35    3.38 
   0  -1 -17   62.37    3.33 
   0  -1 -17   60.05    3.43 
   1   0 -17   61.64    3.38 
   1   0 -17   60.63    3.38 
   0   1  17   59.68    3.33 
  -1   1 -17   51.44    3.35 
  -1   0  17   69.67    3.47 
   1   0 -17   65.85    3.39 
  -1   1 -17   62.12    3.37 
   0  -1 -17   57.72    3.30 
   1  -1  17   60.57    3.39 
  -1   0  17   65.59    3.25 
   1  -1  17   64.62    3.41 
   0  -1 -17   67.58    3.35 
  -1   0  17   51.72    3.57 
   2  -2 -17   32.35    2.00 
  -2   0 -17   33.49    1.99 
   0  -2  17   31.81    1.92 
   2   0  17   35.02    1.99 
   2   0  17   34.26    2.00 
  -2   0 -17   35.76    1.82 
  -2   2  17   30.58    2.01 
   2   0  17   33.55    1.87 
   2   0  17   34.31    1.86 
   2  -2 -17   33.19    2.14 
   0  -2  17   28.95    1.97 
   2   0  17   32.02    2.00 
  -2   2  17   33.33    1.79 
   2  -2 -17   31.53    1.98 
   2  -2 -17   31.34    2.01 
  -2   0 -17   32.25    2.21 
   0   2 -17   30.62    1.97 
   2  -2 -17   30.56    1.94 
  -2   0 -17   34.06    2.00 
  -2   0 -17   32.44    1.96 
  -3   2 -17   30.35    1.96 
  -3   1  17   29.28    2.05 
   2   1 -17   31.14    1.72 
  -3   1  17   30.05    1.82 
  -3   2 -17   30.75    1.96 
   2  -3  17   31.05    1.92 
  -3   1  17   30.14    1.72 
   2  -3  17   31.28    1.93 
  -3   1  17   28.12    2.06 
  -3   2 -17   30.34    1.75 
   1  -3 -17   32.72    1.86 
   1   2  17   30.40    1.73 
  -3   1  17   28.67    1.80 
  -3   2 -17   29.68    1.98 
  -3   1  17   30.58    2.03 
   2  -3  17   31.66    1.95 
  -2   3 -17   30.87    1.73 
   3  -1 -17   31.46    2.03 
   3  -2  17   31.34    1.91 
   3  -1 -17   29.08    2.05 
   3  -2  17   33.03    1.95 
  -2  -1  17   30.33    1.98 
   3  -1 -17   28.45    1.72 
  -1  -2 -17   31.72    1.90 
   3  -2  17   32.23    2.02 
   3  -2  17   30.33    1.77 
  -1  -2 -17   30.63    1.86 
  -2  -1  17   31.07    2.03 
   3  -2  17   31.06    2.25 
   3  -2  17   29.89    2.00 
   3  -1 -17   30.97    2.03 
   3  -2  17   32.52    2.00 
   3  -2  17   31.58    1.93 
   4  -1  17   20.48    1.45 
  -1  -3  17   20.45    1.44 
   4  -3 -17   20.86    1.56 
  -3   4  17   20.74    1.24 
  -1  -3  17   21.81    1.41 
   4  -1  17   20.91    1.57 
   4  -1  17   20.26    1.61 
  -3  -1 -17   20.41    1.49 
  -1  -3  17   19.61    1.41 
   4  -3 -17   19.85    1.25 
  -3  -1 -17   21.93    1.54 
   4  -3 -17   19.08    1.61 
   4  -1  17   20.39    1.37 
   4  -3 -17   22.57    1.42 
  -3  -1 -17   20.38    1.24 
   4  -3 -17   19.32    1.67 
   3  -4 -17   21.38    1.29 
   3  -4 -17   20.22    1.56 
  -4   1 -17   20.38    1.57 
  -4   1 -17   19.67    1.57 
   3  -4 -17   19.86    1.48 
  -4   1 -17   22.19    1.63 
   3   1  17   21.16    1.35 
  -4   1 -17   19.35    1.59 
  -4   1 -17   20.71    1.31 
   1  -4  17   20.28    1.53 
  -4   3  17   19.47    1.27 
  -4   1 -17   20.12    1.56 
  -4   0  17   17.12    1.57 
  -4   0  17   18.12    1.15 
   4   0 -17   15.51    1.18 
   4  -4  17   19.51    1.53 
   4  -4  17   21.62    1.83 
   4  -4  17   18.30    1.46 
   4  -4  17   17.86    1.42 
  -4   4 -17   17.73    1.21 
   4  -4  17   18.69    1.25 
   4  -4  17   18.71    1.56 
  -4   0  17   16.02    1.42 
  -4   0  17   17.83    1.56 
  -4   0  17   18.85    1.94 
  -4   0  17   18.88    1.18 
  -5   2  17   16.22    1.16 
   3  -5  17   17.03    1.47 
   3  -5  17   14.94    1.36 
   3   2 -17   17.41    1.17 
   2  -5 -17   15.95    1.02 
  -5   2  17   17.39    1.67 
   3  -5  17   16.46    1.12 
  -5   3 -17   15.35    1.22 
  -5   3 -17   14.82    1.55 
  -2  -3 -17   18.02    1.31 
   5  -3  17   16.89    2.01 
   5  -2 -17   15.43    1.17 
   5  -3  17   18.53    1.54 
   5  -3  17   18.33    1.49 
  -3  -2  17   15.86    1.37 
   5  -2 -17   18.08    1.59 
   5  -3  17   16.36    1.57 
   5  -3  17   16.07    1.57 
  -3  -2  17   16.71    1.45 
   5  -3  17   19.55    1.97 
   5  -2 -17   18.65    1.46 
   5  -2 -17   18.34    1.65 
   5  -2 -17   17.49    1.70 
   5  -3  17   17.52    1.28 
  -5   5  17   13.54    1.13 
   5   0  17   16.38    1.38 
  -5   0 -17   14.20    1.41 
   5  -5 -17   13.22    1.26 
   5  -5 -17   15.46    1.59 
   5   0  17   13.47    1.26 
  -5   0 -17   14.99    1.49 
   5  -5 -17   13.39    1.40 
  -4  -2 -17   13.70    1.23 
   6  -2  17   13.62    1.41 
   6  -4 -17   14.13    1.64 
   6  -2  17   12.10    1.26 
  -4  -2 -17   13.28    0.99 
   6  -4 -17   12.77    1.92 
  -4  -2 -17   15.01    1.32 
   6  -2  17   13.89    1.64 
   6  -2  17   13.42    2.49 
   4  -6 -17   10.41    1.12 
  -6   4  17   12.23    1.13 
  -6   2 -17   16.56    1.74 
  -6   2 -17   12.76    1.17 
  -6   2 -17   14.90    2.62 
   4   2  17   11.74    1.30 
  -6   1  17   14.32    2.54 
  -6   1  17   12.96    2.00 
  -6   1  17   14.62    1.72 
   1  -6 -17   12.27    1.00 
   5  -6  17   11.90    1.25 
   5   1 -17   12.06    1.89 
   5  -6  17   13.18    1.48 
  -6   5 -17   13.25    1.86 
   5  -6  17   10.78    1.25 
  -5  -1  17   12.12    1.50 
   6  -5  17   16.30    1.64 
   6  -5  17   13.75    1.54 
  -1  -5 -17   13.57    0.96 
  -5  -1  17   13.11    1.62 
   6  -1 -17   12.54    1.25 
   6  -5  17   12.90    1.77 
   6  -5  17   16.37    2.38 
   4  -7  17   10.48    1.17 
  -7   3  17   10.86    1.29 
  -7   4 -17   11.09    1.61 
  -3  -4 -17   11.74    0.98 
  -3  -4 -17   12.09    1.04 
   7  -4  17   13.90    3.24 
  -4  -3  17   10.72    1.61 
   7  -3 -17   11.37    1.23 
   7  -1  17   10.09    1.73 
   7  -1  17   13.13    3.76 
  -7   6  17   12.26    1.85 
   6  -7 -17    9.86    1.91 
   6   1  17    8.94    1.63 
   0   0 -18  456.15   23.12 
   0   0 -18  445.72   23.11 
   0   0  18  504.12   23.20 
   0   0  18  452.46   23.11 
   0   0 -18  420.73   23.09 
   0   0  18  442.00   23.16 
   2  -1 -18  293.62   14.17 
  -1  -1  18  300.74   14.47 
  -1  -1  18  281.41   14.46 
  -1  -1  18  273.51   14.16 
   2  -1 -18  282.79   14.42 
   1  -2 -18  265.16   14.35 
  -1  -1 -18  283.18   14.35 
   2  -1  18  296.74   14.24 
  -2   1  18  295.70   14.47 
  -1  -1  18  270.95   14.24 
  -2   1  18  259.48   14.45 
  -1   2 -18  284.21   14.33 
  -2   1 -18  279.37   14.38 
  -1   2 -18  297.24   14.26 
  -2   1 -18  284.09   14.40 
  -2   1 -18  252.17   14.35 
   2  -1  18  270.44   14.41 
   1   1 -18  284.17   14.37 
  -1  -1  18  279.13   14.47 
  -2   1 -18  300.94   14.21 
   2  -1 -18  267.03   14.43 
  -1  -1  18  298.10   14.44 
  -2   1  18  303.38   14.18 
  -1  -1 -18  277.70   14.36 
   2  -1  18  290.17   14.42 
   2  -1 -18  268.35   14.54 
  -1   2 -18  277.81   14.24 
  -1  -1 -18  265.95   14.29 
   1  -2  18  262.86   14.42 
   1  -2  18  264.30   14.41 
   1   1  18  253.57   14.38 
   1   1  18  282.24   14.32 
   1   1 -18  278.58   14.39 
   2  -1  18  276.25   14.35 
   2  -1  18  283.70   14.30 
  -1  -1  18  259.92   14.20 
   1   1 -18  303.28   14.17 
   1  -2 -18  242.67   14.32 
  -1   2 -18  269.42   14.37 
   2  -1 -18  283.44   14.44 
  -2   1  18  275.30   14.25 
   3   0  18  177.89    9.27 
  -3   3 -18  185.21    9.03 
   0  -3 -18  173.61    9.06 
   3   0 -18  177.29    9.33 
   3   0 -18  172.40    8.98 
  -3   0  18  169.95    9.05 
   3  -3 -18  172.06    9.03 
   3   0  18  184.36    9.09 
  -3   0 -18  173.60    9.21 
  -3   0 -18  180.96    9.00 
  -3   3  18  177.85    8.97 
   0  -3  18  164.87    9.17 
   3  -3 -18  171.98    9.35 
   3  -3  18  178.29    9.28 
  -3   0 -18  172.76    9.28 
   3   0 -18  161.11    9.31 
  -3   0  18  168.76    9.40 
   3   0  18  166.24    9.27 
  -3   0  18  175.70    9.61 
  -3   0 -18  171.73    9.26 
   3  -3  18  165.99    9.39 
  -3   0  18  176.92    9.29 
   3   0  18  187.72    9.16 
   3  -3  18  159.47    9.15 
   0  -3  18  189.12    9.18 
   3  -3 -18  176.00    9.31 
   3  -3  18  172.96    9.32 
   3  -3  18  172.45    9.23 
  -3   0  18  175.58    9.40 
  -3   0  18  174.61    8.95 
   3  -3  18  182.07    9.04 
   3  -3  18  165.73    9.26 
  -3   0 -18  178.64    9.63 
  -3   0  18  171.11    9.02 
   4  -2  18  152.90    8.00 
   2  -4 -18  147.86    7.86 
   4  -2  18  147.47    7.81 
   4  -2 -18  146.14    7.71 
  -4   2  18  146.82    8.23 
   4  -2 -18  143.17    8.07 
  -4   2  18  145.47    8.15 
  -4   2  18  144.89    7.72 
   2  -4  18  141.91    7.95 
  -4   2  18  142.15    8.22 
   4  -2  18  138.01    8.10 
  -4   2 -18  151.27    8.03 
   4  -2  18  148.58    8.10 
  -2  -2  18  149.96    8.05 
   4  -2  18  153.73    8.14 
   4  -2  18  148.51    7.98 
   4  -2  18  143.78    8.31 
  -2  -2 -18  153.38    7.91 
   4  -2 -18  158.24    8.12 
  -4   2 -18  141.96    8.07 
  -2  -2  18  162.11    7.79 
   4  -2 -18  147.23    8.23 
  -4   2 -18  141.73    8.06 
  -4   2 -18  150.48    7.78 
  -2  -2  18  141.86    8.00 
   2   2  18  156.59    7.77 
  -2  -2 -18  149.76    7.89 
   4  -2 -18  150.23    8.17 
  -4   2 -18  138.06    8.05 
   2   2 -18  159.49    7.70 
  -2  -2 -18  162.40    7.68 
   2  -4  18  149.47    8.04 
   4  -2  18  147.74    8.02 
   5  -4 -18   88.63    5.32 
  -5   1  18   92.34    4.68 
   4   1 -18   87.09    4.70 
   5  -1  18   85.89    4.83 
   5  -4 -18   72.56    5.08 
  -5   1  18   86.17    5.33 
  -4  -1 -18   87.55    5.05 
   5  -4 -18   86.28    5.22 
  -5   4 -18   92.24    4.80 
   4  -5  18   88.22    5.05 
  -4  -1 -18   86.24    4.67 
   1  -5 -18   87.23    4.58 
  -4   5  18   91.22    4.77 
   4  -5  18   78.63    4.94 
   4  -5  18   91.34    5.06 
  -5   1  18   88.03    5.29 
   5  -1  18   93.57    5.00 
  -5   1  18   86.37    4.87 
  -5   1  18   89.84    4.77 
   4  -5  18   87.96    4.76 
  -4  -1 -18   86.50    5.01 
  -5   1 -18   95.12    5.77 
  -4  -1  18   83.44    5.17 
  -4   5 -18   87.78    4.71 
   5  -4  18   85.84    5.15 
   4   1  18   85.31    4.80 
   5  -1 -18   84.73    4.71 
   5  -1 -18   84.98    5.67 
   5  -4  18   86.89    5.19 
  -5   1 -18   91.12    4.75 
   4  -5 -18   88.39    5.01 
  -5   1 -18   88.91    5.15 
   1  -5  18   87.11    5.03 
  -5   4  18   84.80    4.69 
   4  -5 -18   90.74    5.14 
   5  -4  18   91.59    5.47 
  -4  -1  18   82.06    5.10 
   5  -4  18   86.48    5.13 
  -5   1 -18   83.86    5.14 
   4  -5 -18   77.03    4.78 
   6  -3 -18   71.28    3.74 
   6  -3  18   65.99    4.14 
   6  -3  18   62.31    4.66 
  -3  -3 -18   62.24    3.90 
   6  -3  18   67.13    3.86 
   6  -3 -18   66.33    4.41 
  -3  -3 -18   69.35    3.66 
  -3  -3  18   65.88    3.90 
   6  -3 -18   68.80    4.60 
  -6   3  18   65.44    3.72 
  -3  -3 -18   67.98    3.58 
   3  -6  18   68.89    4.17 
  -6   3 -18   67.64    3.85 
   6  -3  18   65.97    4.33 
  -6   0  18   50.09    4.29 
  -6   6 -18   45.13    3.32 
   0  -6 -18   47.68    2.76 
   6   0 -18   47.70    3.31 
   6  -6 -18   46.52    3.92 
  -6   6  18   47.80    3.32 
   6   0  18   45.92    3.40 
  -6   0 -18   53.03    4.00 
   6  -6  18   47.06    3.90 
   5   2 -18   41.99    3.09 
   2  -7 -18   40.71    2.48 
  -5  -2 -18   40.36    2.55 
   7  -2  18   36.83    3.07 
  -7   5 -18   43.06    3.08 
   5  -7  18   39.67    2.82 
  -2  -5  18   33.91    2.57 
   7  -2  18   40.07    2.87 
   7  -2  18   43.63    5.27 
   5   2  18   41.50    3.10 
  -7   5  18   39.57    2.97 
   5  -7 -18   34.88    2.96 
   7  -5  18   47.78    4.75 
   7  -2 -18   45.13    2.75 
  -2  -5 -18   40.39    2.32 
  -1   1  19   50.13    2.79 
   1   0  19   50.46    2.71 
  -1   0 -19   43.63    2.71 
  -1   0 -19   50.87    2.77 
   0  -1  19   48.61    2.55 
   0  -1  19   47.22    2.83 
  -1   0 -19   41.57    2.72 
   0  -1  19   54.45    2.79 
   1   0  19   52.27    2.57 
   0  -1  19   41.50    2.81 
   1   0  19   45.13    2.76 
   0   1 -19   47.69    2.69 
   0   1 -19   46.67    2.69 
   0   1 -19   54.02    2.74 
   1  -1 -19   41.80    2.70 
   1  -1 -19   45.93    2.73 
   1  -1 -19   47.86    2.77 
   0  -1  19   49.17    2.76 
   1  -1 -19   48.42    2.99 
  -1   1  19   48.36    2.80 
   1   0  19   51.06    2.79 
  -1   0 -19   43.79    2.88 
   1  -1 -19   46.52    2.71 
  -2   2 -19   27.89    1.75 
   0  -2 -19   28.38    1.68 
   2  -2  19   26.91    1.75 
  -2   2 -19   28.69    1.77 
   2   0 -19   28.36    1.80 
   2  -2  19   28.85    1.87 
   2  -2  19   26.70    1.90 
   2  -2  19   25.56    1.72 
   2  -2  19   28.23    1.58 
  -2   0  19   26.84    1.54 
   0  -2 -19   27.66    1.66 
  -2   0  19   30.12    1.91 
  -2   0  19   30.08    1.87 
  -2   0  19   26.79    1.59 
  -2   0  19   25.23    2.04 
   2  -2  19   26.44    1.77 
   2  -2  19   27.95    1.77 
  -2   2 -19   25.76    1.55 
   2   0 -19   27.00    1.80 
   2   0 -19   26.70    1.55 
   0   2  19   24.57    1.57 
   2   0 -19   30.98    1.85 
  -1  -2  19   26.77    1.66 
  -1  -2  19   26.44    1.69 
  -1  -2  19   28.90    1.86 
   3  -1  19   28.65    1.81 
   3  -2 -19   27.69    1.87 
   3  -1  19   28.30    1.83 
   3  -2 -19   25.89    1.93 
   3  -2 -19   26.01    1.57 
  -2  -1 -19   28.04    1.78 
  -1   3 -19   26.17    1.55 
  -1  -2  19   29.86    1.84 
   3  -1  19   25.18    1.84 
  -2  -1 -19   29.61    1.80 
   3  -1  19   28.78    1.74 
   3  -2 -19   29.32    1.84 
   3  -2 -19   28.43    1.92 
   3  -2 -19   26.19    1.96 
  -2  -1 -19   27.54    1.55 
  -2   3  19   26.42    1.55 
  -1   3 -19   26.12    1.55 
   3  -1  19   27.73    1.86 
   3  -1  19   27.91    1.67 
   1  -3  19   30.42    1.83 
  -3   2  19   26.33    1.58 
  -3   1 -19   27.93    1.85 
   1   2 -19   27.64    1.56 
   1  -3  19   31.55    1.85 
  -3   1 -19   26.89    1.61 
  -3   1 -19   28.20    1.86 
   1  -3  19   25.61    1.77 
  -3   1 -19   25.84    1.84 
  -3   2  19   25.30    1.91 
   2  -3 -19   32.02    1.65 
   2   1  19   28.61    1.65 
  -3   1 -19   27.30    1.84 
   2  -3 -19   26.57    1.82 
   2  -3 -19   26.63    1.79 
   3  -4  19   18.88    1.42 
   3  -4  19   20.24    1.49 
  -4   1  19   20.61    1.63 
  -4   1  19   17.85    1.18 
  -4   3 -19   19.00    1.25 
  -4   1  19   19.70    1.33 
  -4   1  19   19.42    1.64 
  -4   1  19   18.27    1.35 
   3  -4  19   18.08    1.21 
  -4   1  19   18.47    1.64 
   3   1 -19   18.81    1.21 
  -4   1  19   19.01    1.57 
  -4   1  19   18.44    1.67 
   3  -4  19   19.67    1.50 
   4  -3  19   18.35    1.51 
  -3   4 -19   19.47    1.22 
   4  -3  19   17.01    1.39 
   4  -3  19   18.70    1.73 
   4  -3  19   19.02    1.55 
   4  -1 -19   17.46    1.20 
   4  -3  19   17.59    1.37 
  -3  -1  19   18.50    1.53 
   4  -3  19   19.13    1.74 
   4  -1 -19   20.37    1.70 
   4  -1 -19   18.77    1.59 
   4  -3  19   19.09    1.25 
  -3  -1  19   19.84    1.60 
   4  -3  19   18.43    1.50 
  -3  -1  19   16.92    1.26 
  -1  -3 -19   20.17    1.27 
  -4   0 -19   16.42    1.39 
   4   0  19   18.48    1.33 
  -4   4  19   15.07    1.10 
   4  -4 -19   14.43    1.21 
   4  -4 -19   17.10    1.58 
   0  -4  19   17.24    1.38 
   4  -4 -19   16.45    1.44 
  -4   0 -19   17.22    1.44 
   4   0  19   16.75    1.25 
   5  -2  19   14.73    2.01 
   5  -2  19   16.25    1.38 
  -3  -2 -19   16.92    1.31 
  -2  -3  19   16.21    1.16 
   5  -2  19   16.07    1.54 
   5  -3 -19   16.05    1.60 
   5  -3 -19   14.91    1.14 
  -3  -2 -19   17.04    1.34 
   5  -2  19   14.65    1.24 
   5  -3 -19   19.01    1.79 
   5  -3 -19   16.08    1.72 
  -2  -3  19   16.31    1.28 
  -3  -2 -19   15.25    1.04 
   3  -5 -19   16.11    1.26 
  -5   2 -19   15.84    1.52 
  -5   2 -19   15.78    1.68 
   3   2  19   16.01    1.21 
  -5   3  19   14.98    1.13 
  -5   2 -19   16.56    1.22 
   2  -5  19   16.26    1.44 
   5   0 -19   12.94    1.19 
  -5   5 -19   12.61    1.21 
  -5   0  19   14.27    1.70 
   5  -5  19   14.08    1.38 
   5  -5  19   14.09    1.17 
   0  -5 -19   13.06    0.93 
   5  -5  19   13.82    1.42 
  -5   0  19   13.56    1.56 
   5  -5  19   12.03    1.30 
   4  -6  19   11.65    1.09 
  -6   4 -19   12.19    1.26 
   4   2 -19   12.84    1.62 
   2  -6 -19   11.89    0.92 
  -6   2  19   13.23    1.26 
  -6   2  19   13.46    1.13 
  -6   2  19   13.72    1.92 
   4  -6  19   13.55    1.44 
   6  -4  19   13.91    1.53 
   6  -4  19   13.33    2.16 
   6  -2 -19   13.07    1.93 
   6  -4  19   13.85    1.65 
   6  -2 -19   14.89    1.21 
   6  -4  19   11.48    1.96 
  -2  -4 -19   12.57    0.90 
   6  -2 -19   10.96    1.49 
  -4  -2  19   12.15    1.30 
   6  -4  19   12.84    1.59 
  -4  -2  19   14.39    1.47 
   6  -5 -19   12.88    1.87 
  -5  -1 -19   12.49    1.42 
   6  -5 -19   11.98    1.62 
   6  -1  19   11.13    1.39 
  -5  -1 -19   12.13    1.34 
   5  -6 -19   12.92    1.30 
  -6   5  19   13.35    1.88 
  -6   1 -19   11.55    1.52 
  -6   1 -19   15.05    2.95 
   5  -6 -19    9.05    1.43 
   5   1  19   11.97    1.98 
  -6   1 -19   11.55    1.77 
  -3  -4  19    7.78    1.49 
   7  -3  19   14.39    3.48 
   7  -3  19    9.87    1.31 
  -4  -3 -19   10.61    1.16 
  -7   3 -19    9.97    1.32 
   4  -7 -19    7.86    1.26 
  -7   4  19   11.74    1.65 
   1  -7 -19   11.90    1.25 
   6  -7  19    9.80    2.07 
  -7   6 -19    9.74    1.87 
   6   1 -19   13.31    1.91 
  -1  -6 -19   10.62    1.26 
   7  -1 -19   12.57    2.13 
  -1   1 -20  100.01    5.93 
   0   1  20  115.57    5.96 
   1  -1  20  110.20    6.02 
   0   1  20  120.72    5.93 
   1   0 -20  114.39    5.98 
  -1   1 -20  114.04    5.76 
   0   1  20  118.21    5.94 
   1  -1  20  112.52    6.20 
  -1   0  20  106.22    5.77 
   1   0 -20  117.03    5.76 
   0  -1 -20  110.67    5.89 
  -1   1 -20  113.26    6.01 
   1  -1  20  101.70    6.00 
   1   0 -20  110.92    5.98 
   1   0 -20   96.98    5.93 
   1  -1  20  123.29    5.96 
  -1   1 -20  112.44    5.99 
  -1   0  20  113.11    6.05 
  -1   0  20  116.40    5.82 
  -1   0  20  113.98    6.26 
   0  -1 -20  113.01    5.91 
  -1   0  20  100.57    6.02 
   0  -1 -20  118.78    5.93 
   0  -1 -20   98.87    6.01 
   2  -2 -20  118.58    6.14 
   2  -2 -20  107.38    6.04 
   0   2 -20  101.12    5.83 
  -2   0 -20  120.06    6.12 
   2  -2 -20  103.92    5.82 
   2   0  20  112.35    6.10 
  -2   0 -20  118.19    6.09 
   0  -2  20  102.29    6.06 
   0  -2  20  105.05    5.98 
   0  -2  20  117.65    6.11 
   2   0  20  115.22    6.05 
  -2   0 -20  123.19    5.87 
   2  -2 -20  108.08    6.12 
  -2   0 -20  111.97    6.07 
  -2   2  20  115.21    5.83 
  -2   0 -20  114.78    6.06 
   2   0  20  121.35    5.93 
   2  -2 -20  108.24    6.03 
   2   0  20  113.62    6.15 
   2   0  20  116.23    5.91 
  -2   0 -20  107.04    6.35 
  -2   2  20  102.51    6.10 
   2  -2 -20  110.85    6.28 
  -2   0 -20  128.58    6.37 
  -3   1  20   77.79    4.74 
  -3   1  20   81.72    4.44 
   2  -3  20   85.59    4.62 
  -3   1  20   83.10    4.70 
   2  -3  20   83.69    4.35 
   2   1 -20   81.77    4.32 
  -3   1  20   83.00    4.76 
   1  -3 -20   79.97    4.49 
   2  -3  20   78.86    4.58 
  -3   2 -20   82.77    4.60 
  -3   2 -20   82.98    4.37 
   2  -3  20   83.34    4.59 
  -3   2 -20   81.61    4.62 
  -3   1  20   82.82    4.32 
   3  -1 -20   77.06    4.70 
   3  -1 -20   81.05    4.68 
   3  -2  20   82.16    4.64 
   3  -2  20   84.87    4.54 
  -1  -2 -20   87.88    4.26 
  -2   3 -20   68.46    4.31 
   3  -2  20   87.53    4.63 
   3  -2  20   82.79    4.96 
   3  -1 -20   81.00    4.33 
   3  -2  20   82.90    4.55 
   3  -2  20   85.96    4.40 
   3  -2  20   85.88    4.60 
  -2  -1  20   87.33    4.40 
  -1  -2 -20   74.54    4.51 
   3  -1 -20   82.77    4.66 
  -2  -1  20   79.16    4.52 
  -2  -1  20   83.43    4.70 
  -1  -2 -20   77.09    4.53 
   3  -2  20   82.10    4.66 
  -2  -1  20   82.37    4.65 
   4  -3 -20   62.21    3.65 
  -1  -3  20   58.78    3.35 
  -3  -1 -20   63.16    3.60 
   4  -1  20   63.01    3.53 
   4  -3 -20   56.88    3.43 
  -1  -3  20   59.23    3.50 
  -1  -3  20   60.91    3.50 
  -3  -1 -20   59.80    3.58 
  -3  -1 -20   60.49    3.29 
  -3   4  20   61.69    3.27 
   4  -3 -20   60.87    3.76 
   4  -1  20   59.73    3.71 
   4  -1  20   58.59    3.63 
   4  -3 -20   60.78    3.83 
   4  -3 -20   60.60    3.29 
   4  -1  20   60.73    3.44 
  -4   1 -20   59.73    3.66 
   1  -4  20   59.79    3.61 
   3  -4 -20   59.90    3.59 
  -4   1 -20   60.02    3.64 
   3  -4 -20   66.37    3.36 
  -4   1 -20   62.71    3.77 
   3  -4 -20   62.87    3.68 
  -4   1 -20   59.90    3.65 
   3   1  20   63.15    3.42 
  -4   1 -20   61.65    3.36 
  -4   1 -20   58.85    3.68 
  -4   3  20   58.09    3.30 
  -4   4 -20   53.85    2.98 
   4  -4  20   51.80    3.24 
   4   0 -20   49.30    2.91 
   4  -4  20   51.02    3.47 
  -4   0  20   56.30    2.90 
  -4   0  20   53.19    3.41 
   4  -4  20   52.68    3.21 
   4  -4  20   52.30    3.29 
  -4   0  20   51.08    3.43 
   4  -4  20   52.55    2.98 
  -4   0  20   47.99    3.41 
   3  -5  20   42.08    2.56 
  -5   3 -20   44.90    2.67 
   3  -5  20   48.68    2.99 
  -5   2  20   44.45    2.58 
  -5   2  20   45.89    3.21 
   2  -5 -20   44.61    2.44 
   3   2 -20   44.82    2.56 
   3  -5  20   39.40    2.79 
   5  -3  20   46.53    2.70 
   5  -2 -20   43.59    3.04 
   5  -2 -20   45.25    3.24 
   5  -3  20   43.56    3.04 
   5  -2 -20   41.78    2.58 
  -2  -3 -20   45.91    2.71 
   5  -3  20   45.59    2.97 
  -3  -2  20   46.65    3.02 
   5  -3  20   45.60    3.03 
  -3  -2  20   44.54    2.96 
  -2  -3 -20   48.05    2.49 
  -3  -2  20   45.10    2.67 
   5  -3  20   50.10    4.46 
  -3  -2  20   43.79    2.88 
   5  -3  20   44.75    3.29 
  -5   0 -20   34.10    2.72 
  -5   0 -20   35.02    2.57 
   5  -5 -20   37.02    2.73 
   5  -5 -20   34.94    2.57 
  -5   5  20   32.73    2.17 
  -5   0 -20   35.35    2.55 
   5   0  20   34.74    2.33 
   5   0  20   39.09    2.45 
   6  -2  20   30.46    2.19 
  -4  -2 -20   29.92    2.18 
   6  -4 -20   31.28    2.63 
   6  -2  20   32.39    2.38 
  -4  -2 -20   33.49    2.29 
   6  -2  20   33.86    2.96 
   6  -4 -20   33.70    2.99 
   6  -2  20   30.83    3.31 
  -2  -4  20   30.93    2.02 
  -4  -2 -20   31.67    1.95 
  -6   4  20   30.37    2.06 
  -6   2 -20   32.53    2.59 
  -6   2 -20   37.22    4.03 
   4   2  20   30.28    2.40 
   2  -6  20   35.31    2.57 
  -6   2 -20   32.17    2.10 
   4  -6 -20   28.72    2.09 
   1  -6 -20   26.80    1.74 
  -6   1  20   29.15    2.96 
  -6   5 -20   30.14    2.52 
   5  -6  20   28.24    2.28 
   5  -6  20   21.93    2.06 
   5  -6  20   28.81    2.06 
  -6   1  20   28.44    2.55 
   5   1 -20   27.72    2.49 
   6  -5  20   28.35    2.35 
   6  -5  20   27.46    2.32 
  -5  -1  20   28.09    2.45 
  -1  -5 -20   27.78    1.69 
   6  -5  20   30.39    3.01 
  -5   6 -20   27.72    2.54 
  -5  -1  20   27.97    2.34 
   6  -1 -20   28.40    1.98 
  -7   4 -20   25.39    2.20 
  -7   3  20   22.60    1.90 
  -3  -4 -20   22.96    1.57 
   7  -4  20   29.02    3.80 
   7  -3 -20   21.37    1.77 
  -3  -4 -20   23.88    1.71 
   7  -1  20   20.78    5.26 
   7  -1  20   18.76    2.36 
   6   1  20   21.01    2.37 
   6  -7 -20   13.31    2.49 
  -7   6  20   19.03    2.45 
   0   0 -21  139.26    7.75 
   0   0 -21  141.41    7.62 
   0   0  21  135.41    7.65 
   0   0  21  155.45    7.70 
   0   0  21  149.84    7.45 
   0   0  21  149.17    7.62 
   0   0 -21  153.60    7.48 
   0   0 -21  136.19    7.60 
   0   0 -21  144.36    7.61 
   2  -1 -21  137.22    7.39 
   1  -2 -21  114.63    7.25 
  -1  -1 -21  132.88    7.20 
  -2   1  21  150.67    7.45 
   1  -2  21  142.31    7.37 
  -2   1  21  127.67    7.41 
   2  -1  21  131.44    7.34 
  -1   2 -21  142.76    7.07 
  -2   1  21  147.45    7.08 
  -2   1 -21  137.79    7.31 
   2  -1  21  140.86    7.28 
   1   1 -21  140.04    7.32 
  -2   1 -21  139.56    7.32 
   1   1 -21  141.02    7.07 
   1   1  21  124.46    7.09 
   2  -1 -21  142.02    7.36 
   2  -1 -21  148.05    7.42 
  -1   2 -21  141.69    7.07 
  -1  -1  21  139.73    7.07 
  -1  -1  21  138.32    7.43 
   1   1 -21  118.06    7.28 
   1  -2  21  146.51    7.38 
   1  -2  21  142.49    7.22 
   1   1  21  138.88    7.26 
  -1  -1 -21  117.95    7.30 
  -1   2  21  136.62    7.07 
  -1  -1  21  145.47    7.06 
  -1   2 -21  116.19    7.30 
   2  -1 -21  141.58    7.07 
  -1  -1 -21  128.43    7.31 
  -1  -1  21  140.47    7.41 
   2  -1  21  144.92    7.37 
   2  -1  21  141.36    7.22 
  -1  -1  21  123.30    7.35 
   2  -1  21  146.35    7.15 
  -1   2 -21  140.71    7.32 
  -1  -1  21  136.01    7.37 
  -2   1  21  145.33    7.24 
  -2   1 -21  130.61    7.30 
   1   1  21  148.57    7.40 
  -2   1 -21  135.54    7.10 
  -1  -1  21  134.36    7.15 
  -3   0  21   99.92    5.17 
   0  -3  21   98.14    5.42 
  -3   0 -21  102.67    5.88 
   3  -3  21   97.76    5.46 
   3  -3 -21  101.10    5.56 
   3   0  21  101.00    5.58 
   3   0  21  102.70    5.33 
  -3   3  21  100.44    5.18 
  -3   0  21   88.41    5.84 
   3  -3  21   99.60    5.52 
  -3   0 -21  101.75    5.22 
   0  -3  21   97.17    5.46 
   3   0  21  106.92    5.33 
  -3   0 -21   99.02    5.44 
   3   0 -21   94.12    5.58 
   3  -3 -21   99.51    5.60 
  -3   0 -21   97.39    5.50 
  -3   0  21  103.91    5.69 
   3  -3  21   98.86    5.50 
  -3   0  21   99.27    5.53 
  -3   0 -21   96.94    5.49 
  -3   0  21  100.63    5.70 
   3  -3  21   82.46    5.37 
  -3   3 -21  101.09    5.24 
   0  -3 -21  100.68    5.32 
   3  -3  21  102.77    5.27 
   3  -3  21   95.45    5.51 
   0  -3  21   97.61    5.41 
   0   3 -21   95.72    5.19 
  -3   0  21   97.15    5.23 
  -3   0 -21   94.14    5.18 
   3  -3 -21  106.39    5.28 
   3   0 -21   99.90    5.20 
   3   0 -21  102.09    5.59 
   3  -3  21   91.02    5.56 
  -4   2 -21   79.56    4.70 
   4  -2  21   81.27    4.64 
  -4   2  21   81.37    4.90 
   4  -2 -21   80.25    4.88 
   2   2  21   85.24    4.40 
   4  -2 -21   81.25    4.33 
   4  -2 -21   78.79    4.71 
   4  -2 -21   82.25    4.75 
  -2  -2  21   85.26    4.74 
  -4   2  21   81.80    4.89 
  -2  -2  21   84.96    4.41 
   2  -4 -21   81.66    4.53 
  -2  -2 -21   84.07    4.56 
   2  -4  21   76.56    4.57 
  -4   2 -21   80.50    4.71 
   2  -4  21   82.70    4.69 
   4  -2  21   77.05    4.89 
  -4   2  21   79.41    4.33 
  -2  -2  21   81.04    4.62 
  -2  -2 -21   81.02    4.27 
   4  -2  21   78.45    4.75 
   4  -2  21   79.87    4.72 
   4  -2 -21   83.31    4.83 
   4  -2  21   82.23    4.44 
   4  -2  21   74.29    4.75 
  -2  -2  21   79.72    4.67 
   4  -2  21   84.82    4.62 
   2  -4  21   81.48    4.61 
   4  -2  21   82.05    4.63 
  -4   2  21   80.68    4.81 
   2   2 -21   83.58    4.32 
  -4   2 -21   83.06    4.41 
  -2  -2 -21   77.39    4.56 
  -4  -1 -21   50.33    3.30 
   5  -4 -21   57.94    3.72 
  -5   1  21   51.81    3.68 
  -4  -1 -21   55.07    3.37 
   4  -5  21   45.67    3.28 
   5  -1  21   51.62    3.17 
   4  -5  21   55.40    3.40 
   1  -5 -21   52.93    2.89 
  -5   4 -21   54.45    3.14 
   5  -1  21   54.28    3.28 
   5  -4 -21   54.51    3.59 
  -5   1  21   55.04    3.26 
   4  -5  21   53.23    3.08 
  -5   1  21   52.84    3.61 
  -5   1  21   56.56    3.11 
  -4   5  21   55.63    2.99 
   4  -5  21   54.39    3.42 
  -4  -1 -21   52.53    2.99 
  -5   1  21   53.49    3.00 
   4   1 -21   51.05    3.02 
   4   1  21   53.38    3.16 
  -4  -1  21   47.20    3.08 
  -4  -1  21   52.45    3.53 
   1  -5  21   56.14    3.42 
   5  -4  21   55.81    3.53 
  -5   1 -21   51.96    3.43 
  -5   4  21   49.83    3.00 
  -4  -1  21   51.97    3.46 
  -5   1 -21   56.34    4.12 
  -5   1 -21   56.43    3.09 
  -4   5 -21   54.10    3.06 
   4  -5 -21   50.65    3.14 
  -5   1 -21   49.42    3.44 
   4  -5 -21   58.18    3.54 
  -5   1 -21   53.88    3.57 
   4  -5 -21   54.79    3.36 
   5  -4  21   53.33    3.49 
   5  -4  21   53.10    3.79 
   5  -4  21   52.42    3.44 
   5  -1 -21   49.80    3.03 
   5  -4  21   53.29    3.47 
  -3  -3  21   39.39    2.62 
  -3  -3  21   40.39    2.57 
  -6   3 -21   42.63    2.62 
  -3  -3 -21   40.64    2.30 
   6  -3 -21   44.20    3.46 
   6  -3  21   40.52    2.92 
   3  -6  21   38.09    2.42 
   6  -3  21   38.03    3.43 
   6  -3 -21   41.95    3.19 
  -6   3  21   41.82    2.49 
   3  -6  21   44.71    2.97 
   6  -3 -21   43.31    2.49 
  -3  -3 -21   41.53    2.38 
   6  -3  21   39.79    3.06 
  -3  -3 -21   39.82    2.57 
   6  -3  21   41.10    2.63 
  -6   6  21   31.79    2.75 
   6   0  21   28.88    2.85 
   0  -6 -21   29.97    2.00 
   6   0 -21   32.96    2.71 
  -6   6 -21   29.38    2.74 
   7  -2  21   30.65    4.61 
   7  -2  21   25.02    2.42 
  -2  -5  21   26.66    2.31 
  -7   5 -21   27.00    2.69 
   5  -7  21   26.20    2.40 
   5   2 -21   26.94    2.75 
   2  -7 -21   26.46    1.90 
   5   2  21   25.63    2.71 
  -2  -5 -21   27.03    1.69 
  -7   5  21   26.31    2.52 
   7  -2 -21   30.20    2.28 
   7  -5  21   29.65    4.28 
   5  -7 -21   20.43    2.50 
   0   1 -22   16.21    1.10 
  -1   0 -22   12.91    1.23 
   1  -1 -22   15.47    1.15 
   0  -1  22   16.81    1.18 
   0   1 -22   15.24    1.07 
   1  -1 -22   12.97    1.10 
   1   0  22   14.18    0.94 
  -1   1  22   11.38    1.10 
   1  -1 -22   15.52    0.89 
  -1   0 -22   12.55    0.89 
   0  -1  22   15.58    1.26 
   1   0  22   15.96    1.18 
   0   1 -22   16.50    1.10 
   1   0  22   14.32    1.10 
  -1   1  22   13.20    0.92 
   0  -1  22   13.67    1.33 
   0  -1  22   17.62    1.18 
  -1   0 -22   12.68    1.11 
   1   0  22   13.71    1.15 
   0   1 -22   14.88    0.90 
   0  -1  22   13.19    0.91 
  -1   0 -22   15.14    1.12 
   1  -1 -22   13.00    1.11 
   0  -1  22   15.97    0.92 
  -1   0 -22   13.55    1.13 
   2  -2  22   18.55    1.29 
   0  -2 -22   18.53    1.26 
   2  -2  22   18.46    1.39 
   2   0 -22   18.92    1.39 
   2  -2  22   17.18    1.48 
  -2   2 -22   15.94    1.36 
   2   0 -22   18.98    1.42 
   2  -2  22   19.13    1.37 
  -2   0  22   20.32    1.48 
  -2   0  22   17.58    1.16 
  -2   0  22   16.45    1.63 
   2  -2  22   17.93    1.31 
   2   0 -22   19.81    1.44 
   0   2  22   16.37    1.09 
  -2   0  22   20.04    1.44 
  -2   0  22   18.78    1.50 
  -2   0  22   18.34    1.17 
   2  -2  22   19.12    1.15 
  -2   2 -22   18.99    1.36 
  -2   0  22   17.43    1.12 
   0  -2 -22   18.43    1.26 
   2   0 -22   18.20    1.11 
   3  -1  22   12.34    0.93 
   3  -1  22   12.59    1.14 
  -1  -2  22   13.69    1.19 
   3  -2 -22   12.66    1.34 
   3  -2 -22   12.32    1.17 
  -1   3 -22   11.91    0.82 
   3  -2 -22   11.23    1.23 
  -1  -2  22   12.69    0.98 
  -2  -1 -22   12.08    0.80 
   3  -1  22   12.79    1.12 
  -2   3  22   11.60    0.82 
   3  -1  22   12.88    0.99 
  -2  -1 -22   11.55    1.04 
   3  -2 -22   11.27    0.83 
   3  -1  22   12.63    1.08 
  -1   3 -22   11.96    0.83 
   3  -2 -22   11.15    1.05 
  -2  -1 -22   12.00    1.03 
  -2  -1 -22   11.95    1.00 
  -1  -2  22   12.96    0.93 
  -1  -2  22   13.46    1.12 
   3  -1  22   12.31    1.09 
   3  -2 -22   11.69    1.16 
  -3   1 -22   12.12    0.87 
   2  -3 -22   13.25    1.10 
  -3   1 -22   12.60    1.11 
  -3   2  22   11.23    0.83 
  -3   2  22   11.40    1.20 
   2  -3 -22   14.08    0.87 
  -3   1 -22   12.07    1.10 
  -3   1 -22   12.20    1.13 
   2  -3 -22   10.85    1.10 
   2   1  22   12.21    0.92 
   1   2 -22   11.21    0.82 
   1  -3  22   13.86    1.12 
   1  -3  22   12.05    0.83 
  -3   1 -22   12.21    1.08 
   1  -3  22   13.01    1.05 
   1  -3  22   12.50    1.06 
  -4   3 -22   10.78    0.91 
   3  -4  22    9.85    1.05 
   3  -4  22    9.84    0.83 
  -4   1  22   10.33    0.82 
  -4   1  22   12.02    1.26 
   3   1 -22   10.58    0.85 
  -4   1  22   10.32    1.01 
  -4   1  22   12.16    0.98 
   3  -4  22   11.79    1.16 
  -4   1  22   10.15    1.31 
  -4   1  22   11.95    1.28 
   3  -4  22   10.76    1.15 
  -4   1  22   11.02    1.22 
   4  -1 -22   12.70    1.39 
   4  -3  22    9.95    1.03 
   4  -3  22   11.02    1.12 
   4  -1 -22   11.52    1.31 
   4  -3  22   11.03    1.16 
  -3   4 -22   11.22    0.86 
   4  -1 -22    9.67    0.85 
  -3  -1  22   11.04    1.23 
  -3  -1  22   11.04    0.90 
   4  -3  22   12.22    1.46 
  -3  -1  22   10.59    1.16 
   4  -3  22   10.68    1.17 
   4  -3  22   11.69    1.20 
   4  -3  22   10.69    0.89 
   4  -3  22   10.46    1.33 
  -1  -3 -22   11.16    0.90 
   4  -3  22   10.55    1.03 
   4   0  22   11.65    1.01 
  -4   0 -22   10.73    1.12 
   0  -4  22   10.37    1.10 
  -4   4  22    9.31    0.85 
  -4   0 -22   10.32    1.12 
   4   0  22   10.41    1.02 
   4  -4 -22    8.32    0.92 
   4  -4 -22   11.04    1.30 
   4  -4 -22   11.18    1.16 
   5  -2  22    8.31    1.76 
   5  -2  22   10.21    1.09 
   5  -3 -22   10.03    1.30 
  -2  -3  22    9.70    1.00 
   5  -2  22    7.29    1.78 
  -3  -2 -22    8.88    0.74 
   5  -3 -22   11.02    1.57 
  -3  -2 -22    8.96    0.99 
  -2  -3  22    9.77    0.86 
   5  -2  22   10.25    1.23 
   5  -3 -22   11.16    1.53 
   5  -2  22    8.40    0.98 
  -3  -2 -22    8.65    1.01 
   5  -3 -22    9.57    0.89 
  -5   2 -22   10.24    1.37 
  -5   3  22    8.19    0.85 
   3  -5 -22    9.19    0.80 
   3   2  22   10.15    0.96 
   2  -5  22   10.53    1.18 
   3  -5 -22   10.58    1.00 
  -5   2 -22    9.79    1.20 
  -5   2 -22    9.42    0.94 
   5   0 -22    7.92    1.08 
   5  -5  22    9.26    1.28 
   0  -5 -22    8.69    0.76 
   5  -5  22    9.57    1.18 
   5  -5  22    9.37    1.23 
  -5   0  22    9.92    1.40 
   5  -5  22    9.27    1.03 
  -5   5 -22    8.18    1.35 
  -5   0  22    9.39    1.61 
  -6   2  22    6.97    0.99 
  -6   4 -22    7.62    1.20 
  -6   2  22    9.92    1.77 
   4  -6  22    7.47    0.98 
   4  -6  22    8.54    1.30 
  -6   2  22    9.69    1.14 
   4   2 -22   12.01    1.61 
   2  -6 -22    8.99    0.79 
   6  -2 -22    7.12    1.04 
   6  -4  22    8.25    1.45 
   6  -4  22    9.82    1.55 
  -2  -4 -22    8.58    0.73 
  -4  -2  22    8.56    1.27 
  -2  -4 -22    7.97    0.71 
   6  -2 -22   11.62    1.95 
  -4  -2  22    8.81    1.15 
   6  -4  22    9.89    1.38 
   6  -2 -22    6.99    1.29 
  -4  -2  22    7.57    1.14 
   6  -4  22    9.63    2.08 
   6  -5 -22   11.49    1.97 
  -5  -1 -22    7.75    1.32 
   6  -1  22    8.13    1.36 
   6  -5 -22   10.36    1.83 
  -5  -1 -22    9.81    2.00 
  -6   5  22   10.30    1.63 
  -6   1 -22    8.46    1.50 
   5   1  22    7.40    1.64 
   5  -6 -22    6.94    1.55 
  -6   1 -22    9.59    1.63 
   5  -6 -22    7.73    1.33 
  -4  -3 -22    6.84    1.16 
   7  -3  22    8.35    2.58 
  -3  -4  22    7.55    1.39 
   7  -3  22    6.59    1.19 
  -7   3 -22    6.51    1.18 
   4  -7 -22    7.76    1.65 
   3  -7  22    6.89    1.26 
  -7   4  22    9.22    1.50 
   0  -1 -23  231.35   10.65 
   1  -1  23  198.93   10.96 
   1   0 -23  173.83   10.87 
  -1   1 -23  196.45   10.93 
  -1   1 -23  229.63   10.68 
   0  -1 -23  212.01   10.85 
   0   1  23  221.42   10.66 
   1   0 -23  177.49   10.87 
   0   1  23  236.42   10.88 
   1  -1  23  183.64   10.68 
   0  -1 -23  210.16   11.03 
   0  -1 -23  213.89   10.82 
  -1   0  23  184.86   10.70 
   1   0 -23  207.96   10.92 
   1  -1  23  215.34   11.00 
  -1   0  23  224.43   10.68 
  -1   1 -23  214.23   10.87 
   1   0 -23  209.22   10.67 
   0   1  23  212.16   10.91 
   1  -1  23  179.56   11.10 
   1  -1  23  217.82   10.85 
  -1   1 -23  216.71   10.89 
   0  -1 -23  222.63   10.87 
   2  -2 -23  155.56    8.22 
  -2   0 -23  145.49    8.82 
  -2   0 -23  160.49    8.54 
   0  -2  23  151.69    8.43 
   0  -2  23  165.32    8.58 
   0  -2  23  175.24    8.60 
  -2   2  23  167.13    8.26 
   2   0  23  167.12    8.35 
   2   0  23  165.19    8.49 
   2   0  23  150.02    8.55 
   2  -2 -23  161.62    8.51 
  -2   2  23  144.24    8.57 
   2  -2 -23  168.38    8.63 
  -2   0 -23  172.42    8.55 
   2  -2 -23  148.08    8.76 
   0   2 -23  151.63    8.24 
  -2   0 -23  146.21    8.51 
  -2   0 -23  166.23    8.29 
   2  -2 -23  160.47    8.61 
   2   0  23  164.70    8.36 
  -2   0 -23  171.32    8.57 
   2  -2 -23  156.08    8.49 
  -2   0 -23  170.91    8.57 
   2  -3  23  119.39    7.55 
  -3   1  23  148.28    7.74 
  -3   1  23  141.44    7.40 
  -3   1  23  140.40    7.69 
  -3   2 -23  143.38    7.61 
  -3   1  23  149.01    7.83 
   2  -3  23  143.61    7.57 
   1   2  23  123.81    7.27 
   2  -3  23  145.58    7.32 
   1  -3 -23  116.12    7.42 
  -3   2 -23  128.20    7.54 
  -3   1  23  144.32    7.27 
  -3   1  23  138.52    7.78 
   2  -3  23  130.64    7.60 
  -3   2 -23  144.17    7.34 
   1  -3 -23  137.03    7.24 
   2   1 -23  144.72    7.27 
   3  -1 -23  144.44    7.75 
   3  -1 -23  144.92    7.67 
   3  -1 -23  145.92    7.71 
   3  -2  23  141.02    7.52 
  -1  -2 -23  138.77    7.47 
   3  -2  23  150.19    7.56 
   3  -2  23  141.66    7.55 
  -2  -1  23  147.82    7.74 
  -2  -1  23  145.86    7.67 
  -1  -2 -23  147.43    7.22 
  -1  -2 -23  133.98    7.46 
   3  -2  23  144.96    7.36 
   3  -1 -23  140.36    7.27 
   3  -2  23  141.34    7.64 
   3  -2  23  133.26    8.49 
  -2  -1  23  140.35    7.52 
  -2  -1  23  128.72    7.43 
  -1   3  23  125.02    7.23 
   3  -2  23  148.74    7.53 
   3  -2  23  141.74    7.63 
  -2  -1  23  153.01    7.35 
  -1  -3  23  104.73    5.52 
   4  -1  23   94.34    5.49 
   4  -3 -23   94.61    5.70 
   4  -3 -23   97.68    5.65 
   4  -1  23   91.48    5.56 
   4  -1  23  101.49    5.32 
  -3  -1 -23   98.07    5.47 
  -3   4  23  100.93    5.13 
   4  -3 -23  103.16    5.41 
  -1  -3  23   95.27    5.39 
  -1  -3  23   98.01    5.23 
  -1  -3  23   93.32    5.38 
  -3  -1 -23   94.06    5.13 
   4  -1  23  104.19    5.40 
  -3  -1 -23   94.24    5.45 
  -4   3  23   95.50    5.14 
  -4   1 -23   95.60    5.59 
  -4   1 -23  100.08    5.77 
   3  -4 -23   98.89    5.20 
   3   1  23  100.69    5.29 
   1  -4  23   99.79    5.50 
  -4   1 -23   96.42    5.55 
   1  -4  23   83.04    5.33 
   3  -4 -23  102.54    5.60 
  -4   1 -23   89.97    5.51 
   1   3 -23   88.47    5.23 
  -4   1 -23   98.98    5.22 
   3  -4 -23   97.12    5.48 
  -4   0  23   80.99    5.03 
  -4   4 -23   86.91    4.51 
  -4   0  23   82.78    4.99 
   4  -4  23   75.46    4.94 
   4  -4  23   77.17    4.76 
   4   0 -23   77.90    4.42 
  -4   0  23   81.84    5.02 
   4  -4  23   83.19    4.76 
   4  -4  23   85.90    4.52 
  -4   0  23   85.92    4.61 
   4  -4  23   78.92    4.82 
   3   2 -23   73.07    3.89 
  -5   2  23   69.58    4.03 
  -5   3 -23   71.73    4.00 
   3  -5  23   68.60    3.90 
  -5   2  23   74.39    4.63 
   3  -5  23   58.82    4.07 
  -5   2  23   70.76    3.89 
   3  -5  23   73.52    4.32 
  -2  -3 -23   68.71    3.98 
   5  -3  23   71.16    4.31 
   5  -3  23   73.16    4.40 
   5  -3  23   68.84    4.59 
   5  -3  23   67.00    4.40 
   5  -2 -23   75.61    4.70 
   5  -3  23   74.16    4.02 
  -3  -2  23   74.08    4.00 
  -2  -3 -23   71.49    3.80 
  -3  -2  23   74.15    4.40 
  -3  -2  23   71.02    4.34 
  -3  -2  23   65.82    4.23 
   5  -2 -23   69.46    3.90 
  -5   5  23   53.60    3.26 
   5  -5 -23   53.55    3.58 
   5   0  23   53.64    3.36 
   5  -5 -23   57.77    3.75 
  -5   0 -23   50.61    3.52 
  -5   0 -23   52.65    3.49 
  -2  -4  23   46.64    2.83 
   6  -2  23   43.57    3.34 
  -4  -2 -23   43.22    3.07 
  -4  -2 -23   51.52    3.16 
   6  -2  23   46.42    3.00 
  -4  -2 -23   47.92    2.77 
   6  -4 -23   52.65    3.92 
   6  -4 -23   48.61    3.50 
   6  -2  23   46.37    4.04 
  -6   4  23   46.29    2.90 
   4  -6 -23   45.77    2.94 
   4   2  23   46.59    3.30 
  -6   2 -23   47.33    2.88 
   2  -6  23   49.35    3.38 
  -6   2 -23   46.63    3.40 
  -6   5 -23   43.69    3.14 
   1  -6 -23   40.65    2.43 
  -6   1  23   43.51    3.80 
   5   1 -23   42.96    3.13 
   5  -6  23   44.83    3.03 
   5  -6  23   32.40    3.04 
   5  -6  23   44.70    2.83 
  -5   6 -23   40.10    3.06 
   6  -5  23   41.81    3.11 
  -1  -5 -23   39.55    2.36 
   6  -1 -23   39.99    2.70 
  -5  -1  23   41.43    3.18 
  -7   3  23   33.40    2.42 
  -7   4 -23   34.02    2.67 
   4  -7  23   33.26    2.55 
  -7   4 -23   30.01    3.98 
  -4  -3  23   29.46    2.59 
   7  -4  23   33.53    4.22 
   7  -3 -23   32.06    2.64 
  -3  -4 -23   36.29    2.04 
  -3  -4 -23   34.15    2.18 
   0   0  24   64.53    3.91 
   0   0  24   76.83    3.90 
   0   0 -24   70.22    3.66 
   0   0 -24   68.23    3.88 
   0   0  24   67.51    3.67 
   0   0  24   72.54    3.95 
   0   0 -24   68.10    3.86 
   2  -1  24   36.32    2.21 
  -2   1  24   36.08    2.07 
  -1   2 -24   37.60    2.06 
  -1  -1  24   40.14    2.09 
  -1  -1  24   37.31    2.48 
  -1  -1 -24   35.78    2.04 
  -1  -1 -24   36.86    2.33 
   2  -1  24   39.81    2.40 
  -2   1  24   40.57    2.48 
   1  -2 -24   36.06    2.32 
  -1  -1  24   29.83    2.36 
   2  -1  24   37.21    2.25 
  -1  -1  24   40.02    2.47 
  -1  -1 -24   35.84    2.31 
   1  -2  24   33.32    2.32 
   1  -2  24   39.12    2.10 
   2  -1 -24   37.56    2.44 
   2  -1 -24   39.52    2.44 
   1  -2 -24   37.93    2.33 
   1  -2 -24   34.31    2.22 
  -2   1 -24   34.41    2.33 
   1   1 -24   36.88    2.07 
   2  -1  24   37.62    2.39 
   1  -2  24   40.47    2.38 
   1  -2  24   39.63    2.37 
  -1   2 -24   37.42    2.05 
  -2   1  24   35.37    2.45 
  -1  -1  24   38.12    2.04 
  -2   1 -24   38.59    2.36 
   2  -1  24   37.14    2.32 
   2  -1  24   37.30    2.14 
   1   1  24   36.21    2.10 
  -1  -1 -24   36.74    2.20 
  -2   1 -24   35.31    2.35 
   2  -1 -24   37.48    2.38 
   2  -1 -24   35.49    2.06 
  -1   2 -24   37.27    2.34 
   1   1 -24   36.68    2.34 
   1   1  24   34.99    2.30 
   1  -2  24   41.06    2.25 
   1   1 -24   36.91    2.35 
  -3   0 -24   25.38    1.83 
   0  -3 -24   24.38    1.44 
   3  -3 -24   27.47    1.64 
   3  -3  24   25.21    1.84 
   3   0 -24   26.26    2.02 
  -3   0  24   27.08    1.91 
  -3   0  24   22.15    1.53 
  -3   0  24   26.84    1.61 
  -3   0 -24   23.69    1.82 
   3  -3 -24   26.69    1.98 
   3  -3  24   26.39    1.62 
  -3   3 -24   23.32    1.57 
  -3   0  24   27.06    2.08 
   3   0 -24   26.00    1.99 
   3   0 -24   24.53    1.54 
   0  -3  24   23.97    1.85 
  -3   0  24   26.30    1.98 
  -3   0  24   28.42    2.06 
   0   3 -24   23.21    1.49 
   3  -3  24   25.19    1.87 
  -3   0  24   24.55    1.61 
   0  -3 -24   24.66    1.64 
   0  -3 -24   27.55    1.70 
   0  -3  24   26.44    1.79 
   3  -3 -24   26.30    1.90 
   3   0  24   28.88    1.87 
  -3   3  24   24.72    1.52 
   0  -3  24   24.94    1.56 
  -3   0 -24   25.69    1.82 
  -3   0 -24   25.15    1.55 
   3  -3  24   24.00    1.73 
  -3   0 -24   24.22    2.11 
  -3   0  24   27.93    2.30 
   3  -3  24   24.46    1.80 
   3   0  24   25.44    1.66 
   4  -2  24   22.91    1.84 
   4  -2  24   23.53    1.83 
   4  -2 -24   23.15    1.46 
   2   2  24   20.85    1.51 
  -4   2  24   22.46    1.45 
  -4   2  24   24.89    2.06 
  -4   2  24   24.41    1.97 
  -2  -2 -24   22.81    1.39 
  -2  -2 -24   18.79    1.68 
  -4   2 -24   24.01    1.54 
  -2  -2  24   23.13    1.80 
   2  -4  24   24.12    1.80 
   2  -4  24   25.18    1.78 
  -4   2 -24   23.21    1.81 
   4  -2  24   23.13    1.87 
  -2  -2  24   25.19    1.91 
   4  -2 -24   25.04    1.96 
   2  -4 -24   23.31    1.42 
   4  -2  24   22.62    1.73 
   4  -2 -24   22.93    2.00 
   2  -4  24   22.50    1.45 
   2   2 -24   23.11    1.45 
   4  -2  24   22.20    1.97 
  -2  -2  24   24.77    1.53 
  -4   2 -24   22.25    1.80 
   4  -2  24   23.50    1.57 
   4  -2 -24   24.01    1.92 
  -2  -2 -24   22.10    1.74 
   4  -2  24   25.21    1.75 
   4  -2  24   23.72    1.83 
   2  -4 -24   23.38    1.67 
  -2  -2  24   23.70    1.77 
   2  -4  24   22.31    1.69 
   4  -5  24   16.77    1.68 
  -5   4 -24   16.32    1.40 
   4  -5  24   15.36    1.29 
   5  -4 -24   16.54    1.77 
   4   1 -24   15.08    1.31 
  -5   1  24   17.03    1.27 
   5  -1  24   15.82    1.44 
   5  -4 -24   18.27    1.99 
  -1  -4  24   16.94    1.25 
  -4  -1 -24   17.03    1.55 
  -5   1  24   18.21    1.86 
   4  -5  24   16.55    1.57 
  -5   1  24   17.08    1.97 
  -5   1  24   19.11    1.67 
  -4  -1 -24   15.96    1.17 
   4  -5  24   13.40    1.47 
  -4  -1 -24   16.09    1.50 
   5  -1  24   18.95    1.53 
  -5   1  24   17.58    1.37 
  -4   5  24   16.03    1.29 
   4  -5 -24   17.17    1.53 
  -5   1 -24   16.20    1.30 
   5  -4  24   15.85    2.08 
  -5   1 -24   15.34    1.69 
  -4   5 -24   15.99    1.32 
   1  -5  24   17.64    1.68 
   5  -4  24   16.55    1.61 
  -5   1 -24   16.54    2.41 
  -4  -1  24   17.63    1.75 
  -4  -1  24   16.69    1.69 
   5  -1 -24   14.36    1.28 
   4  -5 -24   18.81    1.81 
   5  -4  24   16.79    1.54 
  -5   1 -24   15.68    1.57 
  -5   4  24   15.51    1.28 
   4   1  24   16.12    1.45 
   5  -4  24   16.34    1.67 
   5  -4  24   15.25    1.58 
   4  -5 -24   16.57    1.40 
  -3  -3 -24   14.43    1.02 
   6  -3  24   15.21    2.02 
   6  -3  24   14.19    2.36 
  -6   3  24   14.00    1.26 
   6  -3 -24   18.79    2.49 
   3  -6 -24   12.38    1.10 
  -6   3 -24   13.05    1.39 
   6  -3 -24   14.67    1.28 
  -3  -3  24   13.82    1.31 
  -3  -3 -24   14.29    1.11 
  -3  -3 -24   14.74    1.22 
   3  -6  24   15.77    1.72 
  -6   3 -24   12.81    2.18 
  -3  -3  24   13.56    1.36 
   3  -6  24   12.81    1.16 
   6  -3  24   14.32    1.89 
   6  -3  24   12.99    1.43 
   0  -6 -24   11.62    1.31 
  -6   6 -24   11.38    1.95 
  -6   6  24   15.62    2.10 
   6   0 -24   14.31    2.30 
   6   0  24   14.01    2.50 
   2  -7 -24   11.54    1.28 
  -2  -5  24    9.66    1.92 
   5   2 -24   15.10    2.19 
  -7   5 -24   12.77    2.00 
   7  -2  24   11.92    2.01 
   7  -2  24   10.61    2.88 
   5  -7  24   10.46    2.06 
   5   2  24    9.32    1.95 
   7  -2 -24   12.14    1.90 
   5  -7 -24    9.79    1.88 
  -2  -5 -24   10.88    1.27 
  -2  -5 -24   10.24    1.08 
  -7   5  24   12.80    1.87 
   1  -1 -25   64.89    3.33 
   1   0  25   64.88    3.69 
  -1   0 -25   67.02    3.61 
   0   1 -25   60.41    3.74 
  -1   0 -25   63.23    3.63 
   1   0  25   58.25    3.63 
   1  -1 -25   56.84    3.59 
   1   0  25   65.55    3.61 
   1  -1 -25   61.22    3.66 
   0  -1  25   66.15    3.40 
   0   1 -25   62.32    3.34 
   0   1 -25   67.61    3.60 
  -1   1  25   57.04    3.37 
   0  -1  25   71.93    3.73 
   0  -1  25   65.08    3.82 
   1  -1 -25   63.73    3.67 
   1  -1 -25   66.06    3.72 
  -1   1  25   57.70    3.66 
  -1   0 -25   63.32    3.62 
  -1   0 -25   58.47    3.82 
   1   0  25   63.68    3.41 
   0  -1  25   66.81    3.38 
  -1   0 -25   62.48    3.57 
  -1   0 -25   64.61    3.38 
   0  -1  25   57.60    3.59 
   0  -1  25   60.92    3.65 
   0   1 -25   65.55    3.59 
   1  -1 -25   65.06    3.67 
   0  -1  25   60.84    3.39 
  -2   2 -25   43.13    2.70 
   0  -2 -25   43.17    2.56 
   0  -2 -25   42.87    2.36 
   2   0 -25   44.38    2.78 
   2   0 -25   39.81    2.72 
   0   2  25   41.67    2.34 
   2  -2  25   42.40    2.88 
  -2   0  25   44.83    2.75 
   2  -2  25   40.28    2.71 
  -2   0  25   46.78    2.83 
  -2   0  25   42.30    2.85 
   2   0 -25   42.63    2.37 
   2  -2  25   42.78    2.58 
   2  -2  25   42.26    2.41 
  -2   2 -25   38.91    2.64 
   2  -2  25   42.00    2.73 
  -2   0  25   42.59    2.42 
   2   0 -25   43.96    3.16 
  -2   0  25   45.62    2.47 
  -2   0  25   43.39    3.21 
   3  -1  25   42.23    2.71 
  -2  -1 -25   40.23    2.31 
  -2  -1 -25   42.89    2.51 
  -1  -2  25   41.28    2.72 
  -1  -2  25   40.69    2.68 
   3  -1  25   46.13    2.55 
   3  -2 -25   44.73    2.86 
   3  -2 -25   43.16    2.79 
  -2  -1 -25   41.52    2.65 
  -1  -2  25   43.22    2.52 
   3  -1  25   40.79    2.59 
  -1   3 -25   41.47    2.31 
   3  -1  25   41.58    2.72 
  -1   3 -25   41.58    2.32 
   3  -2 -25   39.78    2.88 
  -2  -1 -25   40.07    2.66 
   3  -1  25   41.43    2.46 
  -2   3  25   41.39    2.33 
   3  -1  25   45.93    2.65 
   3  -2 -25   36.19    2.55 
   3  -2 -25   42.78    2.71 
   3  -2 -25   40.16    2.33 
  -1  -2  25   42.11    2.42 
   1  -3  25   46.88    2.67 
  -3   1 -25   41.55    2.67 
  -3   1 -25   43.56    2.69 
   1  -3  25   41.14    2.37 
   2   1  25   34.94    2.40 
  -3   1 -25   43.24    2.70 
   1  -3  25   41.10    2.59 
  -3   2  25   41.16    2.34 
   1  -3  25   43.72    2.63 
  -3   1 -25   40.70    2.39 
   2  -3 -25   45.11    2.36 
   2  -3 -25   40.37    2.68 
   1   2 -25   40.38    2.34 
   2  -3 -25   41.21    2.64 
  -3   2  25   42.26    2.85 
  -4   1  25   30.85    2.29 
  -4   1  25   30.36    2.45 
  -4   1  25   29.10    1.94 
   3  -4  25   32.34    2.18 
   3   1 -25   28.98    1.81 
   3  -4  25   28.64    2.21 
  -4   1  25   29.58    1.80 
  -4   1  25   31.42    2.38 
  -4   1  25   33.45    1.97 
   1  -4 -25   28.98    1.94 
  -4   3 -25   30.26    1.91 
   3  -4  25   28.82    1.84 
   3  -4  25   23.53    2.06 
   4  -3  25   29.60    2.07 
  -1  -3 -25   30.03    1.89 
   4  -1 -25   32.19    2.51 
   4  -3  25   30.09    2.23 
   4  -3  25   30.78    1.88 
   4  -1 -25   32.20    2.47 
  -3   4 -25   26.08    1.81 
  -3  -1  25   29.27    1.85 
   4  -3  25   26.20    2.24 
  -3  -1  25   29.68    2.26 
   4  -3  25   30.58    2.19 
   4  -3  25   31.87    2.50 
  -3  -1  25   31.44    2.35 
  -1  -3 -25   29.59    1.70 
   4  -3  25   29.99    2.15 
   4  -1 -25   28.16    1.81 
   4  -4 -25   26.19    1.80 
   4  -4 -25   27.67    2.11 
   4  -4 -25   29.12    2.28 
  -4   4  25   25.20    1.67 
   4   0  25   26.94    1.88 
   0  -4  25   26.86    1.84 
  -4   0 -25   25.03    1.99 
   0  -4  25   26.46    1.70 
   0  -4  25   27.75    1.99 
  -4   0 -25   25.86    2.04 
   5  -3 -25   26.65    2.22 
  -2  -3  25   26.78    2.03 
   5  -2  25   26.65    1.93 
  -3  -2 -25   18.57    1.79 
   5  -3 -25   28.17    2.43 
   5  -3 -25   24.46    1.60 
  -3  -2 -25   23.42    1.51 
  -2  -3  25   24.15    1.82 
   5  -2  25   22.95    1.75 
   5  -2  25   24.25    2.45 
   5  -2  25   23.35    2.08 
  -2  -3  25   23.14    1.61 
   5  -3 -25   26.44    2.36 
   5  -2  25   24.76    2.10 
  -3  -2 -25   25.19    1.93 
   5  -2  25   24.14    2.26 
  -5   2 -25   24.20    2.04 
  -5   2 -25   25.20    1.71 
   3  -5 -25   22.77    1.55 
  -5   3  25   22.67    1.59 
   2  -5  25   23.04    1.54 
   3  -5 -25   25.43    1.79 
   3   2  25   23.75    1.72 
  -5   2 -25   20.95    2.14 
  -5   2 -25   25.46    2.35 
   2  -5  25   26.19    2.03 
   2   3 -25   20.53    1.73 
   5  -5  25   17.66    1.77 
  -5   0  25   18.48    1.97 
   5  -5  25   19.00    1.89 
  -5   5 -25   19.83    2.17 
   5  -5  25   21.21    1.83 
   5   0 -25   17.83    1.66 
   0  -5 -25   18.84    1.28 
  -5   0  25   21.90    2.34 
   4  -6  25   19.06    1.64 
  -6   2  25   17.32    1.64 
   4  -6  25   19.66    1.88 
  -6   4 -25   18.87    1.78 
  -6   2  25   17.07    1.46 
   4   2 -25   16.69    2.32 
  -6   2  25   20.36    2.50 
   2  -6 -25   16.92    1.27 
   4  -6  25   13.47    1.45 
  -4  -2  25   17.60    1.64 
   6  -4  25   17.16    2.50 
  -2  -4 -25   17.66    1.19 
   6  -2 -25   16.65    1.69 
   6  -2 -25   20.95    2.70 
  -2  -4 -25   17.43    1.22 
  -4  -2  25   18.70    1.89 
  -4  -2  25   18.27    1.72 
   6  -4  25   18.61    1.95 
   6  -4  25   18.70    2.19 
   6  -2 -25   15.45    1.47 
   6  -1  25   15.55    2.06 
  -5  -1 -25   17.09    1.81 
   6  -1  25   15.35    3.05 
  -1  -5  25   14.93    1.36 
   6  -5 -25   18.84    2.36 
   5   1  25   16.78    2.40 
  -6   1 -25   15.72    2.45 
  -6   5  25   13.48    2.19 
   5  -6 -25   13.41    2.05 
   7  -3  25   13.83    3.66 
  -4  -3 -25   14.84    1.52 
   7  -3  25   12.24    1.66 
  -3  -4  25   12.64    1.85 
  -7   4  25   13.85    2.04 
   4  -7 -25   12.60    1.97 
   3  -7  25   14.36    1.88 
  -7   3 -25   11.14    1.62 
   1  -1  26  122.81    6.63 
   0  -1 -26  128.50    6.78 
   0  -1 -26  133.20    6.56 
  -1   0  26  128.88    6.98 
   1  -1  26  121.51    6.89 
  -1   0  26  119.40    6.97 
   1  -1  26  136.78    6.80 
   0   1  26  138.79    6.83 
   1  -1  26  135.22    6.69 
  -1   1 -26  119.97    6.79 
   1  -1  26  146.24    7.25 
  -1   1 -26  128.50    6.59 
   0  -1 -26  130.76    6.82 
   1   0 -26  112.92    6.86 
   0   1  26  122.88    6.86 
   1   0 -26  117.62    6.87 
   0   1  26  127.02    6.58 
  -1   0  26  108.60    6.63 
  -1   1 -26  130.35    6.87 
  -1   0  26  128.28    6.58 
   1  -1  26  118.96    7.93 
  -1   0  26  116.33    6.64 
   1  -1  26  132.55    6.94 
  -1   1 -26  126.09    6.81 
   0  -1 -26  135.12    6.75 
   0  -1 -26  129.69    7.01 
   1   0 -26  132.64    6.90 
   1   0 -26  124.21    6.60 
   2  -2 -26  116.95    6.09 
   0  -2  26  135.34    6.55 
   0  -2  26  130.47    6.53 
   2   0  26   99.97    6.21 
   2  -2 -26  117.06    6.53 
   2  -2 -26  110.82    6.51 
   2   0  26  122.78    6.44 
  -2   0 -26  129.18    6.46 
  -2   0 -26  108.93    6.15 
  -2   0 -26  121.91    6.52 
   2  -2 -26  118.98    6.43 
  -2   0 -26   99.46    6.40 
   0   2 -26  116.09    6.12 
  -2   2  26  113.61    6.62 
  -2   0 -26  118.90    6.53 
   0  -2  26  121.83    6.27 
   0  -2  26  115.17    6.36 
   2  -2 -26  122.35    6.44 
   2   0  26  110.32    6.52 
  -2   2  26  123.06    6.16 
  -3   1  26  102.62    5.56 
  -3   2 -26   92.77    5.36 
   2  -3  26   98.15    5.07 
  -3   1  26   97.51    5.60 
   2  -3  26   87.65    5.34 
   2  -3  26   92.17    5.39 
   2   1 -26   94.22    4.99 
  -3   1  26   98.87    5.61 
   1  -3 -26   92.78    4.98 
  -3   1  26   96.42    5.15 
   1  -3 -26   86.91    5.21 
  -3   1  26   93.36    5.04 
  -3   2 -26   85.62    5.04 
   2  -3  26   94.85    5.33 
   1  -3 -26   87.92    5.22 
  -3   1  26   94.28    4.99 
  -3   1  26   90.45    5.43 
  -3   2 -26   98.89    5.39 
   1   2  26   90.42    5.02 
  -2  -1  26   94.51    5.28 
   3  -1 -26   95.04    4.99 
   3  -2  26   99.42    5.10 
  -1  -2 -26   93.26    4.95 
  -1  -2 -26   93.87    5.19 
   3  -2  26   97.69    5.43 
  -2  -1  26   95.04    5.43 
  -1   3  26   89.84    4.95 
   3  -1 -26   96.79    5.53 
  -2   3 -26   89.70    5.00 
  -2  -1  26   99.98    5.07 
   3  -2  26   99.53    5.26 
  -1  -2 -26   84.74    5.14 
   3  -2  26   96.03    5.28 
   3  -1 -26   98.13    5.49 
   3  -1 -26   97.38    5.44 
   3  -2  26  100.59    5.43 
   3  -2  26   85.96    5.27 
  -2  -1  26   98.63    5.54 
  -3   4  26   73.50    3.83 
   4  -1  26   64.35    4.42 
  -3  -1 -26   65.24    3.81 
  -3  -1 -26   67.46    4.17 
   4  -1  26   78.66    4.12 
   4  -1  26   69.63    4.32 
  -3  -1 -26   73.59    4.21 
   4  -1  26   72.13    4.03 
  -1  -3  26   68.13    4.12 
   4  -3 -26   72.30    4.46 
  -1  -3  26   75.57    4.28 
   4  -3 -26   74.55    4.42 
  -1  -3  26   70.77    3.91 
   3   1  26   70.25    3.99 
  -4   1 -26   68.04    4.24 
  -4   1 -26   65.56    4.23 
   1   3 -26   63.71    3.84 
  -4   3  26   71.27    3.84 
   1  -4  26   72.58    4.22 
   1  -4  26   67.49    4.11 
  -4   1 -26   71.35    4.33 
   1  -4  26   70.67    3.86 
   3  -4 -26   68.71    3.88 
   3  -4 -26   71.00    4.32 
   3  -4 -26   71.07    4.22 
  -4   1 -26   69.60    3.90 
   4  -4  26   63.45    3.82 
   4  -4  26   57.68    3.83 
  -4   4 -26   61.69    3.53 
  -4   0  26   63.48    4.14 
   4   0 -26   58.98    3.44 
  -4   0  26   62.64    4.06 
  -4   0  26   62.89    3.61 
   4  -4  26   63.26    3.55 
   4  -4  26   58.71    3.88 
   3  -5  26   55.98    3.44 
  -5   2  26   52.34    2.96 
  -5   3 -26   50.79    3.07 
  -5   2  26   58.09    3.80 
   3  -5  26   42.22    3.13 
  -5   2  26   46.39    3.99 
   3  -5  26   49.79    2.99 
   3   2 -26   53.06    2.98 
   2  -5 -26   49.42    2.87 
   5  -3  26   49.47    3.85 
   5  -3  26   50.06    3.67 
   5  -2 -26   56.76    3.89 
   5  -2 -26   52.75    2.97 
   5  -3  26   53.00    3.09 
   5  -3  26   53.01    3.41 
   5  -2 -26   48.36    3.33 
  -3  -2  26   49.50    3.34 
  -3  -2  26   53.93    3.05 
   5  -3  26   54.53    3.50 
   5  -3  26   50.37    3.50 
  -2  -3 -26   51.36    3.04 
  -2  -3 -26   52.92    2.87 
  -3  -2  26   56.88    3.55 
  -3   5 -26   44.67    3.16 
  -5   0 -26   39.95    2.89 
   5  -5 -26   41.23    2.99 
  -5   0 -26   42.49    3.33 
   0  -5  26   37.70    2.51 
  -5   5  26   40.07    2.96 
  -5   0 -26   42.74    3.00 
   5  -5 -26   44.08    3.23 
   5  -5 -26   33.58    2.66 
   5   0  26   44.09    2.98 
   6  -2  26   34.81    3.41 
   6  -4 -26   36.38    3.23 
  -2  -4  26   36.51    2.42 
  -4  -2 -26   34.33    2.72 
  -4  -2 -26   31.64    2.70 
   6  -2  26   36.50    2.53 
   6  -2  26   32.95    2.68 
  -4  -2 -26   39.44    2.30 
   6  -4 -26   40.57    3.68 
   2  -6  26   34.79    2.26 
  -6   2 -26   33.50    2.35 
   4   2  26   39.36    3.02 
  -6   2 -26   33.81    2.99 
   2  -6  26   38.44    3.09 
   4  -6 -26   36.18    2.61 
  -6   4  26   34.29    2.51 
  -6   5 -26   33.57    2.93 
   5  -6  26   34.86    2.72 
   5   1 -26   32.60    2.97 
   1  -6 -26   33.17    2.12 
  -6   1  26   30.85    4.85 
   5  -6  26   34.24    2.64 
  -6   1  26   36.20    3.66 
   6  -1 -26   32.95    2.51 
   6  -5  26   31.53    3.51 
  -1  -5 -26   33.40    2.01 
  -1  -5 -26   31.87    1.98 
  -5   6 -26   30.83    2.84 
  -7   4 -26   20.47    2.59 
  -7   4 -26   24.69    2.42 
   4  -7  26   23.85    2.34 
   3  -7 -26   21.66    1.99 
  -7   3  26   25.84    2.24 
  -3  -4 -26   25.76    1.68 
  -4  -3  26   24.90    2.27 
   7  -4  26   24.41    3.85 
  -3  -4 -26   25.15    1.86 
   0   0  27    4.49    0.67 
   0   0 -27    3.77    0.41 
   0   0 -27    5.18    0.69 
   0   0  27    4.76    0.68 
   0   0  27    4.23    0.47 
   0   0 -27    4.84    0.61 
   0   0 -27    4.25    0.44 
   0   0  27    4.07    0.44 
   0   0 -27    4.34    0.67 
   0   0  27    4.09    0.72 
   0   0 -27    4.25    0.66 
  -2   1  27    6.99    0.68 
  -2   1  27    7.09    0.97 
  -2   1  27    6.85    1.03 
  -1  -1  27    7.49    0.61 
  -1  -1 -27    6.74    0.92 
   1   1 -27    6.64    0.65 
   1   1  27    7.97    0.68 
   2  -1 -27    8.47    1.06 
   2  -1 -27    7.99    0.95 
   1  -2 -27    5.64    0.81 
  -2   1 -27    6.26    0.61 
   1  -2  27    7.03    0.99 
   2  -1  27    6.29    0.67 
   1  -2 -27    7.91    0.87 
   2  -1 -27    6.20    0.99 
  -1   2  27    7.28    0.63 
   1  -2 -27    8.96    0.65 
   1   1 -27    6.22    0.96 
  -1  -1  27    9.33    1.11 
   1  -2  27    8.02    0.75 
  -1  -1 -27    7.19    0.80 
   1  -2  27    7.10    0.67 
  -2   1  27    6.62    0.80 
   2  -1  27    8.42    0.95 
  -1  -1 -27    5.81    0.58 
  -2   1 -27    5.60    0.90 
  -1  -1  27    6.17    0.74 
  -1  -1 -27    7.48    0.65 
  -1  -1 -27    9.01    0.88 
  -1   2 -27    7.55    0.60 
   1  -2 -27    8.39    0.91 
  -1  -1  27    7.23    1.01 
   1  -2  27    8.83    0.90 
   1   1 -27    8.53    0.97 
   1  -2  27    8.64    0.94 
   2  -1  27    7.91    0.92 
   2  -1 -27    8.24    1.13 
  -1  -1  27    7.09    0.92 
  -1  -1  27    7.79    0.65 
   2  -1  27    7.34    0.99 
  -1  -1 -27    7.20    0.92 
   2  -1 -27    6.77    0.64 
  -2   1 -27    6.44    0.92 
  -1  -1 -27    7.99    0.77 
   1  -2  27    8.06    0.61 
   2  -1  27    8.37    0.77 
  -2   1 -27    6.63    0.91 
  -2   1 -27    6.97    0.99 
   1  -2  27    8.25    0.96 
   3   0 -27    9.68    1.28 
   0  -3 -27    7.67    0.81 
  -3   0  27    7.69    1.19 
  -3   0  27    8.88    1.15 
   3  -3 -27    8.37    1.05 
   0  -3  27    7.00    0.75 
   3   0  27    7.27    0.83 
   0  -3  27    5.80    0.87 
  -3   0 -27    6.54    1.01 
   3  -3 -27    8.07    1.15 
   0   3 -27    7.31    0.66 
   3  -3 -27    8.28    0.79 
   3  -3  27    8.13    0.78 
   3  -3  27    7.09    1.03 
  -3   0 -27    7.78    0.96 
  -3   0 -27    7.73    0.69 
  -3   0  27    8.04    0.78 
  -3   0  27    9.37    1.51 
  -3   0 -27    6.76    1.21 
  -3   0  27    6.05    0.73 
   0  -3 -27    7.23    0.61 
  -3   0  27    8.59    1.12 
   0  -3  27    7.61    0.93 
   0   3  27    7.87    0.70 
   3  -3  27    7.56    0.97 
   3  -3  27    6.18    0.86 
  -3   0 -27    7.79    1.00 
  -3   0  27    8.58    1.08 
   0  -3 -27    8.32    0.84 
  -3   3 -27    5.66    0.71 
   0  -3  27    8.00    1.12 
  -3   0 -27    6.79    1.09 
  -3   3  27    7.46    0.72 
  -3   0  27    7.01    0.84 
   3   0 -27    6.76    0.71 
  -4   2  27    7.55    1.32 
  -2  -2  27    6.96    0.99 
   2  -4 -27    6.30    0.62 
   2  -4 -27    8.10    1.01 
   2  -4 -27    6.19    0.86 
   4  -2  27    6.55    1.08 
   4  -2 -27    6.81    1.12 
  -2  -2  27    6.52    0.74 
   2  -4  27    7.67    1.02 
  -4   2  27    5.76    1.30 
   2  -4  27    7.05    0.99 
   2   2 -27    7.18    0.77 
  -4   2 -27    7.44    1.04 
  -2   4 -27    5.98    0.71 
   4  -2  27    7.48    0.99 
  -2   4  27    6.27    0.84 
   2  -4  27    6.02    0.85 
  -4   2 -27    6.45    0.78 
   4  -2  27    7.06    0.96 
  -2  -2  27    7.96    1.21 
   2  -4  27    6.23    0.68 
   4  -2  27    7.62    0.95 
   4  -2 -27    8.05    1.33 
   4  -2 -27    6.35    0.97 
   4  -2  27    6.53    0.84 
  -2  -2 -27    8.58    0.98 
  -2  -2  27    7.27    1.00 
  -4   2  27    5.97    0.73 
  -2  -2 -27    6.98    0.60 
   4  -2 -27    6.41    0.75 
  -1  -4  27    6.64    0.90 
  -5   1  27   10.06    1.69 
  -5   1  27    8.58    1.05 
   5  -4 -27    8.63    1.42 
  -5   1  27    6.88    1.37 
  -5   1  27    8.57    1.60 
  -5   1  27    7.33    1.04 
   5  -1  27    8.10    1.18 
   4  -5  27    5.96    1.21 
   4  -5  27    7.46    1.19 
  -1  -4  27    7.01    0.88 
  -4  -1 -27    9.68    1.24 
  -5   4 -27    5.85    1.06 
  -4  -1 -27   10.00    1.25 
  -4   5  27    8.05    1.13 
   4  -5  27    6.34    0.92 
   4   1 -27    6.96    1.21 
   5  -4 -27    9.89    1.75 
   5  -4  27    8.03    1.21 
   5  -4  27    6.17    1.72 
  -5   1 -27    7.65    1.18 
  -4  -1  27    8.83    1.41 
  -4   5 -27    6.13    1.09 
   1  -5  27    7.66    1.25 
   4   1  27   10.88    1.42 
  -5   1 -27    7.36    0.95 
  -5   4  27    7.04    1.00 
   1  -5  27    6.50    0.82 
  -4  -1  27   10.37    1.78 
   4  -5 -27    6.64    1.11 
   4  -5 -27    5.86    1.02 
   5  -4  27    6.05    1.18 
   4  -5 -27    9.45    1.50 
   5  -1 -27    6.85    0.98 
  -4  -1  27    7.14    1.30 
  -5   1 -27    6.21    1.23 
   5  -4  27    7.23    1.30 
   3  -6 -27    5.03    0.86 
  -3  -3  27    5.73    1.21 
   3  -6  27    5.70    1.11 
  -6   3 -27    4.90    1.47 
  -3  -3 -27    6.62    0.88 
  -3  -3 -27    6.95    0.96 
   3  -6  27    6.36    1.31 
   6  -3 -27    8.03    2.07 
   6  -3  27    6.03    1.07 
  -6   3  27    6.42    1.01 
   6  -3 -27    7.35    1.08 
   6  -3  27    6.05    1.66 
   6  -3  27    6.84    1.59 
  -3  -3  27    5.80    1.00 
  -6   3 -27    5.77    1.08 
   6   0 -27    6.85    1.93 
  -6   6 -27    5.32    1.84 
  -6   6  27    7.21    1.99 
   0  -6 -27    5.07    0.99 
   6   0  27    5.01    1.90 
   0  -6  27    5.33    1.45 
  -2  -5  27    6.13    1.60 
  -7   5 -27    7.35    1.91 
   5  -7  27    5.27    1.82 
   7  -2  27    6.26    1.61 
   5   2 -27    5.96    2.23 
   7  -2  27    7.06    2.61 
   2  -7  27    4.54    1.65 
   5   2  27    4.51    2.05 
   7  -2 -27    8.35    1.76 
   5  -7 -27    5.23    1.85 
  -2  -5 -27    4.06    1.04 
  -7   5  27    7.26    1.77 
   1   0  28  111.16    6.19 
   1   0  28  115.07    5.93 
   1   0  28  115.49    5.99 
   1  -1 -28  116.95    6.22 
  -1   0 -28  105.60    6.10 
   1   0  28  115.03    6.11 
  -1   1  28  108.76    5.86 
   0  -1  28  116.25    6.18 
   0   1 -28  111.13    6.11 
  -1   0 -28  113.31    6.24 
   0  -1  28  108.39    6.20 
   0  -1  28  113.81    6.38 
  -1   1  28  109.13    6.26 
   1  -1 -28  115.96    6.24 
   0   1 -28  110.74    5.84 
  -1   0 -28  120.60    5.89 
   0  -1  28  121.11    6.26 
   0  -1  28  111.74    5.90 
   1  -1 -28  111.91    6.20 
  -1   0 -28  116.76    6.11 
   1  -1 -28  113.06    6.15 
   0  -1  28  116.94    5.88 
  -1   0 -28  102.46    6.08 
  -1   0 -28  108.32    6.08 
   1  -1 -28  105.58    6.21 
   1  -1 -28  110.29    5.82 
   1   0  28  102.21    6.14 
   0   1 -28  113.22    6.13 
   0  -2 -28  104.04    5.13 
   0   2  28  101.41    5.08 
  -2   2 -28  101.71    5.13 
   2   0 -28   98.53    5.57 
  -2   0  28  100.10    5.20 
   2  -2  28   89.45    5.52 
   2   0 -28   87.29    5.46 
  -2   0  28  102.11    5.17 
  -2   2 -28   90.29    5.34 
   2   0 -28  101.22    5.12 
  -2   0  28   93.60    5.48 
  -2   0  28   98.35    5.09 
   2  -2  28   94.22    5.70 
  -2   0  28   84.82    5.58 
   0  -2 -28  104.42    5.34 
   2  -2  28   92.01    5.52 
  -2   0  28   89.51    5.54 
   2  -2  28   96.62    5.30 
   2  -2  28   94.33    5.13 
   0  -2 -28  101.65    5.33 
  -2   2 -28   90.72    5.52 
  -1  -2  28   68.19    4.55 
   3  -2 -28   79.67    4.57 
  -2  -1 -28   78.08    4.19 
   3  -1  28   81.41    4.66 
   3  -1  28   77.92    4.31 
   3  -1  28   82.13    4.53 
  -2  -1 -28   70.46    4.54 
  -2  -1 -28   66.23    4.53 
  -1   3 -28   80.45    4.14 
   3  -2 -28   75.22    4.18 
  -2   3  28   72.99    4.18 
   3  -2 -28   82.70    4.69 
   3  -2 -28   84.80    4.73 
  -1  -2  28   80.52    4.25 
   3  -2 -28   81.53    4.76 
  -1  -2  28   75.85    4.41 
   1  -3  28   80.11    4.50 
  -3   1 -28   79.32    4.59 
  -3   1 -28   80.67    4.61 
   2  -3 -28   84.79    4.20 
   1  -3  28   87.19    4.55 
  -3   2  28   81.08    4.18 
  -3   2  28   82.25    4.82 
  -3   1 -28   80.28    4.61 
  -3   1 -28   78.01    4.70 
   2   1  28   66.25    4.23 
   2  -3 -28   67.88    4.50 
   1  -3  28   74.53    4.47 
   1   2 -28   73.21    4.18 
   2  -3 -28   65.79    4.45 
   1  -3  28   80.57    4.26 
  -4   1  28   62.92    3.46 
   3   1 -28   59.64    3.31 
   3  -4  28   55.69    3.35 
   3  -4  28   54.74    3.74 
   1  -4 -28   48.89    3.42 
  -4   1  28   61.74    3.98 
  -4   1  28   61.16    3.33 
  -4   1  28   64.20    4.10 
   3  -4  28   60.97    3.71 
  -4   1  28   54.53    3.74 
   1  -4 -28   55.36    3.25 
   3  -4  28   50.00    3.63 
  -4   3 -28   54.49    3.38 
  -1  -3 -28   58.38    3.22 
  -1  -3 -28   60.83    3.43 
  -3  -1  28   64.04    3.98 
  -3  -1  28   59.56    3.86 
   4  -3  28   60.60    3.64 
   4  -3  28   59.84    3.77 
  -3  -1  28   59.09    3.48 
   4  -3  28   62.52    4.11 
   4  -1 -28   66.98    4.08 
   4  -3  28   57.67    3.78 
   4  -1 -28   60.89    3.31 
   4  -3  28   61.60    3.39 
   4  -4 -28   51.25    3.45 
   4  -4 -28   59.87    3.69 
  -4   0 -28   53.38    3.56 
  -4   0 -28   50.84    3.35 
   0  -4  28   55.21    3.32 
   4  -4 -28   48.51    3.07 
   0  -4  28   48.78    3.04 
   0  -4  28   44.87    3.11 
  -4   4  28   51.41    2.97 
   4   0  28   54.42    3.20 
  -4   0 -28   51.68    3.39 
   5  -2  28   44.07    2.82 
  -3  -2 -28   40.90    2.95 
  -3  -2 -28   42.92    2.58 
   5  -3 -28   48.50    2.93 
  -3  -2 -28   40.71    2.93 
   5  -3 -28   49.27    3.20 
   5  -3 -28   47.18    3.36 
   5  -2  28   49.10    3.07 
   5  -3 -28   52.43    3.73 
  -2  -3  28   43.28    2.67 
   5  -2  28   43.80    3.06 
  -2  -3  28   46.69    3.15 
  -2  -3  28   44.27    2.93 
   5  -2  28   45.31    3.25 
   2  -5  28   43.83    2.66 
  -5   2 -28   43.00    2.74 
   2  -5  28   50.24    3.19 
  -5   2 -28   43.99    3.18 
  -5   2 -28   41.96    3.16 
   2  -5  28   39.07    2.78 
   3  -5 -28   43.31    2.64 
   3   2  28   39.51    2.78 
   3  -5 -28   47.97    2.91 
   2   3 -28   42.67    2.72 
  -5   3  28   42.35    2.62 
   5  -5  28   31.85    2.75 
   5   0 -28   33.77    2.49 
  -5   0  28   35.78    2.93 
  -5   5 -28   34.60    2.89 
   5  -5  28   31.25    2.69 
  -5   0  28   39.02    3.03 
   0  -5 -28   29.94    2.03 
   0  -5 -28   32.70    2.04 
   5  -5  28   37.48    2.67 
  -5   0  28   39.99    3.28 
   2  -6 -28   30.32    1.94 
   4  -6  28   31.31    2.55 
   4   2 -28   31.75    2.86 
   2  -6 -28   28.44    1.90 
  -6   4 -28   28.68    2.48 
  -6   2  28   31.84    3.38 
  -6   2  28   29.47    2.12 
   4  -6  28   31.13    2.39 
  -2  -4 -28   30.12    1.98 
   6  -4  28   34.33    4.58 
  -4  -2  28   30.72    2.59 
   6  -2 -28   29.62    2.13 
  -2  -4 -28   28.81    1.81 
   6  -4  28   30.88    3.06 
   6  -4  28   28.77    2.97 
   6  -1  28   29.62    5.35 
  -1  -5  28   26.57    2.17 
   6  -1  28   30.19    2.75 
   5   1  28   28.00    2.91 
   5  -6 -28   23.98    2.66 
  -6   1 -28   28.90    5.16 
   1  -6  28   25.46    2.20 
  -6   5  28   27.31    2.67 
  -3  -4  28   22.07    2.22 
  -4  -3 -28   21.32    1.94 
   7  -3  28   18.24    3.86 
  -7   4  28   22.49    2.36 
  -7   4  28   17.40    2.82 
  -7   3 -28   15.10    1.88 
   3  -7  28   22.11    2.30 
   4  -7 -28   18.09    2.28 
  -1   0  29   45.99    2.63 
  -1   1 -29   48.58    2.93 
  -1   0  29   48.08    2.72 
   1  -1  29   48.16    2.75 
   1   0 -29   51.37    3.01 
   0  -1 -29   50.34    3.10 
   1  -1  29   46.16    2.97 
   1  -1  29   49.64    3.00 
   1  -1  29   47.98    2.86 
   0   1  29   45.99    2.95 
   0  -1 -29   47.81    2.85 
  -1   0  29   50.29    3.09 
  -1   1 -29   48.92    2.65 
  -1   0  29   46.01    2.73 
  -1   1 -29   48.94    2.91 
  -1   0  29   49.41    3.14 
   1   0 -29   50.72    3.03 
   1  -1  29   54.26    3.06 
   0   1  29   46.77    2.88 
   0  -1 -29   47.10    2.82 
   0  -1 -29   47.67    2.89 
  -1   1 -29   44.73    2.87 
   1  -1  29   48.75    2.71 
   0  -1 -29   43.92    2.87 
   1   0 -29   44.06    2.63 
   0  -1 -29   50.61    2.62 
  -1   1 -29   49.29    2.90 
   1   0 -29   49.30    3.04 
   0   1  29   45.45    2.64 
   2  -2 -29   27.80    2.10 
  -2   0 -29   31.79    2.11 
   2   0  29   31.33    2.18 
   2   0  29   29.80    1.92 
  -2   0 -29   30.94    2.25 
  -2   2  29   28.84    1.86 
   2  -2 -29   28.87    2.23 
  -2   0 -29   25.47    1.79 
  -2   0 -29   29.97    2.45 
   2  -2 -29   31.87    1.76 
  -2   0 -29   29.04    2.23 
   0  -2  29   31.33    2.06 
   2  -2 -29   28.12    2.18 
   0   2 -29   29.84    1.78 
   0  -2  29   35.54    2.24 
   2   0  29   30.70    2.25 
  -2   0 -29   35.43    2.12 
   2  -2 -29   33.23    2.14 
   0  -2  29   32.53    1.95 
   0  -2  29   34.75    2.22 
   1  -3 -29   31.71    2.14 
   1  -3 -29   33.49    2.19 
  -3   1  29   33.56    2.50 
   2  -3  29   31.77    2.24 
   2  -3  29   34.56    2.29 
   2   1 -29   29.64    1.90 
   1   2  29   32.65    1.94 
  -3   1  29   33.04    2.45 
  -3   2 -29   26.27    2.29 
  -3   1  29   31.98    2.00 
  -3   2 -29   35.58    2.38 
   2  -3  29   32.54    1.99 
   2  -3  29   31.09    2.23 
  -3   1  29   33.34    2.55 
  -3   1  29   29.80    1.93 
   1  -3 -29   32.19    1.88 
  -3   1  29   29.67    2.04 
  -2  -1  29   29.88    2.43 
   3  -2  29   33.63    2.40 
  -2  -1  29   32.30    1.96 
   3  -2  29   32.36    2.14 
   3  -2  29   32.05    2.00 
  -1   3  29   29.99    1.85 
   3  -1 -29   34.65    2.52 
  -1  -2 -29   32.41    1.89 
   3  -2  29   34.47    2.37 
   3  -1 -29   30.85    1.90 
   3  -1 -29   31.86    2.37 
  -2  -1  29   28.24    2.15 
  -2   3 -29   33.77    1.93 
  -1  -2 -29   34.89    2.13 
   3  -2  29   31.98    2.11 
  -1  -2 -29   29.35    2.04 
  -2  -1  29   29.88    2.31 
   3  -1 -29   33.36    2.41 
   3  -2  29   27.94    2.19 
   4  -3 -29   26.03    2.25 
  -1   4 -29   24.55    1.54 
  -3   4  29   24.79    1.64 
  -3  -1 -29   25.23    1.58 
  -3  -1 -29   24.79    2.01 
  -3  -1 -29   27.15    2.05 
   4  -1  29   22.69    1.76 
   4  -1  29   24.40    2.07 
   4  -3 -29   26.17    2.15 
  -1  -3  29   23.62    1.62 
  -1  -3  29   22.03    1.84 
  -1  -3  29   25.18    2.07 
   1   3 -29   21.86    1.59 
  -4   1 -29   25.02    2.03 
  -4   3  29   22.23    1.58 
   3  -4 -29   22.95    1.58 
   1  -4  29   25.35    1.96 
  -4   1 -29   24.33    2.20 
   1  -4  29   20.70    1.81 
   1  -4  29   25.52    1.98 
   3  -4 -29   24.93    1.94 
   1  -4  29   23.39    1.61 
  -4   1 -29   20.15    1.60 
   3  -4 -29   24.34    2.08 
  -4   1 -29   24.62    1.96 
   3   1  29   22.57    1.73 
  -4   0  29   22.95    2.09 
   4  -4  29   19.35    1.89 
   4   0 -29   19.96    1.54 
   4  -4  29   19.77    1.93 
   4  -4  29   22.41    1.88 
   0  -4 -29   23.01    1.42 
  -4   0  29   23.34    2.31 
   3  -5  29   21.69    1.88 
   2  -5 -29   18.52    1.31 
   3  -5  29   15.47    1.49 
  -5   2  29   20.12    2.21 
   3  -5  29   20.53    1.82 
   3  -5  29   19.27    1.48 
   3   2 -29   18.03    1.65 
  -5   3 -29   16.92    1.53 
  -5   2  29   15.16    1.97 
  -5   2  29   17.90    1.46 
   5  -3  29   16.81    1.72 
   5  -2 -29   18.02    1.67 
   5  -3  29   19.26    1.59 
   5  -3  29   19.46    1.78 
   5  -2 -29   23.58    2.55 
   5  -2 -29   19.10    1.47 
   5  -3  29   19.21    1.99 
  -3  -2  29   19.98    1.84 
  -3  -2  29   21.50    2.03 
  -2  -3 -29   21.07    1.33 
   5  -3  29   19.60    1.89 
  -3  -2  29   17.79    1.43 
   5  -5 -29   17.21    1.94 
  -5   0 -29   19.56    2.04 
   5   0  29   17.34    2.33 
   5  -5 -29   18.80    2.25 
  -5   0 -29   18.03    1.97 
  -5   5  29   16.38    2.39 
   0  -5  29   14.39    1.46 
  -4  -2 -29   15.18    1.57 
  -2  -4  29   15.55    1.79 
  -4  -2 -29   15.21    1.85 
   6  -2  29   14.77    1.76 
   6  -4 -29   18.53    3.25 
   6  -2  29   14.23    1.60 
   2  -6  29   15.46    1.69 
  -6   2 -29   15.76    2.53 
   4  -6 -29   15.03    1.94 
  -6   2 -29   12.26    1.43 
   4   2  29   12.13    2.04 
   2  -6  29   15.96    2.27 
  -6   4  29   14.77    1.95 
   1  -6 -29   15.11    1.44 
   5   1 -29   16.80    2.52 
   1  -6 -29   12.76    1.18 
   5  -6  29   14.25    2.22 
  -6   5 -29   14.46    2.17 
   6  -1 -29   13.75    2.06 
  -5   6 -29   13.78    2.44 
  -1  -5 -29   12.46    1.39 
  -1  -5 -29   11.21    1.22 
  -7   4 -29    7.35    1.72 
   4  -7  29   11.73    2.20 
  -7   3  29   15.05    1.98 
   3  -7 -29    9.75    1.60 
  -3  -4 -29   10.55    1.61 
   7  -4  29    9.85    4.16 
   0   0  30   34.64    2.12 
   0   0 -30   36.01    2.00 
   0   0  30   33.63    2.03 
   0   0  30   36.49    2.29 
   0   0  30   34.94    2.39 
   0   0 -30   36.58    2.30 
   0   0 -30   37.45    2.25 
   0   0 -30   36.02    2.29 
   0   0  30   37.50    2.41 
   0   0 -30   34.56    2.00 
   0   0  30   36.18    2.10 
   0   0 -30   36.65    2.30 
   1  -2  30   18.03    1.34 
   1  -2  30   21.21    1.64 
  -1  -1  30   21.56    1.78 
   1  -2  30   20.04    1.46 
  -1  -1 -30   25.14    1.53 
  -2   1 -30   21.34    1.35 
   1  -2 -30   22.82    1.67 
   1  -2 -30   23.19    1.64 
   1  -2 -30   21.78    1.59 
   1  -2  30   21.98    1.63 
  -1  -1 -30   21.72    1.30 
   1  -2  30   19.42    2.00 
   1  -2  30   18.93    1.77 
   2  -1  30   19.08    1.71 
  -1  -1 -30   23.13    1.78 
   2  -1  30   17.34    1.37 
   2  -1 -30   18.27    1.69 
  -2   1  30   18.41    1.35 
   2  -1 -30   21.63    1.75 
   2  -1 -30   19.45    1.71 
  -1  -1  30   21.70    1.73 
  -1  -1  30   20.21    1.34 
   1  -2  30   21.82    1.43 
   2  -1 -30   18.34    1.77 
  -2   1 -30   20.78    1.70 
  -1  -1 -30   22.17    1.36 
  -1  -1 -30   22.85    1.57 
   2  -1  30   19.43    1.77 
  -1  -1  30   20.68    1.30 
   2  -1  30   19.72    1.54 
   1  -2 -30   22.87    1.35 
  -2   1 -30   16.53    1.59 
  -1  -1  30   20.76    1.47 
  -1   2 -30   20.43    1.29 
   1  -2  30   22.93    1.31 
  -2   1 -30   22.36    1.72 
   1   1 -30   21.53    1.84 
  -2   1 -30   20.76    1.75 
  -1  -1  30   22.29    1.44 
   2  -1 -30   20.12    1.33 
   2  -1  30   20.08    1.60 
  -1   2  30   19.58    1.30 
   1   1 -30   21.06    1.35 
  -1  -1 -30   23.76    1.60 
   3  -3 -30   14.57    1.67 
   0  -3  30   16.38    1.32 
   3   0 -30   19.99    2.30 
  -3   0  30   18.22    1.87 
  -3   0  30   16.98    1.75 
   3  -3 -30   14.92    1.56 
   3   0  30   21.48    1.47 
   0  -3  30   20.74    1.73 
   3  -3  30   13.23    1.54 
  -3   0 -30   20.76    1.83 
   0  -3  30   17.32    1.52 
  -3   3  30   15.84    1.28 
   0   3 -30   16.59    1.19 
  -3   0  30   18.85    1.75 
   3  -3  30   12.90    1.60 
   0  -3  30   19.02    1.52 
  -3   0  30   21.16    2.07 
   3  -3 -30   17.34    1.33 
  -3   0  30   16.90    1.23 
   3   0 -30   16.24    1.26 
  -3   0  30   18.84    1.32 
  -3   0 -30   19.39    1.24 
   4  -2  30   15.97    1.79 
   2  -4  30   14.23    1.36 
   4  -2  30   16.43    1.63 
   2  -4 -30   15.41    1.43 
  -2  -2  30   16.71    1.72 
   2  -4  30   16.47    1.57 
   2   2  30   17.23    1.34 
   4  -2 -30   17.79    1.96 
   2  -4  30   17.13    1.53 
  -2   4 -30   15.71    1.21 
  -4   2 -30   16.54    1.67 
   4  -2  30   15.11    1.46 
  -2   4  30   19.39    1.27 
   4  -2  30   18.14    1.59 
   4  -2 -30   17.59    1.78 
  -4   2  30   15.75    1.25 
  -4   2  30   15.72    1.90 
  -2  -2 -30   19.72    1.43 
  -2  -2  30   14.31    1.50 
   2   2 -30   15.69    1.28 
   4  -2  30   14.48    1.64 
   4  -2  30   15.88    1.37 
   2  -4 -30   17.56    1.58 
  -2  -2  30   14.63    1.19 
   2  -4 -30   15.56    1.14 
   4  -2 -30   16.31    1.28 
   4  -2 -30   15.22    1.42 
  -2  -2  30   14.00    1.54 
  -2  -2 -30   17.55    1.16 
  -2  -2 -30   19.50    1.46 
   2  -4  30   14.40    1.21 
   4  -5  30   10.37    1.25 
   4  -5  30   10.12    1.32 
  -5   1  30   10.12    1.34 
  -1  -4  30   10.25    1.17 
  -5   1  30   11.97    1.84 
  -5   1  30   12.75    2.06 
   4  -5  30   10.88    1.50 
  -5   1  30   14.39    2.43 
   4  -5  30   12.57    1.52 
   5  -4 -30   15.41    2.14 
   1  -5 -30   12.87    1.01 
   4   1 -30   11.06    1.81 
  -4   5  30   12.91    2.21 
  -4  -1 -30   10.42    1.55 
   5  -1  30   13.24    1.46 
   5  -4 -30   10.88    1.74 
  -4  -1 -30   10.90    1.60 
  -5   1  30   11.90    1.26 
  -1  -4  30    9.66    1.14 
  -5   4 -30    9.28    1.46 
   1  -5  30   12.55    1.68 
   5  -4  30   11.07    1.58 
   4  -5 -30    9.57    1.29 
  -4   5 -30    9.74    1.71 
  -5   1 -30   14.66    1.63 
  -4  -1  30   12.61    1.96 
   5  -1 -30    9.91    1.20 
   5  -4  30   12.03    1.50 
  -5   1 -30   13.71    1.82 
   5  -4  30   10.77    1.65 
  -4  -1  30   12.61    1.76 
   1  -5  30   10.31    1.19 
   4  -5 -30   11.18    1.42 
   4   1  30    9.04    1.73 
  -4  -1  30   12.16    1.61 
  -5   4  30    9.99    1.65 
  -1  -4 -30   10.20    0.95 
   4  -5 -30   13.76    1.80 
  -3  -3 -30    9.68    1.35 
   6  -3  30   11.85    2.19 
   6  -3  30   12.68    1.46 
   3   3 -30   12.33    2.33 
  -6   3 -30   12.14    1.68 
  -3  -3  30    9.15    1.57 
   3  -6  30   12.70    2.05 
   3  -6  30   10.88    1.74 
  -6   3  30    9.97    1.54 
   3  -6 -30   14.20    1.48 
   6  -3 -30   11.83    2.73 
  -6   3 -30   10.18    1.55 
   6   0 -30   10.41    2.21 
  -6   6  30    8.34    2.23 
   0  -6  30    7.72    1.57 
   6   0  30    4.70    1.97 
   0  -6 -30    6.91    1.47 
  -6   6 -30    6.43    1.92 
   0  -6 -30    6.10    1.36 
   0   1 -31  122.24    6.48 
   0  -1  31  112.53    6.18 
  -1   1  31  116.23    6.60 
   0  -1  31  122.86    6.18 
   1  -1 -31  113.42    6.83 
   0  -1  31  121.46    6.56 
   1   0  31  106.50    6.46 
   1  -1 -31  119.49    6.51 
   1  -1 -31  113.34    6.10 
   1   0  31  107.27    6.36 
  -1   0 -31  120.56    6.16 
  -1   1  31  112.82    6.14 
   0  -1  31  118.14    6.54 
   0  -1  31  119.99    6.20 
   0  -1  31  121.64    6.76 
  -1   0 -31  119.95    6.42 
   0  -1  31  125.14    6.50 
  -1   0 -31  111.15    6.40 
   1  -1 -31  118.21    6.46 
   1   0  31  129.28    6.24 
   1  -1 -31  121.96    6.54 
  -1   0 -31  114.33    6.38 
   0   1 -31  115.48    6.13 
   1  -1 -31  118.90    6.53 
  -1   0 -31  112.94    6.42 
  -1   0 -31  116.78    6.56 
   0   1 -31  115.27    6.44 
   0  -2 -31   85.73    4.66 
   2  -2  31   75.30    4.59 
   0  -2 -31   89.53    4.66 
   2  -2  31   81.73    4.85 
   0   2  31   90.03    4.41 
  -2   2 -31   83.79    4.71 
   0  -2 -31   90.85    4.44 
   2   0 -31   79.51    4.44 
  -2   0  31   84.71    4.39 
  -2   0  31   78.32    4.80 
   2   0 -31   72.02    4.85 
   2  -2  31   84.55    4.88 
   2  -2  31   86.45    4.39 
   2  -2  31   69.82    4.97 
  -2   2 -31   91.65    5.88 
  -2   0  31   67.36    4.90 
  -2   0  31   77.02    4.51 
   2   0 -31   84.76    4.89 
  -2   2 -31   91.65    4.45 
  -2   0  31   73.64    4.47 
  -1  -2  31   77.38    4.57 
   3  -1  31   62.06    4.12 
   3  -2 -31   76.49    4.04 
  -1  -2  31   73.14    4.09 
  -2  -1 -31   70.81    4.08 
  -2  -1 -31   76.70    4.44 
  -1  -2  31   64.72    4.42 
   3  -2 -31   70.58    4.63 
   3  -1  31   79.68    4.66 
   3  -1  31   74.43    4.47 
  -2  -1 -31   73.94    4.41 
  -1   3 -31   77.57    4.02 
   3  -2 -31   72.54    4.57 
   3  -2 -31   80.74    4.56 
  -2   3  31   76.84    4.09 
  -3   1 -31   69.25    4.73 
  -3   1 -31   80.68    4.56 
  -3   1 -31   70.74    4.57 
   1   2 -31   74.45    4.06 
   1  -3  31   73.33    4.39 
   1  -3  31   76.24    4.41 
   2  -3 -31   72.19    4.47 
   1  -3  31   74.57    4.19 
   2  -3 -31   79.65    4.08 
   1  -3  31   83.18    4.47 
  -3   1 -31   67.85    4.07 
  -3   2  31   79.15    4.11 
  -3   2  31   70.55    4.67 
  -3   1 -31   71.08    4.61 
   2   1  31   78.58    4.19 
   2  -3 -31   65.21    4.37 
  -4   1  31   50.82    3.18 
  -4   1  31   56.09    3.80 
   1   3  31   54.94    3.14 
   1  -4 -31   52.90    3.02 
  -4   1  31   63.17    4.03 
   3  -4  31   54.55    3.49 
   1  -4 -31   51.81    3.27 
   3  -4  31   45.19    3.38 
   3   1 -31   55.45    3.11 
   3  -4  31   54.80    3.54 
  -4   1  31   47.21    3.12 
  -4   1  31   49.84    3.46 
   3  -4  31   53.92    3.18 
  -3  -1  31   58.67    3.81 
   4  -3  31   56.28    3.90 
  -1  -3 -31   51.57    3.18 
   4  -3  31   47.06    3.52 
  -3  -1  31   51.76    3.66 
  -1  -3 -31   56.46    3.23 
   4  -3  31   56.02    3.66 
   4  -3  31   52.45    3.25 
   4  -1 -31   56.12    3.10 
   4  -3  31   55.53    3.68 
   4  -1 -31   61.47    3.94 
  -3   4 -31   50.73    3.11 
  -1  -3 -31   51.93    3.03 
   4  -4 -31   42.69    3.00 
   0  -4  31   45.13    2.83 
   4  -4 -31   50.09    3.46 
  -4   0 -31   46.54    3.29 
   4  -4 -31   45.88    3.25 
  -4   4  31   46.73    2.77 
  -4   0 -31   46.71    3.26 
   4   0  31   40.12    2.91 
   0  -4  31   49.60    3.15 
   5  -2  31   42.31    4.59 
  -2  -3  31   47.46    3.13 
   5  -2  31   37.43    2.65 
   5  -2  31   38.91    2.79 
   5  -3 -31   49.85    3.78 
   5  -3 -31   42.94    3.22 
   5  -2  31   42.22    3.20 
  -3  -2 -31   37.63    2.68 
  -2  -3  31   39.18    2.81 
  -3  -2 -31   39.31    2.46 
  -2  -3  31   40.03    2.52 
   2  -5  31   35.44    2.64 
   3   2  31   31.39    2.94 
   3  -5 -31   41.34    2.51 
   2   3 -31   40.19    2.98 
   2  -5  31   40.21    2.57 
   2  -5  31   44.16    3.07 
  -5   2 -31   42.29    3.15 
  -5   2 -31   39.82    2.83 
   3  -5 -31   42.60    2.75 
  -5   3  31   38.77    2.51 
   5  -5  31   31.94    2.57 
   5   0 -31   33.51    2.56 
  -5   5 -31   27.24    2.86 
   0  -5 -31   26.25    1.94 
  -5   0  31   35.74    3.56 
   5  -5  31   26.77    2.67 
   4  -6  31   28.41    3.06 
   4  -6  31   29.65    2.53 
  -6   4 -31   22.48    2.54 
   4   2 -31   31.67    3.01 
   2  -6 -31   25.08    1.91 
   2  -6 -31   24.76    1.89 
  -6   2  31   24.44    2.20 
  -2  -4 -31   24.97    1.68 
   6  -2 -31   28.38    2.22 
  -2  -4 -31   27.54    2.07 
  -1  -5  31   23.32    2.14 
   6  -1  31   22.80    2.76 
   5   1  31   19.52    2.92 
   5  -6 -31   23.57    2.65 
   1  -6  31   23.07    2.46 
  -6   5  31   25.21    2.73 
   1   0 -32    5.74    0.59 
   0  -1 -32    7.49    0.89 
   1  -1  32    6.28    0.89 
  -1   1 -32    7.18    0.92 
   1   0 -32    7.38    1.05 
   1  -1  32    6.74    0.88 
  -1   0  32    6.10    0.71 
  -1   1 -32    6.17    1.32 
   1  -1  32    6.68    0.95 
   1  -1  32    6.09    0.76 
  -1   0  32    7.17    1.12 
   1  -1  32    6.56    0.93 
  -1   0  32    6.94    1.00 
  -1   1 -32    6.74    0.92 
  -1   1 -32    5.55    0.58 
   0  -1 -32    6.98    0.88 
   0  -1 -32    7.43    0.84 
   0   1  32    7.05    0.64 
  -1   0  32    6.18    0.62 
   1   0 -32    7.62    1.03 
   0  -1 -32    7.40    1.02 
   0   1  32    7.28    1.00 
   1   0 -32    6.73    0.95 
   1  -1  32    6.73    0.69 
  -1   0  32    6.23    0.78 
   0  -1 -32    6.66    0.59 
   1  -1  32    6.36    0.65 
   0   1  32    6.23    0.90 
   2   0  32   10.16    0.94 
   0  -2  32    7.26    1.00 
   0   2 -32    7.40    0.73 
   2  -2 -32    7.98    1.22 
   0  -2  32    7.67    0.83 
   2   0  32   10.69    1.20 
   2  -2 -32    9.68    1.15 
  -2   0 -32    9.35    1.14 
   2   0  32    9.21    1.19 
   2  -2 -32    8.64    1.14 
   2  -2 -32    7.92    0.72 
  -2   0 -32    9.81    1.19 
  -2   2  32    9.43    0.90 
  -2   0 -32    9.66    1.11 
   0  -2  32    8.94    1.13 
   2  -2 -32    9.67    1.18 
  -2   0 -32   10.73    1.07 
  -2   0 -32    8.99    0.79 
  -2   0 -32   11.22    1.42 
   0  -2  32    8.88    1.11 
  -3   1  32    4.55    1.09 
  -3   2 -32    3.76    0.89 
  -3   2 -32    6.50    1.08 
  -3   1  32    7.31    1.48 
   2   1 -32    5.51    0.82 
   2  -3  32    6.41    1.00 
  -3   2 -32    5.78    0.79 
  -3   1  32    5.38    0.82 
   1  -3 -32    7.79    0.91 
   2  -3  32    5.72    0.99 
  -3   1  32    5.28    0.84 
  -3   1  32    6.67    1.35 
   2  -3  32    6.25    0.93 
   1  -3 -32    7.12    0.65 
   2  -3  32    6.38    0.81 
   1  -3 -32    8.46    1.03 
   3  -1 -32    5.96    0.81 
  -2   3 -32    6.32    0.75 
  -1  -2 -32    8.65    0.86 
   3  -2  32    6.09    0.83 
   3  -2  32    6.76    1.04 
   3  -2  32    4.46    1.16 
   3  -2  32    5.67    1.17 
   3  -2  32    5.02    0.79 
  -2  -1  32    5.04    1.23 
  -1  -2 -32    7.73    0.72 
   3  -1 -32    7.45    1.38 
  -2  -1  32    4.67    1.07 
   3  -1 -32    6.53    1.49 
  -1   3  32    6.53    0.70 
   4  -1  32    7.29    1.49 
  -3  -1 -32    7.42    1.17 
  -1  -3  32    4.94    0.98 
  -3  -1 -32    6.56    1.13 
   4  -3 -32    8.63    1.62 
  -1   4 -32    5.52    0.80 
   4  -1  32    6.35    1.05 
   4  -3 -32    8.28    1.46 
  -1  -3  32    5.56    0.79 
  -1  -3  32    4.95    1.17 
  -3   4  32    6.17    0.98 
   1   3 -32    5.14    0.87 
   3  -4 -32    7.36    1.37 
   1  -4  32    7.13    1.18 
  -4   3  32    5.81    0.97 
  -4   1 -32    6.15    1.60 
   1  -4  32    5.88    0.91 
   3   1  32    3.89    0.89 
  -4   1 -32    9.03    1.39 
   1  -4  32    7.56    1.27 
   3  -4 -32    6.43    0.79 
   1  -4  32    6.72    1.01 
  -4   1 -32    7.14    0.92 
   3  -4 -32    6.21    1.06 
   0  -4 -32    6.78    0.86 
   4  -4  32    4.99    1.18 
  -4   4 -32    4.88    1.00 
   0  -4 -32    5.88    0.78 
   4  -4  32    5.44    1.07 
  -4   0  32    5.97    1.36 
  -4   0  32    6.41    1.67 
   4   0 -32    5.46    0.91 
   4  -4  32    5.93    1.28 
  -5   2  32    5.09    1.39 
  -5   2  32    6.26    1.07 
   3   2 -32    8.21    1.81 
  -5   2  32    5.56    1.42 
   3  -5  32    5.94    1.24 
   3  -5  32    5.17    1.09 
  -5   3 -32    4.29    0.98 
   3  -5  32    4.82    1.04 
   3  -5  32    4.64    0.92 
   2  -5 -32    6.76    0.81 
  -3  -2  32    6.31    1.30 
   5  -3  32    7.39    1.38 
   5  -2 -32    9.05    2.02 
   5  -3  32    4.81    1.12 
  -3   5 -32    4.76    1.45 
  -2  -3 -32    5.91    0.83 
   5  -3  32    4.69    1.89 
  -3  -2  32    4.84    0.93 
   5  -2 -32    6.45    1.13 
  -3  -2  32    8.07    1.62 
   5  -3  32    5.25    1.34 
  -2  -3 -32    4.71    0.84 
   5  -3  32    6.87    1.12 
   5  -5 -32    6.39    1.70 
  -5   5  32    8.09    2.00 
   0  -5  32    6.26    1.42 
   5   0  32    3.73    1.74 
  -5   0 -32    5.72    1.60 
   6  -2  32    3.84    1.38 
  -2  -4  32    5.47    1.51 
   4  -6 -32    7.19    1.61 
   4   2  32    2.91    1.85 
   2  -6  32    3.82    1.63 
  -6   4  32    6.85    1.70 
  -6   2 -32    3.76    1.23 
   5   1 -32    7.19    2.16 
   1  -6 -32    5.29    1.06 
  -6   5 -32    3.09    1.83 
   1  -6 -32    4.25    1.09 
   6  -1 -32    6.09    1.89 
   6  -1 -32    4.91    1.91 
  -1  -5 -32    2.75    1.22 
  -1  -5 -32    3.77    0.94 
  -5   6 -32    3.11    1.84 
   0   0  33   54.03    3.04 
   0   0 -33   54.16    3.28 
   0   0 -33   51.73    2.93 
   0   0  33   50.98    3.34 
   0   0 -33   53.45    3.29 
   0   0 -33   57.37    3.30 
   0   0  33   53.84    3.38 
   0   0  33   55.82    3.00 
  -2   1  33   51.35    3.79 
  -1  -1 -33   63.90    3.56 
  -2   1 -33   57.70    3.60 
   2  -1  33   58.03    3.53 
   2  -1  33   64.32    3.79 
  -1   2 -33   54.37    3.21 
   1  -2 -33   64.15    3.64 
   1   1 -33   53.80    3.22 
  -1  -1  33   55.96    3.67 
  -1   2  33   60.71    3.24 
   1  -2 -33   65.67    3.57 
   1  -2 -33   60.33    3.26 
  -2   1  33   55.66    3.25 
   1  -2  33   50.82    3.53 
   1  -2  33   50.55    3.52 
  -1  -1 -33   65.07    3.45 
  -1  -1 -33   63.29    3.55 
  -2   1 -33   66.38    3.68 
   1  -2  33   57.81    3.79 
   1  -2  33   55.24    3.27 
  -2   1 -33   63.25    3.28 
  -2   1 -33   60.84    3.64 
  -1  -1  33   55.81    3.72 
   1  -2  33   53.74    3.33 
  -1  -1  33   52.85    3.24 
  -1  -1  33   64.79    3.84 
  -1  -1  33   57.45    3.22 
   1  -2 -33   65.74    3.67 
   2  -1  33   60.28    3.50 
   2  -1 -33   56.23    3.66 
   2  -1 -33   53.75    3.20 
  -1  -1 -33   60.64    3.30 
  -2   1 -33   62.46    3.64 
   2  -1  33   62.07    3.37 
   2  -1 -33   54.83    3.71 
   2  -1  33   59.80    3.73 
  -1  -1  33   56.59    3.31 
   2  -1 -33   56.62    3.69 
   2  -1 -33   54.52    3.76 
  -3   0  33   35.56    2.36 
  -3   0  33   41.90    2.32 
  -3   3  33   38.63    2.45 
   0  -3  33   37.42    2.65 
   3   0 -33   40.34    2.40 
   0  -3 -33   42.90    2.59 
   0  -3  33   39.68    2.66 
   0   3 -33   40.99    2.31 
   3  -3 -33   35.78    2.86 
   0  -3 -33   40.40    2.33 
  -3   0  33   32.44    2.94 
  -3   0 -33   36.29    2.31 
  -3   0 -33   35.27    2.83 
   0  -3  33   46.36    2.87 
   3  -3  33   37.26    2.81 
   0  -3 -33   44.57    2.60 
  -3   0  33   33.08    2.82 
   3  -3  33   39.59    2.88 
   0  -3  33   38.20    2.41 
  -3   3 -33   41.96    2.43 
   3  -3  33   38.83    2.67 
   3  -3 -33   34.86    2.75 
   3   0  33   33.72    2.46 
  -3   0 -33   36.58    2.86 
   0   3  33   42.73    2.35 
  -2  -2 -33   32.30    2.26 
   2   2  33   30.48    2.20 
   4  -2  33   32.85    2.26 
  -4   2  33   33.98    2.24 
   4  -2 -33   34.22    2.19 
  -2   4 -33   35.59    2.12 
  -2  -2  33   31.17    2.11 
   2  -4  33   33.89    2.54 
  -4   2  33   33.08    2.97 
   4  -2 -33   36.02    2.83 
  -2  -2  33   29.72    2.63 
  -4   2 -33   34.09    2.20 
  -4   2 -33   33.52    2.78 
   4  -2  33   36.97    2.38 
   2  -4 -33   38.11    2.09 
  -2  -2 -33   33.49    2.31 
   2  -4  33   36.42    2.50 
   2  -4 -33   34.55    2.41 
   2   2 -33   29.94    2.20 
   4  -2  33   40.47    2.87 
  -2  -2  33   26.28    2.44 
  -2  -2 -33   29.59    2.09 
   4  -2 -33   36.77    3.05 
   2  -4  33   31.31    2.20 
   2  -4 -33   38.81    2.58 
   2  -4  33   27.84    2.29 
  -1  -4  33   22.64    1.86 
   4  -5  33   22.32    2.14 
   5  -4 -33   22.96    2.51 
  -5   4 -33   19.86    2.18 
  -5   1  33   24.33    2.88 
   5  -4 -33   28.00    2.90 
   1  -5 -33   21.35    1.62 
  -5   1  33   26.00    1.88 
   4  -5  33   22.01    2.16 
   4  -5  33   22.35    2.14 
  -4   5  33   26.40    2.99 
  -4  -1 -33   21.76    2.22 
  -4  -1 -33   22.92    2.25 
   4   1 -33   25.71    2.51 
  -1  -4  33   20.42    1.83 
   4  -5  33   16.99    1.88 
  -1  -4 -33   20.74    1.77 
   5  -4  33   24.61    2.21 
   4   1  33   18.90    2.77 
  -4  -1  33   27.46    2.57 
  -5   1 -33   22.60    2.75 
  -5   4  33   24.82    2.43 
   1  -5  33   22.21    2.37 
   1  -5  33   22.56    2.11 
   5  -1 -33   21.90    1.83 
   4  -5 -33   25.58    2.00 
   4  -5 -33   24.81    2.12 
  -5   1 -33   23.42    2.47 
   5  -4  33   23.65    2.46 
   5  -4  33   23.01    2.54 
  -4  -1  33   25.83    2.76 
  -4  -1  33   23.91    2.42 
  -4   5 -33   18.65    2.58 
   3   3 -33   21.03    2.93 
  -6   3  33   20.36    2.31 
  -6   3  33   16.32    2.17 
  -3  -3  33   17.63    1.95 
  -3  -3 -33   17.85    1.95 
   3  -6 -33   18.23    1.87 
   3  -6  33   19.66    2.33 
  -6   3 -33   18.55    2.04 
  -1   1  34   54.38    2.68 
  -1   0 -34   50.45    2.99 
   0   1 -34   47.44    2.99 
   0   1 -34   39.64    2.59 
   1   0  34   45.00    3.00 
   0  -1  34   45.79    2.67 
   1   0  34   46.12    2.80 
   1   0  34   51.70    2.75 
   0  -1  34   49.54    3.83 
   0  -1  34   44.00    3.02 
   1  -1 -34   50.34    2.61 
   1  -1 -34   55.11    3.03 
   0   1 -34   48.51    3.05 
   1  -1 -34   49.42    2.61 
  -1   0 -34   46.40    2.63 
   0   1 -34   40.04    2.60 
   0  -1  34   43.75    2.68 
   0  -1  34   41.57    3.00 
   0  -1  34   43.28    2.92 
   1   0  34   44.93    2.91 
  -1   1  34   54.12    3.20 
  -1   0 -34   44.88    2.91 
   0  -1  34   41.35    2.68 
  -1   0 -34   47.03    2.90 
  -1   0 -34   50.40    3.11 
   0  -2 -34   40.30    2.43 
   2  -2  34   47.92    2.40 
   2   0 -34   41.84    2.95 
   2  -2  34   50.18    2.96 
  -2   0  34   37.90    2.38 
   2  -2  34   51.30    2.97 
   2   0 -34   39.31    2.99 
  -2   0  34   38.50    2.50 
  -2   0  34   38.54    2.79 
   2  -2  34   49.88    3.26 
   0  -2 -34   39.80    2.65 
   0  -2 -34   39.30    2.67 
   0   2  34   38.65    2.41 
  -2   2 -34   43.45    2.91 
  -2   0  34   37.81    2.91 
   2   0 -34   38.72    2.46 
  -2   0  34   41.65    3.11 
   3  -1  34   31.66    2.53 
   3  -1  34   24.83    2.02 
   3  -2 -34   29.73    2.44 
  -2   3  34   36.70    2.01 
  -1  -2  34   28.67    2.33 
   3  -2 -34   31.60    1.90 
  -1  -2  34   28.46    1.94 
  -1   3 -34   29.36    1.88 
  -2  -1 -34   29.51    2.19 
   3  -2 -34   33.14    2.49 
  -2  -1 -34   30.13    2.21 
  -1  -2  34   33.66    2.49 
   3  -2 -34   31.60    2.60 
  -3   1 -34   31.17    2.48 
  -3   1 -34   31.75    2.00 
  -3   1 -34   29.16    2.43 
  -3   2  34   33.09    2.09 
   2   1  34   32.42    2.10 
   2  -3 -34   37.83    2.51 
   1  -3  34   27.39    2.04 
   1   2 -34   29.59    1.92 
   2  -3 -34   35.66    2.39 
   1  -3  34   28.26    2.22 
  -3   1 -34   31.20    2.36 
   1  -3  34   28.16    2.26 
  -3   2  34   24.80    3.25 
   2  -3 -34   34.65    1.97 
   1  -3  34   30.89    2.30 
   3   1 -34   22.49    1.78 
   3  -4  34   26.54    2.09 
   1   3  34   22.83    1.77 
  -4   1  34   23.81    2.68 
   1  -4 -34   21.99    1.57 
   3  -4  34   20.84    1.93 
  -4   3 -34   25.41    1.80 
  -4   1  34   20.17    1.76 
   1  -4 -34   24.48    1.83 
  -4   1  34   23.55    1.78 
   3  -4  34   25.00    1.86 
   3  -4  34   22.57    2.03 
  -1  -3 -34   24.29    1.77 
   4  -3  34   26.50    2.30 
   4  -3  34   17.80    2.28 
   4  -1 -34   26.93    2.65 
  -3  -1  34   20.13    2.16 
   4  -1 -34   23.20    1.75 
  -3  -1  34   22.40    2.41 
   4  -3  34   24.87    2.37 
  -3   4 -34   24.43    1.76 
  -1  -3 -34   20.61    1.61 
   4  -3  34   28.25    2.03 
  -1  -3 -34   23.72    1.74 
   0   4 -34   20.49    1.81 
   4   0  34   14.88    1.73 
  -4   0 -34   17.62    2.03 
   0  -4  34   21.93    1.97 
  -4   0 -34   16.54    2.15 
   0   4 -34   22.19    2.11 
   0  -4  34   19.80    1.57 
   0  -4  34   14.93    1.57 
  -3  -2 -34   14.40    1.49 
   5  -3 -34   19.18    3.06 
  -3  -2 -34   18.96    1.66 
  -2  -3  34   21.30    2.16 
   5  -3 -34   19.50    2.24 
   5  -2  34   18.69    2.39 
  -2  -3  34   18.17    1.56 
  -3  -2 -34   16.96    1.55 
  -2  -3  34   15.36    1.70 
   5  -2  34   13.00    1.60 
   5  -2  34   15.38    1.56 
   2   3 -34   19.91    2.46 
  -5   3  34   17.38    1.67 
   3  -5 -34   16.59    1.64 
   3   2  34   16.41    2.55 
  -5   2 -34   15.83    2.39 
   3  -5 -34   15.66    1.48 
   2  -5  34   15.55    1.56 
   2  -5  34   16.21    2.12 
   2  -5  34   16.91    1.75 
  -5   2 -34   16.98    1.59 
   5   0 -34   17.90    2.41 
   0  -5 -34   14.30    1.64 
  -5   5 -34   16.46    2.54 
  -6   2  34   13.16    1.85 
  -6   4 -34   13.53    2.34 
   4  -6  34   13.43    2.39 
   2  -6 -34   12.10    1.58 
   2  -6 -34   11.27    1.35 
   4   2 -34   17.15    2.67 
  -2  -4 -34    9.98    1.09 
   6  -4  34   13.11    4.72 
   6  -2 -34   13.43    2.07 
  -2  -4 -34   12.39    1.79 
   6  -1  34    8.71    2.04 
  -1  -5  34   12.26    1.91 
  -5   6  34   16.08    2.92 
  -6   1 -34   10.51    5.03 
  -6   5  34   15.33    2.38 
   1  -6  34   11.45    2.17 
   5   1  34    9.01    2.15 
  -1   0  35   16.45    1.55 
   1   0 -35   13.11    0.96 
   1  -1  35   12.40    1.33 
  -1   0  35   13.37    1.10 
   1  -1  35   13.06    1.36 
   1  -1  35   11.08    1.11 
   0   1  35   10.89    1.52 
   0  -1 -35   12.95    1.25 
  -1   1 -35   11.79    0.95 
   0  -1 -35   13.58    0.95 
   0  -1 -35   12.31    1.24 
   0   1  35   11.98    1.00 
   0  -1 -35   12.54    1.24 
   0  -1 -35   13.40    1.41 
   1   0 -35   11.62    1.56 
  -1   1 -35   13.66    1.31 
   1  -1  35   13.27    1.29 
   1  -1  35   11.98    0.97 
   1  -1  35   11.87    1.21 
   1  -1  35   13.42    1.06 
  -1   0  35   15.54    1.73 
   1   0 -35   14.53    1.27 
   1   0 -35   17.31    1.52 
  -1   0  35   14.41    1.09 
   0  -1 -35   14.19    1.28 
  -1   1 -35   10.64    1.24 
   2  -2 -35    9.69    1.26 
   0  -2  35    8.90    1.12 
  -2   0 -35    8.50    0.83 
   2  -2 -35   10.36    1.38 
   2  -2 -35    8.54    0.76 
  -2   0 -35    7.96    1.11 
   2   0  35    8.59    1.24 
  -2   0 -35    7.86    1.51 
   0  -2  35    8.64    1.22 
   2   0  35    9.81    1.04 
  -2   0 -35    8.02    1.31 
  -2   0 -35    8.23    1.06 
  -2   2  35    8.09    0.92 
   2  -2 -35    9.69    1.24 
   2  -2 -35    7.61    0.74 
   0  -2  35    6.62    0.86 
   0   2 -35    7.36    0.81 
   0  -2  35    9.52    1.19 
   0   2 -35    8.31    0.84 
   1  -3 -35   10.01    1.21 
  -3   1  35    9.64    1.68 
   2  -3  35   11.65    1.32 
  -3   2 -35    9.37    1.00 
   1  -3 -35    7.85    0.80 
   2   1 -35    7.91    1.03 
   1   2  35    8.18    0.99 
   2  -3  35   10.28    1.60 
  -3   1  35    8.99    1.08 
   2  -3  35    9.83    1.23 
  -3   1  35    9.34    1.36 
  -3   2 -35    9.30    1.26 
   1  -3 -35    8.57    1.05 
  -3   1  35    8.44    1.68 
  -1  -2 -35    8.59    1.04 
  -2   3 -35    9.92    0.94 
   3  -2  35   10.53    1.35 
  -1  -2 -35    7.68    0.96 
   3  -2  35    9.55    1.42 
  -1   3  35   10.38    0.94 
  -1  -2 -35    7.85    0.82 
   3  -1 -35    9.17    1.70 
   3  -1 -35    8.23    1.00 
  -2  -1  35    7.64    1.25 
   3  -2  35    8.33    1.05 
  -2  -1  35    8.49    1.50 
  -3  -1 -35    7.79    1.23 
   4  -1  35    4.71    1.01 
  -1  -3  35    5.84    1.13 
  -3   4  35    6.74    1.16 
  -1  -3  35    6.21    0.90 
   4  -3 -35    9.49    1.58 
  -3  -1 -35    6.03    1.12 
  -1   4 -35    5.35    0.90 
   4  -3 -35    7.58    1.76 
  -1  -3  35    6.39    1.37 
   3  -4 -35    6.33    1.22 
   1   3 -35    7.64    1.07 
  -4   1 -35    6.10    1.45 
   3   1  35    4.70    1.03 
   3  -4 -35    6.86    0.94 
   3  -4 -35    6.82    1.41 
  -4   1 -35    6.80    1.01 
  -4   3  35    8.41    1.29 
  -4   1 -35    3.00    1.73 
   1  -4  35    5.78    1.05 
   1  -4  35    6.96    1.26 
   1  -4  35    7.70    1.36 
  -4   1 -35    5.79    1.38 
   1  -4  35    5.87    1.06 
   4  -4  35    6.54    1.37 
   4   0 -35    6.52    1.14 
  -4   0  35    6.85    1.93 
  -4   0  35    6.10    1.49 
  -4   0  35    8.93    2.17 
   4  -4  35    8.53    1.36 
   0  -4 -35    5.60    0.90 
  -4   4 -35    8.57    1.46 
   0  -4 -35    8.15    0.97 
   4  -4  35    6.57    1.36 
  -5   3 -35    5.59    1.08 
   3  -5  35    7.38    1.35 
   3  -5  35    5.28    1.28 
  -5   2  35    6.55    1.53 
   3  -5  35    4.87    1.02 
   2  -5 -35    5.29    1.08 
   3   2 -35    9.84    2.26 
  -5   2  35    5.41    1.35 
  -5   2  35    6.09    1.20 
   2   3  35    4.55    1.71 
   3  -5  35    5.58    1.30 
  -5   2  35    4.41    1.58 
   5  -2 -35    7.34    1.24 
  -2  -3 -35    7.70    1.18 
   5  -3  35    4.94    3.78 
  -3  -2  35    5.17    1.29 
  -2  -3 -35    6.39    0.92 
  -3  -2  35    6.90    1.67 
   5  -3  35    6.32    1.28 
   5  -3  35    5.85    1.71 
   5  -2 -35    9.91    2.35 
  -2  -3 -35    3.74    0.92 
  -3   5 -35    7.20    1.73 
   0  -5  35    5.04    1.49 
   5   0  35    3.72    1.89 
  -5   5  35    7.70    2.26 
   6  -2  35    3.04    1.52 
  -2  -4  35    4.61    1.59 
   4  -6 -35    4.46    1.60 
   4   2  35    3.85    1.94 
   2  -6  35    6.09    1.97 
  -6   4  35    6.89    2.05 
   5   1 -35    7.56    2.46 
  -6   5 -35    4.48    1.92 
   1  -6 -35    3.52    1.14 
  -1  -5 -35    4.10    1.12 
  -5   6 -35    3.63    1.88 
   6  -1 -35    6.56    2.16 
  -1  -5 -35    3.02    1.24 
   0   0 -36  101.04    5.67 
   0   0 -36  100.28    5.80 
   0   0 -36  101.65    5.76 
   0   0  36  102.99    6.00 
   0   0  36   97.96    5.48 
   0   0  36  108.14    5.46 
   0   0 -36  100.28    5.38 
   0   0  36  100.35    5.86 
   0   0 -36  104.37    5.75 
  -1   2 -36   71.28    3.91 
  -2   1 -36   76.73    3.97 
   1  -2 -36   72.30    4.33 
   2  -1 -36   75.68    4.58 
   2  -1 -36   69.71    4.46 
   1  -2 -36   73.85    4.35 
  -2   1 -36   72.94    4.31 
   1  -2  36   73.82    3.99 
   1  -2  36   66.13    4.29 
   1  -2  36   64.11    4.28 
   2  -1  36   71.59    4.04 
  -2   1  36   71.97    3.94 
  -1  -1  36   79.16    4.57 
   2  -1  36   66.59    4.18 
   2  -1  36   71.44    4.51 
  -1  -1  36   69.56    3.93 
  -1  -1  36   71.46    4.01 
  -1  -1  36   72.16    3.91 
   2  -1  36   68.53    4.37 
  -1   2  36   76.76    3.94 
   1  -2 -36   76.83    4.39 
  -2   1  36   75.88    4.66 
  -1  -1  36   68.22    4.40 
  -1  -1 -36   62.48    4.16 
  -1  -1  36   66.94    4.43 
   1   1 -36   67.58    3.89 
   1   1  36   75.19    4.03 
   2  -1 -36   69.79    3.88 
   2  -1 -36   70.34    4.38 
   3  -3  36   50.72    3.36 
  -3   3 -36   54.81    2.92 
   0   3 -36   46.81    2.74 
   0  -3 -36   47.76    3.01 
  -3   0  36   47.29    2.75 
   0  -3  36   41.65    3.09 
   0  -3 -36   43.93    2.76 
   3  -3 -36   52.42    3.54 
   3   0 -36   43.52    2.88 
   3  -3 -36   47.92    3.34 
  -3   0 -36   46.51    3.27 
  -3   0 -36   42.77    3.38 
   0   3 -36   46.54    2.76 
   0  -3 -36   50.07    3.09 
  -3   0  36   47.07    2.83 
  -3   0  36   45.33    3.19 
   3  -3  36   55.46    3.25 
   0   3  36   47.76    2.81 
   3   0  36   46.10    2.97 
  -3   0 -36   45.93    3.29 
   0  -3  36   42.01    3.13 
   3  -3  36   50.01    3.33 
   0  -3  36   43.37    2.83 
  -3   0  36   41.06    3.56 
  -3   3  36   51.40    2.94 
   0  -3  36   50.98    3.31 
  -2   4 -36   40.29    2.44 
   2  -4  36   39.19    2.94 
   2  -4  36   42.32    2.83 
  -2  -2 -36   37.53    2.40 
  -2  -2  36   40.44    3.12 
   2   2 -36   43.03    2.57 
   4  -2  36   36.44    3.15 
   4  -2 -36   34.97    3.24 
   4  -2  36   37.27    3.43 
  -4   2 -36   41.22    2.50 
   4  -2  36   31.64    2.50 
  -4   2 -36   38.14    3.09 
  -2  -2  36   30.52    2.80 
  -2   4  36   38.48    2.43 
   4  -2 -36   43.17    2.44 
  -2  -2 -36   40.89    2.63 
  -4   2  36   33.76    3.99 
   2  -4  36   35.77    2.56 
  -4   2  36   38.17    2.55 
  -2  -2  36   32.85    2.88 
  -2  -2 -36   37.89    2.55 
   2  -4 -36   39.37    2.71 
   2  -4 -36   35.58    2.34 
   2  -4  36   31.95    2.61 
   2   2  36   39.32    2.60 
   4  -2 -36   38.14    3.44 
   2  -4 -36   45.08    2.92 
  -4   2 -36   39.18    3.09 
  -5   1  36   21.75    3.36 
  -1  -4  36   25.38    2.17 
  -5   4 -36   30.47    2.59 
   4   1 -36   28.82    3.03 
   4  -5  36   27.27    2.45 
   5  -1  36   21.21    2.38 
   4  -5  36   24.58    2.39 
  -4   5  36   31.10    2.95 
   5  -4 -36   25.57    3.30 
  -4  -1 -36   25.77    2.37 
   1  -5 -36   24.19    2.05 
   4  -5 -36   27.35    2.76 
  -4  -1  36   22.13    2.74 
  -4  -1  36   24.49    3.16 
   1  -5  36   26.45    2.45 
   5  -4  36   26.27    3.26 
   5  -1 -36   27.31    2.45 
  -5   1 -36   20.71    4.72 
   5  -4  36   28.86    2.49 
   5  -1 -36   27.70    2.27 
   4  -5 -36   24.92    2.28 
   4   1  36   24.46    3.06 
  -5   4  36   26.44    2.99 
   1  -5  36   23.16    2.83 
  -5   1 -36   22.12    3.31 
  -4   5 -36   29.37    2.85 
  -1  -4 -36   25.92    2.14 
  -3  -3 -36   20.23    2.20 
  -6   3 -36   23.22    2.27 
   3  -6  36   20.32    2.75 
   3  -6 -36   17.28    2.11 
  -6   3  36   20.80    2.57 
   3   3 -36   24.38    2.88 
  -1   0 -37   11.37    1.20 
  -1   0 -37   12.24    1.29 
  -1   0 -37   11.20    1.33 
   1   0  37   12.09    1.09 
  -1   0 -37   10.60    0.92 
  -1   1  37   14.69    1.55 
   1  -1 -37   12.72    0.92 
   1   0  37   11.99    1.35 
  -1   0 -37   11.16    1.29 
   1   0  37   10.86    1.27 
   1  -1 -37   12.52    1.18 
   2  -2  37   10.02    0.82 
   2  -2  37   10.60    1.36 
   0  -2 -37    7.66    0.81 
   0  -2 -37    7.35    1.03 
   0  -2 -37    7.42    1.01 
   2  -2  37   10.94    1.61 
   0   2  37    7.95    0.94 
  -2  -1 -37    7.75    1.14 
  -2   3  37    7.03    0.99 
  -2  -1 -37    7.30    1.04 
  -1  -2  37    7.63    1.20 
   3  -1  37    9.20    1.42 
   3  -1  37    7.51    1.07 
  -1  -2  37    9.84    1.41 
   2  -3 -37    9.02    1.20 
  -3   1 -37    7.99    1.66 
   2   1  37    8.33    1.16 
   2  -3 -37   10.38    1.40 
  -3   1 -37    7.66    1.42 
  -3   1 -37    7.76    1.30 
   2  -3 -37    7.60    0.85 
  -3   1 -37    8.51    0.99 
   1   2 -37    6.91    0.95 
  -3   1 -37    8.02    1.21 
  -4   1  37    6.19    1.96 
   1  -4 -37    5.25    0.88 
  -4   1  37    8.48    1.15 
  -4   3 -37    6.59    1.12 
  -4   1  37    7.23    1.03 
   1  -4 -37    5.93    1.01 
   3   1 -37    6.77    1.37 
   1   3  37    4.62    1.32 
  -3  -1  37    6.46    1.79 
  -3  -1  37    5.03    1.34 
   4  -1 -37    7.23    1.64 
  -1  -3 -37    7.45    1.06 
   4  -3  37    7.67    1.23 
   4  -3  37    5.99    1.34 
  -1   4  37    6.21    1.26 
  -1  -3 -37    5.98    0.96 
   4  -1 -37    6.47    1.13 
   4  -1 -37    6.02    1.73 
   4  -3  37    6.50    1.51 
  -1  -3 -37    5.22    0.89 
   4  -4 -37    7.16    1.64 
   4   0  37    5.37    1.37 
  -4   4  37    7.67    1.99 
   0  -4  37    4.74    1.06 
   0  -4  37    5.89    1.43 
   4  -4 -37    6.43    1.47 
   0   4 -37    7.51    1.47 
  -4   0 -37    5.29    1.28 
  -4   0 -37    5.67    1.42 
   0  -4  37    4.64    1.08 
  -2  -3  37    4.85    1.53 
  -2   5 -37    4.71    1.76 
  -3   5  37    5.85    1.73 
   5  -3 -37    8.71    2.82 
   5  -2  37    4.26    1.11 
   5  -2  37    4.28    2.08 
  -3  -2 -37    4.56    1.03 
  -2  -3  37    5.45    1.28 
   2  -5  37    5.42    1.72 
   3   2  37    4.17    1.82 
   2  -5  37    5.31    1.58 
   2   3 -37    7.29    1.93 
   3  -5 -37    5.64    1.23 
  -5   2 -37    5.30    1.02 
  -5   2 -37    6.35    1.80 
   5   0 -37    5.04    2.25 
   0  -5 -37    4.47    1.24 
  -5   5 -37    5.53    1.83 
  -6   2  37    4.34    2.32 
   2  -6 -37    3.67    1.26 
   4   2 -37    6.39    2.45 
  -6   4 -37    5.57    1.79 
  -2  -4 -37    3.55    1.39 
   6  -2 -37    7.57    1.78 
  -2  -4 -37    3.41    0.88 
   0   1  38   26.23    1.77 
   1  -1  38   23.23    2.08 
   0  -1 -38   25.81    2.01 
   1   0 -38   25.81    2.01 
   0  -1 -38   26.91    1.66 
   1  -1  38   25.47    2.09 
  -1   0  38   27.19    1.84 
  -1   1 -38   28.39    2.06 
  -1   1 -38   26.16    2.38 
  -1   1 -38   26.12    1.70 
  -1   0  38   26.22    1.72 
   1  -1  38   25.61    1.69 
  -1   0  38   26.90    1.78 
  -1   0  38   28.05    2.26 
   0  -1 -38   25.36    2.04 
   1  -1  38   27.09    1.81 
   1   0 -38   26.62    1.70 
   1  -1  38   27.42    2.14 
  -1   0  38   27.13    2.26 
   0  -1 -38   26.88    2.06 
  -1   0  38   28.49    2.21 
   0  -1 -38   28.16    2.16 
   1   0 -38   29.47    2.24 
   1  -1  38   26.04    1.93 
   0   2 -38   29.33    1.87 
   2  -2 -38   28.29    2.34 
   2  -2 -38   25.51    2.06 
  -2   0 -38   28.29    2.22 
  -2   0 -38   26.66    2.16 
  -2   2  38   27.17    1.90 
   0  -2  38   32.27    2.44 
   0  -2  38   31.75    2.33 
  -2   0 -38   29.17    1.88 
   2  -2 -38   29.17    2.46 
   2   0  38   28.10    2.02 
  -2   0 -38   32.74    3.66 
   0  -2  38   34.75    2.29 
   0   2 -38   29.24    1.84 
   2  -3  38   24.94    2.07 
  -3   1  38   25.72    2.27 
   2   1 -38   25.86    1.69 
  -3   1  38   24.57    2.53 
  -3   1  38   27.54    1.88 
  -3   2 -38   19.33    2.01 
   1  -3 -38   21.57    1.81 
   1   2  38   22.27    1.72 
   1  -3 -38   23.00    1.94 
  -3   1  38   23.06    1.64 
   2  -3  38   20.62    1.93 
   2  -3  38   18.46    1.83 
   1  -3 -38   18.13    1.49 
  -3   2 -38   22.67    1.67 
  -2   3 -38   21.28    1.59 
   3  -1 -38   25.42    2.13 
   3  -2  38   19.64    2.05 
  -1  -2 -38   22.13    1.76 
  -2  -1  38   27.21    2.22 
   3  -2  38   21.11    1.50 
   3  -1 -38   24.67    2.49 
  -1  -2 -38   22.46    1.79 
   3  -2  38   19.59    1.72 
  -1   3  38   20.49    1.60 
  -1  -2 -38   20.86    1.56 
   3  -1 -38   24.11    1.63 
   3  -2  38   18.77    2.06 
   3  -2  38   20.45    2.16 
  -1   4 -38   20.93    2.04 
  -1  -3  38   14.48    1.43 
  -1  -3  38   13.67    1.70 
  -3   4  38   19.25    2.29 
   4  -3 -38   16.73    2.62 
  -3  -1 -38   15.02    1.66 
   4  -1  38   15.79    1.68 
  -3  -1 -38   16.27    1.74 
   4  -3 -38   14.93    2.08 
  -1  -3  38   18.96    2.06 
   3  -4 -38   17.99    2.16 
   1  -4  38   23.21    2.15 
   1   3 -38   20.23    2.27 
  -4   1 -38   16.73    2.15 
  -4   3  38   15.62    1.73 
   3  -4 -38   16.30    1.82 
   3   1  38   17.59    2.29 
   1  -4  38   19.22    1.64 
   1  -4  38   19.56    1.71 
  -4   1 -38   18.10    1.50 
   3  -4 -38   14.55    1.60 
   0  -4 -38   15.30    1.54 
   4   0 -38   15.23    1.85 
  -4   0  38   16.77    2.99 
  -4   4 -38   17.10    2.24 
   4  -4  38   18.80    1.93 
   4  -4  38   14.15    1.96 
   4  -4  38   14.93    2.02 
   0  -4 -38   16.18    1.48 
   3  -5  38   14.92    1.98 
  -5   2  38   17.30    1.64 
   3  -5  38   16.13    2.25 
   3  -5  38   15.87    2.38 
   2  -5 -38   12.22    1.66 
  -5   3 -38   14.19    1.82 
  -5   3 -38   11.61    2.51 
   2   3  38   12.55    2.16 
   3   2 -38   16.30    2.68 
   5  -2 -38   13.35    3.38 
   5  -3  38   12.70    2.68 
  -2  -3 -38   12.27    1.68 
   5  -2 -38   17.15    1.56 
  -3  -2  38   11.36    2.26 
   5  -3  38   16.25    2.04 
  -3   5 -38   17.62    2.49 
   5   0  38    8.05    2.11 
   0  -5  38   10.45    1.95 
  -5   5  38   12.45    2.25 
  -5   0 -38   12.94    4.85 
   6  -2  38    8.24    1.74 
  -2  -4  38    8.86    1.81 
  -6   4  38   13.36    2.13 
   4  -6 -38    8.46    1.80 
   2  -6  38    9.35    2.06 
   4   2  38    8.43    2.09 
   0   0 -39   31.84    1.99 
   0   0  39   34.51    2.12 
   0   0 -39   31.71    2.57 
   0   0 -39   33.44    2.45 
   0   0  39   34.06    2.54 
   0   0 -39   35.31    2.46 
  -1  -1 -39   32.96    2.43 
  -2   1 -39   34.73    2.55 
   1   1  39   35.42    2.30 
   2  -1 -39   37.84    2.77 
  -2   1  39   39.08    2.97 
  -2   1  39   38.65    2.22 
  -1   2 -39   35.54    2.16 
  -1  -1  39   38.07    2.35 
   2  -1  39   30.70    2.61 
   2  -1  39   33.13    2.28 
   2  -1 -39   35.28    2.57 
   1  -2  39   38.67    2.45 
  -2   1 -39   34.80    2.19 
  -1  -1  39   35.89    2.68 
   2  -1 -39   35.65    2.15 
  -2   1 -39   34.19    2.67 
   1   1 -39   32.77    2.15 
  -1   2  39   33.16    2.19 
   1  -2 -39   36.29    2.58 
   1  -2  39   34.49    2.60 
   1  -2  39   35.23    2.59 
  -1  -1  39   37.98    2.22 
  -1  -1  39   37.87    2.16 
   2  -1  39   34.36    2.63 
  -1  -1 -39   29.95    2.41 
  -1  -1  39   36.64    2.74 
   1  -2 -39   33.13    2.51 
   0  -3  39   22.69    2.12 
  -3   0  39   25.12    2.45 
  -3   0  39   30.18    3.01 
   0  -3  39   29.73    2.34 
   0  -3 -39   26.27    2.06 
   0   3  39   24.77    2.03 
   0  -3  39   23.85    1.83 
   3  -3 -39   28.97    2.65 
   3  -3  39   24.24    2.25 
   0  -3  39   28.81    2.33 
  -3   0 -39   24.05    2.17 
   3  -3  39   27.73    2.22 
  -3   3  39   25.91    1.96 
   3  -3 -39   26.17    2.35 
  -3   0  39   28.16    1.85 
   3   0  39   24.40    2.01 
  -3   0 -39   26.65    2.70 
   3  -3  39   24.38    2.35 
  -3   3 -39   26.33    1.90 
   0   3 -39   26.32    1.88 
  -3   0 -39   24.27    2.28 
   3  -3  39   27.26    2.51 
  -3   0  39   25.15    2.50 
   0  -3 -39   23.58    1.77 
  -3   0  39   27.39    1.80 
   3   0 -39   26.47    1.90 
   0  -3 -39   24.90    1.98 
   4  -2  39   21.99    2.45 
   2  -4  39   23.60    2.11 
   4  -2  39   24.69    4.58 
   2  -4  39   19.13    1.90 
  -2  -2  39   25.49    2.53 
  -2   4 -39   24.69    2.25 
  -2  -2 -39   21.89    1.84 
   4  -2  39   18.91    1.83 
  -2  -2  39   21.32    2.27 
   2  -4 -39   26.03    2.21 
   2  -4 -39   21.80    1.96 
   2   2 -39   26.54    2.39 
   2  -4  39   21.35    1.96 
   2  -4  39   24.84    2.39 
  -4   2 -39   21.62    1.79 
   4  -2 -39   24.50    3.04 
  -2   4  39   23.29    2.35 
   4  -2 -39   24.06    1.69 
   2   2  39   24.28    2.60 
  -2  -2  39   21.56    2.23 
  -4   2 -39   22.64    2.34 
  -4   2  39   21.44    1.81 
  -4   2 -39   20.16    2.13 
  -4   5  39   16.92    2.58 
   1  -5 -39   13.81    1.79 
   4   1 -39   20.14    2.65 
  -5   4 -39   17.68    2.38 
  -1  -4  39   16.12    1.99 
  -5   1  39   15.35    3.53 
   5  -1  39   13.57    2.35 
   5  -1 -39   13.22    1.79 
   1  -5  39   15.07    2.20 
   5  -1 -39   19.90    2.32 
  -5   4  39   16.12    2.68 
  -1  -4 -39   14.07    1.83 
   4   1  39   16.71    2.86 
  -4   5 -39   19.89    2.57 
  -6   3 -39   15.26    2.01 
   3  -6  39   12.50    2.59 
   3   3 -39   17.80    2.59 
   3  -6 -39   10.61    2.23 
  -6   3  39   14.23    2.21 
   0  -1  40    3.57    0.59 
  -1   1  40    3.61    0.70 
   1  -1 -40    4.42    0.97 
  -1   0 -40    3.37    1.08 
  -1   0 -40    3.85    0.86 
   1  -1 -40    3.32    0.59 
   0  -1  40    3.57    0.74 
   1  -1 -40    3.68    1.00 
   0   1 -40    3.42    0.63 
   1   0  40    4.50    1.04 
   1   0  40    3.44    0.73 
  -1   0 -40    3.20    0.84 
  -1   1  40    4.56    1.15 
   0  -1  40    3.73    0.98 
  -1   0 -40    3.37    0.60 
  -1   0 -40    3.65    0.96 
   0  -1  40    3.96    1.05 
   1  -1 -40    2.34    1.03 
   2  -2  40    5.19    1.10 
  -2   2 -40    4.97    0.87 
   2  -2  40    4.02    1.22 
   0  -2 -40    4.57    0.95 
   0  -2 -40    4.38    0.96 
   2  -2  40    4.60    1.01 
   0   2  40    3.96    0.81 
   2  -2  40    4.87    0.68 
   2  -2  40    4.47    1.35 
   2  -2  40    4.77    0.85 
   3  -2 -40    4.22    1.54 
   3  -2 -40    4.57    1.26 
  -2   3  40    2.93    0.82 
   3  -2 -40    3.68    0.80 
  -2  -1 -40    4.21    0.95 
   3  -1  40    2.54    0.86 
   3  -2 -40    6.87    1.70 
   3  -1  40    2.51    1.05 
  -2  -1 -40    4.34    0.95 
  -3   1 -40    3.56    1.10 
  -3   1 -40    3.34    0.76 
   2  -3 -40    4.34    1.13 
  -3   2  40    2.98    0.83 
   2  -3 -40    4.43    1.12 
   2   1  40    3.74    0.92 
   3  -4  40    2.60    1.02 
  -4   3 -40    2.52    0.94 
  -4   1  40    8.49    2.22 
   3  -4  40    4.54    1.20 
   1  -4 -40    3.27    0.87 
  -4   1  40    9.17    2.97 
   3  -4  40    4.24    1.18 
   1  -4 -40    6.33    1.31 
   1   3  40    3.44    1.66 
   1  -4 -40    4.64    0.95 
   4  -3  40    3.26    1.05 
  -1  -3 -40    4.34    0.98 
  -1  -3 -40    2.97    0.83 
  -3   4 -40    3.42    1.57 
  -3  -1  40    4.97    1.46 
  -1  -3 -40    3.02    0.86 
   4  -3  40    3.14    1.45 
  -1   4  40    4.44    1.56 
  -3  -1  40    6.54    2.14 
   4  -3  40    3.52    1.28 
  -3  -1  40    7.68    1.98 
   0  -4  40    5.31    1.53 
   4   0  40    4.34    1.65 
  -4   4  40    3.73    1.80 
   0   4 -40    4.87    1.57 
  -4   0 -40    3.45    1.56 
   4  -4 -40    4.74    1.72 
   0  -4  40    5.28    1.32 
  -3   5  40    3.66    1.74 
  -2   5 -40    6.84    1.73 
   5  -2  40    2.76    1.19 
   2   3 -40    3.92    2.00 
   3   2  40    1.82    1.80 
  -5   2 -40    3.41    1.00 
  -5   3  40    6.83    1.60 
   3  -5 -40    2.87    1.54 
   5   0 -40    4.70    2.23 
  -5   5 -40    2.78    1.79 
   0  -5 -40    2.16    1.33 
   0  -1 -41   50.30    3.33 
  -1   0  41   46.82    2.82 
  -1   1 -41   49.53    2.81 
   1   0 -41   47.50    2.77 
   1  -1  41   47.50    2.81 
   1  -1  41   43.45    3.25 
  -1   0  41   48.19    3.39 
  -1   0  41   47.33    2.87 
   1  -1  41   45.52    3.27 
   1   0 -41   45.41    2.76 
   1  -1  41   48.35    3.23 
   0  -1 -41   48.07    2.73 
  -1   0  41   49.05    2.97 
   1   0 -41   49.73    3.37 
   0   1  41   48.72    2.89 
   0  -1 -41   47.88    3.21 
   1  -1  41   48.75    2.92 
  -1   1 -41   47.61    3.18 
  -1   0  41   48.41    3.37 
   0  -1 -41   46.84    3.19 
   2  -2 -41   38.47    2.89 
  -2   0 -41   38.05    2.78 
  -2   0 -41   36.02    2.69 
   0  -2  41   43.23    2.83 
   0  -2  41   39.19    2.94 
   2   0  41   34.66    2.47 
  -2   0 -41   38.64    2.34 
   0   2 -41   35.84    2.31 
  -2   0 -41   42.19    3.77 
  -2   2  41   35.01    2.36 
   2  -2 -41   41.04    3.08 
  -2   0 -41   36.36    2.96 
   0  -2  41   41.05    2.63 
   0  -2  41   32.40    2.70 
   1  -3 -41   31.35    2.46 
  -3   1  41   36.70    3.25 
   1  -3 -41   36.48    2.63 
   1  -3 -41   27.78    2.13 
  -3   1  41   35.28    2.37 
  -3   1  41   32.10    2.71 
  -3   1  41   32.37    2.18 
  -3   2 -41   34.42    2.24 
   2  -3  41   28.30    2.52 
   2  -3  41   36.96    2.74 
   2   1 -41   37.43    2.23 
   2  -3  41   32.13    2.65 
   1   2  41   35.09    2.51 
   3  -2  41   32.85    2.33 
  -1  -2 -41   31.98    2.40 
   3  -2  41   32.20    2.06 
   3  -1 -41   35.14    2.18 
  -2  -1  41   33.17    2.77 
  -1   3  41   32.26    2.39 
  -2  -1  41   38.43    3.18 
  -1  -2 -41   29.64    2.38 
   3  -2  41   35.44    3.27 
  -2   3 -41   32.72    2.20 
   3  -2  41   32.33    3.38 
   3  -2  41   30.69    2.75 
   3  -1 -41   32.17    2.55 
   3  -1 -41   38.90    3.23 
  -1   4 -41   28.98    2.54 
  -3  -1 -41   21.80    2.40 
  -1  -3  41   27.61    2.58 
  -3  -1 -41   24.59    2.26 
   4  -3 -41   31.11    3.60 
  -3   4  41   25.57    2.66 
  -1  -3  41   30.63    2.67 
   4  -3 -41   23.72    2.84 
   4  -1  41   22.35    2.13 
   1  -4  41   29.56    2.75 
  -4   3  41   24.81    2.24 
   1  -4  41   23.12    2.26 
  -4   1 -41   25.66    2.72 
  -4   1 -41   22.67    1.88 
  -4   1 -41   27.18    5.24 
   3   1  41   26.14    2.85 
   3  -4 -41   21.20    2.41 
   1  -4  41   24.07    2.12 
   3  -4 -41   27.82    2.71 
   1  -4  41   27.95    2.39 
  -4   0  41   30.17    6.76 
   4  -4  41   23.19    2.30 
   4  -4  41   20.59    3.42 
   4   0 -41   28.93    2.45 
   0  -4 -41   20.12    2.08 
  -4   4 -41   22.74    2.60 
   3   2 -41   26.42    2.74 
  -5   3 -41   15.82    2.21 
  -5   2  41   21.06    1.97 
   2   3  41   20.15    2.95 
  -5   3 -41   22.46    2.30 
   2  -5 -41   17.19    2.09 
   5  -2 -41   22.40    1.82 
  -3   5 -41   22.57    2.62 
  -2  -3 -41   16.92    2.12 
  -5   5  41   16.25    2.52 
  -5   0 -41   17.76    5.40 
   5   0  41   12.91    2.26 
   0   0  42   13.55    1.64 
   0   0 -42   11.29    1.53 
   0   0  42   13.18    1.26 
   0   0 -42   12.50    1.08 
   0   0 -42   14.51    1.61 
  -2   1  42    7.78    1.10 
   2  -1  42    9.52    1.50 
   2  -1 -42    8.45    1.01 
  -1  -1 -42    7.93    1.27 
  -2   1 -42    8.28    1.05 
  -1  -1  42   10.29    1.65 
   2  -1  42    7.25    1.14 
  -2   1  42   10.82    1.89 
   2  -1  42    7.89    1.39 
   1  -2 -42    8.38    1.67 
   1  -2  42    7.52    1.27 
   1  -2  42    9.36    1.48 
  -1  -1 -42    8.00    1.70 
   2  -1 -42   11.43    1.83 
   2  -1 -42    7.77    1.00 
  -1   2 -42    8.22    1.01 
   1  -2  42    8.59    1.46 
  -2   1 -42    8.68    1.41 
  -1  -1  42   10.90    1.54 
  -1   2  42    8.04    1.13 
   1   1  42    7.76    1.22 
   1  -2 -42    7.60    1.23 
  -1  -1  42   11.38    1.88 
   1   1 -42    7.71    1.06 
   1   1 -42    7.72    1.04 
  -1  -1  42   10.50    1.17 
   2  -1  42    7.29    0.94 
  -1  -1  42    9.00    1.41 
  -1  -1 -42    8.37    1.20 
   1  -2 -42    9.07    1.40 
  -2   1 -42    7.58    1.76 
  -2   1 -42    8.73    1.46 
  -3   3 -42    7.45    1.29 
  -3   0  42    9.65    2.26 
  -3   0 -42    6.03    1.35 
   0  -3 -42    7.96    1.31 
   3  -3  42    6.27    1.44 
   3  -3  42    7.62    1.35 
   0  -3 -42    6.75    1.17 
  -3   3  42    7.80    1.41 
   3  -3 -42    8.06    1.80 
   3  -3 -42    8.83    1.63 
   3   0  42    5.69    1.14 
   0  -3  42    6.39    1.32 
   0  -3  42    6.46    1.43 
  -3   0 -42    5.56    1.20 
  -3   0 -42    7.14    2.72 
  -3   0  42    5.47    1.50 
   0  -3 -42    5.84    1.02 
   0   3  42    5.27    1.70 
  -3   0  42    8.13    2.65 
   3   0 -42    6.77    1.16 
  -3   0  42    7.85    1.71 
   0   3 -42    7.54    1.53 
   3  -3  42    7.03    1.38 
  -2  -2  42    6.69    2.06 
   2  -4 -42    4.26    1.12 
   4  -2 -42   10.15    2.53 
   2  -4 -42    7.47    1.59 
   4  -2  42    5.46    1.11 
  -2   4 -42    4.61    1.60 
   2  -4  42    4.75    1.71 
   2   2 -42    9.96    1.97 
   2  -4  42    7.00    1.78 
  -4   2  42    5.88    1.12 
   4  -2 -42    8.32    1.13 
  -2  -2 -42    6.00    1.14 
  -4   2  42    5.77    1.66 
   2   2  42    7.26    1.84 
   2  -4  42    6.46    1.38 
  -2  -2  42    8.25    1.89 
   4  -2  42    5.96    1.75 
  -2  -2 -42    7.73    1.92 
   4  -2  42    7.44    1.32 
  -2  -2  42    8.94    2.26 
   2  -4 -42    8.07    1.53 
  -2   4  42    6.23    1.76 
  -4   2 -42    7.74    1.26 
  -5   4 -42    5.89    1.85 
   5  -1  42    3.80    1.73 
  -4   5  42    5.33    1.84 
   5  -1  42    3.91    1.76 
   4   1 -42    9.45    2.32 
   1  -5 -42    4.42    1.41 
   1   4 -42    6.27    1.96 
   1  -5  42    4.29    1.73 
   4   1  42    4.50    2.01 
  -5   4  42    4.01    1.71 
  -1  -4 -42    4.57    1.40 
   5  -1 -42    8.80    1.87 
  -4   5 -42    6.17    1.90 
   0  -1  43   13.21    1.80 
  -1   1  43   12.05    1.26 
   1   0  43   12.99    1.69 
   0   1 -43   11.69    1.14 
   0  -1  43   12.56    1.58 
   1  -1 -43   12.78    1.53 
   0  -1  43   13.74    1.31 
  -1   0 -43   13.44    1.16 
   1  -1 -43   11.55    1.79 
   1  -1 -43   13.76    1.73 
  -1   0 -43   12.92    1.49 
  -1   0 -43   13.65    1.56 
   0  -1  43   13.84    1.13 
   0  -1  43   13.17    1.61 
   1  -1 -43   13.05    1.13 
   1   0  43   11.82    1.35 
   2  -2  43   10.36    1.69 
  -2   0  43   11.17    1.85 
   2   0 -43   14.10    2.72 
   0  -2 -43   10.63    1.47 
  -2   0  43   12.00    2.08 
   2  -2  43   12.38    2.15 
   2  -2  43   10.52    1.28 
   2  -2  43   11.20    2.05 
   2  -2  43    8.69    1.46 
  -2   0  43   10.51    2.44 
   2   0 -43   10.19    1.18 
   0   2  43    9.13    1.40 
  -2   0  43   11.28    1.20 
  -2   0  43    9.76    1.18 
   0  -2 -43    9.71    1.35 
   2  -2  43    9.61    1.00 
  -2   2 -43    9.33    1.15 
  -2  -1 -43    9.67    1.52 
  -2  -1 -43    9.05    1.39 
  -1  -2  43   11.31    1.68 
  -1   3 -43   11.57    1.73 
   3  -2 -43   12.41    2.21 
   3  -2 -43    9.37    1.79 
   3  -1  43    9.68    1.90 
   3  -1  43    8.65    1.37 
  -1  -2  43   12.59    2.01 
  -2   3  43   11.57    1.93 
   3  -1  43    8.62    1.49 
   2  -3 -43   10.39    1.57 
   2   1  43    9.51    1.72 
  -3   1 -43    8.98    3.64 
   1  -3  43   12.03    1.88 
   2  -3 -43   11.27    1.80 
  -3   2  43    8.10    1.26 
   1  -3  43    8.50    1.51 
   1  -3  43   10.27    1.66 
   1   2 -43   11.69    1.73 
   1   2 -43   11.84    1.66 
  -3   1 -43   10.00    1.77 
  -3   1 -43   10.52    1.27 
   3   1 -43   11.60    2.05 
   3  -4  43    7.11    1.63 
   1   3  43    6.99    1.90 
  -4   1  43    8.88    3.03 
  -4   1  43   11.14    1.29 
  -4   3 -43    8.30    1.51 
   1  -4 -43    7.25    1.55 
   3  -4  43    7.68    1.71 
   1  -4 -43    9.50    1.87 
   4  -3  43    7.23    1.42 
  -1  -3 -43    8.09    1.55 
  -3  -1  43   11.06    2.98 
   4  -3  43    6.19    2.17 
  -1  -3 -43    6.39    1.63 
  -3   4 -43    8.60    1.88 
   4  -1 -43    8.14    1.30 
  -1   4  43    7.03    1.85 
  -4   4  43    6.75    1.81 
   4   0  43    5.12    1.90 
   0   4 -43    8.66    1.78 
   5  -2  43    4.64    1.41 
  -3   5  43    5.70    1.94 
  -2   5 -43    5.83    1.85 
   3   2  43    4.57    1.95 
  -5   3  43    5.15    1.60 
  -5   2 -43    4.66    1.24 
  -5   3  43    5.85    2.47 
  -1   0  44   27.26    2.52 
   1  -1  44   27.63    2.43 
  -1   1 -44   28.86    2.38 
  -1   0  44   28.02    1.91 
   0  -1 -44   28.07    2.02 
   0   1  44   26.23    2.00 
   1   0 -44   22.46    2.36 
   0  -1 -44   31.50    2.56 
   1   0 -44   26.65    1.82 
   0  -1 -44   23.98    2.21 
  -1   0  44   27.05    1.93 
  -1   0  44   26.13    2.30 
   0  -1 -44   27.07    2.40 
   1   0 -44   29.66    2.57 
  -1   1 -44   27.48    1.85 
   1  -1  44   28.67    2.04 
   1  -1  44   27.74    1.85 
   0  -2  44   23.30    2.21 
   2  -2 -44   28.85    2.70 
  -2   0 -44   25.91    1.82 
   0  -2  44   31.86    2.42 
   0  -2  44   24.75    2.43 
   0   2 -44   24.15    1.82 
  -2   0 -44   25.34    2.23 
   2   0  44   22.37    1.94 
   2  -2 -44   24.68    2.33 
  -2   0 -44   31.01    2.88 
  -2   2  44   25.21    1.91 
  -2   0 -44   23.95    2.31 
   1  -3 -44   22.33    2.19 
   1   2  44   23.76    2.69 
  -3   1  44   20.30    1.75 
  -3   2 -44   20.37    1.77 
   2  -3  44   20.86    2.27 
   2   1 -44   22.70    1.88 
   2  -3  44   26.22    2.47 
   1  -3 -44   19.93    2.03 
  -3   1  44   24.26    1.94 
   2  -3  44   17.50    2.09 
  -3   1  44   26.40    3.08 
   3  -2  44   21.73    2.42 
   3  -1 -44   26.16    3.04 
   3  -2  44   22.01    1.88 
  -1  -2 -44   21.59    2.00 
  -1   3  44   21.85    2.54 
  -2  -1  44   26.04    2.89 
  -1  -2 -44   20.58    2.00 
  -2  -1  44   21.74    2.33 
   3  -2  44   21.13    1.59 
   3  -1 -44   22.69    1.74 
   3  -2  44   26.64    4.29 
  -2   3 -44   22.32    2.01 
  -1   4 -44   17.49    2.31 
  -3   4  44   16.27    2.45 
   4  -1  44   18.74    2.12 
   4  -1  44   13.30    1.79 
   1  -4  44   15.94    2.89 
   1   3 -44   18.17    2.25 
   3   1  44   17.02    2.75 
  -4   3  44   18.32    2.18 
  -4   4 -44   16.63    2.48 
   0  -4 -44   12.61    1.94 
  -4   0  44   17.24    3.63 
   4   0 -44   19.01    2.30 
   2   3  44    8.76    2.02 
   2  -5 -44   11.03    2.04 
  -5   2  44   14.45    1.91 
  -5   3 -44   15.28    2.17 
  -3   5 -44   16.22    2.51 
   0   0  45    2.41    1.52 
   0   0 -45    1.88    0.69 
   0   0  45    1.26    1.05 
   0   0 -45    1.81    1.08 
   0   0  45    1.79    0.81 
   0   0 -45    2.34    1.07 
   1  -2 -45    2.10    0.91 
   1  -2 -45    1.97    1.14 
   2  -1  45    2.58    0.65 
   1  -2  45    2.58    1.04 
  -2   1 -45    2.29    1.05 
  -2   1 -45    2.10    0.77 
   2  -1  45    1.98    1.16 
   1   1 -45    3.21    0.89 
   1   1  45    1.75    0.90 
  -1  -1  45    2.94    1.10 
  -1   2  45    2.33    0.92 
  -1  -1 -45    2.07    0.96 
  -2   1  45    1.56    1.38 
  -1  -1  45    2.09    1.29 
   2  -1 -45    2.13    2.49 
   2  -1  45    2.51    0.87 
   2  -1  45    1.95    1.23 
   2  -1 -45    2.45    0.79 
   1  -2  45    1.95    1.14 
   2  -1 -45    1.70    1.35 
   1  -2  45    1.60    1.49 
  -1   2 -45    1.74    0.74 
   1  -2  45    2.23    1.04 
   1  -2 -45    1.51    1.50 
  -2   1  45    2.25    0.83 
  -1  -1 -45    2.36    0.95 
  -2   1 -45    2.28    1.31 
   1   1 -45    1.70    0.78 
   3  -3  45    2.17    1.66 
   3  -3 -45    1.60    1.69 
  -3   0  45    1.97    2.68 
   0   3  45    2.23    1.81 
   3  -3  45    2.31    1.17 
  -3   0  45    3.19    2.43 
   0  -3 -45    2.26    0.99 
  -3   0 -45    0.77    1.44 
   3   0  45    2.40    1.26 
   0  -3  45    3.25    1.36 
   0   3 -45    2.08    1.54 
   3   0 -45    3.76    1.21 
  -3   3  45    2.42    1.45 
  -3   3 -45    2.66    1.22 
  -2   4 -45    0.65    1.56 
   4  -2  45    2.56    1.01 
   2   2  45    0.75    1.76 
   2  -4  45    0.95    2.61 
   2   2 -45    2.12    2.01 
  -2   4  45    2.89    1.73 
  -4   2  45    2.06    1.65 
  -4   2  45    1.26    1.17 
  -4   2 -45    2.57    1.07 
   0  -1  46   22.85    1.79 
   0   1 -46   20.56    1.63 
  -1   0 -46   22.71    2.18 
  -1   1  46   20.19    1.77 
   1  -1 -46   22.26    2.38 
   1  -1 -46   22.67    2.15 
   0  -1  46   19.56    2.31 
  -1   0 -46   23.16    1.64 
   0  -1  46   19.33    2.09 
   1  -1 -46   23.69    1.63 
   1   0  46   21.41    1.85 
   0  -1  46   22.66    1.61 
  -2   0  46   22.43    2.78 
   2   0 -46   22.83    1.72 
   2   0 -46   22.40    1.73 
   2  -2  46   24.09    3.81 
   0   2  46   22.62    2.42 
  -2   0  46   22.07    1.76 
   0  -2 -46   23.07    2.20 
  -2   2 -46   20.17    1.70 
   2  -2  46   19.93    2.43 
   0  -2 -46   18.51    2.00 
   2  -2  46   19.72    2.23 
  -2   0  46   22.17    1.75 
  -1   3 -46   18.96    2.21 
  -1  -2  46   18.89    2.49 
  -2  -1 -46   17.68    2.06 
  -2   3  46   19.97    2.44 
   3  -2 -46   19.65    3.26 
   3  -1  46   15.01    1.90 
   3  -1  46   15.17    1.77 
   1  -3  46   20.50    2.59 
   2   1  46   18.44    2.33 
   2  -3 -46   18.85    2.31 
  -3   1 -46   16.56    1.61 
  -3   2  46   16.84    1.73 
   1  -3  46   18.80    2.28 
  -3   1 -46   16.38    2.46 
  -3   1 -46   17.00    4.46 
   1   2 -46   19.37    2.10 
  -4   1  46   14.35    1.72 
   3   1 -46   16.99    2.44 
   1   3  46   10.64    2.14 
  -4   3 -46   15.87    2.24 
  -1   4  46   10.89    2.16 
   4  -1 -46   16.75    1.91 
  -3   4 -46   15.17    2.37 
   4   0  46    9.95    2.10 
   0   4 -46   14.17    2.35 
  -4   4  46    9.88    1.82 
  -1   0  47   11.09    1.95 
   1  -1  47   12.50    3.07 
  -1   0  47   10.26    1.18 
   0   1  47    8.15    1.37 
   1  -1  47   11.58    1.86 
  -1   0  47    9.27    1.30 
   1  -1  47   10.18    1.35 
  -1   1 -47    9.81    1.79 
   1   0 -47    9.66    1.17 
   0  -1 -47   10.74    1.84 
   0  -1 -47    8.45    1.47 
  -1   1 -47    8.88    1.72 
   1   0 -47    7.53    1.40 
  -1   1 -47    9.21    1.17 
   1   0 -47   12.08    2.05 
   1  -1  47    9.45    1.10 
   0  -2  47    6.54    1.51 
  -2   0 -47    7.09    1.54 
   2  -2 -47    6.59    1.52 
  -2   0 -47    6.55    1.42 
   0  -2  47    7.38    1.65 
   2   0  47    5.14    1.11 
   0  -2  47   10.73    2.50 
   2  -2 -47    9.54    2.03 
   0   2 -47    7.19    1.29 
  -2   2  47    6.87    1.20 
  -3   1  47    6.29    1.12 
  -3   1  47    7.17    2.71 
   1   2  47    6.81    1.97 
  -3   2 -47    6.07    1.59 
  -3   2 -47    7.38    1.27 
   1  -3 -47    7.93    1.58 
   2   1 -47   10.40    1.75 
   2  -3  47    6.66    1.82 
   2   1 -47    8.73    1.53 
   2  -3  47    7.67    1.96 
   3  -1 -47    8.09    2.69 
   3  -1 -47    7.61    1.24 
   3  -2  47    6.26    1.92 
   3  -1 -47    8.42    1.28 
   3  -2  47    6.64    1.22 
  -1  -2 -47    6.44    1.46 
  -2  -1  47   11.09    2.83 
  -2   3 -47    6.91    1.52 
  -1   3  47    7.00    1.92 
  -3   4  47    6.39    1.85 
  -1   4 -47    3.15    1.64 
   4  -1  47    4.80    1.63 
   1   3 -47    7.45    1.79 
  -4   3  47    4.92    1.56 
   3   1  47    5.07    1.95 
   4   0 -47    5.91    1.96 
   4   0 -47    4.13    2.04 
   0   4  47    2.78    2.15 
  -4   4 -47    5.25    1.85 
   0   0  48    5.71    1.52 
   0   0  48    6.25    1.43 
   0   0  48    6.13    1.10 
   0   0 -48    7.17    1.10 
   0   0 -48    7.27    1.59 
   0   0 -48    5.97    3.12 
  -1  -1 -48    4.57    1.42 
   2  -1 -48    4.87    1.00 
  -2   1  48    3.96    1.01 
   1   1  48    4.13    1.35 
   2  -1 -48    5.70    1.90 
  -1  -1 -48    3.49    1.22 
  -1   2 -48    4.47    1.04 
  -2   1  48    4.51    1.66 
   1  -2  48    3.54    1.63 
  -1  -1  48    5.66    1.94 
  -1  -1  48    3.24    1.36 
  -1   2  48    4.49    1.43 
   1  -2 -48    4.80    1.40 
   1   1 -48    3.59    0.98 
   2  -1  48    3.64    1.02 
   1  -2  48    4.23    2.83 
   1  -2 -48    5.74    1.55 
  -2   1 -48    5.37    1.52 
  -2   1 -48    4.06    0.97 
   2  -1  48    4.49    0.92 
   2  -1  48    3.40    1.49 
   1  -2  48    4.51    1.45 
   1  -2  48    3.46    1.49 
   3   0  48    3.25    1.66 
  -3   3 -48    2.71    1.52 
  -3   3  48    2.46    1.61 
   3   0 -48    2.78    1.57 
   0   3 -48    4.29    1.69 
  -3   0 -48    3.30    4.09 
   0   3  48    2.28    1.92 
   3   0 -48    5.40    1.68 
   2   2 -48    3.59    1.69 
  -4   2  48    3.45    1.45 
   2   2  48    3.07    1.91 
   2   2 -48    5.28    2.12 
  -2   4 -48    4.38    1.73 
  -2   4  48    2.69    1.84 
  -4   2 -48    2.56    1.29 
   4  -2  48    2.59    1.27 
   0  -1  49   20.13    2.59 
   1  -1 -49   23.50    2.78 
   1  -1 -49   27.01    3.96 
   0  -1  49   21.93    1.88 
   1  -1 -49   23.84    4.31 
   0  -1  49   21.94    1.71 
  -1   0 -49   22.87    2.64 
  -1   1  49   20.52    1.92 
  -1   0 -49   22.76    1.74 
   1   0  49   18.78    1.91 
   1   0  49   20.80    3.35 
   0   1 -49   21.86    1.75 
   0  -1  49   26.15    3.88 
  -1   0 -49   21.59    4.62 
   1  -1 -49   21.73    1.88 
  -2   2 -49   18.20    1.81 
  -2   0  49   20.43    3.77 
  -2   0  49   17.24    1.67 
   2   0 -49   16.55    1.67 
   0  -2 -49   18.02    2.29 
   2  -2  49   18.22    2.84 
   0   2  49   18.88    2.67 
  -2   0  49   18.63    3.28 
  -2   3  49   16.97    2.66 
  -1   3 -49   16.97    2.21 
   3  -1  49   15.09    2.01 
   1   2 -49   16.97    2.23 
  -3   1 -49   16.76    1.61 
   2   1  49   15.45    2.55 
  -3   2  49   18.19    2.08 
  -4   3 -49   13.19    2.21 
   1   3  49    8.34    2.05 
   3   1 -49   13.87    2.26 
   3   1 -49   14.67    2.43 
  -4   3 -49   11.03    2.34 
  -3   4 -49   10.21    1.98 
  -1   4  49   11.15    2.23 
   4  -1 -49   13.35    1.95 
   4  -1 -49   13.58    1.93 
   1   0 -50    1.85    0.89 
  -1   1 -50    1.07    1.32 
  -1   0  50    1.16    0.93 
   1  -1  50    0.98    0.91 
   1  -1  50    0.89    1.07 
   0  -1 -50    1.22    1.58 
   1   0 -50    1.70    1.96 
   0  -1 -50    0.80    3.19 
  -1   1 -50    1.67    0.88 
   1  -1  50    1.53    1.59 
   0  -1 -50    1.05    1.39 
  -1   0  50    0.34    1.72 
  -1   0  50    1.46    1.38 
   0   1  50    0.97    1.08 
   2  -2 -50    1.62    3.62 
  -2   0 -50    2.43    3.94 
   0   2 -50    1.68    1.41 
  -2   2  50    1.65    1.42 
   2   0  50    0.91    1.26 
   0  -2  50    2.23    2.93 
   1   2  50    1.75    1.86 
  -3   2 -50    1.18    1.35 
  -3   1  50    1.48    1.20 
   2   1 -50    1.11    1.52 
  -2   3 -50    1.09    1.57 
   3  -1 -50    1.73    1.20 
  -1   3  50    1.56    1.88 
   3   1  50    1.52    1.87 
   0   0  51   10.55    1.53 
   0   0 -51   10.79    2.14 
   0   0 -51   11.49    1.32 
  -2   1 -51    9.61    1.47 
   1   1 -51   10.79    1.77 
   1  -2 -51   10.17    3.72 
  -2   1  51    9.55    1.53 
  -1   2 -51   10.90    1.82 
  -1   2  51   10.03    1.93 
   2  -1  51    9.32    1.62 
   2  -1 -51   11.69    1.36 
   1   1  51    8.34    1.84 
   1  -2  51   11.48    2.66 
   0   3 -51    9.56    1.92 
  -3   3  51    7.21    1.80 
  -3   3 -51    7.18    1.85 
  -3   0 -51    7.42    4.59 
   3   0 -51    9.09    1.74 
   0   3  51    7.71    2.07 
   3   0  51    6.79    1.90 
   0   1 -52    6.91    1.37 
   1   0  52    5.79    1.57 
  -1   1  52    6.44    1.45 
  -1   1  52    5.50    1.64 
   0   1 -52    5.60    1.52 
   1   0  52    5.89    1.36 
  -2   2 -52    6.84    1.61 
   2  -2  52    8.92    4.21 
   2   0 -52    8.70    1.56 
  -2   2 -52    4.47    2.06 
   0   2  52    5.94    1.98 
  -1   3 -52    5.33    1.68 
   3  -1  52    5.03    1.61 
  -2   3  52    6.08    1.94 
   1   2 -52    5.16    1.71 
   2   1  52    5.00    1.87 
  -3   2  52    4.63    1.62 
  -3   2  52    5.07    2.16 
   1   0 -53    2.44    1.24 
  -1   0  53    1.92    1.12 
  -1   1 -53    1.57    1.19 
   0   1  53    1.17    1.54 
   1  -1  53    0.81    0.98 
   0  -1 -53    0.04    3.84 
   2   0  53    1.51    1.60 
  -2   2  53   -0.55    1.68 
   0   2 -53    1.88    1.68 
   2   0  53    0.73    1.93 
   1   2  53    0.57    1.90 
   2   1 -53    0.68    1.59 
  -3   1  53    1.50    1.47 
  -3   2 -53    1.20    1.52 
  -2   3 -53    0.78    1.67 
   3  -1 -53    2.20    2.01 
  -1   3  53    0.44    1.99 
   0   0 -54   16.84    1.66 
   0   0  54   13.15    2.02 
  -2   1 -54   10.70    1.80 
  -1   2  54    7.14    2.00 
   1   1 -54    7.51    1.94 
   2  -1  54    7.44    1.59 
  -2   1  54   12.74    2.08 
   1   1  54    9.20    1.96 
   1   0  55    1.05    1.49 
   0   1 -55    1.42    1.47 
  -1   1  55    1.73    1.61 
  -2   2 -55    3.39    1.64 
   2   0 -55    3.53    1.60 
   0   2  55    1.15    1.92 
  -1   0  56    1.90    1.49 
  -1   1 -56    3.88    1.49 
   0   1  56    3.47    1.86 
   0   1  56    2.46    2.12 
   1   0 -56    4.77    1.52 
   0   0  57    4.02    1.53 
   0   0   0    0.00    0.00 
;
_shelx_hkl_checksum              20683
loop_
_space_group_symop_operation_xyz
'x, y, z'
'-y, x-y, z'
'-x+y, -x, z'
'y, x, -z'
'-x, -x+y, -z'
'x-y, -y, -z'
'x+2/3, y+1/3, z+1/3'
'-y+2/3, x-y+1/3, z+1/3'
'-x+y+2/3, -x+1/3, z+1/3'
'y+2/3, x+1/3, -z+1/3'
'-x+2/3, -x+y+1/3, -z+1/3'
'x-y+2/3, -y+1/3, -z+1/3'
'x+1/3, y+2/3, z+2/3'
'-y+1/3, x-y+2/3, z+2/3'
'-x+y+1/3, -x+2/3, z+2/3'
'y+1/3, x+2/3, -z+2/3'
'-x+1/3, -x+y+2/3, -z+2/3'
'x-y+1/3, -y+2/3, -z+2/3'
'-x, -y, -z'
'y, -x+y, -z'
'x-y, x, -z'
'-y, -x, z'
'x, x-y, z'
'-x+y, y, z'
'-x+2/3, -y+1/3, -z+1/3'
'y+2/3, -x+y+1/3, -z+1/3'
'x-y+2/3, x+1/3, -z+1/3'
'-y+2/3, -x+1/3, z+1/3'
'x+2/3, x-y+1/3, z+1/3'
'-x+y+2/3, y+1/3, z+1/3'
'-x+1/3, -y+2/3, -z+2/3'
'y+1/3, -x+y+2/3, -z+2/3'
'x-y+1/3, x+2/3, -z+2/3'
'-y+1/3, -x+2/3, z+2/3'
'x+1/3, x-y+2/3, z+2/3'
'-x+y+1/3, y+2/3, z+2/3'
loop_
_atom_site_label
_atom_site_type_symbol
_atom_site_fract_x
_atom_site_fract_y
_atom_site_fract_z
_atom_site_U_iso_or_equiv
_atom_site_adp_type
_atom_site_occupancy
_atom_site_site_symmetry_order
_atom_site_calc_flag
_atom_site_refinement_flags_posn
_atom_site_refinement_flags_adp
_atom_site_refinement_flags_occupancy
_atom_site_disorder_assembly
_atom_site_disorder_group
In1 In 0.0000 0.0000 0.0000 0.0070(6) Uani 0.3332 12 d S T P A 4
Sn1 Sn 0.0000 0.0000 0.0000 0.0070(6) Uani 0.6667 12 d S T P A 4
S1 S 0.3333 0.6667 0.05544(11) 0.0085(8) Uani 1 6 d S T P A 4
K1 K -0.1667 0.6667 0.1667 0.020(7) Uani 0.06 4 d S TU P B 1
K2 K 0.0000 0.0000 0.1660(15) 0.027(7) Uani 0.0767 6 d S TU P C 2
loop_
_atom_site_aniso_label
_atom_site_aniso_U_11
_atom_site_aniso_U_22
_atom_site_aniso_U_33
_atom_site_aniso_U_23
_atom_site_aniso_U_13
_atom_site_aniso_U_12
In1 0.0021(6) 0.0021(6) 0.0167(8) 0.000 0.000 0.0011(3)
Sn1 0.0021(6) 0.0021(6) 0.0167(8) 0.000 0.000 0.0011(3)
S1 0.0060(10) 0.0060(10) 0.0134(13) 0.000 0.000 0.0030(5)
K1 0.025(10) 0.032(10) 0.006(8) -0.003(8) -0.001(4) 0.016(5)
K2 0.033(8) 0.033(8) 0.014(9) 0.000 0.000 0.017(4)
loop_
_atom_type_symbol
_atom_type_description
_atom_type_scat_dispersion_real
_atom_type_scat_dispersion_imag
_atom_type_scat_source
In In -0.7276 1.3100 'International Tables Vol C Tables 4.2.6.8 and 6.1.1.4'
K K 0.2009 0.2494 'International Tables Vol C Tables 4.2.6.8 and 6.1.1.4'
S S 0.1246 0.1234 'International Tables Vol C Tables 4.2.6.8 and 6.1.1.4'
Sn Sn -0.6537 1.4246 'International Tables Vol C Tables 4.2.6.8 and 6.1.1.4'
loop_
_geom_angle_atom_site_label_1
_geom_angle_atom_site_label_2
_geom_angle_atom_site_label_3
_geom_angle
_geom_angle_site_symmetry_1
_geom_angle_site_symmetry_3
S1 In1 S1 91.38(8) 19 19_665
S1 In1 S1 88.62(8) 19 1_445
S1 In1 S1 180.00(11) 19_665 1_445
S1 In1 S1 88.62(8) 19 1_545
S1 In1 S1 88.62(8) 19_665 1_545
S1 In1 S1 91.38(8) 1_445 1_545
S1 In1 S1 91.38(8) 19 19_565
S1 In1 S1 91.38(8) 19_665 19_565
S1 In1 S1 88.62(8) 1_445 19_565
S1 In1 S1 180.00(11) 1_545 19_565
S1 In1 S1 180.0 19 .
S1 In1 S1 88.62(8) 19_665 .
S1 In1 S1 91.38(8) 1_445 .
S1 In1 S1 91.38(8) 1_545 .
S1 In1 S1 88.62(8) 19_565 .
Sn1 S1 In1 0.0 1_565 1_565
Sn1 S1 In1 91.4 1_565 .
In1 S1 In1 91.38(8) 1_565 .
Sn1 S1 Sn1 91.38(8) 1_565 1_665
In1 S1 Sn1 91.38(8) 1_565 1_665
In1 S1 Sn1 91.4 . 1_665
Sn1 S1 In1 91.4 1_565 1_665
In1 S1 In1 91.38(8) 1_565 1_665
In1 S1 In1 91.38(8) . 1_665
Sn1 S1 In1 0.0 1_665 1_665
K1 K1 K1 60.0 2_565 3_455
K1 K1 K1 120.0 2_565 3_465
K1 K1 K1 180.0 3_455 3_465
K1 K1 K1 180.0 2_565 2_675
K1 K1 K1 120.0 3_455 2_675
K1 K1 K1 60.0 3_465 2_675
K1 K1 K1 150.0 2_565 3_565
K1 K1 K1 90.0 3_455 3_565
K1 K1 K1 90.0 3_465 3_565
K1 K1 K1 30.0 2_675 3_565
K1 K1 K1 90.0 2_565 2_665
K1 K1 K1 30.0 3_455 2_665
K1 K1 K1 150.0 3_465 2_665
K1 K1 K1 90.0 2_675 2_665
K1 K1 K1 60.0 3_565 2_665
K1 K1 K1 90.0 2_565 2_575
K1 K1 K1 150.0 3_455 2_575
K1 K1 K1 30.0 3_465 2_575
K1 K1 K1 90.0 2_675 2_575
K1 K1 K1 120.0 3_565 2_575
K1 K1 K1 180.0 2_665 2_575
K1 K1 K1 30.0 2_565 3_355
K1 K1 K1 90.0 3_455 3_355
K1 K1 K1 90.0 3_465 3_355
K1 K1 K1 150.0 2_675 3_355
K1 K1 K1 180.0 3_565 3_355
K1 K1 K1 120.0 2_665 3_355
K1 K1 K1 60.0 2_575 3_355
K1 K1 K1 120.0 2_565 1_565
K1 K1 K1 180.0 3_455 1_565
K1 K1 K1 0.0 3_465 1_565
K1 K1 K1 60.0 2_675 1_565
K1 K1 K1 90.0 3_565 1_565
K1 K1 K1 150.0 2_665 1_565
K1 K1 K1 30.0 2_575 1_565
K1 K1 K1 90.0 3_355 1_565
K1 K1 K1 60.0 2_565 1_455
K1 K1 K1 120.0 3_455 1_455
K1 K1 K1 60.0 3_465 1_455
K1 K1 K1 120.0 2_675 1_455
K1 K1 K1 150.0 3_565 1_455
K1 K1 K1 150.0 2_665 1_455
K1 K1 K1 30.0 2_575 1_455
K1 K1 K1 30.0 3_355 1_455
K1 K1 K1 60.0 1_565 1_455
K1 K1 K1 0.0 2_565 1_445
K1 K1 K1 60.0 3_455 1_445
K1 K1 K1 120.0 3_465 1_445
K1 K1 K1 180.0 2_675 1_445
K1 K1 K1 150.0 3_565 1_445
K1 K1 K1 90.0 2_665 1_445
K1 K1 K1 90.0 2_575 1_445
K1 K1 K1 30.0 3_355 1_445
K1 K1 K1 120.0 1_565 1_445
K1 K1 K1 60.0 1_455 1_445
K1 K1 K1 180.0 2_565 1_665
K1 K1 K1 120.0 3_455 1_665
K1 K1 K1 60.0 3_465 1_665
K1 K1 K1 0.0 2_675 1_665
K1 K1 K1 30.0 3_565 1_665
K1 K1 K1 90.0 2_665 1_665
K1 K1 K1 90.0 2_575 1_665
K1 K1 K1 150.0 3_355 1_665
K1 K1 K1 60.0 1_565 1_665
K1 K1 K1 120.0 1_455 1_665
K1 K1 K1 180.0 1_445 1_665
K2 K2 K2 119.98(12) 25 25_445
K2 K2 K2 119.98(12) 25 25_455
K2 K2 K2 119.98(12) 25_445 25_455
K2 K2 K2 149.99(7) 25 1_445
K2 K2 K2 30.01(6) 25_445 1_445
K2 K2 K2 90.000(1) 25_455 1_445
K2 K2 K2 30.01(6) 25 1_665
K2 K2 K2 149.99(7) 25_445 1_665
K2 K2 K2 90.000(2) 25_455 1_665
K2 K2 K2 180.0 1_445 1_665
K2 K2 K2 30.01(6) 25 1_655
K2 K2 K2 90.000(2) 25_445 1_655
K2 K2 K2 149.99(7) 25_455 1_655
K2 K2 K2 120.000(2) 1_445 1_655
K2 K2 K2 60.000(1) 1_665 1_655
K2 K2 K2 90.000(1) 25 1_565
K2 K2 K2 149.99(7) 25_445 1_565
K2 K2 K2 30.01(6) 25_455 1_565
K2 K2 K2 120.000(2) 1_445 1_565
K2 K2 K2 60.0 1_665 1_565
K2 K2 K2 120.000(4) 1_655 1_565
K2 K2 K2 149.99(7) 25 1_455
K2 K2 K2 90.0 25_445 1_455
K2 K2 K2 30.01(6) 25_455 1_455
K2 K2 K2 60.0 1_445 1_455
K2 K2 K2 120.000(3) 1_665 1_455
K2 K2 K2 180.0 1_655 1_455
K2 K2 K2 60.000(1) 1_565 1_455
K2 K2 K2 90.000(1) 25 1_545
K2 K2 K2 30.01(6) 25_445 1_545
K2 K2 K2 149.99(6) 25_455 1_545
K2 K2 K2 60.000(1) 1_445 1_545
K2 K2 K2 120.000(3) 1_665 1_545
K2 K2 K2 60.0 1_655 1_545
K2 K2 K2 180.0 1_565 1_545
K2 K2 K2 120.000(1) 1_455 1_545
K2 K2 K2 59.997(14) 25 25_545
K2 K2 K2 59.997(14) 25_445 25_545
K2 K2 K2 179(3) 25_455 25_545
K2 K2 K2 90.0 1_445 25_545
K2 K2 K2 90.000(2) 1_665 25_545
K2 K2 K2 30.003(16) 1_655 25_545
K2 K2 K2 149.997(18) 1_565 25_545
K2 K2 K2 149.997(18) 1_455 25_545
K2 K2 K2 30.003(15) 1_545 25_545
K2 K2 K2 59.997(15) 25 25_565
K2 K2 K2 179(3) 25_445 25_565
K2 K2 K2 59.997(17) 25_455 25_565
K2 K2 K2 149.997(17) 1_445 25_565
K2 K2 K2 30.003(16) 1_665 25_565
K2 K2 K2 90.000(2) 1_655 25_565
K2 K2 K2 30.003(14) 1_565 25_565
K2 K2 K2 90.0 1_455 25_565
K2 K2 K2 149.997(18) 1_545 25_565
K2 K2 K2 119.99(3) 25_545 25_565
K2 K2 K2 179(3) 25 25_345
K2 K2 K2 59.997(15) 25_445 25_345
K2 K2 K2 59.997(14) 25_455 25_345
K2 K2 K2 30.003(16) 1_445 25_345
K2 K2 K2 149.997(18) 1_665 25_345
K2 K2 K2 149.997(18) 1_655 25_345
K2 K2 K2 90.0 1_565 25_345
K2 K2 K2 30.003(17) 1_455 25_345
K2 K2 K2 90.0 1_545 25_345
K2 K2 K2 119.99(3) 25_545 25_345
K2 K2 K2 119.99(3) 25_565 25_345
loop_
_geom_bond_atom_site_label_1
_geom_bond_atom_site_label_2
_geom_bond_distance
_geom_bond_site_symmetry_2
In1 S1 2.5715(17) 19
In1 S1 2.5715(17) 19_665
In1 S1 2.5715(17) 1_445
In1 S1 2.5715(17) 1_545
In1 S1 2.5715(17) 19_565
In1 S1 2.5715(17) .
S1 Sn1 2.5715(17) 1_565
S1 In1 2.5715(17) 1_565
S1 Sn1 2.5715(17) 1_665
S1 In1 2.5715(17) 1_665
K1 K1 1.84014(5) 2_565
K1 K1 1.84015(5) 3_455
K1 K1 1.84015(5) 3_465
K1 K1 1.84016(5) 2_675
K1 K1 3.18722(8) 3_565
K1 K1 3.18723(8) 2_665
K1 K1 3.18724(8) 2_575
K1 K1 3.18725(8) 3_355
K1 K1 3.68029(10) 1_565
K1 K1 3.68029(10) 1_455
K1 K1 3.68030(10) 1_445
K1 K1 3.68030(10) 1_665
K2 K2 2.1251(14) 25
K2 K2 2.1251(13) 25_445
K2 K2 2.1251(13) 25_455
K2 K2 3.68030(10) 1_445
K2 K2 3.68030(15) 1_665
K2 K2 3.68030(10) 1_655
K2 K2 3.68030(11) 1_565
K2 K2 3.68030(10) 1_455
K2 K2 3.68030(11) 1_545
K2 K2 4.2498(7) 25_545
K2 K2 4.2498(7) 25_565
K2 K2 4.2498(7) 25_345
