#------------------------------------------------------------------------------
#$Date: 2017-06-28 02:37:52 +0300 (Wed, 28 Jun 2017) $
#$Revision: 198170 $
#$URL: file:///home/coder/svn-repositories/cod/cif/4/12/62/4126237.cif $
#------------------------------------------------------------------------------
#
# This file is available in the Crystallography Open Database (COD),
# http://www.crystallography.net/
#
# All data on this site have been placed in the public domain by the
# contributors.
#
data_4126237
loop_
_publ_author_name
'Sessler, Chanan D.'
'Rahm, Martin'
'Becker, Sabine'
'Goldberg, Jacob M.'
'Wang, Fang'
'Lippard, Stephen J.'
_publ_section_title
;
 CF2H, a Hydrogen Bond Donor.
;
_journal_name_full               'Journal of the American Chemical Society'
_journal_paper_doi               10.1021/jacs.7b04457
_journal_year                    2017
_chemical_formula_sum            'C7 H5 F2 N O2'
_chemical_formula_weight         173.12
_chemical_name_common            1-CF2H
_space_group_crystal_system      monoclinic
_space_group_IT_number           14
_space_group_name_Hall           '-P 2ybc'
_space_group_name_H-M_alt        'P 1 21/c 1'
_symmetry_space_group_name_Hall  '-P 2ybc'
_symmetry_space_group_name_H-M   'P 1 21/c 1'
_atom_sites_solution_hydrogens   mixed
_atom_sites_solution_primary     direct
_atom_sites_solution_secondary   difmap
_audit_creation_method           SHELXL-2014/7
_cell_angle_alpha                90
_cell_angle_beta                 113.188(4)
_cell_angle_gamma                90
_cell_formula_units_Z            4
_cell_length_a                   8.007(2)
_cell_length_b                   12.905(3)
_cell_length_c                   7.3562(18)
_cell_measurement_reflns_used    4570
_cell_measurement_temperature    100(2)
_cell_measurement_theta_max      29.90
_cell_measurement_theta_min      2.77
_cell_volume                     698.7(3)
_computing_cell_refinement       'Bruker SMART'
_computing_data_collection       'Bruker SMART'
_computing_data_reduction        'Bruker SAINT'
_computing_molecular_graphics    'ShelXle (Huebschle, 2014)'
_computing_publication_material  ORTEP
_computing_structure_refinement  'SHELXL-2015 (Sheldrick, 2015)'
_computing_structure_solution    'SHELXT-2015 (Sheldrick, 2015)'
_diffrn_ambient_temperature      100(2)
_diffrn_measured_fraction_theta_full 1.000
_diffrn_measured_fraction_theta_max 1.000
_diffrn_measurement_device_type  'CCD area detector'
_diffrn_measurement_method       'phi and omega scans'
_diffrn_radiation_type           MoK\a
_diffrn_radiation_wavelength     0.71073
_diffrn_reflns_av_R_equivalents  0.0521
_diffrn_reflns_av_unetI/netI     0.0270
_diffrn_reflns_Laue_measured_fraction_full 1.000
_diffrn_reflns_Laue_measured_fraction_max 1.000
_diffrn_reflns_limit_h_max       10
_diffrn_reflns_limit_h_min       -10
_diffrn_reflns_limit_k_max       17
_diffrn_reflns_limit_k_min       -17
_diffrn_reflns_limit_l_max       9
_diffrn_reflns_limit_l_min       -9
_diffrn_reflns_number            12289
_diffrn_reflns_point_group_measured_fraction_full 1.000
_diffrn_reflns_point_group_measured_fraction_max 1.000
_diffrn_reflns_theta_full        25.242
_diffrn_reflns_theta_max         28.281
_diffrn_reflns_theta_min         2.768
_exptl_absorpt_coefficient_mu    0.155
_exptl_absorpt_correction_T_max  0.7461
_exptl_absorpt_correction_T_min  0.6422
_exptl_absorpt_correction_type   multi-scan
_exptl_absorpt_process_details   'Blessing, 1993'
_exptl_crystal_colour            colourless
_exptl_crystal_density_diffrn    1.646
_exptl_crystal_density_meas      ?
_exptl_crystal_density_method    'not measured'
_exptl_crystal_description       block
_exptl_crystal_F_000             352
_exptl_crystal_size_max          0.250
_exptl_crystal_size_mid          0.200
_exptl_crystal_size_min          0.070
_refine_diff_density_max         0.657
_refine_diff_density_min         -0.288
_refine_diff_density_rms         0.056
_refine_ls_extinction_method     none
_refine_ls_goodness_of_fit_ref   1.089
_refine_ls_hydrogen_treatment    mixed
_refine_ls_matrix_type           full
_refine_ls_number_parameters     112
_refine_ls_number_reflns         1728
_refine_ls_number_restraints     0
_refine_ls_restrained_S_all      1.089
_refine_ls_R_factor_all          0.0541
_refine_ls_R_factor_gt           0.0407
_refine_ls_shift/su_max          0.000
_refine_ls_shift/su_mean         0.000
_refine_ls_structure_factor_coef Fsqd
_refine_ls_weighting_details
'w=1/[\s^2^(Fo^2^)+(0.0687P)^2^+0.2063P] where P=(Fo^2^+2Fc^2^)/3'
_refine_ls_weighting_scheme      calc
_refine_ls_wR_factor_gt          0.1197
_refine_ls_wR_factor_ref         0.1279
_reflns_Friedel_coverage         0.000
_reflns_number_gt                1342
_reflns_number_total             1728
_reflns_threshold_expression     'I > 2\s(I)'
_cod_data_source_file            ja7b04457_si_002.cif
_cod_data_source_block           1-CF2H
_cod_depositor_comments
;
The following automatic conversions were performed:

'_exptl_crystal_density_meas' value 'not measured' was changed to '?'
- the value is perceived as not measured.

Automatic conversion script
Id: cif_fix_values 4973 2017-02-22 13:04:09Z antanas 
;
_cod_database_code               4126237
_shelx_shelxl_version_number     2014/7
_shelx_space_group_comment
;
The symmetry employed for this shelxl refinement is uniquely defined
by the following loop, which should always be used as a source of
symmetry information in preference to the above space-group names.
They are only intended as comments.
;
_shelx_estimated_absorpt_t_min   0.962
_shelx_estimated_absorpt_t_max   0.989
_shelx_res_file
;

    block-no-dis.res created by SHELXL-2014/7


TITL block_a.res in P2(1)/c
REM Old TITL block in P2(1)/c
REM SHELXT solution in P2(1)/c
REM R1 0.130,  Rweak 0.003,  Alpha 0.016,  Orientation as input
REM Formula found by SHELXT:  C8 N O2 F
CELL  0.71073   8.0067  12.9052   7.3562   90.000  113.188   90.000
ZERR    4.000   0.0020   0.0032   0.0018    0.000    0.004    0.000
LATT  1
SYMM -X, 1/2+Y, 1/2-Z
SFAC C H N O F
UNIT 28 20 4 8 8
TEMP -173.130
L.S. 10
BOND $H
LIST 4
ACTA
SIZE 0.25x0.2x0.07
FMAP 2
PLAN 5
WGHT    0.068700    0.206300
FVAR       0.38271
F1    5    0.397323    0.604491    0.153942    11.00000    0.02520    0.04122 =
         0.02889   -0.00601    0.00505   -0.00887
O1    4    0.873509    0.498165    0.287015    11.00000    0.04605    0.02289 =
         0.03074   -0.00220    0.01804    0.00875
N1    3    0.779447    0.545045    0.357146    11.00000    0.02798    0.02195 =
         0.02537    0.00127    0.00929   -0.00001
C1    1    0.632965    0.716969    0.342660    11.00000    0.01644    0.02527 =
         0.01380    0.00087    0.00601   -0.00002
F2    5    0.325336    0.741021    0.282894    11.00000    0.01956    0.05162 =
         0.05084   -0.00633    0.01499    0.00271
O2    4    0.690963    0.501948    0.438143    11.00000    0.03514    0.02645 =
         0.03549    0.00521    0.01321   -0.00763
C2    1    0.649699    0.824125    0.346765    11.00000    0.02175    0.02368 =
         0.01627    0.00142    0.00772    0.00558
AFIX  43
H2    2    0.549395    0.866151    0.338000    11.00000   -1.20000
AFIX   0
C3    1    0.811985    0.870518    0.363593    11.00000    0.02823    0.01839 =
         0.01713    0.00098    0.00643   -0.00100
AFIX  43
H3    2    0.822041    0.943907    0.367231    11.00000   -1.20000
AFIX   0
C4    1    0.958271    0.810558    0.375018    11.00000    0.01985    0.02596 =
         0.01772    0.00230    0.00632   -0.00468
AFIX  43
H4    2    1.068669    0.842683    0.386254    11.00000   -1.20000
AFIX   0
C5    1    0.944490    0.703679    0.370139    11.00000    0.01735    0.02493 =
         0.01680    0.00288    0.00708    0.00211
AFIX  43
H5    2    1.044502    0.661990    0.376716    11.00000   -1.20000
AFIX   0
C6    1    0.783942    0.658469    0.355626    11.00000    0.02048    0.01821 =
         0.01466    0.00135    0.00693    0.00056
C7    1    0.454090    0.668235    0.316831    11.00000    0.01706    0.03639 =
         0.02427   -0.00136    0.00707   -0.00234
H7    2    0.446319    0.622074    0.415524    11.00000   -1.20000
HKLF 4

REM  block_a.res in P2(1)/c
REM R1 =  0.0407 for    1342 Fo > 4sig(Fo)  and  0.0541 for all    1728 data
REM    112 parameters refined using      0 restraints

END

WGHT      0.0687      0.2063

REM Highest difference peak  0.657,  deepest hole -0.288,  1-sigma level  0.056
Q1    1   0.5795  0.5294  0.1481  11.00000  0.05    0.66
Q2    1   0.5522  0.6974  0.3417  11.00000  0.05    0.32
Q3    1   0.8565  0.6834  0.3591  11.00000  0.05    0.30
Q4    1   0.7084  0.6875  0.3489  11.00000  0.05    0.30
Q5    1   0.6394  0.7635  0.3394  11.00000  0.05    0.29
;
_shelx_res_checksum              28795
_shelx_hkl_file
;
   1   0   0   73.37    0.85
   1   0   0   75.74    0.89
   1   0   0   67.77    0.81
   1   0   0   54.83    0.69
  -1   0   0   70.81    0.89
  -1   0   0   64.64    0.78
  -1   0   0   70.13    0.79
   2   0   0  153.72    1.62
   2   0   0  151.90    1.69
   2   0   0  139.88    1.55
   2   0   0  124.53    1.38
  -2   0   0  150.53    1.76
  -2   0   0  144.32    1.57
  -2   0   0  146.88    1.53
   3   0   0  201.55    2.26
   3   0   0  209.42    2.41
   3   0   0  188.86    2.18
   3   0   0  160.18    1.89
  -3   0   0  202.79    2.51
  -3   0   0  193.98    2.21
  -3   0   0  200.42    2.19
   4   0   0   94.22    1.82
   4   0   0  102.01    1.99
   4   0   0  102.24    1.89
   4   0   0   83.31    1.59
  -4   0   0   98.84    2.09
  -4   0   0   91.70    1.80
  -4   0   0   94.40    1.78
   5   0   0   15.77    0.94
   5   0   0   18.01    1.07
   5   0   0   15.72    0.97
  -5   0   0   17.22    1.11
  -5   0   0   18.91    1.01
  -5   0   0   15.64    0.91
   6   0   0   11.16    0.93
   6   0   0   10.94    1.04
   6   0   0   11.06    1.01
  -6   0   0   12.47    1.17
  -6   0   0   10.33    0.91
   7   0   0   41.53    1.73
   7   0   0   43.69    1.90
   7   0   0   39.89    1.71
  -7   0   0   43.75    2.03
  -7   0   0   39.83    1.67
   8   0   0   23.27    1.47
   8   0   0   20.74    1.54
   8   0   0   19.70    1.43
  -8   0   0   20.68    1.68
  -8   0   0   19.45    1.36
   9   0   0    4.56    0.89
   9   0   0    5.25    1.00
  -9   0   0    5.04    1.25
   1   1   0  173.94    1.45
   1   1   0  171.15    1.50
   1   1   0  184.79    1.53
   1   1   0  128.85    1.16
  -1   1   0  171.54    1.50
  -1   1   0  164.29    1.38
  -1   1   0  165.41    1.35
   1  -1   0  178.75    1.47
   1  -1   0  176.83    1.48
   1  -1   0  163.80    1.47
   1  -1   0  149.67    1.25
  -1  -1   0  171.60    1.45
  -1  -1   0  154.03    1.34
  -1  -1   0  167.87    1.38
   2   1   0  356.87    2.58
   2   1   0  381.05    2.82
   2   1   0  344.66    2.38
   2   1   0  305.57    2.25
  -2   1   0  369.40    2.85
  -2   1   0  357.92    2.54
  -2   1   0  353.59    2.47
   2  -1   0  388.69    2.68
   2  -1   0  372.83    2.70
   2  -1   0  361.79    2.73
   2  -1   0  325.89    2.29
  -2  -1   0  376.65    2.79
  -2  -1   0  351.81    2.54
  -2  -1   0  365.93    2.54
   3   1   0    5.95    0.60
   3   1   0    6.28    0.67
   3   1   0    5.42    0.59
   3   1   0    4.57    0.55
  -3   1   0    6.30    0.70
  -3   1   0    6.17    0.57
  -3   1   0    5.33    0.55
   3  -1   0    5.97    0.61
   3  -1   0    6.60    0.64
   3  -1   0    5.78    0.65
   3  -1   0    4.70    0.52
  -3  -1   0    6.11    0.63
  -3  -1   0    6.49    0.60
  -3  -1   0    6.11    0.58
   4   1   0    1.58    0.44
   4   1   0    1.61    0.48
   4   1   0    1.03    0.41
   4   1   0    1.04    0.34
  -4   1   0    1.73    0.54
  -4   1   0    1.65    0.43
  -4   1   0    1.78    0.45
   4  -1   0    1.25    0.43
   4  -1   0    1.40    0.46
   4  -1   0    1.64    0.46
   4  -1   0    0.74    0.34
  -4  -1   0    2.26    0.58
  -4  -1   0    1.37    0.43
  -4  -1   0    1.37    0.46
   5   1   0    7.06    0.73
   5   1   0    8.15    0.83
   5   1   0    7.86    0.76
  -5   1   0    7.13    0.84
  -5   1   0    6.62    0.69
  -5   1   0    6.59    0.67
   5  -1   0    8.64    0.78
   5  -1   0    7.18    0.80
   5  -1   0    6.47    0.78
  -5  -1   0    7.26    0.85
  -5  -1   0    7.38    0.78
  -5  -1   0    7.11    0.70
   6   1   0  159.33    2.93
   6   1   0  159.30    3.12
   6   1   0  148.09    2.72
  -6   1   0  158.90    3.29
  -6   1   0  149.65    2.80
   6  -1   0  159.71    2.93
   6  -1   0  156.29    3.04
   6  -1   0  141.85    2.84
  -6  -1   0  160.34    3.27
  -6  -1   0  143.38    2.75
   7   1   0   -0.48    0.56
   7   1   0    0.26    0.63
   7   1   0    0.10    0.52
  -7   1   0    0.04    0.76
  -7   1   0   -0.54    0.48
   7  -1   0   -0.19    0.59
   7  -1   0    0.08    0.59
   7  -1   0   -0.03    0.55
  -7  -1   0    0.30    0.74
  -7  -1   0   -0.41    0.51
   8   1   0    0.36    0.60
   8   1   0    0.48    0.69
  -8   1   0    0.24    0.83
  -8   1   0   -0.16    0.61
   8  -1   0    0.54    0.64
   8  -1   0    0.58    0.70
   8  -1   0    0.17    0.67
  -8  -1   0    0.52    0.84
  -8  -1   0   -0.05    0.58
   9   1   0    8.06    1.08
   9   1   0   10.57    1.23
  -9   1   0    8.06    1.44
   9  -1   0    8.53    1.03
   9  -1   0    9.97    1.16
  -9  -1   0    8.84    1.40
   0   2   0  123.31    1.15
   0   2   0  132.68    1.24
   0   2   0  121.84    1.24
   0   2   0  128.16    1.18
   0  -2   0  134.06    1.25
   0  -2   0  121.81    1.16
   0  -2   0  128.72    1.17
   1   2   0   39.48    0.70
   1   2   0   41.71    0.80
   1   2   0   40.19    0.85
   1   2   0   33.76    0.57
   1   2   0   32.30    0.68
  -1   2   0   41.63    0.81
  -1   2   0   39.89    0.76
  -1   2   0   40.35    0.78
  -1   2   0   34.81    0.70
   1  -2   0   41.69    0.78
   1  -2   0   42.03    0.79
   1  -2   0   39.12    0.85
   1  -2   0   37.92    0.70
  -1  -2   0   38.56    0.77
  -1  -2   0   37.75    0.60
  -1  -2   0   39.05    0.75
   2   2   0  170.11    1.85
   2   2   0  168.56    1.97
   2   2   0  157.70    1.49
   2   2   0  126.38    1.52
  -2   2   0  166.68    1.96
  -2   2   0  157.97    1.74
  -2   2   0  153.22    1.67
   2  -2   0  174.91    1.84
   2  -2   0  176.85    1.89
   2  -2   0  154.62    1.91
   2  -2   0  157.72    1.64
  -2  -2   0  173.99    1.87
  -2  -2   0  162.86    1.81
  -2  -2   0  168.93    1.79
   3   2   0  354.87    3.14
   3   2   0  348.99    3.32
   3   2   0  320.36    2.61
   3   2   0  271.09    2.58
  -3   2   0  341.86    3.36
  -3   2   0  344.10    3.03
  -3   2   0  314.38    2.83
   3  -2   0  359.06    3.11
   3  -2   0  352.34    3.16
   3  -2   0  327.58    3.22
   3  -2   0  290.81    2.60
  -3  -2   0  346.23    3.22
  -3  -2   0  332.92    3.03
  -3  -2   0  346.47    3.02
   4   2   0    0.56    0.37
   4   2   0   -0.02    0.38
   4   2   0    0.43    0.32
   4   2   0    0.06    0.28
  -4   2   0    0.81    0.48
  -4   2   0    0.28    0.32
  -4   2   0    0.67    0.35
   4  -2   0   -0.14    0.37
   4  -2   0    0.25    0.40
   4  -2   0    0.34    0.41
   4  -2   0    0.12    0.29
  -4  -2   0    0.56    0.47
  -4  -2   0    0.09    0.36
  -4  -2   0    0.03    0.37
   5   2   0    0.79    0.43
   5   2   0    0.84    0.48
   5   2   0    0.76    0.39
  -5   2   0    1.02    0.54
  -5   2   0    1.13    0.44
   5  -2   0    0.89    0.46
   5  -2   0    1.21    0.49
   5  -2   0    1.09    0.51
  -5  -2   0    1.42    0.58
  -5  -2   0    0.98    0.46
  -5  -2   0    0.73    0.48
   6   2   0   17.51    1.14
   6   2   0   18.97    1.28
   6   2   0   18.62    1.10
  -6   2   0   18.06    1.33
  -6   2   0   16.94    1.08
   6  -2   0   19.49    1.20
   6  -2   0   18.03    1.22
   6  -2   0   15.00    1.16
  -6  -2   0   17.24    1.29
  -6  -2   0   18.65    1.13
   7   2   0   39.33    1.71
   7   2   0   39.95    1.85
  -7   2   0   39.84    1.98
  -7   2   0   37.69    1.64
   7  -2   0   40.30    1.72
   7  -2   0   38.39    1.76
   7  -2   0   34.06    1.72
  -7  -2   0   40.31    1.94
  -7  -2   0   36.55    1.63
   8   2   0    5.60    0.96
   8   2   0    6.87    1.06
  -8   2   0    6.43    1.25
  -8   2   0    5.63    0.99
   8  -2   0    7.66    1.04
   8  -2   0    6.86    1.04
   8  -2   0    4.31    0.92
  -8  -2   0    5.49    1.16
  -8  -2   0    5.84    0.97
   9   2   0    0.84    0.62
   9   2   0    0.04    0.59
  -9   2   0   -0.36    0.88
   9  -2   0    0.15    0.57
   9  -2   0    0.11    0.63
   9  -2   0    0.01    0.69
  -9  -2   0   -0.55    0.82
   0   3   0    0.18    0.17
   0   3   0    0.13    0.20
   0   3   0    0.19    0.24
   0   3   0    0.10    0.20
   0  -3   0   -0.07    0.23
   0  -3   0    0.10    0.20
   0  -3   0    0.20    0.21
   1   3   0   67.57    0.95
   1   3   0   69.16    1.14
   1   3   0   66.33    1.20
   1   3   0   58.56    1.01
  -1   3   0   63.98    1.05
  -1   3   0   67.11    1.09
  -1   3   0   66.95    1.12
  -1   3   0   58.33    0.99
   1  -3   0   70.11    1.12
   1  -3   0   64.13    1.16
   1  -3   0   60.44    0.98
  -1  -3   0   64.72    1.09
  -1  -3   0   54.18    0.80
  -1  -3   0   66.03    1.06
   2   3   0   52.85    1.07
   2   3   0   55.13    1.17
   2   3   0   54.00    1.25
   2   3   0   45.91    0.82
   2   3   0   41.22    0.97
  -2   3   0   51.67    1.17
  -2   3   0   51.63    1.11
  -2   3   0   53.45    1.15
  -2   3   0   48.04    1.03
   2  -3   0   51.90    1.10
   2  -3   0   53.47    1.14
   2  -3   0   48.52    1.20
   2  -3   0   48.81    1.00
  -2  -3   0   54.85    1.11
  -2  -3   0   48.03    1.09
  -2  -3   0   50.27    1.10
   3   3   0  421.88    3.58
   3   3   0  414.51    3.81
   3   3   0  404.17    2.89
   3   3   0  318.77    2.93
  -3   3   0  403.27    3.75
  -3   3   0  409.84    3.44
  -3   3   0  399.09    3.31
   3  -3   0  419.16    3.49
   3  -3   0  432.67    3.63
   3  -3   0  428.78    3.89
   3  -3   0  373.14    3.05
  -3  -3   0  414.29    3.54
  -3  -3   0  397.20    3.47
  -3  -3   0  409.05    3.42
   4   3   0   -0.21    0.33
   4   3   0   -0.08    0.36
   4   3   0   -0.08    0.28
   4   3   0    0.16    0.30
  -4   3   0   -0.29    0.36
  -4   3   0    0.02    0.29
  -4   3   0   -0.02    0.32
   4  -3   0    0.09    0.37
   4  -3   0    0.19    0.39
   4  -3   0   -0.11    0.37
   4  -3   0    0.00    0.28
  -4  -3   0   -0.15    0.39
  -4  -3   0   -0.16    0.33
  -4  -3   0    0.04    0.37
   5   3   0    9.82    0.86
   5   3   0    9.31    0.93
   5   3   0    8.47    0.75
  -5   3   0    9.72    0.95
  -5   3   0    8.83    0.76
   5  -3   0    9.86    0.85
   5  -3   0    8.85    0.84
   5  -3   0    8.32    0.91
  -5  -3   0    8.46    0.91
  -5  -3   0    8.69    0.85
  -5  -3   0    8.58    0.79
   6   3   0   20.21    1.19
   6   3   0   21.61    1.36
   6   3   0   21.66    1.12
  -6   3   0   19.51    1.38
  -6   3   0   20.70    1.18
   6  -3   0   23.95    1.27
   6  -3   0   21.11    1.27
   6  -3   0   18.98    1.32
  -6  -3   0   20.52    1.35
  -6  -3   0   19.78    1.16
   7   3   0   28.43    1.51
   7   3   0   28.73    1.64
  -7   3   0   24.50    1.67
  -7   3   0   26.02    1.42
   7  -3   0   27.45    1.47
   7  -3   0   28.88    1.58
   7  -3   0   23.86    1.54
  -7  -3   0   28.34    1.68
  -7  -3   0   26.06    1.42
   8   3   0   27.68    1.58
   8   3   0   28.91    1.76
  -8   3   0   24.78    1.80
  -8   3   0   21.67    1.43
   8  -3   0   27.19    1.57
   8  -3   0   26.39    1.64
   8  -3   0   20.97    1.58
  -8  -3   0   24.08    1.73
   9   3   0   10.28    1.09
   9   3   0    9.02    1.21
  -9   3   0    9.32    1.48
   9  -3   0    7.70    1.05
   9  -3   0    8.29    1.12
   9  -3   0    5.36    1.06
  -9  -3   0    7.58    1.36
   0   4   0  129.98    1.39
   0   4   0  145.17    1.72
   0   4   0  136.45    1.76
   0   4   0  133.27    1.59
   0  -4   0  150.05    1.75
   0  -4   0  137.64    1.59
   0  -4   0  138.90    1.61
   1   4   0   47.59    0.87
   1   4   0   45.13    1.04
   1   4   0   46.34    1.14
   1   4   0   44.58    0.99
  -1   4   0   45.92    0.97
  -1   4   0   46.95    1.03
  -1   4   0   47.05    1.08
  -1   4   0   44.81    0.98
   1  -4   0   47.75    1.05
   1  -4   0   46.99    1.10
   1  -4   0   42.29    0.94
  -1  -4   0   46.58    1.05
  -1  -4   0   43.43    0.82
  -1  -4   0   45.23    1.00
   2   4   0  110.51    1.57
   2   4   0  108.97    1.75
   2   4   0  111.78    1.90
   2   4   0   92.77    1.21
   2   4   0   91.94    1.53
  -2   4   0  110.01    1.77
  -2   4   0  108.95    1.70
  -2   4   0  107.36    1.72
  -2   4   0   96.56    1.56
   2  -4   0  114.56    1.75
   2  -4   0  111.04    1.74
   2  -4   0  104.12    1.84
   2  -4   0   99.98    1.53
  -2  -4   0  111.07    1.61
  -2  -4   0  104.03    1.71
  -2  -4   0  104.86    1.66
   3   4   0  210.67    2.67
   3   4   0  205.46    2.84
   3   4   0  174.08    1.85
   3   4   0  165.42    2.24
  -3   4   0  209.54    2.80
  -3   4   0  199.83    2.53
  -3   4   0  204.17    2.61
  -3   4   0  191.39    2.41
   3  -4   0  203.04    2.55
   3  -4   0  206.91    2.62
   3  -4   0  216.59    2.93
   3  -4   0  180.61    2.23
  -3  -4   0  210.70    2.55
  -3  -4   0  188.11    2.52
  -3  -4   0  204.98    2.56
   4   4   0   19.31    0.99
   4   4   0   20.16    1.11
   4   4   0   21.87    0.84
   4   4   0   13.57    0.83
  -4   4   0   18.89    1.07
  -4   4   0   18.76    0.99
  -4   4   0   16.89    0.90
   4  -4   0   20.28    1.00
   4  -4   0   18.46    0.99
   4  -4   0   18.57    1.08
  -4  -4   0   19.61    1.04
  -4  -4   0   18.50    0.99
  -4  -4   0   18.85    0.98
   5   4   0  195.86    3.12
   5   4   0  203.73    3.43
   5   4   0  180.54    2.44
  -5   4   0  201.12    3.46
  -5   4   0  163.43    2.75
   5  -4   0  209.46    3.15
   5  -4   0  195.23    3.12
   5  -4   0  184.50    3.28
  -5  -4   0  195.26    3.18
  -5  -4   0  187.80    3.00
   6   4   0   38.13    1.59
   6   4   0   36.15    1.71
  -6   4   0   35.93    1.75
  -6   4   0   33.94    1.48
   6  -4   0   38.99    1.59
   6  -4   0   35.76    1.58
   6  -4   0   34.75    1.71
  -6  -4   0   36.55    1.69
  -6  -4   0   34.96    1.51
   7   4   0    0.43    0.62
   7   4   0    0.67    0.70
  -7   4   0    1.60    0.79
  -7   4   0    0.17    0.53
   7  -4   0    0.66    0.60
   7  -4   0    0.37    0.62
   7  -4   0   -0.03    0.67
  -7  -4   0    0.47    0.74
  -7  -4   0    0.46    0.59
   8   4   0    0.37    0.60
   8   4   0   -0.44    0.65
  -8   4   0    0.06    0.67
  -8   4   0   -0.11    0.60
   8  -4   0   -0.27    0.58
   8  -4   0    0.62    0.66
   8  -4   0    0.08    0.72
  -8  -4   0    0.64    0.84
   9   4   0    3.32    0.82
   9   4   0    2.94    0.84
  -9   4   0    4.34    1.09
   9  -4   0    3.94    0.85
   9  -4   0    4.48    0.88
   9  -4   0    2.16    0.94
  -9  -4   0    2.73    0.98
   0   5   0   -0.07    0.20
   0   5   0   -0.21    0.23
   0   5   0    0.03    0.30
   0   5   0    0.01    0.25
   0  -5   0   -0.23    0.29
   0  -5   0   -0.16    0.25
   0  -5   0    0.27    0.29
   1   5   0   66.36    1.12
   1   5   0   66.56    1.42
   1   5   0   60.23    1.45
   1   5   0   58.71    1.27
  -1   5   0   64.33    1.25
  -1   5   0   63.71    1.34
  -1   5   0   66.90    1.44
  -1   5   0   65.29    1.32
   1  -5   0   66.80    1.39
   1  -5   0   62.27    1.40
   1  -5   0   58.23    1.22
  -1  -5   0   62.76    1.36
  -1  -5   0   57.42    1.07
  -1  -5   0   61.85    1.29
   2   5   0    1.03    0.37
   2   5   0    0.94    0.43
   2   5   0    1.08    0.47
   2   5   0    0.70    0.29
   2   5   0    0.81    0.39
  -2   5   0    1.35    0.46
  -2   5   0    0.71    0.37
  -2   5   0    1.00    0.43
  -2   5   0    0.81    0.36
   2  -5   0    1.21    0.48
   2  -5   0    1.03    0.47
   2  -5   0    1.11    0.40
  -2  -5   0    0.76    0.46
  -2  -5   0    0.98    0.45
  -2  -5   0    0.75    0.30
  -2  -5   0    1.16    0.46
   3   5   0   29.58    1.16
   3   5   0   27.24    1.21
   3   5   0   23.47    0.76
   3   5   0   21.90    0.96
  -3   5   0   27.65    1.16
  -3   5   0   28.44    1.09
  -3   5   0   27.39    1.11
  -3   5   0   24.13    0.99
   3  -5   0   27.97    1.10
   3  -5   0   27.21    1.10
   3  -5   0   25.84    1.21
   3  -5   0   25.04    0.96
  -3  -5   0   29.01    1.10
  -3  -5   0   27.72    1.12
  -3  -5   0   28.37    1.13
   4   5   0   31.50    1.27
   4   5   0   31.60    1.40
   4   5   0   30.40    0.95
   4   5   0   25.82    1.12
  -4   5   0   31.54    1.35
  -4   5   0   32.08    1.25
  -4   5   0   32.69    1.30
  -4   5   0   29.38    1.18
   4  -5   0   30.37    1.22
   4  -5   0   31.73    1.26
   4  -5   0   29.85    1.37
  -4  -5   0   33.15    1.28
  -4  -5   0   29.35    1.23
  -4  -5   0   31.27    1.26
   5   5   0   38.23    1.51
   5   5   0   40.19    1.71
  -5   5   0   39.11    1.65
  -5   5   0   35.09    1.39
   5  -5   0   39.28    1.51
   5  -5   0   39.35    1.54
   5  -5   0   32.66    1.58
  -5  -5   0   37.93    1.53
  -5  -5   0   37.98    1.48
   6   5   0    0.75    0.54
   6   5   0    0.72    0.62
  -6   5   0    0.23    0.59
  -6   5   0   -0.02    0.51
   6  -5   0   -0.01    0.54
   6  -5   0    0.32    0.56
   6  -5   0    0.56    0.65
  -6  -5   0    0.34    0.65
  -6  -5   0    0.43    0.54
   7   5   0   14.26    1.19
   7   5   0   15.86    1.41
  -7   5   0   14.32    1.31
  -7   5   0   11.56    1.09
   7  -5   0   14.46    1.19
   7  -5   0   15.86    1.26
   7  -5   0   14.39    1.41
  -7  -5   0   14.78    1.34
  -7  -5   0   13.70    1.17
   8   5   0    0.63    0.65
   8   5   0    0.13    0.67
  -8   5   0    1.18    0.81
  -8   5   0    0.38    0.67
   8  -5   0    0.65    0.63
   8  -5   0    0.65    0.69
   8  -5   0    0.03    0.71
  -8  -5   0    0.24    0.82
   9   5   0    5.07    0.97
   9   5   0    4.68    0.95
   9  -5   0    4.06    0.85
   9  -5   0    3.50    1.03
  -9  -5   0    3.92    1.11
   0   6   0  338.12    2.72
   0   6   0  341.07    3.23
   0   6   0  325.66    3.35
   0   6   0  321.96    3.04
   0  -6   0  341.97    3.24
   0  -6   0  290.40    2.82
   0  -6   0  319.58    2.98
   1   6   0   93.96    1.42
   1   6   0   95.24    1.82
   1   6   0   89.70    1.89
   1   6   0   85.64    1.64
  -1   6   0   94.84    1.62
  -1   6   0   97.63    1.79
  -1   6   0   93.94    1.86
  -1   6   0   82.17    1.61
   1  -6   0  100.07    1.83
   1  -6   0   92.54    1.80
   1  -6   0   91.19    1.64
  -1  -6   0   94.46    1.78
  -1  -6   0   94.72    1.49
  -1  -6   0   91.06    1.69
   2   6   0   -0.07    0.28
   2   6   0    0.26    0.40
   2   6   0   -0.11    0.38
   2   6   0   -0.19    0.31
  -2   6   0    0.30    0.37
  -2   6   0    0.43    0.34
  -2   6   0    0.03    0.38
  -2   6   0    0.05    0.36
   2  -6   0   -0.63    0.38
   2  -6   0    0.38    0.42
   2  -6   0   -0.23    0.33
  -2  -6   0    0.10    0.39
  -2  -6   0   -0.30    0.26
  -2  -6   0   -0.03    0.38
   3   6   0   34.83    1.12
   3   6   0   35.40    1.30
   3   6   0   36.90    1.43
   3   6   0   31.03    0.89
   3   6   0   28.27    1.12
  -3   6   0   32.94    1.25
  -3   6   0   36.50    1.27
  -3   6   0   35.03    1.27
  -3   6   0   29.38    1.12
   3  -6   0   36.45    1.28
   3  -6   0   34.90    1.40
   3  -6   0   30.04    1.09
  -3  -6   0   37.75    1.21
  -3  -6   0   34.96    1.30
  -3  -6   0   34.82    1.27
   4   6   0   10.76    0.96
   4   6   0   10.14    1.00
   4   6   0    7.15    0.58
  -4   6   0   10.32    0.92
  -4   6   0   10.62    0.89
  -4   6   0    9.43    0.79
   4  -6   0    9.51    0.85
   4  -6   0    9.82    0.87
   4  -6   0   10.07    0.99
  -4  -6   0   10.78    0.92
  -4  -6   0   10.09    0.88
  -4  -6   0    9.64    0.89
   5   6   0   14.96    1.08
   5   6   0   14.26    1.23
  -5   6   0   14.52    1.13
  -5   6   0   14.33    1.10
  -5   6   0   11.67    0.95
   5  -6   0   15.32    1.08
   5  -6   0   15.52    1.09
   5  -6   0   11.20    1.16
  -5  -6   0   14.13    1.11
  -5  -6   0   13.93    1.07
   6   6   0   -0.16    0.54
   6   6   0    0.12    0.59
  -6   6   0    0.29    0.59
  -6   6   0    0.65    0.62
  -6   6   0    0.40    0.54
   6  -6   0    0.30    0.56
   6  -6   0    0.30    0.56
   6  -6   0    0.15    0.64
  -6  -6   0    0.23    0.64
  -6  -6   0   -0.17    0.52
   7   6   0   -0.45    0.56
   7   6   0    0.11    0.71
  -7   6   0    0.02    0.71
  -7   6   0   -0.32    0.59
  -7   6   0    0.10    0.56
   7  -6   0    0.29    0.62
   7  -6   0    0.15    0.61
   7  -6   0   -0.18    0.77
  -7  -6   0   -0.42    0.69
   8   6   0    1.76    0.76
   8   6   0    1.96    0.81
  -8   6   0    2.28    0.89
  -8   6   0    0.48    0.78
   8  -6   0    1.92    0.75
   8  -6   0    2.09    0.74
   8  -6   0    1.24    0.92
  -8  -6   0    2.01    0.93
   9   6   0    3.24    0.83
   9   6   0    4.69    1.00
  -9   6   0    3.02    0.92
   9  -6   0    3.74    0.87
   9  -6   0    2.67    1.06
   0   7   0   -0.09    0.27
   0   7   0   -0.09    0.34
   0   7   0    0.03    0.43
   0   7   0   -0.36    0.31
   0  -7   0   -0.11    0.41
   0  -7   0   -0.01    0.33
   0  -7   0   -0.23    0.36
   1   7   0  289.55    2.64
   1   7   0  308.09    3.40
   1   7   0  286.34    3.49
   1   7   0  270.89    3.06
  -1   7   0  277.95    2.84
  -1   7   0  296.20    3.28
  -1   7   0  284.71    3.36
  -1   7   0  290.72    3.17
   1  -7   0  299.32    3.31
   1  -7   0  215.86    2.86
   1  -7   0  266.58    2.93
  -1  -7   0  287.08    3.27
  -1  -7   0  274.60    2.73
  -1  -7   0  276.53    3.07
   2   7   0   74.89    1.46
   2   7   0   76.99    1.82
   2   7   0   76.33    1.95
   2   7   0   67.24    1.63
  -2   7   0   74.81    1.68
  -2   7   0   74.14    1.74
  -2   7   0   74.43    1.82
  -2   7   0   64.73    1.59
   2  -7   0   79.72    1.81
   2  -7   0   71.54    1.84
  -2  -7   0   73.81    1.78
  -2  -7   0   68.86    1.31
  -2  -7   0   71.93    1.69
   3   7   0    5.48    0.61
   3   7   0    5.79    0.73
   3   7   0    4.30    0.70
   3   7   0    3.12    0.42
   3   7   0    3.64    0.58
  -3   7   0    4.74    0.65
  -3   7   0    4.34    0.62
  -3   7   0    5.19    0.66
  -3   7   0    4.23    0.60
   3  -7   0    4.63    0.69
   3  -7   0    4.55    0.72
  -3  -7   0    6.18    0.69
  -3  -7   0    4.51    0.69
   4   7   0   34.60    1.48
   4   7   0   32.67    1.56
  -4   7   0   34.10    1.48
  -4   7   0   31.06    1.37
  -4   7   0   28.50    1.26
   4  -7   0   35.71    1.45
   4  -7   0   36.25    1.64
  -4  -7   0   36.68    1.39
  -4  -7   0   30.15    1.39
  -4  -7   0   32.48    1.42
   5   7   0    1.36    0.67
   5   7   0    1.60    0.67
  -5   7   0    1.10    0.64
  -5   7   0    1.48    0.61
  -5   7   0    0.71    0.53
   5  -7   0    1.67    0.71
   5  -7   0    1.16    0.57
   5  -7   0    0.92    0.69
  -5  -7   0    1.05    0.60
  -5  -7   0    1.47    0.63
   6   7   0   57.01    2.07
   6   7   0   56.86    2.28
  -6   7   0   52.95    2.15
  -6   7   0   55.14    2.05
  -6   7   0   46.34    1.82
   6  -7   0   54.00    1.98
   6  -7   0   53.91    2.00
   6  -7   0   44.88    2.12
   7   7   0    0.53    0.65
   7   7   0   -0.23    0.65
  -7   7   0   -0.11    0.67
  -7   7   0   -0.26    0.62
  -7   7   0    0.07    0.62
   7  -7   0   -0.64    0.55
   7  -7   0    0.54    0.62
   7  -7   0    0.11    0.77
  -7  -7   0    0.07    0.76
   8   7   0    0.77    0.62
   8   7   0    0.44    0.68
  -8   7   0    0.08    0.72
   8  -7   0    0.55    0.61
   8  -7   0    1.19    0.71
   8  -7   0   -0.37    0.77
  -8  -7   0    0.72    0.81
   0   8   0   57.20    1.30
   0   8   0   61.07    1.64
   0   8   0   60.51    1.76
   0   8   0   56.42    1.53
   0  -8   0   63.08    1.67
   0  -8   0   46.00    1.34
   0  -8   0   53.42    1.47
   1   8   0   19.47    0.80
   1   8   0   19.48    1.06
   1   8   0   18.68    1.12
   1   8   0   16.32    0.92
  -1   8   0   17.55    0.88
  -1   8   0   20.31    1.05
  -1   8   0   19.19    1.11
  -1   8   0   17.18    0.96
   1  -8   0   18.83    1.03
   1  -8   0   19.15    1.02
   1  -8   0   16.28    0.91
  -1  -8   0   18.06    1.00
  -1  -8   0   18.50    0.84
  -1  -8   0   17.74    0.96
   2   8   0   72.94    1.50
   2   8   0   73.50    1.91
   2   8   0   68.18    1.97
   2   8   0   62.88    1.68
  -2   8   0   66.45    1.67
  -2   8   0   68.73    1.80
  -2   8   0   68.97    1.88
  -2   8   0   56.16    1.59
   2  -8   0   67.62    1.80
   2  -8   0   63.69    1.84
  -2  -8   0   63.72    1.77
  -2  -8   0   62.27    1.70
   3   8   0    0.06    0.37
   3   8   0   -0.12    0.46
   3   8   0    0.02    0.48
  -3   8   0    0.57    0.48
  -3   8   0    0.07    0.47
  -3   8   0    0.07    0.42
   3  -8   0    0.28    0.49
   3  -8   0   -0.06    0.45
  -3  -8   0   -0.14    0.45
  -3  -8   0    0.23    0.47
   4   8   0   50.20    1.82
   4   8   0   45.54    1.88
  -4   8   0   42.15    1.65
  -4   8   0   46.43    1.72
  -4   8   0   36.89    1.47
   4  -8   0   47.08    1.70
   4  -8   0   41.35    1.80
  -4  -8   0   45.65    1.56
  -4  -8   0   41.17    1.67
  -4  -8   0   41.72    1.66
   5   8   0   16.34    1.24
   5   8   0   15.24    1.35
  -5   8   0   15.30    1.23
  -5   8   0   14.51    1.18
  -5   8   0   12.85    1.03
   5  -8   0   14.69    1.17
   5  -8   0   12.57    1.30
  -5  -8   0   15.71    1.16
  -5  -8   0   14.19    1.17
   6   8   0   13.12    1.21
   6   8   0   12.35    1.29
  -6   8   0   13.92    1.30
  -6   8   0   12.95    1.23
  -6   8   0   11.24    1.07
   6  -8   0   15.36    1.29
   6  -8   0   13.94    1.21
   6  -8   0    9.52    1.32
   7   8   0   15.02    1.33
   7   8   0   13.69    1.41
  -7   8   0   13.11    1.35
  -7   8   0   13.96    1.36
  -7   8   0   10.25    1.14
   7  -8   0   11.90    1.21
   7  -8   0   14.28    1.28
   7  -8   0    8.47    1.32
   8   8   0    0.19    0.57
   8   8   0   -0.31    0.66
  -8   8   0   -0.43    0.59
   8  -8   0    0.24    0.62
   8  -8   0    0.33    0.82
   0   9   0    0.32    0.32
   0   9   0   -0.23    0.36
   0   9   0    0.14    0.43
   0   9   0   -0.04    0.38
   0  -9   0    0.54    0.49
   0  -9   0    0.25    0.38
   0  -9   0   -0.17    0.41
   1   9   0    0.19    0.31
   1   9   0    0.34    0.52
   1   9   0   -0.13    0.43
   1   9   0    0.02    0.40
  -1   9   0    0.19    0.35
  -1   9   0    0.49    0.45
  -1   9   0    0.15    0.44
  -1   9   0   -0.54    0.33
   1  -9   0   -0.29    0.46
   1  -9   0    0.21    0.42
  -1  -9   0   -0.18    0.44
  -1  -9   0   -0.05    0.34
  -1  -9   0    0.04    0.41
   2   9   0    4.68    0.57
   2   9   0    5.45    0.81
   2   9   0    4.75    0.78
   2   9   0    4.34    0.68
  -2   9   0    4.40    0.65
  -2   9   0    5.41    0.70
  -2   9   0    4.31    0.74
  -2   9   0    4.82    0.71
   2  -9   0    5.20    0.79
   2  -9   0    3.35    0.69
  -2  -9   0    3.37    0.67
  -2  -9   0    3.97    0.53
  -2  -9   0    4.93    0.75
   3   9   0   23.87    1.08
   3   9   0   25.71    1.39
   3   9   0   25.60    1.51
  -3   9   0   25.27    1.29
  -3   9   0   26.63    1.41
  -3   9   0   21.96    1.21
   3  -9   0   24.01    1.32
   3  -9   0   24.70    1.41
  -3  -9   0   27.25    1.23
  -3  -9   0   23.17    1.32
   4   9   0  106.98    2.66
   4   9   0  106.21    2.87
  -4   9   0  100.83    2.54
  -4   9   0  106.28    2.64
  -4   9   0   95.10    2.39
   4  -9   0  103.56    2.55
   4  -9   0   88.04    2.62
   5   9   0    0.34    0.61
   5   9   0    0.53    0.70
  -5   9   0    0.53    0.66
  -5   9   0    0.41    0.62
  -5   9   0    0.89    0.59
   5  -9   0    0.04    0.59
   5  -9   0    0.43    0.67
   6   9   0   -0.35    0.55
   6   9   0    0.51    0.70
  -6   9   0    0.47    0.69
  -6   9   0    0.19    0.66
  -6   9   0    0.24    0.57
   6  -9   0    0.54    0.66
   6  -9   0    0.66    0.82
   7   9   0   11.39    1.21
   7   9   0    8.89    1.24
  -7   9   0   11.18    1.30
   7  -9   0   10.39    1.13
   8   9   0    0.68    0.66
   8   9   0    0.24    0.64
   8  -9   0    0.85    0.62
   8  -9   0    0.93    0.93
   0  10   0   33.31    1.16
   0  10   0   34.87    1.47
   0  10   0   35.94    1.63
   0  10   0   32.49    1.39
   0 -10   0   32.16    1.41
   1  10   0    3.15    0.50
   1  10   0    3.59    0.77
   1  10   0    3.33    0.76
   1  10   0    3.14    0.66
  -1  10   0    3.32    0.56
  -1  10   0    2.74    0.72
  -1  10   0    3.33    0.66
   1 -10   0    3.37    0.72
   1 -10   0    3.03    0.64
  -1 -10   0    3.43    0.73
  -1 -10   0    3.51    0.61
   2  10   0   51.10    1.84
   2  10   0   45.92    1.90
  -2  10   0   44.73    1.55
  -2  10   0   47.23    1.86
  -2  10   0   42.99    1.62
   2 -10   0   47.27    1.73
   2 -10   0   42.66    1.71
  -2 -10   0   42.62    1.66
   3  10   0   32.24    1.59
   3  10   0   29.60    1.71
  -3  10   0   31.47    1.46
  -3  10   0   30.22    1.60
  -3  10   0   27.50    1.40
   3 -10   0   30.23    1.49
   3 -10   0   25.57    1.50
  -3 -10   0   26.93    1.48
   4  10   0   42.93    1.85
   4  10   0   40.22    1.98
  -4  10   0   40.96    1.74
  -4  10   0   42.14    1.86
  -4  10   0   36.14    1.64
   4 -10   0   42.08    1.80
   4 -10   0   42.02    1.95
   5  10   0    4.92    0.93
   5  10   0    4.34    0.92
  -5  10   0    3.49    0.87
  -5  10   0    4.38    0.93
  -5  10   0    3.50    0.81
   5 -10   0    3.06    0.83
   5 -10   0    3.89    0.90
   6  10   0    1.67    0.81
   6  10   0    1.60    0.81
  -6  10   0    0.75    0.75
  -6  10   0    2.02    0.82
  -6  10   0    1.76    0.74
   6 -10   0    1.74    0.70
   6 -10   0    1.23    0.88
   7  10   0    7.06    1.20
  -7  10   0    6.17    1.09
   7 -10   0    6.12    0.98
   7 -10   0    5.46    1.24
   0  11   0   -0.03    0.61
   0  11   0    0.02    0.50
   0 -11   0   -0.68    0.51
   0 -11   0    0.08    0.46
   1  11   0    0.54    0.69
   1  11   0    0.32    0.64
  -1  11   0    0.69    0.47
  -1  11   0    0.69    0.67
  -1  11   0    0.46    0.52
   1 -11   0    0.78    0.62
   1 -11   0    0.78    0.52
  -1 -11   0    0.49    0.56
  -1 -11   0   -0.02    0.44
   2  11   0    0.18    0.63
   2  11   0    0.01    0.65
  -2  11   0    0.10    0.47
  -2  11   0   -0.24    0.63
  -2  11   0   -0.88    0.41
   2 -11   0   -0.48    0.56
   2 -11   0    0.12    0.55
  -2 -11   0   -0.35    0.51
   3  11   0    9.48    1.10
   3  11   0    9.66    1.22
  -3  11   0    9.44    0.99
  -3  11   0    9.11    1.12
  -3  11   0    7.89    0.98
   3 -11   0    8.65    1.07
   3 -11   0    6.34    1.03
   4  11   0   23.75    1.47
   4  11   0   20.08    1.65
  -4  11   0   21.23    1.38
  -4  11   0   20.65    1.52
  -4  11   0   18.40    1.31
   4 -11   0   20.47    1.39
   4 -11   0   17.81    1.44
   5  11   0    2.49    0.81
  -5  11   0    1.89    0.79
  -5  11   0    2.59    0.89
  -5  11   0    2.17    0.76
   5 -11   0    1.79    0.79
   5 -11   0    1.89    0.80
   6  11   0    0.48    0.72
  -6  11   0    0.01    0.61
  -6  11   0    0.10    0.73
   6 -11   0    0.14    0.61
   6 -11   0    0.14    0.69
   7  11   0   22.63    1.76
   7 -11   0   18.60    1.46
   7 -11   0    9.66    1.49
   0  12   0   15.55    1.39
   0 -12   0   14.30    1.14
   0 -12   0   10.95    0.94
   1  12   0    8.80    1.16
  -1  12   0    8.70    1.15
   1 -12   0    9.03    0.99
   1 -12   0    7.77    0.88
  -1 -12   0    9.66    1.03
  -1 -12   0    7.98    0.81
   2  12   0    1.35    0.87
  -2  12   0    1.48    0.83
  -2  12   0    1.97    0.67
   2 -12   0    1.27    0.69
   2 -12   0    1.56    0.68
   3  12   0    1.84    0.92
  -3  12   0    1.74    0.63
  -3  12   0    1.81    0.87
  -3  12   0    2.38    0.73
   3 -12   0    2.14    0.79
   3 -12   0    2.78    0.83
   4  12   0    3.21    1.06
  -4  12   0    3.06    0.83
  -4  12   0    3.01    0.96
   4 -12   0    4.08    0.91
   4 -12   0    4.49    0.98
   5  12   0   29.46    1.93
  -5  12   0   31.61    1.78
  -5  12   0   31.70    1.90
   5 -12   0   26.11    1.60
   5 -12   0   24.72    1.72
   6  12   0    2.73    0.98
   6 -12   0    2.20    0.74
   6 -12   0    2.84    0.95
   7  12   0    7.72    1.21
   7 -12   0    4.92    1.07
   0  13   0   -0.03    0.76
   0 -13   0    0.46    0.61
   0 -13   0   -0.39    0.46
   1  13   0   15.73    1.51
  -1  13   0   16.08    1.55
   1 -13   0   15.06    1.24
   1 -13   0   14.59    1.17
  -1 -13   0   14.86    1.21
   2  13   0   -0.31    0.79
  -2  13   0    0.51    0.80
   2 -13   0    0.40    0.65
   2 -13   0   -0.01    0.58
   3  13   0    4.00    1.13
  -3  13   0    6.11    1.14
   3 -13   0    5.49    0.99
   3 -13   0    4.41    0.93
   4  13   0    5.81    1.28
  -4  13   0    5.99    1.17
   4 -13   0    6.32    1.05
   4 -13   0    6.06    1.05
   5  13   0    0.90    0.98
  -5  13   0    0.34    0.81
   5 -13   0    0.98    0.69
   5 -13   0    1.80    0.82
   6  13   0    1.41    0.77
   6 -13   0    1.61    0.73
   6 -13   0    0.48    0.67
   0  14   0    0.25    0.81
   0 -14   0    0.59    0.63
   1  14   0    9.07    1.31
  -1  14   0    8.90    1.29
   1 -14   0    8.79    1.08
   1 -14   0    8.04    1.00
   2  14   0    0.44    0.90
  -2  14   0    1.29    0.92
   2 -14   0    0.66    0.69
   2 -14   0    1.07    0.67
   3  14   0    1.42    1.03
  -3  14   0    1.85    0.94
   3 -14   0    1.26    0.75
   3 -14   0    0.89    0.65
   4  14   0    0.49    0.95
  -4  14   0    0.42    0.89
   4 -14   0    0.14    0.60
   4 -14   0    0.58    0.62
   5  14   0    4.95    1.31
   5 -14   0    3.86    0.89
   5 -14   0    1.73    0.72
   0  15   0   -0.50    0.84
   1  15   0    0.69    0.87
  -1  15   0    0.46    0.92
   1 -15   0   -0.68    0.61
   1 -15   0   -0.39    0.52
   2  15   0    8.91    1.42
  -2  15   0    8.17    1.38
   2 -15   0    7.29    1.10
   2 -15   0    5.80    0.98
   3  15   0    0.92    1.05
  -3  15   0    1.14    0.98
   3 -15   0    0.88    0.66
   3 -15   0    0.48    0.60
   4  15   0    0.09    0.96
  -4  15   0    0.62    0.98
   4 -15   0    0.60    0.58
   4 -15   0    0.44    0.58
   0  16   0    4.45    1.20
   1  16   0    6.40    1.31
  -1  16   0    7.68    1.37
   2  16   0    0.37    1.03
  -2  16   0    0.93    1.03
   3  16   0    1.32    1.08
  -3  16   0    1.00    1.08
   3 -16   0    1.34    0.68
   3 -16   0    0.60    0.52
   0  17   0    0.65    0.98
   1  17   0    3.15    1.11
  -1  17   0    1.82    1.12
 -10   0   1   -0.27    0.93
  10   0  -1   -0.30    0.49
  10   0  -1    0.43    0.61
  -9   0   1   -0.31    0.86
  -9   0   1   -0.74    0.61
   9   0  -1    0.34    0.58
   9   0  -1    0.61    0.69
  -8   0   1   -0.06    0.80
  -8   0   1   -0.75    0.52
   8   0  -1    0.08    0.57
   8   0  -1    0.16    0.64
  -7   0   1   -0.05    0.72
  -7   0   1   -0.12    0.47
   7   0  -1    0.16    0.52
   7   0  -1    0.09    0.62
   7   0  -1    0.12    0.47
  -6   0   1   -0.04    0.55
  -6   0   1    0.02    0.40
   6   0  -1   -0.17    0.40
   6   0  -1    0.32    0.52
   6   0  -1   -0.36    0.38
  -5   0   1   -0.15    0.43
  -5   0   1   -0.07    0.32
  -5   0   1   -0.21    0.34
   5   0  -1   -0.23    0.32
   5   0  -1   -0.17    0.41
   5   0  -1   -0.14    0.34
  -4   0   1   -0.08    0.43
  -4   0   1   -0.13    0.35
   4   0  -1    0.00    0.28
   4   0  -1    0.11    0.32
   4   0  -1    0.36    0.42
   4   0  -1   -0.18    0.33
  -3   0   1    0.20    0.31
  -3   0   1    0.02    0.23
  -3   0   1    0.12    0.19
   3   0  -1   -0.13    0.21
   3   0  -1    0.16    0.21
   3   0  -1   -0.03    0.29
   3   0  -1   -0.05    0.24
  -2   0   1    0.02    0.25
  -2   0   1    0.03    0.14
  -2   0   1    0.18    0.17
   2   0  -1    0.15    0.24
   2   0  -1    0.12    0.17
   2   0  -1    0.16    0.16
   2   0  -1    0.01    0.23
   2   0  -1    0.05    0.18
   1   0  -1   -0.05    0.14
   1   0  -1    0.03    0.15
   1   0  -1    0.04    0.13
   0   0   1    0.37    0.15
   0   0   1    0.26    0.11
   0   0   1    0.35    0.12
   0   0  -1    0.25    0.15
   0   0  -1    0.23    0.12
   0   0  -1    0.51    0.14
   1   0   1    0.09    0.20
   1   0   1    0.05    0.16
   1   0   1   -0.01    0.20
   1   0   1   -0.06    0.17
  -1   0  -1   -0.19    0.21
  -1   0  -1   -0.18    0.20
  -1   0  -1   -0.01    0.18
   2   0   1   -0.12    0.23
   2   0   1    0.01    0.21
   2   0   1    0.01    0.23
   2   0   1   -0.16    0.20
  -2   0  -1   -0.04    0.28
  -2   0  -1   -0.37    0.23
  -2   0  -1   -0.25    0.24
   3   0   1    0.45    0.37
   3   0   1    0.29    0.33
   3   0   1   -0.56    0.34
   3   0   1   -0.17    0.31
  -3   0  -1    0.19    0.44
  -3   0  -1   -0.05    0.35
  -3   0  -1   -0.43    0.36
   4   0   1    0.34    0.35
   4   0   1    0.07    0.33
   4   0   1   -0.42    0.32
   4   0   1   -0.06    0.30
  -4   0  -1   -0.52    0.41
  -4   0  -1    0.31    0.37
  -4   0  -1   -0.15    0.34
   5   0   1   -0.09    0.38
   5   0   1    0.12    0.41
   5   0   1   -0.04    0.42
  -5   0  -1   -0.34    0.51
  -5   0  -1   -0.58    0.39
  -5   0  -1   -0.15    0.39
   6   0   1    0.30    0.50
   6   0   1    0.05    0.47
   6   0   1   -0.44    0.47
  -6   0  -1    0.53    0.69
  -6   0  -1   -0.10    0.47
   7   0   1    0.15    0.63
   7   0   1    0.24    0.59
   7   0   1   -0.87    0.54
  -7   0  -1   -0.59    0.76
   8   0   1   -0.67    0.60
   8   0   1    0.03    0.68
   8   0   1    0.17    0.67
  -8   0  -1    0.22    0.86
   9   0   1   -0.54    0.53
  -9   0  -1   -0.27    0.86
 -10   1   1    3.46    1.15
 -10   1   1    3.45    0.99
 -10  -1   1    3.68    1.15
  10   1  -1    4.04    0.83
  10   1  -1    4.13    0.99
  10  -1  -1    4.34    0.84
  10  -1  -1    4.84    0.95
  -9   1   1    9.72    1.47
  -9   1   1    8.81    1.18
  -9  -1   1    7.11    1.28
  -9  -1   1    7.98    1.10
   9   1  -1    7.55    1.02
   9   1  -1    9.33    1.25
   9  -1  -1    8.59    1.01
   9  -1  -1    8.73    1.17
  -8   1   1   13.41    1.40
  -8   1   1   12.07    1.09
  -8  -1   1   13.96    1.45
  -8  -1   1   12.15    1.11
   8   1  -1   13.78    1.13
   8   1  -1   12.47    1.31
   8  -1  -1   12.39    1.10
   8  -1  -1   11.79    1.24
   8  -1  -1   11.65    1.14
  -7   1   1    3.68    0.92
  -7   1   1    2.31    0.68
  -7  -1   1    2.37    0.80
  -7  -1   1    2.30    0.64
   7   1  -1    3.95    0.74
   7   1  -1    2.54    0.76
   7   1  -1    2.74    0.65
   7  -1  -1    3.87    0.74
   7  -1  -1    3.81    0.86
   7  -1  -1    2.72    0.69
  -6   1   1    2.23    0.71
  -6   1   1    2.27    0.55
  -6  -1   1    2.43    0.75
  -6  -1   1    2.43    0.60
   6   1  -1    2.45    0.56
   6   1  -1    2.11    0.65
   6   1  -1    2.86    0.58
   6  -1  -1    2.39    0.58
   6  -1  -1    2.25    0.66
   6  -1  -1    2.07    0.55
  -5   1   1   52.27    1.70
  -5   1   1   53.25    1.41
  -5  -1   1   52.22    1.69
  -5  -1   1   53.35    1.46
  -5  -1   1   52.03    1.42
   5   1  -1   55.51    1.46
   5   1  -1   54.68    1.71
   5   1  -1   53.11    1.35
   5  -1  -1   55.65    1.46
   5  -1  -1   54.61    1.69
   5  -1  -1   51.74    1.50
  -4   1   1  100.46    2.04
  -4   1   1   91.96    1.57
  -4  -1   1   97.27    2.01
  -4  -1   1   92.49    1.65
  -4  -1   1   96.02    1.65
   4   1  -1   91.21    1.59
   4   1  -1   99.69    1.70
   4   1  -1  102.36    2.04
   4   1  -1   98.88    1.56
   4  -1  -1   92.82    1.56
   4  -1  -1  100.38    1.67
   4  -1  -1  102.43    2.01
   4  -1  -1   96.51    1.78
  -3   1   1   49.47    1.26
  -3   1   1   38.90    0.83
  -3   1   1   44.80    0.92
  -3  -1   1   48.24    1.25
  -3  -1   1   47.79    1.00
   3   1  -1   45.15    0.96
   3   1  -1   48.52    1.01
   3   1  -1   48.58    1.24
   3   1  -1   45.00    0.88
   3  -1  -1   45.48    0.92
   3  -1  -1   48.87    0.99
   3  -1  -1   49.81    1.24
   3  -1  -1   46.28    1.10
  -2   1   1   59.87    1.09
  -2   1   1   48.13    0.68
  -2   1   1   57.85    0.77
  -2  -1   1   62.25    1.17
  -2  -1   1   45.57    0.73
  -2  -1   1   55.97    0.82
   2   1  -1   59.45    1.12
   2   1  -1   55.51    0.84
   2   1  -1   61.31    0.89
   2   1  -1   59.22    1.12
   2   1  -1   56.92    0.73
   2  -1  -1   52.29    0.75
   2  -1  -1   61.13    0.84
   2  -1  -1   59.54    1.12
   2  -1  -1   55.06    1.00
  -1   1   1  103.38    1.07
  -1  -1   1  103.27    1.07
  -1  -1   1   92.70    0.90
  -1  -1   1  100.40    0.99
   1   1  -1  102.60    1.20
   1   1  -1   97.39    0.95
   1   1  -1  102.17    1.02
   1   1  -1  104.75    1.13
   1  -1  -1  101.95    1.05
   1  -1  -1  103.18    1.18
   1  -1  -1   99.32    1.15
   0   1   1  131.12    1.22
   0   1   1  115.62    1.25
   0   1   1  129.65    1.14
   0   1   1  129.76    1.10
   0  -1   1  121.37    1.23
   0  -1   1  123.07    1.12
   0   1  -1  124.95    1.31
   0   1  -1  129.09    1.20
   0  -1  -1  127.50    1.22
   0  -1  -1  127.82    1.17
   0  -1  -1  127.97    1.13
   0  -1  -1   94.97    1.13
   1   1   1   67.26    1.06
   1   1   1   65.81    0.97
   1   1   1   62.34    1.07
   1   1   1   58.01    0.95
   1  -1   1   69.49    1.09
   1  -1   1   64.98    1.15
   1  -1   1   60.30    0.98
  -1   1  -1   61.97    1.11
  -1   1  -1   63.25    1.04
  -1   1  -1   63.26    0.99
  -1  -1  -1   63.12    0.96
  -1  -1  -1   62.89    1.03
  -1  -1  -1   63.83    0.97
   2   1   1  627.69    3.94
   2   1   1  628.46    3.76
   2   1   1  561.07    3.74
   2   1   1  534.85    3.49
   2  -1   1  638.46    3.98
   2  -1   1  629.30    3.55
   2  -1   1  548.52    3.89
   2  -1   1  547.79    3.53
  -2   1  -1  606.63    4.10
  -2   1  -1  582.20    3.78
  -2   1  -1  610.30    3.74
  -2  -1  -1  619.52    3.89
  -2  -1  -1  585.30    3.79
  -2  -1  -1  612.52    3.73
   3   1   1   71.00    1.58
   3   1   1   72.79    1.53
   3   1   1   69.70    1.56
   3   1   1   60.08    1.41
   3  -1   1   72.52    1.59
   3  -1   1   75.21    1.45
   3  -1   1   66.30    1.61
   3  -1   1   64.17    1.44
  -3   1  -1   67.52    1.66
  -3   1  -1   68.44    1.55
  -3   1  -1   69.98    1.50
  -3  -1  -1   68.61    1.60
  -3  -1  -1   68.50    1.56
  -3  -1  -1   71.78    1.52
   4   1   1    2.18    0.47
   4   1   1    1.97    0.46
   4   1   1    1.55    0.45
   4   1   1    1.05    0.38
   4  -1   1    1.89    0.48
   4  -1   1    1.66    0.45
   4  -1   1    1.58    0.49
   4  -1   1    1.15    0.39
  -4   1  -1    1.46    0.54
  -4   1  -1    1.78    0.48
  -4   1  -1    1.67    0.45
  -4  -1  -1    2.03    0.55
  -4  -1  -1    1.30    0.46
  -4  -1  -1    1.40    0.45
   5   1   1   16.50    1.06
   5   1   1   16.79    1.06
   5   1   1   15.00    1.05
   5  -1   1   17.26    1.07
   5  -1   1   17.84    1.05
   5  -1   1   14.16    1.05
  -5   1  -1   16.52    1.19
  -5   1  -1   15.60    1.05
  -5   1  -1   17.46    1.03
  -5  -1  -1   16.87    1.17
  -5  -1  -1   15.53    1.05
  -5  -1  -1   16.34    1.01
   6   1   1    7.18    0.91
   6   1   1    6.12    0.82
   6   1   1    5.19    0.80
   6  -1   1    7.25    0.87
   6  -1   1    7.62    0.88
   6  -1   1    5.65    0.91
  -6   1  -1    6.60    1.07
  -6   1  -1    5.63    0.82
  -6  -1  -1    6.80    1.04
  -6  -1  -1    7.22    0.88
   7   1   1    0.98    0.70
   7   1   1    1.39    0.71
   7   1   1    0.72    0.64
   7  -1   1    1.60    0.72
   7  -1   1    1.28    0.68
   7  -1   1    1.59    0.75
  -7   1  -1    0.62    0.88
  -7  -1  -1    1.59    0.87
   8   1   1    0.97    0.73
   8   1   1    1.30    0.71
   8  -1   1    0.03    0.63
   8  -1   1    0.96    0.66
   8  -1   1    0.39    0.75
  -8   1  -1    1.91    0.98
  -8  -1  -1    0.42    0.88
   9   1   1    2.35    0.80
   9  -1   1    4.45    0.88
  -9   1  -1    3.06    1.17
  -9  -1  -1    2.90    1.13
 -10   2   1    0.43    0.82
 -10   2   1   -0.18    0.69
 -10  -2   1   -0.99    0.82
  10   2  -1    0.00    0.53
  10   2  -1    0.10    0.59
  10  -2  -1    0.39    0.51
  10  -2  -1    0.17    0.56
  -9   2   1    4.10    1.16
  -9   2   1    3.98    0.91
  -9  -2   1    4.90    1.17
  -9  -2   1    5.47    1.03
   9   2  -1    3.45    0.83
   9   2  -1    3.66    0.96
   9  -2  -1    3.55    0.83
   9  -2  -1    5.76    1.01
  -8   2   1   -0.29    0.74
  -8   2   1    0.34    0.56
  -8  -2   1    0.17    0.81
  -8  -2   1   -0.05    0.59
   8   2  -1    0.42    0.61
   8   2  -1   -0.13    0.63
   8  -2  -1    0.18    0.57
   8  -2  -1    0.20    0.64
   8  -2  -1   -0.03    0.56
  -7   2   1   20.20    1.46
  -7   2   1   18.65    1.18
  -7  -2   1   20.16    1.47
  -7  -2   1   18.48    1.18
   7   2  -1   19.71    1.20
   7   2  -1   19.68    1.41
   7  -2  -1   23.22    1.28
   7  -2  -1   21.89    1.44
   7  -2  -1   18.60    1.28
  -6   2   1   92.34    2.49
  -6   2   1   80.66    1.95
  -6  -2   1   93.00    2.48
  -6  -2   1   85.49    2.05
   6   2  -1   88.77    2.08
   6   2  -1   88.45    2.41
   6   2  -1   81.61    1.78
   6  -2  -1   87.05    2.03
   6  -2  -1   93.61    2.41
   6  -2  -1   75.01    2.06
  -5   2   1   15.86    1.07
  -5   2   1   14.57    0.83
  -5  -2   1   15.85    1.08
  -5  -2   1   15.43    0.90
  -5  -2   1   15.68    0.88
   5   2  -1   14.43    0.85
   5   2  -1   15.71    1.04
   5   2  -1   15.06    0.77
   5  -2  -1   14.92    0.87
   5  -2  -1   15.60    1.02
   5  -2  -1   16.18    0.99
  -4   2   1    1.05    0.50
  -4   2   1    0.87    0.38
  -4  -2   1    1.36    0.54
  -4  -2   1    1.10    0.41
  -4  -2   1    1.22    0.44
   4   2  -1    0.86    0.39
   4   2  -1    1.04    0.47
   4   2  -1    0.83    0.32
   4  -2  -1    1.15    0.35
   4  -2  -1    1.45    0.41
   4  -2  -1    0.94    0.48
   4  -2  -1    0.66    0.44
  -3   2   1    0.18    0.34
  -3   2   1   -0.05    0.25
  -3   2   1    0.21    0.23
  -3  -2   1    0.02    0.38
  -3  -2   1   -0.03    0.29
  -3  -2   1   -0.15    0.33
   3   2  -1   -0.09    0.31
   3   2  -1   -0.01    0.28
   3   2  -1    0.21    0.27
   3   2  -1    0.07    0.35
   3   2  -1    0.02    0.21
   3  -2  -1    0.01    0.28
   3  -2  -1    0.17    0.24
   3  -2  -1    0.19    0.35
   3  -2  -1   -0.20    0.33
  -2   2   1   32.53    0.84
  -2   2   1   26.38    0.60
  -2   2   1   30.28    0.62
  -2  -2   1   30.11    0.71
   2   2  -1   31.35    0.86
   2   2  -1   30.26    0.72
   2   2  -1   32.11    0.75
   2   2  -1   31.44    0.89
   2  -2  -1   27.83    0.65
   2  -2  -1   31.65    0.68
   2  -2  -1   32.74    0.92
   2  -2  -1   30.28    0.86
  -1   2   1  267.98    1.93
  -1   2   1  260.54    2.14
  -1   2   1  257.38    1.84
  -1   2   1  262.14    1.76
  -1  -2   1  256.81    1.84
   1   2  -1  264.90    2.14
   1   2  -1  258.25    1.84
   1   2  -1  268.97    2.05
   1  -2  -1  261.19    1.81
   1  -2  -1  266.43    1.92
   1  -2  -1  273.47    2.20
   1  -2  -1  259.74    2.14
   0   2   1  249.25    2.00
   0   2   1  246.27    1.79
   0  -2   1  265.28    1.97
   0  -2   1  250.74    1.93
   0  -2   1  243.83    1.83
   0   2  -1  248.29    2.06
   0   2  -1  254.38    1.93
   0   2  -1  248.63    1.85
   0   2  -1  251.96    1.82
   0  -2  -1  246.32    1.85
   0  -2  -1  246.88    1.79
   0  -2  -1  245.62    2.02
   1   2   1   95.28    1.32
   1   2   1   94.13    1.32
   1   2   1   91.52    1.31
   1   2   1   89.50    1.24
   1  -2   1   97.87    1.37
   1  -2   1   96.18    1.05
   1  -2   1   89.96    1.40
   1  -2   1   87.62    1.24
  -1   2  -1   88.93    1.40
  -1   2  -1   92.91    1.33
  -1   2  -1   94.07    1.04
  -1   2  -1   88.56    1.23
  -1  -2  -1   93.32    1.09
  -1  -2  -1   90.34    1.29
  -1  -2  -1   92.46    1.23
   2   2   1    0.04    0.27
   2   2   1   -0.05    0.25
   2   2   1    0.11    0.25
   2   2   1    0.11    0.25
   2  -2   1   -0.20    0.27
   2  -2   1   -0.16    0.23
   2  -2   1    0.56    0.33
   2  -2   1   -0.15    0.26
  -2   2  -1    0.19    0.33
  -2   2  -1   -0.01    0.26
  -2   2  -1   -0.09    0.26
  -2  -2  -1    0.16    0.28
  -2  -2  -1    0.22    0.30
  -2  -2  -1    0.38    0.31
   3   2   1    0.40    0.38
   3   2   1    0.49    0.39
   3   2   1    0.50    0.36
   3   2   1    0.35    0.33
   3  -2   1    0.87    0.42
   3  -2   1    0.65    0.35
   3  -2   1    0.47    0.43
   3  -2   1    0.03    0.32
  -3   2  -1    0.92    0.48
  -3   2  -1    0.44    0.38
  -3   2  -1    0.59    0.38
  -3  -2  -1    0.61    0.44
  -3  -2  -1    0.83    0.42
  -3  -2  -1    0.99    0.41
   4   2   1    1.53    0.47
   4   2   1    1.66    0.48
   4   2   1    1.15    0.43
   4   2   1    1.42    0.41
   4  -2   1    1.39    0.45
   4  -2   1    1.20    0.43
   4  -2   1    1.09    0.50
   4  -2   1    1.02    0.40
  -4   2  -1    1.68    0.53
  -4   2  -1    1.01    0.42
  -4   2  -1    2.41    0.50
  -4  -2  -1    1.58    0.54
  -4  -2  -1    1.97    0.49
  -4  -2  -1    1.27    0.47
   5   2   1   20.08    1.15
   5   2   1   20.00    1.15
   5   2   1   20.58    1.10
   5  -2   1   21.06    1.17
   5  -2   1   21.28    1.13
   5  -2   1   20.21    1.24
  -5   2  -1   21.15    1.34
  -5   2  -1   19.59    1.15
  -5   2  -1   20.34    1.11
  -5  -2  -1   19.01    1.19
  -5  -2  -1   19.41    1.18
  -5  -2  -1   19.02    1.07
   6   2   1    5.98    0.86
   6   2   1    6.67    0.88
   6   2   1    5.81    0.82
   6  -2   1    6.07    0.87
   6  -2   1    5.44    0.80
   6  -2   1    5.22    0.91
  -6   2  -1    6.81    1.10
  -6   2  -1    6.03    0.83
  -6  -2  -1    6.85    1.03
  -6  -2  -1    5.76    0.82
   7   2   1   17.57    1.33
   7   2   1   20.60    1.43
   7   2   1   19.86    1.36
   7  -2   1   17.72    1.30
   7  -2   1   21.44    1.37
   7  -2   1   16.54    1.45
  -7   2  -1   19.80    1.58
  -7  -2  -1   18.60    1.51
   8   2   1   -0.03    0.63
   8   2   1    0.07    0.62
   8  -2   1    0.31    0.68
   8  -2   1   -0.31    0.69
  -8   2  -1    0.46    0.90
  -8  -2  -1    0.63    0.84
   9   2   1   -0.14    0.53
   9  -2   1    0.31    0.57
   9  -2   1    0.27    0.79
  -9   2  -1    0.32    0.93
  -9  -2  -1   -1.09    0.77
 -10   3   1    3.82    1.04
 -10  -3   1    3.51    1.16
  10   3  -1    3.45    0.83
  10   3  -1    4.80    1.01
  10  -3  -1    3.68    0.82
  -9   3   1    0.25    0.74
  -9   3   1   -0.11    0.60
  -9  -3   1    0.58    0.95
  -9  -3   1    0.40    0.67
   9   3  -1    0.11    0.58
   9   3  -1    0.80    0.71
   9  -3  -1    0.30    0.61
   9  -3  -1    0.07    0.58
   9  -3  -1    0.41    0.68
  -8   3   1    1.59    0.80
  -8   3   1    0.60    0.63
  -8  -3   1    0.34    0.84
  -8  -3   1    1.17    0.69
   8   3  -1    1.18    0.68
   8   3  -1    0.74    0.74
   8  -3  -1    1.10    0.68
   8  -3  -1    0.45    0.69
   8  -3  -1    0.37    0.64
  -7   3   1   15.34    1.31
  -7   3   1   12.27    1.02
  -7  -3   1   14.31    1.32
  -7  -3   1   13.90    1.09
   7   3  -1   14.00    1.08
   7   3  -1   15.85    1.33
   7  -3  -1   14.90    1.09
   7  -3  -1   14.34    1.24
   7  -3  -1   12.25    1.15
  -6   3   1    1.80    0.68
  -6   3   1    2.24    0.57
  -6  -3   1    1.70    0.71
  -6  -3   1    2.04    0.60
   6   3  -1    2.84    0.62
   6   3  -1    1.83    0.67
   6  -3  -1    2.15    0.60
   6  -3  -1    2.33    0.70
   6  -3  -1    2.04    0.63
  -5   3   1   19.44    1.13
  -5   3   1   16.68    0.89
  -5  -3   1   20.48    1.18
  -5  -3   1   19.80    1.01
   5   3  -1   19.74    0.99
   5   3  -1   20.24    1.19
   5   3  -1   18.51    0.78
   5  -3  -1   20.10    0.95
   5  -3  -1   20.09    1.14
   5  -3  -1   17.01    1.06
  -4   3   1   14.99    0.96
  -4   3   1   14.23    0.76
  -4  -3   1   17.26    1.03
  -4  -3   1   16.58    0.89
  -4  -3   1   17.04    0.89
   4   3  -1   17.04    0.87
   4   3  -1   16.23    1.01
   4   3  -1   16.85    0.62
   4  -3  -1   14.91    0.78
   4  -3  -1   17.05    0.81
   4  -3  -1   17.68    0.99
   4  -3  -1   17.49    0.98
  -3   3   1  266.02    2.84
  -3   3   1  218.36    2.19
  -3  -3   1  262.25    2.89
  -3  -3   1  255.45    2.50
   3   3  -1  261.94    2.86
   3   3  -1  271.27    2.64
   3   3  -1  257.74    2.96
   3  -3  -1  248.77    2.33
   3  -3  -1  266.27    2.45
   3  -3  -1  265.81    2.95
   3  -3  -1  254.91    2.88
  -2   3   1  113.47    1.50
  -2   3   1  114.27    1.73
  -2   3   1  101.43    1.27
  -2   3   1  111.53    1.30
  -2  -3   1  110.99    1.48
  -2  -3   1  113.12    1.46
   2   3  -1  118.40    1.67
   2   3  -1  120.77    1.55
   2   3  -1  115.61    1.72
   2   3  -1   91.32    1.24
   2  -3  -1  112.20    1.36
   2  -3  -1  119.17    1.42
   2  -3  -1  120.26    1.77
   2  -3  -1  114.02    1.72
  -1   3   1  429.60    2.66
  -1   3   1  413.07    3.02
  -1   3   1  395.39    2.47
  -1   3   1  425.17    2.46
  -1  -3   1  434.18    2.79
  -1  -3   1  420.92    2.79
  -1  -3   1  422.63    2.69
   1   3  -1  437.48    2.99
   1   3  -1  423.09    2.77
   1   3  -1  439.79    2.94
   1   3  -1  384.13    2.46
   1  -3  -1  428.44    2.68
   1  -3  -1  430.37    2.57
   1  -3  -1  388.45    2.91
   0   3   1  219.91    1.90
   0   3   1  206.77    2.06
   0   3   1  211.22    1.81
   0  -3   1  223.18    2.00
   0  -3   1  206.14    1.85
   0  -3   1  202.92    1.84
   0   3  -1  213.24    2.07
   0   3  -1  207.72    1.92
   0   3  -1  203.41    1.74
   0   3  -1  199.31    1.79
   0  -3  -1  209.99    1.86
   0  -3  -1  210.76    2.02
   1   3   1  332.65    2.66
   1   3   1  319.90    2.73
   1   3   1  305.97    2.52
   1   3   1  290.49    2.41
   1  -3   1  335.13    2.72
   1  -3   1  309.28    2.73
   1  -3   1  298.49    2.47
  -1   3  -1  316.22    2.79
  -1   3  -1  317.83    2.64
  -1   3  -1  315.23    2.27
  -1   3  -1  324.88    2.56
  -1  -3  -1  327.39    2.20
  -1  -3  -1  312.02    2.58
  -1  -3  -1  267.72    2.35
  -1  -3  -1  317.12    2.47
   2   3   1   31.41    1.04
   2   3   1   30.68    1.06
   2   3   1   25.39    0.89
   2   3   1   25.30    0.90
   2  -3   1   33.28    1.07
   2  -3   1   31.37    0.87
   2  -3   1   29.29    1.10
   2  -3   1   29.08    0.97
  -2   3  -1   29.95    1.10
  -2   3  -1   28.93    1.03
  -2   3  -1   30.19    0.88
  -2   3  -1   27.61    0.94
  -2  -3  -1   30.20    0.92
  -2  -3  -1   30.52    1.03
  -2  -3  -1   28.93    0.97
   3   3   1    1.57    0.43
   3   3   1    1.48    0.45
   3   3   1    1.71    0.40
   3   3   1    1.72    0.44
   3  -3   1    1.94    0.47
   3  -3   1    1.64    0.42
   3  -3   1    0.65    0.44
   3  -3   1    1.37    0.42
  -3   3  -1    1.84    0.55
  -3   3  -1    1.69    0.43
  -3   3  -1    1.57    0.45
  -3  -3  -1    1.83    0.50
  -3  -3  -1    2.00    0.50
  -3  -3  -1    1.51    0.48
   4   3   1    0.87    0.44
   4   3   1    0.98    0.46
   4   3   1    0.99    0.39
   4   3   1    0.64    0.37
   4  -3   1    0.81    0.45
   4  -3   1    0.88    0.42
   4  -3   1    0.38    0.43
   4  -3   1    1.02    0.42
  -4   3  -1    0.70    0.48
  -4   3  -1    0.82    0.39
  -4   3  -1    1.02    0.43
  -4  -3  -1    0.67    0.47
  -4  -3  -1    1.42    0.49
  -4  -3  -1    0.98    0.45
   5   3   1    0.58    0.47
   5   3   1    0.38    0.49
   5   3   1    0.53    0.42
   5  -3   1    0.22    0.48
   5  -3   1    0.12    0.45
   5  -3   1    0.31    0.52
  -5   3  -1    0.13    0.57
  -5   3  -1    0.29    0.46
  -5  -3  -1    0.02    0.49
  -5  -3  -1    0.18    0.48
  -5  -3  -1   -0.08    0.45
   6   3   1   37.99    1.66
   6   3   1   36.20    1.66
   6   3   1   34.97    1.50
   6  -3   1   35.84    1.60
   6  -3   1   37.40    1.56
   6  -3   1   31.97    1.71
  -6   3  -1   34.87    1.81
  -6   3  -1   33.16    1.51
  -6  -3  -1   35.91    1.69
  -6  -3  -1   34.54    1.55
   7   3   1    3.61    0.91
   7   3   1    2.69    0.79
   7  -3   1    3.19    0.81
   7  -3   1    3.42    0.78
   7  -3   1    1.90    0.88
  -7   3  -1    3.57    1.06
  -7  -3  -1    2.59    0.93
   8   3   1    0.23    0.61
   8   3   1    0.16    0.65
   8  -3   1   -0.28    0.65
   8  -3   1   -0.30    0.72
  -8   3  -1   -0.92    0.80
  -8  -3  -1    0.56    0.84
   9   3   1    1.02    0.63
   9  -3   1    0.76    0.57
   9  -3   1    2.29    1.01
  -9   3  -1    1.27    1.05
  -9  -3  -1    1.00    0.92
  -9   4   1    1.52    0.82
  -9   4   1    0.51    0.65
  -9  -4   1    0.45    0.87
  -9  -4   1    1.66    0.80
   9   4  -1    1.22    0.65
   9   4  -1    2.38    0.80
   9  -4  -1    1.38    0.70
   9  -4  -1    0.84    0.70
   9  -4  -1    0.79    0.74
  -8   4   1    3.67    0.93
  -8   4   1    3.46    0.83
  -8  -4   1    3.04    1.02
  -8  -4   1    2.31    0.80
   8   4  -1    3.57    0.85
   8   4  -1    3.51    0.92
   8  -4  -1    2.98    0.81
   8  -4  -1    3.27    0.87
   8  -4  -1    2.13    0.82
  -7   4   1    2.87    0.82
  -7   4   1    1.34    0.63
  -7  -4   1    2.09    0.85
  -7  -4   1    2.10    0.72
   7   4  -1    1.96    0.69
   7   4  -1    1.71    0.78
   7  -4  -1    2.03    0.67
   7  -4  -1    2.65    0.78
   7  -4  -1    2.03    0.76
  -6   4   1    1.66    0.67
  -6   4   1    1.07    0.52
  -6  -4   1    1.10    0.70
  -6  -4   1    1.58    0.59
   6   4  -1    1.34    0.58
   6   4  -1    1.69    0.69
   6  -4  -1    1.57    0.57
   6  -4  -1    1.36    0.65
   6  -4  -1    1.64    0.65
  -5   4   1    7.21    0.84
  -5   4   1    6.78    0.67
  -5  -4   1    7.44    0.87
  -5  -4   1    7.06    0.74
   5   4  -1    6.51    0.72
   5   4  -1    7.25    0.89
   5  -4  -1    7.19    0.70
   5  -4  -1    6.92    0.85
   5  -4  -1    4.63    0.71
  -4   4   1    0.12    0.39
  -4   4   1   -0.02    0.30
  -4   4   1    0.12    0.31
  -4  -4   1    0.02    0.42
  -4  -4   1    0.21    0.32
  -4  -4   1   -0.18    0.40
   4   4  -1    0.11    0.37
   4   4  -1    0.03    0.35
   4   4  -1    0.03    0.41
   4   4  -1    0.03    0.24
   4  -4  -1   -0.11    0.34
   4  -4  -1    0.07    0.26
   4  -4  -1    0.12    0.42
   4  -4  -1    0.33    0.40
  -3   4   1    2.60    0.51
  -3   4   1    2.60    0.60
  -3   4   1    2.37    0.43
  -3  -4   1    1.70    0.60
  -3  -4   1    2.69    0.51
  -3  -4   1    2.32    0.51
   3   4  -1    3.30    0.55
   3   4  -1    3.00    0.52
   3   4  -1    2.48    0.55
   3   4  -1    2.05    0.38
   3  -4  -1    2.19    0.41
   3  -4  -1    2.85    0.50
   3  -4  -1    3.53    0.59
   3  -4  -1    2.33    0.56
  -2   4   1    8.40    0.57
  -2   4   1    7.95    0.69
  -2   4   1    7.02    0.52
  -2  -4   1    7.95    0.59
  -2  -4   1    7.66    0.60
   2   4  -1    8.46    0.62
   2   4  -1    7.76    0.63
   2   4  -1    7.98    0.70
   2   4  -1    6.38    0.51
   2  -4  -1    8.19    0.59
   2  -4  -1    8.33    0.59
   2  -4  -1    8.95    0.69
   2  -4  -1    7.42    0.67
  -1   4   1    8.42    0.39
  -1   4   1    7.95    0.52
  -1   4   1    7.57    0.61
  -1   4   1    7.29    0.47
  -1  -4   1    8.73    0.58
  -1  -4   1    7.32    0.38
  -1  -4   1    8.20    0.52
   1   4  -1    7.69    0.54
   1   4  -1    8.19    0.55
   1   4  -1    7.04    0.55
   1   4  -1    7.61    0.48
   1  -4  -1    9.15    0.53
   1  -4  -1    7.14    0.56
   0   4   1   -0.04    0.25
   0   4   1   -0.05    0.22
   0  -4   1   -0.20    0.25
   0  -4   1   -0.33    0.20
   0  -4   1   -0.02    0.24
   0   4  -1    0.11    0.23
   0   4  -1   -0.09    0.22
   0   4  -1    0.00    0.23
   0   4  -1   -0.13    0.21
   0  -4  -1   -0.08    0.25
   0  -4  -1   -0.20    0.23
   0  -4  -1   -0.22    0.19
   1   4   1   28.50    0.93
   1   4   1   28.12    0.99
   1   4   1   26.02    0.86
   1   4   1   24.68    0.83
   1  -4   1   28.61    0.93
   1  -4   1   27.13    0.97
   1  -4   1   26.94    0.89
  -1   4  -1   27.67    0.97
  -1   4  -1   27.55    0.92
  -1   4  -1   26.28    0.80
  -1   4  -1   25.35    0.84
  -1  -4  -1   28.38    0.63
  -1  -4  -1   28.03    0.93
  -1  -4  -1   25.95    0.85
  -1  -4  -1   26.85    0.86
   2   4   1   41.61    1.25
   2   4   1   39.60    1.27
   2   4   1   34.88    1.04
   2   4   1   32.57    1.07
   2  -4   1   39.62    1.21
   2  -4   1   39.41    1.04
   2  -4   1   35.61    1.24
   2  -4   1   35.80    1.11
  -2   4  -1   36.83    1.27
  -2   4  -1   38.81    1.19
  -2   4  -1   38.09    1.05
  -2   4  -1   33.94    1.09
  -2  -4  -1   40.87    1.02
  -2  -4  -1   38.97    1.21
  -2  -4  -1   37.65    1.15
   3   4   1   17.36    0.95
   3   4   1   17.06    0.99
   3   4   1   13.39    0.76
   3   4   1   13.44    0.83
   3  -4   1   16.61    0.93
   3  -4   1   17.14    0.82
   3  -4   1   12.88    0.93
   3  -4   1   15.26    0.85
  -3   4  -1   14.97    0.95
  -3   4  -1   14.22    0.89
  -3   4  -1   16.24    0.84
  -3   4  -1   15.41    0.87
  -3  -4  -1   16.30    0.88
  -3  -4  -1   16.28    0.93
  -3  -4  -1   16.21    0.87
   4   4   1    4.06    0.64
   4   4   1    3.69    0.63
   4   4   1    3.18    0.51
   4   4   1    2.71    0.52
   4  -4   1    4.23    0.65
   4  -4   1    3.55    0.56
   4  -4   1    3.40    0.66
  -4   4  -1    3.40    0.66
  -4   4  -1    3.57    0.59
  -4   4  -1    3.95    0.59
  -4  -4  -1    4.89    0.69
  -4  -4  -1    4.17    0.67
  -4  -4  -1    3.66    0.61
   5   4   1   12.17    1.02
   5   4   1   12.88    1.08
   5   4   1   10.81    0.86
   5  -4   1   12.20    0.98
   5  -4   1   11.88    0.94
   5  -4   1   12.74    1.18
  -5   4  -1   10.46    1.10
  -5   4  -1   11.26    0.94
  -5  -4  -1   12.27    1.04
  -5  -4  -1   12.51    1.07
  -5  -4  -1   12.53    0.99
   6   4   1    0.04    0.51
   6   4   1    0.18    0.54
   6   4   1   -0.29    0.42
   6  -4   1   -0.15    0.51
   6  -4   1    0.04    0.49
   6  -4   1    0.02    0.62
  -6   4  -1   -0.18    0.67
  -6   4  -1    0.33    0.48
  -6  -4  -1    0.03    0.60
   7   4   1    0.86    0.65
   7   4   1    0.15    0.60
   7  -4   1    0.11    0.64
   7  -4   1    0.39    0.58
   7  -4   1    0.19    0.77
  -7   4  -1    0.59    0.88
  -7  -4  -1    0.62    0.75
   8   4   1    1.92    0.80
   8   4   1    1.26    0.78
   8  -4   1    2.88    0.76
   8  -4   1    1.84    0.95
  -8   4  -1    0.74    0.93
  -8  -4  -1    2.55    0.95
   9  -4   1   -0.52    0.49
   9  -4   1   -0.46    0.73
  -9   4  -1   -0.31    0.80
  -9  -4  -1   -0.23    0.86
  -9   5   1    5.64    1.14
  -9   5   1    3.59    0.93
  -9  -5   1    3.48    1.13
   9   5  -1    5.70    0.96
   9   5  -1    5.11    1.04
   9  -5  -1    3.87    0.82
   9  -5  -1    4.22    0.93
   9  -5  -1    3.84    1.01
  -8   5   1   -0.04    0.65
  -8   5   1    0.49    0.57
  -8  -5   1   -0.22    0.78
  -8  -5   1    0.11    0.60
   8   5  -1   -0.06    0.56
   8   5  -1   -0.32    0.62
   8  -5  -1    0.02    0.62
   8  -5  -1   -0.25    0.58
   8  -5  -1    0.09    0.66
  -7   5   1   18.34    1.41
  -7   5   1   15.64    1.14
  -7  -5   1   18.27    1.43
  -7  -5   1   17.63    1.24
   7   5  -1   20.26    1.28
   7   5  -1   17.09    1.42
   7  -5  -1   19.23    1.23
   7  -5  -1   17.74    1.32
   7  -5  -1   14.99    1.33
  -6   5   1    1.76    0.71
  -6   5   1    1.18    0.56
  -6  -5   1    1.68    0.73
  -6  -5   1    1.40    0.61
   6   5  -1    1.28    0.58
   6   5  -1    1.29    0.69
   6  -5  -1    1.44    0.59
   6  -5  -1    1.67    0.66
   6  -5  -1    1.72    0.67
  -5   5   1    8.77    0.91
  -5   5   1    8.73    0.77
  -5  -5   1   10.39    1.00
  -5  -5   1    9.98    0.88
   5   5  -1   11.15    0.90
   5   5  -1   10.64    1.02
   5  -5  -1   10.31    0.85
   5  -5  -1   10.49    0.98
   5  -5  -1    7.91    0.94
  -4   5   1   53.94    1.59
  -4   5   1   56.46    1.48
  -4   5   1   53.62    1.64
  -4   5   1   49.03    1.36
  -4  -5   1   55.73    1.63
  -4  -5   1   55.46    1.54
  -4  -5   1   53.43    1.51
   4   5  -1   55.07    1.59
   4   5  -1   57.51    1.57
   4   5  -1   55.64    1.74
   4  -5  -1   56.70    1.47
   4  -5  -1   55.86    1.67
   4  -5  -1   46.86    1.59
  -3   5   1  105.74    1.90
  -3   5   1  104.01    1.79
  -3   5   1   92.51    1.96
  -3   5   1   86.11    1.61
  -3  -5   1   97.69    1.85
  -3  -5   1   99.94    1.83
   3   5  -1  106.96    1.95
   3   5  -1  107.66    1.94
   3   5  -1  100.70    2.09
   3   5  -1   81.91    1.56
   3  -5  -1  102.82    1.75
   3  -5  -1  105.56    1.80
   3  -5  -1  104.05    2.08
   3  -5  -1   82.33    1.90
  -2   5   1    6.34    0.59
  -2   5   1    5.58    0.60
  -2   5   1    5.17    0.64
  -2   5   1    4.48    0.50
  -2  -5   1    5.23    0.62
  -2  -5   1    6.09    0.64
   2   5  -1    5.69    0.63
   2   5  -1    6.54    0.66
   2   5  -1    5.73    0.65
   2   5  -1    4.56    0.50
   2  -5  -1    5.48    0.65
   2  -5  -1    5.61    0.70
  -1   5   1   90.55    1.16
  -1   5   1   93.14    1.54
  -1   5   1   89.59    1.75
  -1   5   1   82.00    1.40
  -1  -5   1   90.70    1.59
  -1  -5   1   91.35    1.23
  -1  -5   1   85.35    1.51
   1   5  -1   94.17    1.60
   1   5  -1   90.71    1.59
   1   5  -1   91.37    1.65
   1   5  -1   81.76    1.43
   1  -5  -1   95.69    1.55
   1  -5  -1   85.07    1.64
   1  -5  -1   81.78    1.31
   0   5   1  341.50    3.28
   0   5   1  351.70    2.93
   0  -5   1  362.09    3.14
   0  -5   1  362.89    2.94
   0  -5   1  340.48    2.94
   0   5  -1  329.04    2.97
   0   5  -1  345.82    3.07
   0   5  -1  348.56    2.97
   0   5  -1  331.35    2.87
   0  -5  -1  345.12    2.97
   0  -5  -1  366.73    3.15
   0  -5  -1  330.35    2.70
   1   5   1  338.74    3.16
   1   5   1  332.57    3.37
   1   5   1  330.96    3.03
   1  -5   1  358.55    3.30
   1  -5   1  250.14    2.81
   1  -5   1  318.75    2.98
  -1   5  -1  332.71    3.24
  -1   5  -1  337.32    3.18
  -1   5  -1  348.24    2.96
  -1   5  -1  324.11    3.00
  -1  -5  -1  349.39    2.33
  -1  -5  -1  327.87    3.11
  -1  -5  -1  294.89    2.78
  -1  -5  -1  324.24    2.92
   2   5   1   61.12    1.54
   2   5   1   58.78    1.60
   2   5   1   36.15    1.09
   2   5   1   50.67    1.35
   2  -5   1   59.06    1.51
   2  -5   1   55.92    1.58
   2  -5   1   52.24    1.36
  -2   5  -1   58.11    1.57
  -2   5  -1   58.50    1.49
  -2   5  -1   56.83    1.31
  -2   5  -1   56.73    1.41
  -2  -5  -1   59.45    1.18
  -2  -5  -1   56.25    1.47
  -2  -5  -1   55.87    1.41
   3   5   1   15.77    0.94
   3   5   1   15.44    0.99
   3   5   1   17.60    0.86
   3   5   1   12.72    0.83
   3  -5   1   14.96    0.92
   3  -5   1   14.74    0.79
   3  -5   1   14.13    1.00
   3  -5   1   13.65    0.85
  -3   5  -1   13.43    0.94
  -3   5  -1   16.82    0.95
  -3   5  -1   17.22    0.88
  -3   5  -1   14.63    0.86
  -3  -5  -1   15.17    0.84
  -3  -5  -1   14.52    0.94
  -3  -5  -1   14.19    0.89
   4   5   1    0.28    0.45
   4   5   1   -0.04    0.42
   4   5   1    0.29    0.33
   4   5   1   -0.08    0.34
   4  -5   1    0.06    0.46
   4  -5   1    0.12    0.39
   4  -5   1    0.31    0.50
  -4   5  -1    0.14    0.46
  -4   5  -1    0.31    0.38
  -4   5  -1   -0.50    0.35
  -4   5  -1    0.16    0.39
  -4  -5  -1   -0.19    0.44
  -4  -5  -1   -0.30    0.44
  -4  -5  -1    0.12    0.44
   5   5   1    6.72    0.89
   5   5   1    6.98    0.88
   5   5   1    5.87    0.71
   5  -5   1    6.33    0.86
   5  -5   1    6.68    0.78
   5  -5   1    5.54    0.95
  -5   5  -1    6.45    0.96
  -5   5  -1    6.43    0.81
  -5   5  -1    5.31    0.79
  -5  -5  -1    6.87    0.86
  -5  -5  -1    4.59    0.84
  -5  -5  -1    6.77    0.87
   6   5   1    5.50    0.89
   6   5   1    6.85    1.00
   6  -5   1    6.10    0.90
   6  -5   1    5.65    0.81
   6  -5   1    3.17    0.90
  -6   5  -1    6.84    1.07
  -6   5  -1    5.69    0.86
  -6  -5  -1    5.45    0.95
   7   5   1   17.48    1.35
   7   5   1   16.28    1.41
   7  -5   1   16.02    1.31
   7  -5   1   12.30    1.41
  -7   5  -1   12.46    1.32
  -7  -5  -1   14.89    1.37
   8   5   1    7.80    1.12
   8  -5   1    9.82    1.11
   8  -5   1    5.28    1.20
  -8   5  -1    6.81    1.29
  -8  -5  -1    6.04    1.16
  -9   6   1    1.38    0.76
  -9   6   1    1.52    1.02
  -9   6   1    1.14    0.82
  -9  -6   1    0.46    0.93
   9   6  -1    1.40    0.68
   9   6  -1    0.62    0.70
   9  -6  -1    0.48    0.58
   9  -6  -1    0.75    0.69
   9  -6  -1    1.16    0.86
  -8   6   1    0.01    0.62
  -8   6   1    0.12    0.76
  -8   6   1   -0.24    0.59
  -8  -6   1    0.23    0.78
  -8  -6   1   -0.07    0.62
   8   6  -1    0.03    0.52
   8   6  -1   -0.45    0.57
   8  -6  -1    0.45    0.63
   8  -6  -1    0.19    0.58
   8  -6  -1   -0.05    0.70
  -7   6   1   20.02    1.48
  -7   6   1   18.48    1.47
  -7   6   1   17.99    1.24
  -7  -6   1   19.67    1.46
  -7  -6   1   16.59    1.25
   7   6  -1   20.34    1.34
   7   6  -1   19.49    1.52
   7  -6  -1   17.64    1.24
   7  -6  -1   18.30    1.40
   7  -6  -1   18.31    1.47
  -6   6   1    0.33    0.56
  -6   6   1   -0.04    0.58
  -6   6   1    0.04    0.47
  -6  -6   1    0.72    0.66
  -6  -6   1   -0.22    0.53
   6   6  -1    0.11    0.53
   6   6  -1   -0.27    0.58
   6  -6  -1   -0.02    0.51
   6  -6  -1    0.47    0.56
   6  -6  -1   -0.19    0.57
  -5   6   1    2.33    0.64
  -5   6   1    1.66    0.62
  -5   6   1    1.77    0.55
  -5  -6   1    1.92    0.66
  -5  -6   1    1.98    0.63
   5   6  -1    1.98    0.64
   5   6  -1    1.60    0.66
   5  -6  -1    2.48    0.64
   5  -6  -1    1.93    0.63
   5  -6  -1    1.34    0.63
  -4   6   1   11.55    0.86
  -4   6   1   11.16    0.92
  -4   6   1   10.93    0.79
  -4  -6   1   12.73    0.97
  -4  -6   1   11.58    0.88
   4   6  -1   11.51    0.87
   4   6  -1   11.94    0.88
   4   6  -1   12.12    1.00
   4  -6  -1   10.42    0.81
   4  -6  -1   11.26    0.93
   4  -6  -1    8.49    0.88
  -3   6   1    2.16    0.47
  -3   6   1    2.46    0.45
  -3   6   1    2.76    0.54
  -3   6   1    2.16    0.45
  -3  -6   1    2.00    0.51
  -3  -6   1    2.67    0.53
   3   6  -1    1.98    0.47
   3   6  -1    2.63    0.53
   3   6  -1    2.85    0.57
   3   6  -1    1.73    0.41
   3  -6  -1    2.40    0.52
   3  -6  -1    2.16    0.55
  -2   6   1   89.43    1.53
  -2   6   1   94.33    1.74
  -2   6   1   92.76    1.98
  -2   6   1   79.69    1.57
  -2  -6   1   88.85    1.78
  -2  -6   1   87.24    1.13
  -2  -6   1   92.37    1.77
   2   6  -1  100.57    1.81
   2   6  -1   96.65    1.88
   2   6  -1   92.16    1.96
   2   6  -1   79.70    1.59
   2  -6  -1   96.74    1.76
   2  -6  -1   59.48    1.61
  -1   6   1    3.28    0.38
  -1   6   1    4.71    0.56
  -1   6   1    4.05    0.63
  -1   6   1    4.04    0.53
  -1  -6   1    3.97    0.58
  -1  -6   1    3.98    0.48
  -1  -6   1    3.76    0.57
   1   6  -1    4.05    0.54
   1   6  -1    5.11    0.60
   1   6  -1    4.28    0.60
   1   6  -1    3.65    0.51
   1  -6  -1    4.06    0.59
   1  -6  -1    4.14    0.60
   1  -6  -1    3.25    0.45
   0   6   1   54.78    1.56
   0   6   1   53.83    1.33
   0  -6   1   58.50    1.46
   0  -6   1   52.26    1.28
   0  -6   1   53.66    1.35
   0   6  -1   54.30    1.37
   0   6  -1   59.33    1.47
   0   6  -1   55.58    1.42
   0   6  -1   51.28    1.30
   0  -6  -1   53.87    1.37
   0  -6  -1   56.43    1.39
   0  -6  -1   51.11    1.22
   1   6   1   36.60    0.76
   1   6   1   36.71    1.23
   1   6   1   33.49    1.29
   1   6   1   32.71    1.12
   1  -6   1   36.76    1.25
   1  -6   1   34.40    1.23
   1  -6   1   34.27    1.15
  -1   6  -1   34.48    1.23
  -1   6  -1   36.44    1.21
  -1   6  -1   35.22    1.18
  -1   6  -1   32.72    1.12
  -1  -6  -1   36.67    0.81
  -1  -6  -1   33.80    1.18
  -1  -6  -1   34.09    1.08
   2   6   1    2.74    0.53
   2   6   1    2.72    0.57
   2   6   1    2.38    0.45
   2   6   1    3.14    0.52
   2  -6   1    2.82    0.56
   2  -6   1    3.04    0.58
   2  -6   1    2.26    0.48
  -2   6  -1    3.26    0.59
  -2   6  -1    2.80    0.51
  -2   6  -1    2.89    0.51
  -2   6  -1    2.98    0.50
  -2  -6  -1    2.73    0.42
  -2  -6  -1    2.80    0.57
  -2  -6  -1    3.03    0.48
  -2  -6  -1    2.66    0.55
   3   6   1   13.15    0.95
   3   6   1   11.71    0.97
   3   6   1   12.96    0.80
   3   6   1   10.77    0.85
   3  -6   1   12.78    0.93
   3  -6   1   12.41    1.00
   3  -6   1   11.66    0.85
  -3   6  -1   11.93    0.94
  -3   6  -1   12.20    0.89
  -3   6  -1   13.36    0.85
  -3   6  -1   11.50    0.83
  -3  -6  -1   12.92    0.80
  -3  -6  -1   12.28    0.91
  -3  -6  -1   12.59    0.90
   4   6   1    0.43    0.52
   4   6   1    0.07    0.47
   4   6   1    0.04    0.35
   4  -6   1   -0.04    0.50
   4  -6   1    0.23    0.42
   4  -6   1    0.27    0.55
  -4   6  -1   -0.06    0.49
  -4   6  -1   -0.03    0.37
  -4   6  -1    0.35    0.43
  -4   6  -1    0.15    0.43
  -4  -6  -1    0.28    0.49
  -4  -6  -1    0.28    0.50
  -4  -6  -1    0.01    0.48
   5   6   1   -0.14    0.49
   5   6   1   -0.02    0.52
   5  -6   1   -0.24    0.48
   5  -6   1   -0.15    0.45
   5  -6   1   -0.44    0.58
  -5   6  -1   -0.11    0.57
  -5   6  -1   -0.58    0.43
  -5   6  -1    0.28    0.46
  -5  -6  -1   -0.30    0.51
   6   6   1    7.60    0.99
   6   6   1    6.55    1.02
   6  -6   1    7.23    1.01
   6  -6   1    6.98    0.86
   6  -6   1    5.43    1.08
  -6   6  -1    6.39    1.08
  -6   6  -1    7.23    0.92
  -6   6  -1    6.32    0.91
  -6  -6  -1    6.01    0.96
   7   6   1    2.16    0.81
   7   6   1    2.00    0.84
   7  -6   1    2.27    0.84
   7  -6   1    1.52    0.92
  -7   6  -1    2.48    0.91
  -7  -6  -1    1.94    0.85
   8   6   1   12.23    1.30
   8  -6   1    9.63    1.10
   8  -6   1    7.36    1.34
  -8   6  -1   11.44    1.35
  -9   7   1    0.38    0.86
  -9   7   1   -0.24    0.69
  -9  -7   1   -0.40    0.85
   9   7  -1    0.28    0.57
   9   7  -1   -0.36    0.74
   9  -7  -1    0.32    0.54
   9  -7  -1   -0.55    0.52
   9  -7  -1    0.35    0.86
  -8   7   1    0.00    0.59
  -8   7   1   -0.28    0.71
  -8   7   1   -0.12    0.64
  -8  -7   1    0.65    0.86
   8   7  -1    0.26    0.54
   8   7  -1   -0.13    0.64
   8  -7  -1   -0.11    0.59
   8  -7  -1   -0.55    0.56
   8  -7  -1    0.10    0.72
  -7   7   1    4.04    0.91
  -7   7   1    5.24    1.01
  -7   7   1    5.11    0.90
  -7  -7   1    3.36    0.94
  -7  -7   1    2.34    0.81
   7   7  -1    4.56    0.88
   7   7  -1    5.04    1.01
   7  -7  -1    3.13    0.80
   7  -7  -1    4.37    0.94
   7  -7  -1    3.17    0.93
  -6   7   1   16.25    1.25
  -6   7   1   16.16    1.31
  -6   7   1   12.59    1.04
  -6  -7   1   15.57    1.26
  -6  -7   1   13.53    1.15
   6   7  -1   15.21    1.19
   6   7  -1   14.83    1.34
   6  -7  -1   15.53    1.15
   6  -7  -1   16.09    1.27
   6  -7  -1   14.12    1.32
  -5   7   1   29.03    1.43
  -5   7   1   29.99    1.53
  -5   7   1   23.62    1.19
  -5  -7   1   30.99    1.49
  -5  -7   1   28.02    1.37
   5   7  -1   31.05    1.45
   5   7  -1   31.01    1.67
   5  -7  -1   29.58    1.36
   5  -7  -1   29.35    1.48
   5  -7  -1   25.85    1.51
  -4   7   1   19.05    1.08
  -4   7   1   19.36    1.19
  -4   7   1   18.00    0.98
  -4  -7   1   21.17    1.22
  -4  -7   1   18.46    1.07
   4   7  -1   21.05    1.12
   4   7  -1   21.75    1.17
   4   7  -1   21.02    1.29
   4  -7  -1   19.67    1.07
   4  -7  -1   16.37    1.17
  -3   7   1    0.35    0.37
  -3   7   1    0.03    0.42
  -3   7   1    0.18    0.33
  -3  -7   1    0.26    0.40
  -3  -7   1    0.21    0.42
   3   7  -1   -0.24    0.33
   3   7  -1    0.24    0.40
   3   7  -1    0.15    0.39
   3  -7  -1   -0.03    0.42
   3  -7  -1    0.02    0.41
  -2   7   1    2.82    0.44
  -2   7   1    2.80    0.49
  -2   7   1    3.06    0.61
  -2   7   1    2.94    0.50
  -2  -7   1    3.29    0.57
  -2  -7   1    3.12    0.38
  -2  -7   1    3.10    0.56
   2   7  -1    3.76    0.53
   2   7  -1    3.67    0.63
   2   7  -1    3.27    0.57
   2   7  -1    2.72    0.49
   2  -7  -1    2.82    0.56
   2  -7  -1    3.30    0.60
  -1   7   1    4.12    0.48
  -1   7   1    5.34    0.66
  -1   7   1    5.58    0.72
  -1   7   1    5.01    0.59
  -1  -7   1    5.28    0.66
  -1  -7   1    4.78    0.49
  -1  -7   1    5.07    0.63
   1   7  -1    5.41    0.62
   1   7  -1    4.19    0.59
   1   7  -1    4.56    0.62
   1   7  -1    4.86    0.57
   1  -7  -1    5.12    0.64
   1  -7  -1    5.20    0.64
   1  -7  -1    4.55    0.54
   0   7   1    4.99    0.40
   0   7   1    4.04    0.64
   0   7   1    5.50    0.65
   0  -7   1    5.55    0.68
   0  -7   1    5.30    0.60
   0  -7   1    4.80    0.61
   0   7  -1    5.03    0.59
   0   7  -1    5.49    0.65
   0   7  -1    5.68    0.64
   0   7  -1    4.80    0.57
   0  -7  -1    5.31    0.64
   0  -7  -1    4.80    0.60
   0  -7  -1    3.98    0.52
   1   7   1   24.57    0.66
   1   7   1   26.42    1.14
   1   7   1   23.63    1.17
   1   7   1   23.54    1.02
   1  -7   1   26.17    1.15
   1  -7   1   24.18    1.12
   1  -7   1   24.74    1.04
  -1   7  -1   23.08    1.06
  -1   7  -1   24.73    1.10
  -1   7  -1   26.39    1.11
  -1   7  -1   22.70    1.00
  -1  -7  -1   23.18    1.07
  -1  -7  -1   23.19    0.97
  -1  -7  -1   21.44    0.97
   2   7   1   26.39    1.19
   2   7   1   25.01    1.24
   2   7   1   22.61    0.98
   2   7   1   23.59    1.09
   2  -7   1   27.75    1.22
   2  -7   1   24.65    1.22
   2  -7   1   23.05    1.07
  -2   7  -1   23.38    1.16
  -2   7  -1   25.28    1.15
  -2   7  -1   25.00    1.10
  -2   7  -1   22.62    1.06
  -2  -7  -1   26.31    0.87
  -2  -7  -1   23.20    1.14
  -2  -7  -1   21.56    0.94
  -2  -7  -1   22.67    1.11
   3   7   1    3.77    0.68
   3   7   1    3.98    0.74
   3   7   1    4.26    0.57
   3   7   1    3.85    0.64
   3  -7   1    4.17    0.73
   3  -7   1    3.89    0.72
  -3   7  -1    3.44    0.68
  -3   7  -1    3.16    0.59
  -3   7  -1    4.34    0.62
  -3   7  -1    3.24    0.59
  -3  -7  -1    3.59    0.55
  -3  -7  -1    3.57    0.69
  -3  -7  -1    3.12    0.67
   4   7   1    0.69    0.57
   4   7   1    0.27    0.56
   4   7   1    0.43    0.43
   4  -7   1   -0.04    0.52
   4  -7   1    0.22    0.57
  -4   7  -1    0.59    0.58
  -4   7  -1    0.70    0.49
  -4   7  -1    0.10    0.45
  -4  -7  -1    0.68    0.53
  -4  -7  -1    0.40    0.58
   5   7   1    0.84    0.62
   5   7   1    0.97    0.66
   5  -7   1    0.93    0.62
   5  -7   1    0.79    0.52
   5  -7   1    0.29    0.70
  -5   7  -1    0.71    0.70
  -5   7  -1    0.89    0.55
  -5   7  -1    0.94    0.55
  -5  -7  -1    0.61    0.58
   6   7   1   15.34    1.25
   6   7   1   15.29    1.37
   6  -7   1   15.36    1.28
   6  -7   1   14.60    1.14
   6  -7   1    8.79    1.27
  -6   7  -1   14.32    1.37
   7   7   1   12.91    1.33
   7  -7   1   12.29    1.22
   7  -7   1    7.11    1.27
  -7   7  -1   11.21    1.28
   8   7   1    1.20    0.71
   8  -7   1    1.70    0.73
   8  -7   1    1.18    0.95
  -8   7  -1    0.41    0.82
  -9   8   1   21.73    1.85
  -9   8   1   19.93    1.62
   9   8  -1   22.21    1.51
   9  -8  -1   19.65    1.40
   9  -8  -1   16.27    1.65
  -8   8   1    0.15    0.61
  -8   8   1    0.98    0.79
  -8   8   1    0.42    0.65
  -8  -8   1    0.49    0.79
   8   8  -1    0.43    0.64
   8   8  -1    0.05    0.72
   8  -8  -1    0.68    0.62
   8  -8  -1    0.64    0.67
   8  -8  -1    0.45    0.79
  -7   8   1   -0.43    0.59
  -7   8   1    0.32    0.70
  -7   8   1    0.22    0.59
  -7  -8   1    0.49    0.74
  -7  -8   1    0.78    0.68
   7   8  -1   -0.17    0.58
   7   8  -1    0.72    0.71
   7  -8  -1   -0.16    0.60
   7  -8  -1    0.09    0.64
   7  -8  -1    0.46    0.78
  -6   8   1    1.55    0.69
  -6   8   1    1.26    0.72
  -6   8   1    1.66    0.64
  -6  -8   1    0.64    0.71
  -6  -8   1    2.00    0.75
   6   8  -1    1.88    0.73
   6   8  -1    1.62    0.81
   6  -8  -1    1.25    0.69
   6  -8  -1    1.70    0.72
   6  -8  -1    1.61    0.82
  -5   8   1    0.54    0.55
  -5   8   1   -0.41    0.54
  -5   8   1   -0.09    0.47
  -5  -8   1    0.10    0.60
  -5  -8   1    0.20    0.58
   5   8  -1    0.27    0.47
   5   8  -1    0.40    0.57
   5   8  -1    0.11    0.67
   5  -8  -1   -0.10    0.54
   5  -8  -1    0.25    0.63
  -4   8   1   79.53    2.05
  -4   8   1   84.50    2.32
  -4   8   1   69.37    1.87
  -4  -8   1   84.65    2.14
  -4  -8   1   81.35    2.13
   4   8  -1   90.76    2.16
   4   8  -1   86.27    2.22
   4   8  -1   89.34    2.49
   4  -8  -1   86.87    2.11
   4  -8  -1   73.28    2.26
  -3   8   1    0.95    0.42
  -3   8   1    0.87    0.53
  -3   8   1    0.62    0.43
  -3  -8   1    0.91    0.49
  -3  -8   1    0.92    0.53
   3   8  -1    1.01    0.47
   3   8  -1    1.31    0.54
   3   8  -1    0.88    0.55
   3  -8  -1    1.02    0.53
   3  -8  -1    0.81    0.54
  -2   8   1   37.30    1.13
  -2   8   1   41.96    1.40
  -2   8   1   38.36    1.52
  -2   8   1   35.70    1.26
  -2  -8   1   36.17    1.36
  -2  -8   1   36.70    1.33
   2   8  -1   37.72    1.26
   2   8  -1   38.82    1.43
   2   8  -1   40.97    1.53
   2   8  -1   31.69    1.21
   2  -8  -1   38.05    1.34
   2  -8  -1   47.63    1.61
  -1   8   1   13.87    0.65
  -1   8   1   15.46    0.93
  -1   8   1   14.17    1.05
  -1   8   1   14.22    0.86
  -1  -8   1   15.79    0.96
  -1  -8   1   13.49    0.71
  -1  -8   1   14.24    0.89
   1   8  -1   14.87    0.89
   1   8  -1   15.33    0.94
   1   8  -1   14.01    0.96
   1   8  -1   13.78    0.87
   1  -8  -1   14.59    0.89
   1  -8  -1   16.24    0.97
   0   8   1   25.56    1.30
   0   8   1   25.15    1.10
   0  -8   1   25.94    1.17
   0  -8   1   23.49    1.01
   0  -8   1   23.00    1.05
   0   8  -1   26.21    1.09
   0   8  -1   26.70    1.18
   0   8  -1   23.73    1.14
   0   8  -1   23.47    1.06
   0  -8  -1   23.83    1.09
   0  -8  -1   24.83    1.07
   0  -8  -1   21.46    0.98
   1   8   1   10.69    0.52
   1   8   1   11.25    0.89
   1   8   1    9.31    0.91
   1   8   1    9.47    0.79
   1  -8   1   10.48    0.89
   1  -8   1    9.04    0.81
   1  -8   1    9.14    0.80
  -1   8  -1    8.92    0.83
  -1   8  -1    9.52    0.83
  -1   8  -1    9.77    0.87
  -1   8  -1    9.20    0.81
  -1  -8  -1    8.43    0.80
  -1  -8  -1   10.36    0.75
  -1  -8  -1    7.64    0.75
   2   8   1    5.68    0.74
   2   8   1    5.10    0.75
   2   8   1    5.49    0.62
   2   8   1    4.58    0.67
   2  -8   1    6.36    0.79
   2  -8   1    4.57    0.74
   2  -8   1    5.14    0.72
  -2   8  -1    6.19    0.76
  -2   8  -1    4.61    0.66
  -2   8  -1    5.23    0.70
  -2   8  -1    5.35    0.68
  -2  -8  -1    4.90    0.74
  -2  -8  -1    4.25    0.59
   3   8   1  205.13    3.38
   3   8   1  204.12    3.61
   3   8   1  159.93    2.49
   3   8   1  175.95    3.02
   3  -8   1  198.05    3.31
  -3   8  -1  202.95    3.43
  -3   8  -1  186.23    3.19
  -3   8  -1  201.87    3.11
  -3   8  -1  180.00    3.05
  -3  -8  -1  182.45    3.20
   4   8   1   45.59    1.82
   4   8   1   48.78    2.00
   4  -8   1   47.36    1.82
   4  -8   1   41.37    1.88
  -4   8  -1   45.18    1.87
  -4   8  -1   49.53    1.70
  -4   8  -1   38.15    1.56
  -4  -8  -1   43.28    1.78
   5   8   1    1.38    0.63
   5   8   1    0.31    0.68
   5  -8   1    1.45    0.70
   5  -8   1    0.61    0.72
  -5   8  -1    0.96    0.75
  -5   8  -1    1.13    0.60
  -5   8  -1    0.64    0.54
   6   8   1    2.55    0.83
   6  -8   1    2.63    0.84
   6  -8   1    1.66    0.94
  -6   8  -1    2.67    0.94
   7   8   1    0.70    0.68
   7  -8   1    0.72    0.65
   7  -8   1   -0.11    0.85
  -7   8  -1    0.42    0.69
   8   8   1    4.58    1.01
   8  -8   1    3.44    0.84
   8  -8   1    4.60    1.23
  -8   9   1    0.09    0.82
  -8   9   1    1.25    0.78
   8   9  -1    2.13    0.73
   8   9  -1    0.67    0.81
   8  -9  -1    0.55    0.58
   8  -9  -1    0.51    0.60
   8  -9  -1    0.56    0.87
  -7   9   1    3.27    0.89
  -7   9   1    4.42    1.01
  -7   9   1    2.92    0.85
  -7  -9   1    1.87    0.89
   7   9  -1    4.98    0.94
   7   9  -1    4.02    1.00
   7  -9  -1    2.42    0.75
   7  -9  -1    3.01    1.01
  -6   9   1    1.33    0.69
  -6   9   1    0.95    0.75
  -6   9   1    0.52    0.58
  -6  -9   1    1.11    0.72
  -6  -9   1    1.23    0.78
   6   9  -1    0.75    0.70
   6   9  -1    0.53    0.77
   6  -9  -1    0.68    0.64
   6  -9  -1    0.72    0.80
  -5   9   1   64.85    2.11
  -5   9   1   61.45    2.22
  -5   9   1   53.72    1.87
  -5  -9   1   69.22    2.16
  -5  -9   1   60.26    2.08
   5   9  -1   66.65    2.06
   5   9  -1   69.25    2.23
   5   9  -1   62.04    2.38
   5  -9  -1   63.68    2.04
   5  -9  -1   50.85    2.15
  -4   9   1    3.05    0.67
  -4   9   1    3.94    0.83
  -4   9   1    3.69    0.69
  -4  -9   1    4.20    0.81
  -4  -9   1    3.96    0.79
   4   9  -1    4.33    0.75
   4   9  -1    4.74    0.81
   4   9  -1    2.98    0.85
   4  -9  -1    4.32    0.79
   4  -9  -1    2.44    0.78
  -3   9   1  181.28    2.79
  -3   9   1  185.88    3.40
  -3   9   1  168.98    2.88
  -3  -9   1  166.80    2.95
   3   9  -1  192.74    2.96
   3   9  -1  190.46    3.25
   3   9  -1  189.37    3.49
   3  -9  -1  178.75    2.98
   3  -9  -1  170.88    3.29
  -2   9   1    1.68    0.43
  -2   9   1    1.59    0.64
  -2   9   1    1.82    0.53
  -2  -9   1    1.73    0.60
  -2  -9   1    1.39    0.38
  -2  -9   1    2.50    0.63
   2   9  -1    1.92    0.52
   2   9  -1    2.01    0.66
   2   9  -1    1.69    0.62
   2  -9  -1    2.54    0.64
   2  -9  -1    2.10    0.60
  -1   9   1    0.16    0.26
  -1   9   1   -0.01    0.52
  -1   9   1   -0.06    0.39
  -1  -9   1    0.18    0.45
  -1  -9   1   -0.01    0.32
  -1  -9   1   -0.44    0.42
   1   9  -1    0.41    0.37
   1   9  -1   -0.02    0.44
   1   9  -1   -0.36    0.39
   1   9  -1   -0.07    0.38
   1  -9  -1   -0.10    0.45
   1  -9  -1    0.28    0.42
   0   9   1    4.97    0.47
   0   9   1    4.15    0.73
   0   9   1    5.41    0.71
   0  -9   1    5.79    0.80
   0  -9   1    4.36    0.61
   0  -9   1    4.33    0.67
   0   9  -1    4.76    0.65
   0   9  -1    4.85    0.71
   0   9  -1    5.00    0.71
   0   9  -1    5.13    0.66
   0  -9  -1    5.10    0.73
   0  -9  -1    5.05    0.68
   1   9   1   -0.08    0.46
   1   9   1    0.23    0.50
   1   9   1    0.63    0.48
   1  -9   1   -0.04    0.50
   1  -9   1    0.78    0.48
   1  -9   1    0.39    0.47
  -1   9  -1    0.49    0.44
  -1   9  -1    0.65    0.49
  -1   9  -1    0.19    0.47
  -1   9  -1    0.37    0.46
  -1  -9  -1    0.50    0.52
  -1  -9  -1    0.43    0.44
   2   9   1    1.68    0.61
   2   9   1    2.08    0.65
   2   9   1    1.62    0.53
   2   9   1    1.00    0.54
   2  -9   1    1.29    0.66
   2  -9   1    1.27    0.60
  -2   9  -1    2.01    0.63
  -2   9  -1    1.64    0.58
  -2   9  -1    1.41    0.59
  -2   9  -1    1.08    0.55
  -2  -9  -1    2.01    0.63
  -2  -9  -1    1.95    0.51
   3   9   1    0.46    0.60
   3   9   1    0.30    0.64
   3  -9   1    0.50    0.60
   3  -9   1    0.10    0.58
  -3   9  -1    0.26    0.57
  -3   9  -1    0.54    0.54
  -3   9  -1   -0.25    0.49
  -3  -9  -1    0.84    0.64
   4   9   1   46.21    1.89
   4   9   1   46.21    2.03
   4  -9   1   42.85    1.80
   4  -9   1   35.89    1.82
  -4   9  -1   44.99    1.92
  -4   9  -1   44.55    1.74
  -4   9  -1   43.86    1.76
  -4  -9  -1   44.17    1.85
   5   9   1   11.02    1.25
   5  -9   1   11.70    1.19
   5  -9   1    6.87    1.10
  -5   9  -1   12.21    1.26
   6   9   1   35.00    1.98
   6  -9   1   34.19    1.87
  -6   9  -1   32.69    1.93
   7   9   1    0.90    0.71
   7  -9   1    2.24    0.85
   7  -9   1    1.16    1.00
  -7   9  -1    2.11    0.86
  -8  10   1    4.19    1.17
  -8  10   1    4.66    1.04
   8  10  -1    6.84    1.03
   8  10  -1    5.38    1.12
   8 -10  -1    3.17    0.77
   8 -10  -1    2.35    1.04
  -7  10   1    5.76    1.08
  -7  10   1    8.12    1.23
  -7  10   1    6.70    1.07
   7  10  -1    8.82    1.15
   7  10  -1    7.96    1.26
   7 -10  -1    4.23    0.85
   7 -10  -1    4.76    1.15
  -6  10   1   -0.05    0.62
  -6  10   1    0.24    0.75
  -6  10   1   -0.14    0.56
   6  10  -1   -0.21    0.67
   6  10  -1    0.41    0.83
   6 -10  -1    0.02    0.58
   6 -10  -1    0.38    0.73
  -5  10   1    0.09    0.57
  -5  10   1    0.12    0.72
  -5  10   1    0.20    0.58
  -5 -10   1   -0.29    0.59
  -5 -10   1    0.35    0.69
   5  10  -1   -0.26    0.46
   5  10  -1    0.44    0.67
   5  10  -1    1.19    0.88
   5 -10  -1    0.77    0.64
   5 -10  -1    0.72    0.67
  -4  10   1   44.56    1.67
  -4  10   1   49.24    2.05
  -4  10   1   42.06    1.67
  -4 -10   1   47.14    1.78
  -4 -10   1   40.61    1.72
   4  10  -1   49.74    1.73
   4  10  -1   50.13    1.92
   4  10  -1   49.08    2.12
   4 -10  -1   43.95    1.73
   4 -10  -1   37.03    1.82
  -3  10   1   26.93    1.24
  -3  10   1   28.15    1.62
  -3  10   1   24.72    1.29
  -3 -10   1   25.31    1.36
   3  10  -1   27.18    1.28
   3  10  -1   27.83    1.47
   3  10  -1   26.05    1.56
   3 -10  -1   24.74    1.33
   3 -10  -1   23.48    1.43
  -2  10   1    8.45    0.78
  -2  10   1   10.64    1.19
  -2  10   1   10.37    0.93
  -2 -10   1   10.44    0.97
  -2 -10   1   10.50    1.00
   2  10  -1   10.90    0.89
   2  10  -1   10.75    1.08
   2  10  -1   10.37    1.10
   2 -10  -1   10.14    0.95
   2 -10  -1   10.36    1.01
  -1  10   1    6.81    0.96
  -1  10   1    6.60    0.79
  -1 -10   1    5.46    0.82
  -1 -10   1    6.28    0.64
  -1 -10   1    5.97    0.83
   1  10  -1    6.17    0.77
   1  10  -1    7.42    0.91
   1  10  -1    6.57    0.86
   1 -10  -1    6.81    0.84
   1 -10  -1    6.77    0.84
   0  10   1   10.83    1.16
   0  10   1   11.24    0.95
   0 -10   1   11.26    0.99
   0 -10   1   10.38    0.85
   0 -10   1   10.52    0.95
   0  10  -1   11.51    0.90
   0  10  -1   11.83    1.01
   0  10  -1   11.53    1.04
   0 -10  -1   11.22    0.94
   0 -10  -1   11.43    0.91
   1  10   1    0.73    0.63
   1  10   1    0.48    0.49
   1 -10   1    0.45    0.58
   1 -10   1    0.58    0.52
  -1  10  -1    0.22    0.44
  -1  10  -1   -0.35    0.47
  -1  10  -1   -0.06    0.53
  -1  10  -1    0.11    0.49
  -1 -10  -1    0.48    0.53
  -1 -10  -1    0.73    0.49
   2  10   1   12.13    1.20
   2  10   1   13.17    1.01
   2  10   1   11.86    1.03
   2 -10   1   13.46    1.15
   2 -10   1   11.41    1.07
  -2  10  -1   11.98    1.04
  -2  10  -1   15.00    1.19
  -2  10  -1   10.82    0.99
  -2 -10  -1   11.22    1.06
  -2 -10  -1   12.13    0.88
   3  10   1  120.50    3.10
   3 -10   1  125.91    2.92
   3 -10   1  107.38    2.86
  -3  10  -1  126.90    2.94
  -3  10  -1  127.44    2.81
  -3 -10  -1  116.17    2.81
   4  10   1    1.41    0.78
   4 -10   1    0.51    0.67
   4 -10   1    0.22    0.69
  -4  10  -1    0.41    0.65
  -4  10  -1   -0.57    0.57
   5  10   1    0.95    0.72
   5 -10   1    0.91    0.68
   5 -10   1    0.01    0.66
  -5  10  -1    0.84    0.74
   6  10   1    5.23    1.03
   6 -10   1    5.32    1.00
   6 -10   1    5.15    1.08
  -6  10  -1    4.45    1.04
   7  10   1    5.21    1.07
   7 -10   1    4.40    0.90
   7 -10   1    5.44    1.31
  -7  11   1   15.40    1.63
  -7  11   1   13.01    1.31
   7  11  -1   14.69    1.32
   7 -11  -1   11.27    1.55
  -6  11   1   13.43    1.30
  -6  11   1   10.89    1.37
  -6  11   1    9.97    1.13
   6  11  -1   12.44    1.27
   6  11  -1   10.54    1.47
   6 -11  -1   10.87    1.10
   6 -11  -1    9.78    1.32
  -5  11   1   36.52    1.74
  -5  11   1   36.43    1.97
  -5  11   1   29.85    1.59
   5  11  -1   38.42    1.85
   5  11  -1   36.02    2.07
   5 -11  -1   32.15    1.63
   5 -11  -1   27.13    1.72
  -4  11   1    2.32    0.69
  -4  11   1    3.18    0.96
  -4  11   1    2.41    0.72
   4  11  -1    3.91    0.86
   4  11  -1    3.73    1.00
   4 -11  -1    3.61    0.84
   4 -11  -1    4.01    0.94
  -3  11   1   11.87    1.30
  -3  11   1   10.63    1.01
   3  11  -1   12.18    0.97
   3  11  -1   11.00    1.14
   3  11  -1   11.91    1.29
   3 -11  -1   12.20    1.09
   3 -11  -1   10.87    1.13
  -2  11   1   11.02    1.27
  -2  11   1    8.37    0.92
   2  11  -1   11.83    0.94
   2  11  -1   12.67    1.18
   2  11  -1   11.87    1.23
   2 -11  -1   11.14    1.01
   2 -11  -1   10.74    1.05
  -1  11   1    1.14    0.76
  -1  11   1    1.15    0.54
  -1 -11   1    0.64    0.63
  -1 -11   1    1.05    0.48
   1  11  -1    1.60    0.56
   1  11  -1    1.05    0.67
   1 -11  -1    1.36    0.60
   1 -11  -1    1.17    0.57
   0  11   1    0.08    0.67
   0  11   1    0.56    0.50
   0 -11   1    0.36    0.59
   0 -11   1    0.36    0.45
   0  11  -1    0.16    0.45
   0  11  -1    0.68    0.59
   0  11  -1    0.03    0.55
   0 -11  -1   -0.29    0.48
   0 -11  -1    0.10    0.47
   1  11   1   -0.26    0.62
   1  11   1   -0.48    0.45
   1 -11   1    0.19    0.59
   1 -11   1    0.17    0.50
  -1  11  -1    0.42    0.49
  -1  11  -1   -0.68    0.54
  -1 -11  -1   -0.11    0.53
  -1 -11  -1   -0.04    0.44
   2  11   1   40.39    1.96
   2 -11   1   43.54    1.83
   2 -11   1   37.04    1.69
  -2  11  -1   47.18    1.81
  -2  11  -1   44.05    1.87
  -2 -11  -1   43.31    1.80
  -2 -11  -1   40.40    1.47
   3  11   1    0.18    0.70
   3 -11   1   -1.08    0.51
   3 -11   1   -0.10    0.60
  -3  11  -1   -0.15    0.60
  -3  11  -1    0.00    0.62
  -3 -11  -1    0.06    0.58
   4  11   1    0.28    0.70
   4 -11   1    0.81    0.69
   4 -11   1    0.10    0.60
  -4  11  -1    0.09    0.69
  -4  11  -1    0.31    0.68
   5  11   1   -0.07    0.62
   5 -11   1   -0.10    0.68
   5 -11   1    0.90    0.69
  -5  11  -1    0.48    0.69
   6  11   1   26.32    1.80
   6 -11   1   27.27    1.73
   6 -11   1   25.60    1.83
  -6  11  -1   26.57    1.79
   7  11   1    1.26    0.68
   7 -11   1    1.07    0.66
   7 -11   1    1.44    0.89
  -7  12   1    3.76    1.15
   7  12  -1    6.69    1.04
   7  12  -1    4.97    1.25
   7 -12  -1    4.27    0.80
   7 -12  -1    4.37    1.15
  -6  12   1    0.73    0.88
  -6  12   1    0.33    0.70
   6  12  -1    0.61    0.71
   6  12  -1    0.64    0.95
   6 -12  -1    0.96    0.65
   6 -12  -1    0.52    0.66
  -5  12   1    0.84    0.91
  -5  12   1    1.68    0.74
   5  12  -1    1.66    0.80
   5  12  -1    1.63    0.96
   5 -12  -1    1.93    0.77
   5 -12  -1    2.61    0.85
  -4  12   1    0.06    0.80
  -4  12   1   -0.53    0.55
   4  12  -1   -0.08    0.63
   4  12  -1    0.10    0.82
   4 -12  -1    0.54    0.62
   4 -12  -1   -0.88    0.53
  -3  12   1    5.66    1.11
  -3  12   1    5.46    0.89
   3  12  -1    5.94    0.99
   3  12  -1    6.53    1.14
   3 -12  -1    6.67    0.98
   3 -12  -1    6.59    1.01
  -2  12   1    7.65    1.16
  -2  12   1    8.03    0.96
   2  12  -1    9.53    1.16
   2  12  -1    8.58    1.17
   2 -12  -1    7.63    0.93
   2 -12  -1    9.08    1.03
  -1  12   1    0.32    0.76
  -1  12   1    0.51    0.53
   1  12  -1    0.44    0.46
   1  12  -1    0.06    0.65
   1 -12  -1    0.16    0.61
   1 -12  -1    0.92    0.62
   0  12   1    4.09    1.00
   0  12   1    3.15    0.76
   0 -12   1    3.64    0.83
   0 -12   1    3.42    0.68
   0  12  -1    3.65    0.69
   0  12  -1    3.91    0.89
   0 -12  -1    3.59    0.81
   0 -12  -1    3.71    0.72
   1  12   1    0.16    0.82
   1 -12   1    2.11    0.76
   1 -12   1    1.42    0.62
  -1  12  -1    1.84    0.62
  -1  12  -1    1.47    0.75
  -1 -12  -1    2.84    0.76
  -1 -12  -1    1.92    0.59
   2  12   1    1.01    0.83
   2 -12   1    0.86    0.60
   2 -12   1    0.98    0.68
  -2  12  -1    0.72    0.58
  -2  12  -1    0.82    0.70
  -2 -12  -1    0.48    0.62
   3  12   1    1.99    0.84
   3 -12   1    1.29    0.73
   3 -12   1    0.84    0.67
  -3  12  -1    1.36    0.69
  -3  12  -1    1.83    0.80
   4  12   1    2.25    0.86
   4 -12   1    1.78    0.80
   4 -12   1    1.24    0.77
  -4  12  -1    2.06    0.85
   5  12   1    0.48    0.80
   5 -12   1   -0.25    0.64
   5 -12   1   -0.22    0.64
  -5  12  -1   -0.20    0.63
   6  12   1   10.04    1.37
   6 -12   1   11.42    1.20
   6 -12   1    8.87    1.30
  -6  13   1    7.91    1.40
   6  13  -1    6.37    1.38
   6 -13  -1    5.62    0.93
   6 -13  -1    5.99    1.13
  -5  13   1    3.71    1.14
  -5  13   1    3.58    0.91
   5  13  -1    4.22    0.96
   5  13  -1    3.75    1.21
   5 -13  -1    3.51    0.82
   5 -13  -1    3.05    0.89
  -4  13   1    1.98    0.99
  -4  13   1    1.93    0.75
   4  13  -1    1.75    0.85
   4  13  -1    1.22    0.99
   4 -13  -1    1.05    0.67
   4 -13  -1    1.73    0.76
  -3  13   1   15.48    1.60
  -3  13   1   14.74    1.26
   3  13  -1   15.65    1.56
   3 -13  -1   14.53    1.25
   3 -13  -1   14.29    1.29
  -2  13   1    0.06    0.82
  -2  13   1    0.31    0.60
   2  13  -1   -0.22    0.77
   2 -13  -1    0.10    0.60
   2 -13  -1    0.13    0.57
  -1  13   1    3.43    1.05
  -1  13   1    3.79    0.84
   1  13  -1    2.57    0.94
   1 -13  -1    2.92    0.81
   1 -13  -1    3.52    0.79
   0  13   1   21.24    1.72
   0 -13   1   21.37    1.24
   0  13  -1   24.09    1.65
   0 -13  -1   20.15    1.38
   0 -13  -1   21.77    1.33
   1  13   1   12.55    1.46
   1 -13   1   12.56    1.13
  -1  13  -1   14.09    1.40
  -1 -13  -1   11.05    1.15
   2  13   1    2.89    1.01
   2 -13   1    5.47    0.97
   2 -13   1    4.16    0.87
  -2  13  -1    4.37    0.81
  -2  13  -1    3.83    0.98
  -2 -13  -1    4.57    0.95
   3  13   1   -0.24    0.66
   3 -13   1    0.25    0.67
   3 -13   1   -0.53    0.55
  -3  13  -1   -0.68    0.54
  -3  13  -1   -0.26    0.72
   4  13   1    0.34    0.80
   4 -13   1    0.41    0.71
   4 -13   1    0.33    0.64
  -4  13  -1    0.66    0.66
   5  13   1    2.77    0.95
   5 -13   1    2.58    0.78
   5 -13   1    3.15    0.91
  -6  14   1    0.13    0.98
   6  14  -1    0.23    0.97
   6 -14  -1   -0.30    0.49
   6 -14  -1   -0.14    0.52
  -5  14   1    2.38    1.11
   5  14  -1    2.76    1.16
   5 -14  -1    2.71    0.77
   5 -14  -1    2.68    0.83
  -4  14   1    2.00    1.09
   4  14  -1    2.43    1.12
   4 -14  -1    2.50    0.75
   4 -14  -1    2.86    0.83
  -3  14   1    0.83    0.94
   3  14  -1    0.31    0.86
   3 -14  -1    0.24    0.55
   3 -14  -1    0.03    0.57
  -2  14   1    0.11    0.90
   2  14  -1    0.82    0.88
   2 -14  -1    0.48    0.63
   2 -14  -1    0.71    0.65
  -1  14   1    4.49    1.23
   1  14  -1    3.58    1.02
   1 -14  -1    3.64    0.90
   1 -14  -1    3.70    0.86
   0  14   1    9.91    1.40
   0  14  -1   10.70    1.32
   0 -14  -1    9.06    1.09
   1  14   1    0.31    0.88
   1 -14   1   -0.66    0.49
  -1  14  -1   -0.16    0.76
  -1 -14  -1    0.07    0.58
   2  14   1    0.24    0.90
   2 -14   1   -0.20    0.56
  -2  14  -1   -0.16    0.71
   3  14   1    1.47    1.02
   3 -14   1    1.41    0.69
   4  14   1    0.99    0.73
   4 -14   1    0.41    0.56
   5  14   1    0.03    0.60
   5 -14   1    1.68    0.76
  -5  15   1   10.92    1.58
   5  15  -1    9.78    1.58
   5 -15  -1   11.33    1.13
   5 -15  -1   11.97    1.26
  -4  15   1   -0.18    0.96
   4  15  -1    0.16    0.99
   4 -15  -1    0.65    0.55
   4 -15  -1    0.51    0.57
  -3  15   1   57.05    2.70
   3 -15  -1   51.62    2.19
   3 -15  -1   46.38    2.21
  -2  15   1    3.06    1.15
   2  15  -1    1.03    0.99
   2 -15  -1    2.88    0.85
   2 -15  -1    2.39    0.80
  -1  15   1   -0.08    0.86
   1  15  -1   -0.58    0.81
   1 -15  -1   -0.39    0.56
   1 -15  -1    0.66    0.59
   0  15   1    1.26    1.10
   0  15  -1    0.79    0.88
   0 -15  -1    0.91    0.71
   1  15   1    4.78    1.22
  -1  15  -1    4.62    1.11
  -1 -15  -1    5.28    1.01
   2  15   1    8.17    1.39
   2 -15   1    6.23    0.98
  -2  15  -1    9.36    1.32
   3  15   1    0.96    1.05
   3 -15   1    1.44    0.69
   4  15   1   19.28    1.65
   4 -15   1   15.11    1.40
  -3  16   1   -0.30    0.97
   3  16  -1    0.65    1.03
   3 -16  -1    0.28    0.59
   3 -16  -1    0.81    0.62
  -2  16   1    7.76    1.49
   2  16  -1    6.35    1.33
   2 -16  -1    5.12    0.92
   2 -16  -1    5.28    0.93
  -1  16   1    1.43    1.08
   1  16  -1    1.48    0.94
   1 -16  -1    1.24    0.69
   0  16   1    5.48    1.29
   0  16  -1    4.46    1.19
   0 -16  -1    3.90    0.86
   1  16   1    1.54    1.04
  -1  16  -1   -0.83    0.77
   2  16   1    0.33    0.94
   3  16   1   11.45    1.62
  -1  17   1    2.70    1.16
   1  17  -1    3.93    1.21
   1 -17  -1    2.30    0.75
   0  17   1    0.41    0.91
   0  17  -1    1.13    1.04
 -10   0   2    2.14    1.09
 -10   0   2    1.53    0.85
  10   0  -2    2.21    0.71
  10   0  -2    3.03    0.91
  -9   0   2    6.23    1.26
  -9   0   2    7.98    1.08
   9   0  -2    7.66    0.95
   9   0  -2    8.36    1.21
  -8   0   2    0.41    0.80
  -8   0   2   -0.34    0.56
   8   0  -2    0.44    0.50
   8   0  -2   -0.45    0.66
  -7   0   2    0.83    0.69
  -7   0   2    0.13    0.50
   7   0  -2    0.44    0.53
   7   0  -2    0.36    0.65
   7   0  -2   -0.11    0.43
  -6   0   2  210.24    3.58
  -6   0   2  202.11    2.79
   6   0  -2  210.36    2.77
   6   0  -2  210.12    3.56
   6   0  -2  193.77    2.75
  -5   0   2    3.79    0.69
  -5   0   2    1.76    0.36
  -5   0   2    3.14    0.46
   5   0  -2    2.65    0.43
   5   0  -2    2.84    0.46
   5   0  -2    3.73    0.64
   5   0  -2    2.84    0.45
  -4   0   2  106.75    2.08
  -4   0   2  106.54    1.47
   4   0  -2  106.73    1.43
   4   0  -2  107.92    1.47
   4   0  -2  107.90    2.09
   4   0  -2  107.09    1.66
  -3   0   2   40.97    1.20
   3   0  -2   36.75    1.12
   3   0  -2   38.09    1.14
   3   0  -2   37.20    0.90
   2   0  -2    7.70    0.55
   2   0  -2    8.09    0.54
   2   0  -2    8.14    0.47
  -1   0   2 2407.57   11.01
   1   0  -2 2299.52   11.23
   1   0  -2 2445.92   11.42
   1   0  -2 2483.12   10.40
   0   0   2  881.04    4.64
   0   0   2  840.42    4.05
   0   0   2  918.37    3.97
   0   0  -2  888.35    4.43
   0   0  -2  881.81    4.29
   0   0  -2  940.46    4.18
   1   0   2 1168.04    5.33
   1   0   2 1080.83    5.68
   1   0   2 1072.83    5.02
  -1   0  -2 1086.07    5.35
  -1   0  -2 1093.15    5.20
  -1   0  -2 1108.41    4.87
   2   0   2    0.22    0.33
   2   0   2   -0.12    0.25
   2   0   2    0.17    0.35
   2   0   2   -0.13    0.31
  -2   0  -2    0.48    0.42
  -2   0  -2   -0.06    0.36
  -2   0  -2    0.20    0.32
   3   0   2   13.14    0.87
   3   0   2   13.44    0.73
   3   0   2   13.21    0.90
   3   0   2   11.52    0.83
  -3   0  -2   11.75    0.88
  -3   0  -2   11.74    0.84
  -3   0  -2   12.92    0.80
   4   0   2   44.05    1.55
   4   0   2   43.68    1.34
   4   0   2   38.48    1.51
   4   0   2   37.40    1.38
  -4   0  -2   41.24    1.56
  -4   0  -2   42.24    1.52
  -4   0  -2   41.19    1.41
   5   0   2    0.23    0.52
   5   0   2    0.30    0.46
   5   0   2   -0.01    0.48
  -5   0  -2   -0.37    0.61
  -5   0  -2    0.36    0.51
   6   0   2  206.93    3.84
   6   0   2  195.98    3.36
   6   0   2  189.74    3.76
  -6   0  -2  195.49    3.92
   7   0   2    2.22    0.87
  -7   0  -2    3.69    1.06
   8   0   2   -0.07    0.72
  -8   0  -2    0.26    0.88
 -10   1   2   37.98    2.31
 -10   1   2   37.84    1.95
 -10  -1   2   38.42    2.35
 -10  -1   2   40.04    2.00
  10   1  -2   42.27    2.25
  10  -1  -2   39.74    2.16
  -9   1   2   10.46    1.41
  -9   1   2    9.71    1.10
  -9  -1   2    7.65    1.34
  -9  -1   2    9.36    1.10
   9   1  -2   10.64    1.04
   9   1  -2    8.93    1.25
   9  -1  -2   10.05    1.04
   9  -1  -2    9.53    1.26
  -8   1   2   10.86    1.23
  -8   1   2    9.95    0.97
  -8  -1   2   10.73    1.33
  -8  -1   2   11.00    1.06
   8   1  -2   11.64    1.02
   8   1  -2   11.50    1.26
   8  -1  -2   11.80    1.00
   8  -1  -2   12.13    1.28
  -7   1   2  149.93    3.36
  -7   1   2  144.63    2.68
  -7  -1   2  152.30    3.40
  -7  -1   2  139.40    2.66
   7   1  -2  151.62    2.68
   7   1  -2  149.20    3.34
   7  -1  -2  154.87    2.68
   7  -1  -2  154.92    3.39
   7  -1  -2  128.75    2.62
  -6   1   2   81.79    2.28
  -6   1   2   76.67    1.76
  -6  -1   2   79.44    2.28
  -6  -1   2   79.26    1.81
   6   1  -2   80.51    1.77
   6   1  -2   81.00    2.28
   6   1  -2   72.80    1.62
   6  -1  -2   81.88    1.77
   6  -1  -2   86.07    2.34
   6  -1  -2   75.64    1.87
  -5   1   2    7.80    0.83
  -5   1   2    6.44    0.56
  -5   1   2    6.93    0.59
  -5  -1   2    7.91    0.86
  -5  -1   2    5.88    0.54
  -5  -1   2    7.73    0.63
   5   1  -2    7.08    0.61
   5   1  -2    7.80    0.65
   5   1  -2    8.41    0.86
   5   1  -2    9.04    0.62
   5  -1  -2    7.09    0.61
   5  -1  -2    7.30    0.61
   5  -1  -2    7.04    0.84
   5  -1  -2    6.78    0.67
  -4   1   2    0.90    0.48
  -4   1   2    0.28    0.25
  -4   1   2    0.68    0.33
  -4  -1   2    1.10    0.53
  -4  -1   2    0.62    0.28
  -4  -1   2    0.88    0.38
   4   1  -2    1.27    0.51
   4   1  -2    0.72    0.33
   4   1  -2    0.83    0.31
   4   1  -2    0.98    0.49
   4   1  -2    1.05    0.31
   4  -1  -2    0.55    0.28
   4  -1  -2    0.87    0.33
   4  -1  -2    1.13    0.51
   4  -1  -2    0.96    0.40
  -3   1   2   28.01    1.00
  -3  -1   2   29.49    1.09
  -3  -1   2   20.32    0.56
  -3  -1   2   27.51    0.66
   3   1  -2   27.34    1.02
   3   1  -2   26.78    0.66
   3   1  -2   26.91    0.67
   3   1  -2   27.89    1.01
   3   1  -2   24.90    0.67
   3  -1  -2   27.13    0.98
   3  -1  -2   28.34    1.04
   3  -1  -2   27.94    0.90
   2   1  -2   59.54    1.22
   2   1  -2   62.24    1.15
   2   1  -2   59.77    0.90
   2  -1  -2   59.82    1.10
   2  -1  -2   61.41    1.20
   2  -1  -2   59.69    1.13
  -1   1   2    6.19    0.43
  -1  -1   2    5.93    0.42
   1   1  -2    5.78    0.52
   1   1  -2    6.45    0.37
   1  -1  -2    5.41    0.42
   1  -1  -2    6.21    0.44
   1  -1  -2    5.13    0.47
   0   1   2 1543.15    8.21
   0   1   2 1792.38    9.03
   0   1   2 1620.22    8.15
   0   1   2 1706.47    6.87
   0  -1   2 1511.63    7.02
   0  -1   2 1633.48    6.98
   0  -1   2 1659.54    6.94
   0   1  -2 1567.18    6.52
   0   1  -2 1681.47    9.26
   0   1  -2 1772.06    6.96
   0  -1  -2 1642.87    7.80
   0  -1  -2 1652.75    7.29
   0  -1  -2 1722.01    7.63
   0  -1  -2 1683.95    8.17
   1   1   2  114.20    1.61
   1   1   2  110.68    1.33
   1   1   2  106.44    1.75
   1   1   2  103.84    1.50
   1  -1   2  114.30    1.64
   1  -1   2  106.78    1.77
   1  -1   2  102.54    1.51
  -1   1  -2  105.36    1.71
  -1   1  -2  108.32    1.59
  -1   1  -2  109.02    1.48
  -1  -1  -2  106.66    1.50
  -1  -1  -2  108.39    1.57
  -1  -1  -2  106.12    1.42
   2   1   2   57.33    1.40
   2   1   2   56.13    1.17
   2   1   2   43.67    1.33
   2   1   2   50.57    1.31
   2  -1   2   57.82    1.42
   2  -1   2   51.08    1.45
   2  -1   2   49.37    1.28
  -2   1  -2   51.80    1.43
  -2   1  -2   53.67    1.37
  -2   1  -2   53.67    1.28
  -2  -1  -2   53.38    1.34
  -2  -1  -2   51.64    1.35
  -2  -1  -2   53.90    1.27
   3   1   2   32.65    1.22
   3   1   2   33.10    1.07
   3   1   2   27.74    1.19
   3   1   2   28.57    1.14
   3  -1   2   33.42    1.24
   3  -1   2   34.14    0.99
   3  -1   2   30.21    1.28
   3  -1   2   28.13    1.11
  -3   1  -2   30.35    1.25
  -3   1  -2   31.17    1.21
  -3   1  -2   31.59    1.14
  -3  -1  -2   31.77    1.21
  -3  -1  -2   31.04    1.20
  -3  -1  -2   31.79    1.14
   4   1   2   22.27    1.17
   4   1   2   21.94    1.03
   4   1   2   18.61    1.11
   4   1   2   18.56    1.04
   4  -1   2   21.18    1.14
   4  -1   2   20.11    0.96
   4  -1   2   18.11    1.14
   4  -1   2   17.17    0.99
  -4   1  -2   20.20    1.20
  -4   1  -2   19.64    1.13
  -4   1  -2   20.67    1.06
  -4  -1  -2   21.34    1.18
  -4  -1  -2   20.24    1.13
  -4  -1  -2   21.26    1.07
   5   1   2    1.01    0.53
   5   1   2    0.96    0.51
   5   1   2    0.75    0.54
   5  -1   2    0.66    0.54
   5  -1   2    0.73    0.47
   5  -1   2    0.91    0.61
  -5   1  -2    0.95    0.70
  -5   1  -2    1.69    0.60
  -5  -1  -2    1.21    0.69
  -5  -1  -2    0.78    0.59
   6   1   2    0.22    0.56
   6   1   2    0.22    0.51
   6   1   2    0.00    0.58
   6  -1   2    0.14    0.57
   6  -1   2   -0.61    0.50
   6  -1   2    0.00    0.63
  -6   1  -2   -0.49    0.74
  -6  -1  -2    0.53    0.75
   7   1   2   13.28    1.37
   7  -1   2   12.94    1.39
  -7   1  -2   12.43    1.41
  -7  -1  -2   14.16    1.40
   8  -1   2    8.78    1.32
  -8   1  -2    9.97    1.47
  -8  -1  -2    8.25    1.34
 -10   2   2    2.39    0.96
 -10  -2   2    3.36    1.19
 -10  -2   2    3.52    1.01
  10   2  -2    3.58    0.88
  10   2  -2    4.08    1.03
  10  -2  -2    4.98    0.87
  10  -2  -2    4.42    0.98
  -9   2   2    3.43    0.97
  -9   2   2    1.78    0.78
  -9  -2   2    3.06    1.04
  -9  -2   2    3.14    0.87
   9   2  -2    1.92    0.71
   9   2  -2    2.94    0.92
   9  -2  -2    2.60    0.74
   9  -2  -2    3.50    0.97
  -8   2   2   34.31    1.86
  -8   2   2   29.08    1.45
  -8  -2   2   35.20    1.97
  -8  -2   2   32.23    1.57
   8   2  -2   35.20    1.56
   8   2  -2   36.93    1.95
   8  -2  -2   34.20    1.49
   8  -2  -2   33.82    1.85
   8  -2  -2   29.92    1.57
  -7   2   2    5.14    0.95
  -7   2   2    4.67    0.77
  -7  -2   2    4.01    0.91
  -7  -2   2    5.15    0.79
   7   2  -2    5.20    0.75
   7   2  -2    4.45    0.89
   7  -2  -2    3.52    0.71
   7  -2  -2    5.40    0.93
   7  -2  -2    4.77    0.77
  -6   2   2    8.23    0.95
  -6   2   2    6.19    0.72
  -6  -2   2    8.07    1.01
  -6  -2   2    7.40    0.76
   6   2  -2    6.63    0.69
   6   2  -2    8.33    0.97
   6  -2  -2    6.94    0.70
   6  -2  -2    8.66    0.98
   6  -2  -2    6.97    0.81
  -5   2   2   48.11    1.60
  -5   2   2   39.00    1.07
  -5   2   2   43.86    1.18
  -5  -2   2   49.89    1.67
  -5  -2   2   48.29    1.30
   5   2  -2   48.85    1.27
   5   2  -2   50.53    1.68
   5   2  -2   47.38    1.06
   5  -2  -2   45.05    1.13
   5  -2  -2   47.81    1.19
   5  -2  -2   49.93    1.66
   5  -2  -2   47.65    1.46
  -4   2   2    6.93    0.76
  -4   2   2    4.20    0.41
  -4   2   2    4.46    0.47
  -4  -2   2    6.10    0.78
  -4  -2   2    4.21    0.51
   4   2  -2    5.69    0.69
   4   2  -2    4.81    0.54
   4   2  -2    4.96    0.56
   4   2  -2    5.29    0.68
   4   2  -2    4.95    0.42
   4  -2  -2    4.74    0.46
   4  -2  -2    5.64    0.49
   4  -2  -2    5.43    0.68
   4  -2  -2    5.38    0.62
  -3   2   2   98.11    1.68
  -3   2   2   91.59    1.06
  -3  -2   2   90.06    1.23
  -3  -2   2   92.32    1.27
   3   2  -2   95.58    1.80
   3   2  -2   95.92    1.32
   3   2  -2   97.57    1.31
   3   2  -2   99.02    1.79
   3  -2  -2  100.49    1.86
   3  -2  -2   94.68    1.68
  -2   2   2   93.28    1.33
  -2  -2   2   80.56    0.94
  -2  -2   2   86.55    1.02
  -2  -2   2   87.55    1.05
   2   2  -2   89.15    1.55
   2   2  -2   90.52    1.11
   2   2  -2   91.58    1.09
   2   2  -2   97.73    1.47
   2  -2  -2   92.36    1.32
   2  -2  -2   92.78    1.55
   2  -2  -2   88.65    1.49
  -1   2   2   52.13    1.05
  -1  -2   2   51.82    0.91
  -1  -2   2   48.34    0.80
  -1  -2   2   54.64    0.83
   1   2  -2   51.72    1.15
   1   2  -2   50.44    0.85
   1   2  -2   55.81    0.88
   1   2  -2   56.26    0.88
   1  -2  -2   54.19    0.81
   1  -2  -2   53.03    1.15
   0   2   2  118.24    1.47
   0   2   2  150.59    1.95
   0   2   2  115.22    1.32
   0   2   2  121.11    1.32
   0  -2   2  125.47    1.53
   0  -2   2  142.21    1.78
   0  -2   2  112.81    1.39
   0   2  -2  115.57    1.72
   0   2  -2  116.72    1.46
   0  -2  -2  120.13    1.22
   0  -2  -2  114.30    1.36
   0  -2  -2  119.32    1.36
   0  -2  -2  185.30    2.15
   1   2   2  465.26    3.33
   1   2   2  445.76    3.11
   1   2   2  438.69    3.59
   1   2   2  429.08    3.13
   1  -2   2  477.18    3.47
   1  -2   2  432.46    3.60
   1  -2   2  422.13    3.17
  -1   2  -2  427.25    3.59
  -1   2  -2  442.59    3.34
  -1   2  -2  444.13    3.13
  -1  -2  -2  435.16    2.90
  -1  -2  -2  433.12    3.22
  -1  -2  -2  440.65    3.00
   2   2   2   20.18    0.94
   2   2   2   19.03    0.84
   2   2   2   17.55    0.94
   2   2   2   16.88    0.86
   2  -2   2   21.49    1.00
   2  -2   2   19.54    1.04
   2  -2   2   17.65    0.86
  -2   2  -2   18.40    1.00
  -2   2  -2   18.38    0.91
  -2   2  -2   18.80    0.88
  -2  -2  -2   18.31    0.87
  -2  -2  -2   18.86    0.94
  -2  -2  -2   17.64    0.84
   3   2   2  369.11    3.87
   3   2   2  362.24    3.48
   3   2   2  335.32    3.74
   3   2   2  325.33    3.52
   3  -2   2  371.47    3.90
   3  -2   2  363.87    3.00
   3  -2   2  335.36    3.97
   3  -2   2  320.12    3.47
  -3   2  -2  339.20    3.96
  -3   2  -2  346.71    3.75
  -3   2  -2  356.81    3.63
  -3  -2  -2  359.09    3.64
  -3  -2  -2  339.86    3.70
  -3  -2  -2  354.91    3.59
   4   2   2   18.55    1.08
   4   2   2   18.21    1.02
   4   2   2   16.09    1.03
   4   2   2   16.45    1.03
   4  -2   2   18.42    1.12
   4  -2   2   18.23    0.90
   4  -2   2   14.57    1.11
   4  -2   2   15.51    0.98
  -4   2  -2   17.67    1.18
  -4   2  -2   17.83    1.09
  -4   2  -2   18.26    1.02
  -4  -2  -2   16.55    1.05
  -4  -2  -2   17.47    1.09
  -4  -2  -2   18.28    1.03
   5   2   2    3.13    0.70
   5   2   2    3.67    0.65
   5   2   2    2.98    0.67
   5  -2   2    3.33    0.73
   5  -2   2    2.65    0.58
   5  -2   2    1.90    0.68
  -5   2  -2    3.24    0.85
  -5   2  -2    2.46    0.67
  -5  -2  -2    3.97    0.82
  -5  -2  -2    3.14    0.74
   6   2   2  115.64    2.92
   6   2   2  116.86    2.76
   6   2   2   99.46    2.69
   6  -2   2  116.64    2.95
   6  -2   2  121.18    3.16
  -6   2  -2  105.68    3.05
  -6  -2  -2  110.13    2.91
   7   2   2    0.39    0.63
   7   2   2    0.39    0.66
   7  -2   2   -0.20    0.68
  -7   2  -2   -0.49    0.85
  -7  -2  -2    0.09    0.72
   8  -2   2    1.92    0.99
  -8   2  -2    2.83    1.14
  -8  -2  -2    2.92    1.05
 -10   3   2   12.61    1.33
 -10  -3   2   15.38    1.41
  10   3  -2   15.13    1.24
  10   3  -2   15.44    1.55
  10  -3  -2   17.30    1.28
  10  -3  -2   13.46    1.40
  -9   3   2    3.87    0.99
  -9   3   2    2.82    0.84
  -9  -3   2    2.78    1.05
  -9  -3   2    3.31    0.85
   9   3  -2    4.18    0.81
   9   3  -2    4.33    1.00
   9  -3  -2    2.33    0.72
   9  -3  -2    3.00    0.90
  -8   3   2   11.53    1.23
  -8   3   2    9.90    0.99
  -8  -3   2   12.19    1.38
  -8  -3   2   11.63    1.09
   8   3  -2   10.91    1.02
   8   3  -2   13.19    1.35
   8  -3  -2   11.88    1.03
   8  -3  -2   10.61    1.24
   8  -3  -2   11.03    1.15
  -7   3   2   22.55    1.48
  -7   3   2   19.11    1.12
  -7  -3   2   23.33    1.54
  -7  -3   2   20.38    1.21
   7   3  -2   23.05    1.21
   7   3  -2   22.16    1.50
   7  -3  -2   21.46    1.15
   7  -3  -2   20.80    1.45
   7  -3  -2   20.42    1.31
  -6   3   2    2.03    0.70
  -6   3   2    2.41    0.56
  -6  -3   2    2.38    0.74
  -6  -3   2    3.49    0.64
   6   3  -2    3.12    0.58
   6   3  -2    1.80    0.70
   6  -3  -2    2.69    0.55
   6  -3  -2    2.85    0.73
   6  -3  -2    2.28    0.61
  -5   3   2    3.18    0.63
  -5   3   2    1.79    0.41
  -5  -3   2    3.84    0.71
  -5  -3   2    2.96    0.54
   5   3  -2    2.55    0.60
   5   3  -2    2.66    0.48
   5   3  -2    2.00    0.59
   5  -3  -2    2.70    0.46
   5  -3  -2    3.16    0.45
   5  -3  -2    2.18    0.59
   5  -3  -2    2.81    0.56
  -4   3   2  264.18    3.16
  -4   3   2  221.37    2.16
  -4   3   2  233.82    2.30
  -4  -3   2  267.21    3.39
  -4  -3   2  221.31    2.40
  -4  -3   2  249.04    2.59
   4   3  -2  261.79    3.32
   4   3  -2  261.32    2.61
   4   3  -2  261.40    2.66
   4   3  -2  269.71    3.40
   4  -3  -2  249.96    2.29
   4  -3  -2  262.80    2.41
   4  -3  -2  278.04    3.46
   4  -3  -2  249.04    3.11
  -3   3   2  555.55    3.95
  -3   3   2  502.63    3.02
  -3   3   2  523.75    2.93
  -3  -3   2  428.46    2.94
  -3  -3   2  521.89    3.38
   3   3  -2  547.96    4.37
   3   3  -2  548.26    3.41
   3   3  -2  555.83    3.55
   3   3  -2  565.31    4.34
   3  -3  -2  517.48    2.97
   3  -3  -2  561.02    3.28
   3  -3  -2  553.30    4.43
   3  -3  -2  530.48    4.20
  -2   3   2  161.37    1.71
  -2   3   2  156.44    2.13
  -2   3   2  155.90    1.36
  -2   3   2  161.12    1.43
  -2  -3   2  150.30    1.62
  -2  -3   2  153.48    1.59
   2   3  -2  158.69    2.15
   2   3  -2  161.37    1.73
   2   3  -2  164.89    1.71
   2   3  -2  166.67    2.02
   2  -3  -2  154.00    1.40
   2  -3  -2  157.08    2.14
   2  -3  -2  171.05    2.23
  -1   3   2  194.28    2.19
  -1   3   2  189.88    1.61
  -1  -3   2  185.28    1.74
  -1  -3   2  178.98    1.77
   1   3  -2  198.50    2.31
   1   3  -2  186.75    1.86
   1   3  -2  205.99    1.91
   1   3  -2  199.41    1.83
   1  -3  -2  182.95    1.63
   1  -3  -2  190.78    1.63
   1  -3  -2  189.01    2.26
   0   3   2  142.39    1.85
   0   3   2  138.76    1.97
   0   3   2  140.05    1.60
   0   3   2  143.85    1.59
   0  -3   2  151.20    1.82
   0  -3   2  148.20    1.88
   0  -3   2  135.33    1.68
   0   3  -2  137.32    1.99
   0   3  -2  141.41    1.76
   0   3  -2  142.05    1.62
   0  -3  -2  138.48    1.63
   0  -3  -2  144.40    1.63
   0  -3  -2  137.36    1.96
   1   3   2    6.51    0.61
   1   3   2    6.31    0.65
   1   3   2    6.39    0.69
   1   3   2    5.58    0.60
   1  -3   2    6.32    0.66
   1  -3   2    5.37    0.59
   1  -3   2    4.82    0.58
  -1   3  -2    6.36    0.67
  -1   3  -2    5.11    0.62
  -1   3  -2    5.27    0.55
  -1  -3  -2    5.48    0.47
  -1  -3  -2    5.54    0.63
  -1  -3  -2    5.18    0.52
   2   3   2   63.29    1.51
   2   3   2   63.82    1.47
   2   3   2   58.38    1.51
   2   3   2   57.60    1.43
   2  -3   2   64.30    1.56
   2  -3   2   57.77    1.60
   2  -3   2   54.06    1.37
  -2   3  -2   56.79    1.60
  -2   3  -2   59.67    1.51
  -2   3  -2   60.44    1.42
  -2  -3  -2   60.90    1.29
  -2  -3  -2   56.77    1.46
  -2  -3  -2   58.53    1.36
   3   3   2   78.43    1.86
   3   3   2   74.51    1.73
   3   3   2   64.50    1.69
   3   3   2   69.29    1.71
   3  -3   2   75.38    1.85
   3  -3   2   74.50    1.41
   3  -3   2   54.85    1.73
   3  -3   2   64.72    1.64
  -3   3  -2   69.94    1.91
  -3   3  -2   69.90    1.78
  -3   3  -2   73.38    1.74
  -3  -3  -2   73.19    1.66
  -3  -3  -2   74.45    1.82
  -3  -3  -2   70.32    1.67
   4   3   2   17.25    1.08
   4   3   2   16.69    1.03
   4   3   2   14.80    1.02
   4   3   2   14.53    1.01
   4  -3   2   16.07    1.06
   4  -3   2   17.51    0.89
   4  -3   2   17.77    1.22
   4  -3   2   13.72    0.95
  -4   3  -2   16.32    1.16
  -4   3  -2   15.95    1.05
  -4   3  -2   16.77    1.03
  -4  -3  -2   16.05    1.04
  -4  -3  -2   16.62    1.09
   5   3   2    0.46    0.54
   5   3   2    0.21    0.49
   5   3   2    0.07    0.46
   5  -3   2    0.61    0.57
   5  -3   2    0.08    0.45
   5  -3   2    0.31    0.61
  -5   3  -2   -0.43    0.65
  -5   3  -2    0.36    0.49
  -5  -3  -2    0.03    0.59
  -5  -3  -2   -0.16    0.53
   6   3   2    7.06    0.94
   6   3   2    6.97    0.94
   6  -3   2    7.11    0.98
   6  -3   2    4.99    1.04
  -6   3  -2    8.15    1.26
  -6  -3  -2    7.55    1.09
   7   3   2    7.97    1.06
   7  -3   2    4.93    1.13
  -7   3  -2    6.75    1.28
  -7  -3  -2    6.88    1.12
   8  -3   2    0.16    0.86
  -8   3  -2   -0.19    0.93
  -8  -3  -2   -0.27    0.79
 -10   4   2   -0.39    0.57
 -10   4   2   -0.55    0.66
 -10  -4   2    0.49    0.91
 -10  -4   2    0.68    0.81
  10   4  -2    0.04    0.53
  10   4  -2   -0.13    0.68
  10  -4  -2   -0.44    0.53
  10  -4  -2   -0.23    0.58
  -9   4   2    0.80    0.73
  -9   4   2    0.92    0.74
  -9  -4   2    0.49    0.90
  -9  -4   2    1.13    0.81
   9   4  -2    0.56    0.58
   9   4  -2    1.01    0.77
   9  -4  -2    0.11    0.59
   9  -4  -2    0.81    0.74
   9  -4  -2    0.07    0.70
  -8   4   2    1.62    0.81
  -8   4   2    1.37    0.68
  -8  -4   2    2.75    1.00
  -8  -4   2    2.14    0.74
   8   4  -2    2.01    0.69
   8   4  -2    2.97    0.88
   8  -4  -2    2.04    0.69
   8  -4  -2    1.20    0.79
   8  -4  -2    1.14    0.71
  -7   4   2    2.58    0.80
  -7   4   2    1.92    0.61
  -7  -4   2    3.32    0.89
  -7  -4   2    3.83    0.77
   7   4  -2    4.05    0.73
   7   4  -2    3.59    0.88
   7  -4  -2    2.28    0.64
   7  -4  -2    2.25    0.79
   7  -4  -2    1.87    0.69
  -6   4   2   68.97    2.14
  -6   4   2   56.38    1.60
  -6  -4   2   70.16    2.22
  -6  -4   2   63.79    1.80
   6   4  -2   69.01    1.83
   6   4  -2   67.66    2.23
   6  -4  -2   65.86    1.67
   6  -4  -2   67.53    2.18
   6  -4  -2   56.40    1.91
  -5   4   2   45.19    1.57
  -5   4   2   43.14    1.26
  -5  -4   2   52.78    1.77
  -5  -4   2   44.52    1.39
   5   4  -2   46.81    1.66
   5   4  -2   49.25    1.42
   5   4  -2   47.49    1.72
   5  -4  -2   47.90    1.28
   5  -4  -2   46.12    1.67
   5  -4  -2   43.46    1.56
  -4   4   2  223.62    2.92
  -4   4   2  200.82    2.28
  -4   4   2  204.34    2.22
  -4  -4   2  214.66    2.57
   4   4  -2  224.16    3.15
   4   4  -2  227.85    2.66
   4   4  -2  231.12    2.62
   4   4  -2  224.39    3.19
   4  -4  -2  207.58    2.22
   4  -4  -2  226.21    2.37
   4  -4  -2  225.90    3.23
   4  -4  -2  207.60    3.01
  -3   4   2    4.09    0.52
  -3   4   2    4.30    0.64
  -3   4   2    3.39    0.43
  -3   4   2    3.70    0.40
  -3  -4   2    3.48    0.52
   3   4  -2    3.85    0.60
   3   4  -2    3.40    0.44
   3   4  -2    4.10    0.52
   3   4  -2    4.33    0.60
   3  -4  -2    3.43    0.40
   3  -4  -2    3.65    0.46
   3  -4  -2    4.18    0.65
   3  -4  -2    3.42    0.60
  -2   4   2   37.43    0.88
  -2   4   2   35.96    1.20
  -2   4   2   32.28    0.79
  -2   4   2   37.35    0.85
  -2  -4   2   34.37    0.96
   2   4  -2   37.44    1.21
   2   4  -2   36.78    1.03
   2   4  -2   38.26    1.00
   2   4  -2   36.73    1.13
   2  -4  -2   35.34    0.86
   2  -4  -2   36.78    0.87
   2  -4  -2   35.99    1.20
  -1   4   2   68.93    1.50
  -1   4   2   65.25    1.11
  -1   4   2   68.64    1.11
  -1  -4   2   70.60    1.33
  -1  -4   2   66.65    1.12
  -1  -4   2   64.11    1.24
   1   4  -2   69.81    1.51
   1   4  -2   68.36    1.31
   1   4  -2   70.75    1.25
   1  -4  -2   66.38    1.14
   1  -4  -2   68.98    1.15
   1  -4  -2   68.61    1.51
   0   4   2   31.47    1.09
   0   4   2   28.93    0.88
   0  -4   2   32.89    1.03
   0  -4   2   28.37    0.97
   0  -4   2   30.19    0.96
   0   4  -2   32.31    1.16
   0   4  -2   30.91    1.00
   0   4  -2   29.93    0.78
   0   4  -2   31.38    0.91
   0  -4  -2   29.92    0.90
   0  -4  -2   31.03    0.93
   0  -4  -2   27.37    1.02
   1   4   2    7.00    0.69
   1   4   2    6.08    0.73
   1   4   2    8.71    0.77
   1   4   2    5.94    0.62
   1  -4   2    7.86    0.72
   1  -4   2    6.36    0.74
   1  -4   2    6.22    0.63
  -1   4  -2    6.34    0.79
  -1   4  -2    7.10    0.71
  -1   4  -2    5.89    0.63
  -1  -4  -2    6.47    0.68
  -1  -4  -2    9.66    0.78
  -1  -4  -2    6.48    0.59
   2   4   2    7.31    0.71
   2   4   2    7.14    0.73
   2   4   2    5.36    0.66
   2   4   2    6.07    0.64
   2  -4   2    8.00    0.73
   2  -4   2    7.16    0.78
   2  -4   2    6.56    0.65
  -2   4  -2    6.53    0.76
  -2   4  -2    7.30    0.71
  -2   4  -2    6.78    0.51
  -2   4  -2    7.78    0.67
  -2  -4  -2    6.97    0.58
  -2  -4  -2    7.37    0.71
  -2  -4  -2    6.64    0.63
   3   4   2    1.01    0.42
   3   4   2    0.98    0.43
   3   4   2    0.89    0.40
   3   4   2    0.44    0.38
   3  -4   2    1.33    0.47
   3  -4   2    0.44    0.33
   3  -4   2    0.55    0.46
   3  -4   2    0.38    0.41
  -3   4  -2    1.12    0.54
  -3   4  -2    0.44    0.40
  -3   4  -2    0.87    0.36
  -3   4  -2    0.64    0.41
  -3  -4  -2    1.06    0.45
  -3  -4  -2    1.27    0.52
  -3  -4  -2    0.89    0.43
   4   4   2    5.16    0.76
   4   4   2    4.60    0.69
   4   4   2    2.97    0.61
   4   4   2    4.04    0.67
   4  -4   2    4.68    0.75
   4  -4   2    4.18    0.57
   4  -4   2    4.84    0.84
  -4   4  -2    4.39    0.83
  -4   4  -2    3.38    0.68
  -4   4  -2    4.59    0.68
  -4  -4  -2    4.17    0.72
  -4  -4  -2    3.62    0.73
   5   4   2    0.63    0.57
   5   4   2    0.14    0.50
   5   4   2    0.19    0.44
   5  -4   2    1.30    0.60
   5  -4   2    0.44    0.47
   5  -4   2    0.64    0.65
  -5   4  -2    1.36    0.79
  -5  -4  -2    0.31    0.60
  -5  -4  -2   -0.15    0.57
   6   4   2    2.09    0.77
   6   4   2    1.87    0.66
   6  -4   2    1.97    0.72
   6  -4   2    1.77    0.85
  -6   4  -2    2.24    0.99
  -6  -4  -2    1.48    0.77
   7   4   2    0.67    0.67
   7  -4   2   -0.45    0.70
  -7   4  -2   -0.12    0.87
  -7  -4  -2   -0.49    0.68
   8  -4   2    0.23    0.91
  -8   4  -2   -0.54    0.95
 -10   5   2    0.99    0.85
 -10  -5   2    1.28    1.02
 -10  -5   2    1.74    0.93
  10   5  -2    1.33    0.61
  10   5  -2    2.98    0.94
  10  -5  -2    0.96    0.63
  10  -5  -2    0.99    0.72
  -9   5   2    0.82    0.69
  -9   5   2    0.03    0.62
  -9  -5   2    0.84    0.91
  -9  -5   2   -0.02    0.69
   9   5  -2   -0.24    0.55
   9   5  -2   -0.14    0.73
   9  -5  -2    0.38    0.63
   9  -5  -2    0.68    0.68
   9  -5  -2   -0.05    0.65
  -8   5   2   11.64    1.26
  -8   5   2    9.28    1.05
  -8  -5   2   10.62    1.11
   8   5  -2   10.31    1.05
   8   5  -2   12.10    1.34
   8  -5  -2   11.12    1.01
   8  -5  -2   10.63    1.24
   8  -5  -2    8.38    1.14
  -7   5   2   11.37    1.15
  -7   5   2    8.18    0.89
  -7  -5   2   12.92    1.29
  -7  -5   2   11.55    1.05
   7   5  -2   10.24    1.00
   7   5  -2   11.77    1.28
   7  -5  -2   10.97    0.96
   7  -5  -2   10.68    1.18
   7  -5  -2   10.04    1.12
  -6   5   2    0.58    0.53
  -6   5   2    0.00    0.42
  -6  -5   2   -0.34    0.59
  -6  -5   2   -0.30    0.51
   6   5  -2   -0.02    0.48
   6   5  -2    0.23    0.62
   6  -5  -2   -0.11    0.46
   6  -5  -2   -0.07    0.57
   6  -5  -2    0.40    0.59
  -5   5   2   16.84    1.05
  -5   5   2   14.97    1.12
  -5   5   2   13.05    0.83
  -5  -5   2   16.98    1.20
   5   5  -2   15.63    1.10
   5   5  -2   15.12    0.94
   5   5  -2   16.35    1.18
   5  -5  -2   16.63    0.89
   5  -5  -2   17.39    1.17
   5  -5  -2   13.72    1.07
  -4   5   2   71.00    1.71
  -4   5   2   67.01    1.89
  -4   5   2   62.81    1.40
  -4   5   2   69.20    1.42
  -4  -5   2   65.28    1.56
   4   5  -2   69.73    1.84
   4   5  -2   69.56    1.62
   4   5  -2   72.57    1.93
   4  -5  -2   67.38    1.43
   4  -5  -2   71.56    1.46
   4  -5  -2   68.92    1.90
   4  -5  -2   54.98    1.70
  -3   5   2   69.75    1.44
  -3   5   2   66.01    1.75
  -3   5   2   59.01    1.24
  -3   5   2   70.04    1.33
  -3  -5   2   65.60    1.45
   3   5  -2   66.52    1.67
   3   5  -2   71.50    1.54
   3   5  -2   65.90    1.69
   3  -5  -2   66.43    1.30
   3  -5  -2   66.94    1.32
   3  -5  -2   67.48    1.78
   3  -5  -2   64.26    1.72
  -2   5   2   -0.04    0.25
  -2   5   2    0.04    0.42
  -2   5   2   -0.09    0.28
  -2   5   2    0.19    0.30
  -2  -5   2    0.00    0.35
  -2  -5   2    0.00    0.38
   2   5  -2   -0.56    0.37
   2   5  -2   -0.37    0.38
   2  -5  -2   -0.23    0.35
   2  -5  -2   -0.12    0.27
   2  -5  -2   -0.03    0.40
  -1   5   2   61.78    1.59
  -1   5   2   61.01    1.21
  -1   5   2   61.59    1.24
  -1  -5   2   66.13    1.44
  -1  -5   2   61.12    1.16
  -1  -5   2   57.14    1.31
   1   5  -2   64.75    1.57
   1   5  -2   63.58    1.41
   1   5  -2   63.99    1.35
   1   5  -2   62.01    1.27
   1  -5  -2   60.28    1.24
   1  -5  -2   61.58    1.24
   1  -5  -2   54.07    1.46
   0   5   2   26.35    0.98
   0   5   2   23.55    1.08
   0   5   2   21.95    0.88
   0  -5   2   26.53    1.05
   0  -5   2   23.16    0.94
   0  -5   2   22.17    0.94
   0   5  -2   23.08    1.09
   0   5  -2   23.98    1.00
   0   5  -2   22.74    0.85
   0   5  -2   24.16    0.92
   0  -5  -2   22.79    0.93
   0  -5  -2   24.89    1.05
   1   5   2   18.25    0.94
   1   5   2   15.00    0.94
   1   5   2   17.47    0.94
   1   5   2   16.54    0.84
   1  -5   2   16.68    0.91
   1  -5   2   20.73    1.01
   1  -5   2   15.64    0.87
  -1   5  -2   16.76    1.02
  -1   5  -2   17.99    0.91
  -1   5  -2   16.31    0.74
  -1   5  -2   16.72    0.85
  -1  -5  -2   15.43    0.87
  -1  -5  -2   21.87    1.00
  -1  -5  -2   14.59    0.76
   2   5   2   38.15    1.30
   2   5   2   34.09    1.29
   2   5   2   31.69    1.21
   2   5   2   32.36    1.19
   2  -5   2   37.09    1.33
   2  -5   2   28.97    1.26
   2  -5   2   33.24    1.21
  -2   5  -2   33.62    1.37
  -2   5  -2   35.56    1.28
  -2   5  -2   35.70    0.99
  -2   5  -2   33.34    1.18
  -2  -5  -2   35.30    0.94
  -2  -5  -2   32.20    1.22
  -2  -5  -2   31.58    1.13
   3   5   2    7.71    0.79
   3   5   2    7.57    0.84
   3   5   2    6.57    0.77
   3   5   2    6.16    0.75
   3  -5   2    7.20    0.79
   3  -5   2    6.18    0.80
   3  -5   2    6.86    0.75
  -3   5  -2    7.49    0.86
  -3   5  -2    6.94    0.79
  -3   5  -2    6.87    0.63
  -3   5  -2    6.74    0.73
  -3  -5  -2    7.35    0.69
  -3  -5  -2    6.37    0.78
   4   5   2    5.86    0.82
   4   5   2    3.92    0.72
   4   5   2    5.30    0.72
   4   5   2    3.82    0.72
   4  -5   2    5.71    0.79
   4  -5   2    5.23    0.65
   4  -5   2    4.59    0.86
  -4   5  -2    5.02    0.90
  -4   5  -2    5.07    0.77
  -4   5  -2    5.54    0.65
  -4   5  -2    6.21    0.80
  -4  -5  -2    5.92    0.77
  -4  -5  -2    6.35    0.90
   5   5   2   19.36    1.29
   5   5   2   16.08    1.12
   5  -5   2   19.92    1.31
   5  -5   2   15.89    1.38
  -5   5  -2   17.40    1.41
  -5  -5  -2   17.69    1.19
  -5  -5  -2   17.18    1.27
   6   5   2    0.32    0.61
   6  -5   2   -0.18    0.55
   6  -5   2    0.33    0.78
  -6   5  -2    0.56    0.87
  -6  -5  -2    0.10    0.65
   7   5   2    2.25    0.78
   7  -5   2    2.04    1.02
  -7   5  -2    2.56    1.09
   8  -5   2    2.19    1.05
  -8   5  -2    1.57    1.06
  -9   6   2    0.52    0.61
  -9   6   2    0.55    0.89
  -9   6   2   -0.07    0.65
  -9  -6   2    0.22    0.88
  -9  -6   2    0.39    0.72
   9   6  -2    0.65    0.62
   9   6  -2    0.50    0.73
   9  -6  -2    0.03    0.58
   9  -6  -2    0.48    0.69
   9  -6  -2    0.65    0.76
  -8   6   2   24.35    1.64
  -8   6   2   22.32    1.71
  -8   6   2   19.13    1.33
  -8  -6   2   22.42    1.47
   8   6  -2   23.32    1.42
   8   6  -2   25.65    1.76
   8  -6  -2   23.32    1.31
   8  -6  -2   19.79    1.54
   8  -6  -2   17.78    1.49
  -7   6   2   12.89    1.20
  -7   6   2   10.58    1.27
  -7   6   2    9.09    0.96
  -7  -6   2   12.86    1.34
  -7  -6   2   11.24    1.09
   7   6  -2   11.60    1.06
   7   6  -2   11.33    1.35
   7  -6  -2   10.74    1.00
   7  -6  -2   11.39    1.21
   7  -6  -2    8.48    1.15
  -6   6   2   12.63    1.09
  -6   6   2   12.51    1.25
  -6   6   2   10.67    0.92
  -6  -6   2   14.47    1.28
  -6  -6   2   11.54    1.03
   6   6  -2   14.04    1.20
   6   6  -2   13.32    1.04
   6   6  -2   11.40    1.28
   6  -6  -2   11.39    0.94
   6  -6  -2   11.08    1.13
   6  -6  -2   10.69    1.12
  -5   6   2   28.46    1.31
  -5   6   2   28.61    1.49
  -5   6   2   25.95    1.14
  -5  -6   2   29.58    1.51
   5   6  -2   30.33    1.45
   5   6  -2   30.33    1.29
   5   6  -2   31.44    1.59
   5  -6  -2   29.21    1.16
   5  -6  -2   31.36    1.53
   5  -6  -2   27.59    1.46
  -4   6   2   87.17    1.90
  -4   6   2   87.33    2.21
  -4   6   2   75.47    1.63
  -4  -6   2   83.85    1.86
   4   6  -2   92.74    2.17
   4   6  -2   93.15    1.96
   4   6  -2   92.63    2.26
   4  -6  -2   91.90    1.77
   4  -6  -2   90.72    2.25
   4  -6  -2   83.53    2.17
  -3   6   2   45.87    1.20
  -3   6   2   43.98    1.52
  -3   6   2   38.67    1.11
  -3   6   2   45.51    1.21
  -3  -6   2   42.35    1.27
   3   6  -2   46.77    1.48
   3   6  -2   47.02    1.37
   3   6  -2   47.12    1.52
   3  -6  -2   45.93    1.22
   3  -6  -2   46.42    1.22
   3  -6  -2   45.55    1.54
  -2   6   2    5.48    0.46
  -2   6   2    5.40    0.69
  -2   6   2    4.40    0.53
  -2  -6   2    5.66    0.64
  -2  -6   2    4.40    0.59
   2   6  -2    5.35    0.64
   2   6  -2    5.69    0.64
   2   6  -2    4.04    0.48
   2  -6  -2    5.03    0.59
   2  -6  -2    5.40    0.59
   2  -6  -2    5.49    0.68
  -1   6   2   16.24    1.01
  -1   6   2   15.60    0.79
  -1  -6   2   14.95    0.86
  -1  -6   2   17.74    0.77
  -1  -6   2   15.59    0.85
   1   6  -2   16.36    0.95
   1   6  -2   16.20    0.88
   1   6  -2   15.84    0.87
   1   6  -2   15.85    0.80
   1  -6  -2   15.50    0.80
   1  -6  -2   16.08    0.80
   1  -6  -2   21.24    1.03
   0   6   2    3.53    0.53
   0   6   2    2.73    0.57
   0   6   2    2.81    0.50
   0  -6   2    3.12    0.55
   0  -6   2    1.87    0.45
   0  -6   2    2.78    0.54
   0   6  -2    2.78    0.55
   0   6  -2    2.60    0.51
   0   6  -2    2.72    0.46
   0   6  -2    2.56    0.46
   0  -6  -2    3.28    0.56
   0  -6  -2    3.90    0.59
   1   6   2  244.07    3.01
   1   6   2  226.38    3.14
   1   6   2  215.51    2.90
   1   6   2  225.29    2.83
   1  -6   2  237.11    3.06
   1  -6   2  219.47    2.99
   1  -6   2  219.75    2.85
  -1   6  -2  224.27    3.15
  -1   6  -2  222.18    2.95
  -1   6  -2  231.11    2.47
  -1   6  -2  213.76    2.74
  -1  -6  -2  221.90    2.86
  -1  -6  -2  200.79    2.79
  -1  -6  -2  212.71    2.58
   2   6   2   74.23    1.85
   2   6   2   69.50    1.89
   2   6   2   67.29    1.72
   2   6   2   62.04    1.66
   2  -6   2   69.21    1.82
   2  -6   2   65.28    1.87
   2  -6   2   62.67    1.67
  -2   6  -2   67.79    1.92
  -2   6  -2   66.49    1.77
  -2   6  -2   69.81    1.46
  -2   6  -2   63.05    1.64
  -2  -6  -2   64.91    1.73
   3   6   2  206.60    3.27
   3   6   2  201.13    3.31
   3   6   2  196.76    3.01
   3   6   2  176.60    2.94
   3  -6   2  198.19    3.23
   3  -6   2  179.53    3.29
   3  -6   2  179.48    2.95
  -3   6  -2  189.76    3.39
  -3   6  -2  185.95    3.12
  -3   6  -2  192.75    2.54
  -3   6  -2  191.79    3.03
  -3  -6  -2  187.65    3.12
   4   6   2   41.79    1.68
   4   6   2   44.11    1.77
   4   6   2   43.61    1.57
   4   6   2   37.06    1.57
   4  -6   2   43.03    1.72
   4  -6   2   37.67    1.79
  -4   6  -2   40.33    1.82
  -4   6  -2   39.64    1.65
  -4  -6  -2   41.24    1.45
  -4  -6  -2   41.31    1.70
   5   6   2    0.93    0.62
   5   6   2    1.26    0.51
   5  -6   2    0.89    0.63
   5  -6   2    1.01    0.78
  -5   6  -2    1.30    0.77
  -5  -6  -2    0.81    0.67
   6   6   2    0.80    0.61
   6  -6   2   -0.02    0.58
   6  -6   2    0.67    0.85
  -6   6  -2    0.53    0.74
   7   6   2    9.44    1.18
   7  -6   2    7.34    1.32
  -7   6  -2    8.01    1.32
   8   6   2    0.38    0.57
   8  -6   2    1.01    0.90
  -8   6  -2   -0.07    0.81
  -9   7   2    0.95    0.92
  -9   7   2    0.00    0.72
  -9  -7   2   -0.10    0.80
  -9  -7   2    0.65    0.80
   9   7  -2    0.69    0.56
   9   7  -2    0.89    0.78
   9  -7  -2    0.26    0.56
   9  -7  -2    0.93    0.70
   9  -7  -2    0.71    0.82
  -8   7   2    0.97    0.66
  -8   7   2    0.37    0.83
  -8   7   2   -0.04    0.66
  -8  -7   2   -0.25    0.77
  -8  -7   2   -0.23    0.65
   8   7  -2   -0.06    0.59
   8   7  -2    1.04    0.78
   8  -7  -2    0.23    0.54
   8  -7  -2   -0.09    0.64
   8  -7  -2   -0.48    0.67
  -7   7   2   11.32    1.15
  -7   7   2   10.35    1.27
  -7   7   2    9.67    1.01
  -7  -7   2   11.84    1.31
  -7  -7   2   11.22    1.14
   7   7  -2   13.59    1.13
   7   7  -2   12.30    1.41
   7  -7  -2   12.39    1.04
   7  -7  -2   11.29    1.25
   7  -7  -2    9.28    1.22
  -6   7   2    4.58    0.80
  -6   7   2    3.99    0.90
  -6   7   2    2.43    0.64
  -6  -7   2    4.50    0.95
  -6  -7   2    3.17    0.79
   6   7  -2    3.06    0.78
   6   7  -2    4.52    0.78
   6   7  -2    3.49    0.93
   6  -7  -2    3.93    0.71
   6  -7  -2    3.01    0.84
   6  -7  -2    3.44    0.87
  -5   7   2    6.31    0.80
  -5   7   2    6.60    0.94
  -5   7   2    4.71    0.71
  -5  -7   2    7.56    1.01
  -5  -7   2    6.72    0.87
   5   7  -2    6.60    0.89
   5   7  -2    6.87    0.85
   5   7  -2    7.29    0.98
   5  -7  -2    5.75    0.73
   5  -7  -2    6.22    0.94
   5  -7  -2    5.80    0.93
  -4   7   2   18.74    1.00
  -4   7   2   19.52    1.22
  -4   7   2   15.68    0.89
  -4  -7   2   17.89    1.01
   4   7  -2   19.78    1.15
   4   7  -2   20.52    1.09
   4   7  -2   20.72    1.28
   4  -7  -2   19.02    0.98
   4  -7  -2   16.73    1.18
  -3   7   2    3.29    0.47
  -3   7   2    3.52    0.65
  -3   7   2    3.65    0.53
  -3  -7   2    2.05    0.51
  -3  -7   2    4.13    0.63
   3   7  -2    3.55    0.60
   3   7  -2    4.40    0.68
   3   7  -2    4.60    0.68
   3  -7  -2    3.77    0.57
   3  -7  -2    3.71    0.66
  -2   7   2    4.86    0.45
  -2   7   2    5.14    0.73
  -2   7   2    4.72    0.57
  -2  -7   2    5.79    0.66
  -2  -7   2    4.32    0.62
   2   7  -2    5.58    0.67
   2   7  -2    5.24    0.65
   2  -7  -2    4.76    0.59
   2  -7  -2    4.92    0.69
  -1   7   2   27.16    1.06
  -1   7   2   26.08    1.26
  -1   7   2   23.74    0.98
  -1  -7   2   25.35    1.10
  -1  -7   2   23.73    0.88
  -1  -7   2   22.93    1.02
   1   7  -2   24.42    1.12
   1   7  -2   23.30    1.05
   1   7  -2   24.57    1.05
   1   7  -2   23.38    1.00
   1  -7  -2   22.75    0.98
   1  -7  -2   26.75    1.18
   0   7   2  289.15    3.28
   0   7   2  261.60    3.52
   0   7   2  256.80    3.02
   0  -7   2  273.80    3.34
   0  -7   2  265.95    3.07
   0  -7   2  260.33    3.16
   0   7  -2  249.92    3.30
   0   7  -2  266.66    3.28
   0   7  -2  276.38    3.02
   0   7  -2  272.70    3.12
   0  -7  -2  255.72    3.06
   0  -7  -2  266.75    3.36
   1   7   2   47.66    1.47
   1   7   2   42.40    1.55
   1   7   2   44.17    1.46
   1   7   2   42.86    1.38
   1  -7   2   46.87    1.53
   1  -7   2   43.89    1.50
   1  -7   2   43.92    1.44
  -1   7  -2   41.82    1.51
  -1   7  -2   45.95    1.49
  -1   7  -2   44.37    1.28
  -1   7  -2   44.25    1.41
  -1  -7  -2   44.03    1.43
  -1  -7  -2   43.15    1.42
   2   7   2   38.93    1.47
   2   7   2   38.01    1.53
   2   7   2   33.60    1.31
   2   7   2   31.34    1.30
   2  -7   2   36.27    1.45
   2  -7   2   33.88    1.47
   2  -7   2   33.29    1.35
  -2   7  -2   36.96    1.55
  -2   7  -2   36.79    1.43
  -2   7  -2   37.41    1.24
  -2   7  -2   34.73    1.33
  -2  -7  -2   35.39    1.40
  -2  -7  -2   36.69    1.38
   3   7   2    9.45    1.05
   3   7   2    9.02    0.90
   3   7   2    8.35    0.90
   3  -7   2    8.87    0.97
   3  -7   2    9.12    1.03
  -3   7  -2   10.57    1.08
  -3   7  -2    9.38    0.93
  -3   7  -2   10.18    0.86
  -3  -7  -2    8.53    0.97
   4   7   2    8.42    1.04
   4   7   2    5.96    0.77
   4  -7   2    7.76    0.99
   4  -7   2    4.90    0.95
  -4   7  -2    7.42    1.04
  -4  -7  -2    6.79    0.95
   5   7   2   43.47    1.94
   5  -7   2   44.91    1.92
   5  -7   2   34.03    1.94
  -5   7  -2   41.84    2.03
   6   7   2   21.44    1.55
   6  -7   2   22.66    1.52
   6  -7   2   15.03    1.57
  -6   7  -2   22.10    1.65
   7   7   2    9.31    1.18
   7  -7   2    3.77    1.16
  -7   7  -2    5.81    1.17
  -9   8   2    8.51    1.43
  -9   8   2    7.39    1.20
   9   8  -2   10.04    1.05
   9   8  -2    8.79    1.28
   9  -8  -2    8.08    1.21
   9  -8  -2    7.91    1.33
  -8   8   2    0.24    0.56
  -8   8   2   -0.03    0.82
  -8   8   2   -0.36    0.66
  -8  -8   2   -0.19    0.71
  -8  -8   2   -0.01    0.72
   8   8  -2   -0.39    0.53
   8   8  -2    0.40    0.76
   8  -8  -2   -0.53    0.51
   8  -8  -2   -0.61    0.65
   8  -8  -2    0.50    0.81
  -7   8   2    3.92    0.87
  -7   8   2    3.35    0.98
  -7   8   2    2.81    0.77
  -7  -8   2    3.65    0.97
  -7  -8   2    3.09    0.88
   7   8  -2    5.08    0.89
   7   8  -2    4.86    1.13
   7  -8  -2    3.54    0.77
   7  -8  -2    3.83    0.94
   7  -8  -2    3.48    0.96
  -6   8   2   39.40    1.72
  -6   8   2   40.59    1.97
  -6   8   2   34.43    1.54
  -6  -8   2   40.73    1.91
  -6  -8   2   35.50    1.67
   6   8  -2   39.34    1.79
   6   8  -2   40.20    1.70
   6   8  -2   36.08    1.94
   6  -8  -2   33.23    1.45
   6  -8  -2   35.36    1.82
   6  -8  -2   31.54    1.79
  -5   8   2    6.72    0.83
  -5   8   2    5.23    0.93
  -5   8   2    4.40    0.73
  -5  -8   2    6.01    1.00
  -5  -8   2    5.26    0.88
   5   8  -2    5.12    0.88
   5   8  -2    5.77    0.86
   5   8  -2    4.45    0.93
   5  -8  -2    5.19    0.76
   5  -8  -2    4.60    0.94
  -4   8   2   -0.06    0.42
  -4   8   2    0.60    0.58
  -4   8   2    0.68    0.46
  -4  -8   2    0.51    0.54
   4   8  -2    0.85    0.55
   4   8  -2    0.30    0.54
   4   8  -2    0.11    0.59
   4  -8  -2    0.20    0.50
   4  -8  -2    0.08    0.59
  -3   8   2    0.47    0.36
  -3   8   2    0.91    0.57
  -3   8   2    1.15    0.46
  -3  -8   2    1.03    0.52
   3   8  -2    0.93    0.51
   3   8  -2    1.42    0.55
   3   8  -2    0.64    0.53
   3  -8  -2    1.61    0.53
   3  -8  -2    1.15    0.54
  -2   8   2    0.55    0.28
  -2   8   2   -0.02    0.45
  -2   8   2    0.34    0.38
  -2  -8   2   -0.12    0.41
  -2  -8   2    0.43    0.27
  -2  -8   2    0.75    0.47
   2   8  -2    0.83    0.43
   2   8  -2    0.51    0.44
   2  -8  -2    0.39    0.44
   2  -8  -2    0.12    0.46
  -1   8   2    4.84    0.74
  -1   8   2    5.23    0.65
  -1  -8   2    5.16    0.70
  -1  -8   2    3.03    0.48
  -1  -8   2    4.65    0.67
   1   8  -2    4.39    0.63
   1   8  -2    4.57    0.67
   1   8  -2    5.31    0.66
   1  -8  -2    4.33    0.65
   1  -8  -2    4.42    0.67
   0   8   2    7.24    0.90
   0   8   2    7.29    0.71
   0  -8   2    7.63    0.82
   0  -8   2    4.66    0.63
   0  -8   2    7.17    0.77
   0   8  -2    8.74    0.83
   0   8  -2    6.85    0.77
   0   8  -2    8.31    0.80
   0  -8  -2    7.17    0.75
   0  -8  -2    8.41    0.80
   1   8   2   14.24    1.10
   1   8   2   13.56    0.94
   1  -8   2   14.60    1.05
   1  -8   2   13.74    1.01
   1  -8   2   13.66    0.98
  -1   8  -2   14.98    1.08
  -1   8  -2   14.09    0.99
  -1   8  -2   13.74    0.91
  -1  -8  -2   14.42    0.99
  -1  -8  -2   15.31    0.97
   2   8   2    1.87    0.61
   2   8   2    1.09    0.50
   2   8   2    1.39    0.54
   2  -8   2    2.40    0.68
   2  -8   2    0.87    0.56
   2  -8   2    1.29    0.60
  -2   8  -2    0.89    0.59
  -2   8  -2    1.41    0.58
  -2   8  -2    0.69    0.50
  -2  -8  -2    1.48    0.61
  -2  -8  -2    1.45    0.53
   3   8   2    3.34    0.78
   3   8   2    3.97    0.68
   3   8   2    3.56    0.71
   3  -8   2    2.95    0.76
   3  -8   2    2.80    0.75
  -3   8  -2    3.51    0.83
  -3   8  -2    2.08    0.63
  -3  -8  -2    2.24    0.74
   4   8   2   64.88    2.30
   4  -8   2   62.74    2.18
   4  -8   2   53.19    2.18
  -4   8  -2   61.16    2.28
  -4  -8  -2   60.64    2.13
   5   8   2   11.25    1.23
   5  -8   2   10.65    1.13
   5  -8   2    8.72    1.20
  -5   8  -2   10.66    1.27
   6   8   2    8.67    1.19
   6  -8   2    6.85    1.30
  -6   8  -2    9.99    1.32
   7   8   2    1.29    0.69
   7  -8   2    0.14    0.96
  -7   8  -2    0.99    0.86
  -8   9   2   -0.13    0.82
  -8   9   2    0.20    0.66
  -8  -9   2   -0.71    0.73
  -8  -9   2    0.37    0.77
   8   9  -2    0.44    0.58
   8   9  -2    1.03    1.05
   8  -9  -2   -0.17    0.54
   8  -9  -2    1.04    0.69
   8  -9  -2    0.27    0.77
  -7   9   2    3.52    0.88
  -7   9   2    3.11    1.02
  -7   9   2    2.47    0.79
  -7  -9   2    3.49    1.00
  -7  -9   2    3.27    0.92
   7   9  -2    3.54    0.86
   7   9  -2    3.29    1.12
   7  -9  -2    2.96    0.75
   7  -9  -2    2.87    0.92
   7  -9  -2    2.71    0.96
  -6   9   2    0.64    0.61
  -6   9   2    0.96    0.80
  -6   9   2    0.73    0.58
  -6  -9   2    1.83    0.83
  -6  -9   2    0.89    0.74
   6   9  -2    0.66    0.65
   6   9  -2    1.02    0.69
   6   9  -2    1.26    0.89
   6  -9  -2    1.72    0.65
   6  -9  -2    0.21    0.73
  -5   9   2   32.47    1.76
  -5   9   2   30.18    1.41
  -5  -9   2   32.26    1.70
  -5  -9   2   30.18    1.52
   5   9  -2   35.97    1.65
   5   9  -2   35.02    1.61
   5   9  -2   32.11    1.80
   5  -9  -2   30.80    1.40
   5  -9  -2   27.54    1.67
  -4   9   2    8.21    0.80
  -4   9   2   11.58    1.20
  -4   9   2    6.67    0.80
  -4  -9   2    8.40    0.92
   4   9  -2    9.20    0.95
   4   9  -2    9.73    1.01
   4   9  -2   10.71    1.18
   4  -9  -2    9.22    0.90
   4  -9  -2   10.05    1.11
  -3   9   2   28.57    1.08
  -3   9   2   28.26    1.58
  -3   9   2   25.55    1.21
  -3  -9   2   25.61    1.27
   3   9  -2   29.08    1.35
   3   9  -2   30.04    1.43
   3   9  -2   29.24    1.49
   3  -9  -2   28.69    1.27
   3  -9  -2   26.13    1.45
  -2   9   2   20.67    1.38
  -2   9   2   18.36    1.04
  -2  -9   2   17.64    1.08
   2   9  -2   19.84    1.15
   2   9  -2   19.07    1.17
   2  -9  -2   18.83    1.05
   2  -9  -2   21.71    1.26
  -1   9   2   29.62    1.51
  -1   9   2   30.29    1.24
  -1  -9   2   30.60    1.37
  -1  -9   2   27.34    1.05
  -1  -9   2   28.82    1.28
   1   9  -2   30.49    1.33
   1   9  -2   30.93    1.35
   1   9  -2   31.12    1.34
   1  -9  -2   30.48    1.28
   1  -9  -2   32.58    1.42
   0   9   2    1.39    0.60
   0   9   2    1.52    0.53
   0  -9   2    1.94    0.63
   0  -9   2    2.09    0.55
   0  -9   2    1.22    0.55
   0   9  -2    1.53    0.56
   0   9  -2    1.29    0.55
   0   9  -2    2.09    0.57
   0  -9  -2    1.63    0.59
   0  -9  -2    1.22    0.55
   1   9   2    1.34    0.62
   1   9   2    1.25    0.54
   1  -9   2    0.67    0.62
   1  -9   2    0.54    0.54
   1  -9   2    1.90    0.61
  -1   9  -2    1.65    0.59
  -1   9  -2    1.81    0.59
  -1   9  -2    1.67    0.57
  -1  -9  -2    2.05    0.63
  -1  -9  -2    1.63    0.56
   2   9   2   74.26    2.33
   2   9   2   68.99    1.95
   2   9   2   66.61    1.99
   2  -9   2   77.73    2.26
   2  -9   2   70.52    2.19
  -2   9  -2   75.14    2.28
  -2   9  -2   74.24    2.17
  -2   9  -2   74.81    1.96
  -2  -9  -2   71.53    2.09
  -2  -9  -2   70.88    1.95
   3   9   2   25.36    1.57
   3   9   2   24.22    1.31
   3   9   2   22.98    1.37
   3  -9   2   24.04    1.45
   3  -9   2   21.63    1.46
  -3   9  -2   22.85    1.49
  -3  -9  -2   24.74    1.42
   4   9   2   14.13    1.37
   4  -9   2   15.00    1.27
   4  -9   2   11.29    1.26
  -4   9  -2   13.15    1.32
  -4  -9  -2   12.38    1.16
   5   9   2   -0.15    0.61
   5  -9   2    0.21    0.63
  -5   9  -2   -0.13    0.76
   6   9   2    0.45    0.62
   6  -9   2   -0.24    0.80
  -6   9  -2   -0.25    0.70
   7   9   2    3.45    0.88
   7  -9   2    1.33    1.02
  -8  10   2    0.51    0.95
  -8  10   2    0.66    0.70
   8  10  -2    0.76    0.58
   8  10  -2    0.29    1.07
   8 -10  -2    0.79    0.57
   8 -10  -2    0.74    0.81
  -7  10   2    1.25    0.70
  -7  10   2    2.31    1.05
  -7  10   2    0.32    0.66
  -7 -10   2    0.85    0.83
  -7 -10   2    0.39    0.75
   7  10  -2    0.96    0.63
   7  10  -2    0.42    0.98
   7 -10  -2    0.94    0.62
   7 -10  -2    0.81    0.86
  -6  10   2    1.92    0.71
  -6  10   2    1.89    0.95
  -6  10   2    2.17    0.74
  -6 -10   2    2.56    0.94
  -6 -10   2    2.50    0.90
   6  10  -2    3.31    0.84
   6  10  -2    3.20    0.84
   6  10  -2    2.62    1.03
   6 -10  -2    2.22    0.72
   6 -10  -2    2.36    0.93
  -5  10   2    4.34    0.76
  -5  10   2    4.99    1.03
  -5  10   2    4.70    0.84
  -5 -10   2    4.03    0.99
  -5 -10   2    5.40    0.96
   5  10  -2    4.65    0.89
   5  10  -2    5.88    0.95
   5  10  -2    5.43    1.12
   5 -10  -2    3.38    0.76
   5 -10  -2    2.41    0.80
  -4  10   2  127.05    3.20
  -4  10   2  114.55    2.57
  -4 -10   2  105.27    2.59
   4  10  -2  129.97    2.86
   4  10  -2  122.67    2.82
   4  10  -2  123.07    3.11
   4 -10  -2  111.31    2.50
   4 -10  -2  101.70    2.86
  -3  10   2  193.73    3.78
  -3  10   2  178.94    3.08
  -3 -10   2  168.12    3.12
   3  10  -2  197.83    3.36
   3  10  -2  202.22    3.49
   3  10  -2  195.65    3.65
   3 -10  -2  174.22    3.00
   3 -10  -2  170.16    3.49
  -2  10   2   75.60    2.40
  -2  10   2   70.24    1.94
  -2 -10   2   66.95    1.99
   2  10  -2   77.61    2.11
   2  10  -2   79.71    2.24
   2  10  -2   73.06    2.19
   2 -10  -2   64.79    1.88
   2 -10  -2   67.59    2.16
  -1  10   2    0.34    0.65
  -1  10   2    0.10    0.47
  -1 -10   2   -0.17    0.40
  -1 -10   2    0.15    0.51
   1  10  -2    0.09    0.48
   1  10  -2   -0.20    0.48
   1  10  -2    0.15    0.48
   1 -10  -2   -0.33    0.47
   1 -10  -2    0.42    0.54
   0  10   2    1.55    0.68
   0  10   2    1.32    0.59
   0 -10   2    1.97    0.58
   0 -10   2    1.97    0.67
   0  10  -2    1.35    0.58
   0  10  -2    1.53    0.64
   0  10  -2    1.70    0.60
   0 -10  -2    1.90    0.64
   0 -10  -2    2.25    0.62
   1  10   2   27.17    1.58
   1  10   2   24.28    1.30
   1 -10   2   27.29    1.49
   1 -10   2   23.23    1.29
  -1  10  -2   26.22    1.43
  -1  10  -2   26.34    1.43
  -1  10  -2   26.28    1.33
  -1 -10  -2   26.76    1.38
  -1 -10  -2   24.91    1.28
   2  10   2    0.70    0.66
   2  10   2    0.85    0.52
   2  10   2    0.77    0.53
   2 -10   2    0.50    0.70
   2 -10   2    0.38    0.64
  -2  10  -2    0.42    0.63
  -2  10  -2    0.97    0.63
  -2  10  -2    0.80    0.61
  -2 -10  -2    1.57    0.65
  -2 -10  -2    0.47    0.54
   3  10   2   32.86    1.82
   3 -10   2   25.88    1.62
  -3  10  -2   35.94    1.81
  -3 -10  -2   31.13    1.61
   4  10   2    8.08    1.15
   4 -10   2    5.08    1.05
  -4  10  -2    7.11    1.17
  -4 -10  -2    9.02    1.13
   5  10   2    1.73    0.81
   5 -10   2    2.10    0.85
  -5  10  -2    0.78    0.83
   6  10   2    3.76    0.90
   6 -10   2    3.38    0.97
  -6  10  -2    4.91    1.05
  -8  11   2    2.73    1.16
  -8  11   2    4.73    1.03
   8  11  -2    4.22    0.85
   8  11  -2    3.66    1.21
   8 -11  -2    2.91    0.69
   8 -11  -2    4.10    1.11
  -7  11   2    0.46    0.95
  -7  11   2    0.54    0.71
   7  11  -2   -0.13    0.69
   7  11  -2    0.26    1.03
   7 -11  -2    1.04    0.58
   7 -11  -2    0.59    0.82
  -6  11   2    0.49    0.88
  -6  11   2    0.00    0.62
   6  11  -2    0.47    0.64
   6  11  -2   -0.09    0.62
   6  11  -2   -0.04    0.87
   6 -11  -2    0.10    0.54
   6 -11  -2    0.33    0.79
  -5  11   2    0.28    0.86
  -5  11   2    0.33    0.59
  -5 -11   2    1.09    0.84
  -5 -11   2   -0.13    0.68
   5  11  -2    0.71    0.65
   5  11  -2    0.89    0.74
   5  11  -2    0.72    0.85
   5 -11  -2    0.71    0.59
   5 -11  -2    0.87    0.66
  -4  11   2    3.30    0.97
  -4  11   2    2.57    0.72
  -4 -11   2    3.11    0.84
   4  11  -2    2.52    0.73
   4  11  -2    4.32    0.88
   4  11  -2    3.41    0.95
   4 -11  -2    3.04    0.75
   4 -11  -2    2.87    0.85
  -3  11   2    5.49    1.07
  -3  11   2    5.04    0.82
  -3 -11   2    4.24    0.86
   3  11  -2    5.02    0.79
   3  11  -2    5.25    0.95
   3  11  -2    4.36    0.93
   3 -11  -2    5.10    0.84
   3 -11  -2    3.41    0.83
  -2  11   2    1.33    0.84
  -2  11   2    1.42    0.62
  -2 -11   2    0.77    0.64
   2  11  -2    1.73    0.60
   2  11  -2    0.24    0.69
   2  11  -2    0.72    0.65
   2 -11  -2    0.45    0.61
   2 -11  -2    0.83    0.65
  -1  11   2   27.79    1.71
  -1  11   2   26.09    1.36
  -1 -11   2   23.84    1.35
   1  11  -2   27.92    1.40
   1  11  -2   27.16    1.44
   1  11  -2   26.63    1.46
   1 -11  -2   21.48    1.25
   1 -11  -2   22.39    1.34
   0  11   2    2.56    0.86
   0  11   2    3.47    0.75
   0 -11   2    3.19    0.67
   0  11  -2    4.35    0.78
   0  11  -2    3.50    0.78
   0  11  -2    3.24    0.73
   0 -11  -2    3.10    0.75
   0 -11  -2    3.01    0.72
   1  11   2   14.54    1.33
   1  11   2   13.75    1.11
   1 -11   2   11.75    1.04
  -1  11  -2   13.51    1.16
  -1  11  -2   13.92    1.20
  -1  11  -2   13.29    1.13
  -1 -11  -2   11.82    1.10
  -1 -11  -2   12.35    1.01
   2  11   2   14.24    1.34
   2  11   2   12.89    1.11
   2  11   2   12.79    1.14
   2 -11   2   12.37    1.19
  -2  11  -2   13.82    1.24
  -2 -11  -2   11.73    1.10
  -2 -11  -2   12.23    1.00
   3  11   2    0.67    0.74
   3 -11   2    1.11    0.74
  -3  11  -2    0.58    0.70
  -3 -11  -2    0.92    0.70
   4  11   2    0.78    0.76
   4 -11   2    0.84    0.71
  -4  11  -2   -0.31    0.65
   5  11   2    0.66    0.63
   5 -11   2    0.80    0.74
  -5  11  -2    2.29    0.86
   6  11   2    1.33    0.71
   6 -11   2    1.30    0.82
  -7  12   2    3.98    1.22
  -7  12   2    3.81    1.02
   7  12  -2    4.57    0.91
   7  12  -2    3.54    1.25
   7 -12  -2    2.27    0.74
   7 -12  -2    3.48    1.12
  -6  12   2   15.96    1.70
  -6  12   2   13.75    1.28
   6  12  -2   16.51    1.38
   6  12  -2   17.05    1.71
   6 -12  -2   13.82    1.16
   6 -12  -2   13.28    1.39
  -5  12   2    1.98    0.98
  -5  12   2    2.08    0.77
   5  12  -2    3.11    0.87
   5  12  -2    1.86    1.00
   5 -12  -2    1.70    0.70
   5 -12  -2    2.75    0.87
  -4  12   2   16.30    1.60
  -4  12   2   14.22    1.19
   4  12  -2   14.90    1.21
   4  12  -2   14.84    1.31
   4  12  -2   16.82    1.58
   4 -12  -2   12.92    1.13
   4 -12  -2   12.07    1.27
  -3  12   2    0.14    0.84
  -3  12   2    0.29    0.59
   3  12  -2    0.90    0.60
   3  12  -2    0.30    0.70
   3  12  -2    0.70    0.83
   3 -12  -2    0.64    0.61
   3 -12  -2    0.36    0.64
  -2  12   2    7.01    1.19
  -2  12   2    6.07    0.90
   2  12  -2    8.07    0.95
   2  12  -2    9.46    1.20
   2  12  -2    6.95    1.05
   2 -12  -2    6.27    0.92
   2 -12  -2    6.92    1.02
  -1  12   2    2.22    0.95
  -1  12   2    1.04    0.64
   1  12  -2    1.77    0.68
   1  12  -2    1.46    0.70
   1  12  -2    1.49    0.77
   1 -12  -2    1.69    0.69
   1 -12  -2    2.98    0.75
   0  12   2    5.08    1.06
   0  12   2    4.65    0.88
   0 -12   2    4.45    0.74
   0  12  -2    5.47    0.85
   0  12  -2    4.37    0.86
   0  12  -2    4.92    0.90
   0 -12  -2    4.81    0.90
   0 -12  -2    4.63    0.82
   1  12   2    0.19    0.68
   1  12   2    1.00    0.65
   1 -12   2    0.82    0.62
  -1  12  -2    0.26    0.64
  -1  12  -2    0.57    0.62
  -1 -12  -2    0.90    0.67
  -1 -12  -2    0.92    0.55
   2  12   2    0.39    0.70
   2 -12   2    0.04    0.59
  -2  12  -2    0.02    0.62
  -2 -12  -2    0.30    0.66
   3  12   2    9.33    1.25
   3 -12   2    6.63    1.09
  -3  12  -2    8.96    1.19
  -3 -12  -2    8.93    1.15
   4  12   2    0.72    0.66
   4 -12   2    0.16    0.62
  -4  12  -2    0.44    0.68
   5  12   2    7.88    1.20
   5 -12   2    7.83    1.19
  -6  13   2    2.95    1.20
  -6  13   2    1.79    0.82
   6  13  -2    3.46    0.87
   6  13  -2    2.69    1.18
   6 -13  -2    2.59    0.71
   6 -13  -2    3.01    0.92
  -5  13   2    6.95    1.33
  -5  13   2    5.83    1.00
   5  13  -2    7.02    1.12
   5  13  -2    5.67    1.31
   5 -13  -2    5.48    0.90
   5 -13  -2    4.68    1.02
  -4  13   2    0.66    0.93
  -4  13   2    2.08    0.75
   4  13  -2    1.46    0.82
   4  13  -2    1.06    0.94
   4 -13  -2    1.45    0.69
   4 -13  -2    0.74    0.61
  -3  13   2   -0.34    0.89
  -3  13   2   -0.02    0.63
   3  13  -2   -0.35    0.67
   3  13  -2   -0.42    0.76
   3 -13  -2    0.12    0.60
   3 -13  -2    0.32    0.59
  -2  13   2    4.78    1.13
  -2  13   2    3.42    0.83
   2  13  -2    4.23    0.78
   2  13  -2    6.01    1.09
   2  13  -2    4.02    0.98
   2 -13  -2    3.66    0.83
   2 -13  -2    4.49    0.90
  -1  13   2   10.82    1.40
  -1  13   2   10.56    1.13
   1  13  -2   10.95    1.11
   1  13  -2    9.37    1.12
   1  13  -2   11.68    1.27
   1 -13  -2   10.10    1.07
   1 -13  -2   10.93    1.13
   0  13   2    7.56    1.25
   0  13   2    6.33    1.00
   0  13  -2    6.26    0.93
   0  13  -2    6.40    1.01
   0 -13  -2    6.87    1.03
   0 -13  -2    6.04    0.93
   1  13   2    1.15    0.79
   1 -13   2    0.53    0.58
  -1  13  -2    1.45    0.71
  -1  13  -2    1.28    0.77
  -1 -13  -2    1.16    0.76
  -1 -13  -2    0.81    0.58
   2  13   2    0.39    0.77
   2 -13   2    1.23    0.71
  -2  13  -2    1.38    0.74
  -2 -13  -2    2.02    0.83
   3  13   2    3.78    1.01
   3 -13   2    3.21    0.89
  -3  13  -2    4.05    0.90
  -3 -13  -2    4.22    0.97
   4  13   2    0.14    0.62
   4 -13   2   -0.16    0.64
   5  13   2    7.60    1.17
   5 -13   2    7.09    1.16
  -6  14   2    1.58    1.15
  -6  14   2    1.45    0.82
   6  14  -2    2.09    0.80
   6  14  -2    0.06    1.04
   6 -14  -2    1.73    0.61
   6 -14  -2    2.85    0.82
  -5  14   2    1.75    1.08
  -5  14   2    0.62    0.77
   5  14  -2    1.17    0.75
   5  14  -2    1.11    1.02
   5 -14  -2    1.17    0.56
   5 -14  -2    0.92    0.60
  -4  14   2    4.80    1.23
  -4  14   2    2.87    0.86
   4  14  -2    5.63    1.06
   4  14  -2    3.06    1.17
   4 -14  -2    3.71    0.80
   4 -14  -2    3.52    0.91
  -3  14   2    6.98    1.33
  -3  14   2    6.85    1.05
   3  14  -2   10.50    1.25
   3  14  -2    7.24    1.28
   3 -14  -2    6.31    0.95
   3 -14  -2    7.72    1.12
  -2  14   2   -0.06    0.89
  -2  14   2   -0.25    0.60
   2  14  -2    0.06    0.79
   2 -14  -2   -0.04    0.57
   2 -14  -2    0.03    0.60
  -1  14   2    4.01    1.14
  -1  14   2    3.11    0.86
   1  14  -2    3.33    0.94
   1 -14  -2    3.74    0.80
   1 -14  -2    3.30    0.82
   0  14   2    1.41    1.02
   0  14  -2    1.62    0.81
   0 -14  -2    0.76    0.67
   0 -14  -2    1.41    0.68
   1  14   2   11.53    1.44
  -1 -14  -2   10.22    1.17
   2  14   2    3.36    1.00
   2 -14   2    3.58    0.88
  -2 -14  -2    3.27    0.88
   3  14   2    4.39    1.07
   3 -14   2    4.38    0.94
   4  14   2   -0.14    0.66
   4 -14   2    0.49    0.54
  -5  15   2   -0.79    0.94
  -5  15   2   -0.13    0.73
   5  15  -2    0.45    0.98
   5 -15  -2    0.55    0.49
   5 -15  -2    0.15    0.50
  -4  15   2    0.19    1.01
  -4  15   2    0.95    0.75
   4  15  -2    1.59    1.09
   4 -15  -2   -0.01    0.53
   4 -15  -2    1.24    0.63
  -3  15   2    0.17    1.01
  -3  15   2    1.11    0.74
   3  15  -2   -0.11    0.91
   3 -15  -2    0.18    0.60
   3 -15  -2    0.16    0.59
  -2  15   2    0.20    0.96
   2  15  -2    0.45    0.83
   2 -15  -2   -0.44    0.56
   2 -15  -2   -0.31    0.52
  -1  15   2    0.94    1.08
   1  15  -2    1.59    0.89
   1 -15  -2    0.88    0.66
   1 -15  -2    1.83    0.75
   0  15   2    1.22    1.01
   0  15  -2    1.54    0.87
   0 -15  -2    0.85    0.71
   1  15   2    2.83    1.08
  -1 -15  -2    2.58    0.87
   2  15   2    0.93    0.76
  -2 -15  -2    1.20    0.67
   3  15   2   -0.66    0.59
  -3  16   2    3.65    1.30
   3  16  -2    4.24    1.23
   3 -16  -2    2.80    0.75
   3 -16  -2    4.26    0.91
  -2  16   2    1.93    1.16
   2  16  -2    1.86    1.02
   2 -16  -2    1.68    0.68
   2 -16  -2    1.93    0.74
  -1  16   2    1.83    1.13
   1  16  -2    0.99    0.96
   1 -16  -2    1.11    0.64
   0  16   2    0.79    1.01
   0 -16  -2   -0.24    0.57
   1  16   2    3.19    1.17
  -1 -16  -2    3.21    0.84
   2  16   2    4.18    0.99
 -10   0   3   -0.22    0.81
 -10   0   3   -0.90    0.60
  10   0  -3   -0.06    0.56
  10   0  -3    0.49    0.73
  -9   0   3   -0.08    0.65
  -9   0   3   -0.33    0.59
   9   0  -3    0.04    0.59
   9   0  -3    0.54    0.78
  -8   0   3    0.37    0.66
  -8   0   3   -0.34    0.54
   8   0  -3   -0.59    0.56
   8   0  -3   -0.45    0.64
  -7   0   3    0.10    0.63
  -7   0   3    0.19    0.50
   7   0  -3    0.13    0.47
   7   0  -3    1.03    0.75
  -6   0   3   -0.66    0.41
  -6   0   3   -0.22    0.36
   6   0  -3   -0.12    0.34
   6   0  -3    0.20    0.54
   6   0  -3    0.14    0.37
  -5   0   3   -0.38    0.39
  -5   0   3   -0.14    0.20
  -5   0   3   -0.11    0.26
   5   0  -3    0.13    0.42
   5   0  -3    0.08    0.45
   5   0  -3   -0.05    0.27
  -4   0   3   -0.34    0.41
   4   0  -3    0.45    0.41
   4   0  -3   -0.29    0.41
   4   0  -3    0.23    0.30
   3   0  -3   -0.16    0.37
   3   0  -3    0.20    0.40
   3   0  -3    0.26    0.33
  -2   0   3    0.09    0.29
   2   0  -3    0.00    0.29
   2   0  -3    0.06    0.30
   2   0  -3   -0.01    0.31
  -1   0   3   -0.10    0.23
  -1   0   3   -0.09    0.29
   1   0  -3    0.15    0.28
   1   0  -3    0.06    0.22
   0   0   3   -0.27    0.30
   0   0   3   -0.37    0.25
   0   0   3   -0.10    0.22
   0   0  -3    0.37    0.33
   0   0  -3    0.14    0.25
   0   0  -3    0.19    0.27
   1   0   3   -0.05    0.28
   1   0   3    0.14    0.35
   1   0   3   -0.13    0.29
  -1   0  -3   -0.19    0.35
  -1   0  -3   -0.10    0.32
   2   0   3   -0.02    0.32
   2   0   3    0.01    0.34
   2   0   3   -0.24    0.28
  -2   0  -3   -0.10    0.36
  -2   0  -3    0.40    0.35
  -2   0  -3    0.08    0.28
   3   0   3   -0.04    0.38
   3   0   3   -0.17    0.28
   3   0   3    0.11    0.40
   3   0   3   -0.20    0.35
  -3   0  -3   -0.19    0.41
  -3   0  -3   -0.32    0.38
   4   0   3   -0.11    0.36
   4   0   3   -0.79    0.46
   4   0   3   -0.08    0.42
  -4   0  -3   -0.30    0.52
  -4   0  -3    0.17    0.49
   5   0   3   -0.35    0.54
  -5   0  -3   -0.27    0.66
  -5   0  -3   -0.40    0.48
   6   0   3    0.26    0.69
  -6   0  -3   -0.36    0.74
   7   0   3   -0.55    0.72
  -7   0  -3   -0.26    0.86
   8   0   3   -0.36    0.82
  -8   0  -3   -0.50    1.01
 -10   1   3    4.75    1.04
 -10   1   3    4.52    0.97
 -10  -1   3    3.73    1.14
 -10  -1   3    5.40    1.02
  10   1  -3    4.73    0.83
  10   1  -3    3.98    1.03
  10  -1  -3    4.06    0.85
  10  -1  -3    5.67    1.09
  -9   1   3   31.79    1.92
  -9   1   3   28.93    1.52
  -9  -1   3   31.59    2.01
  -9  -1   3   30.24    1.56
   9   1  -3   32.37    1.46
   9   1  -3   30.95    1.92
   9  -1  -3   30.84    1.89
  -8   1   3    7.80    1.13
  -8   1   3    6.86    0.91
  -8  -1   3    9.12    1.24
  -8  -1   3    6.63    0.94
   8   1  -3    7.44    0.87
   8   1  -3    8.30    1.13
   8  -1  -3    7.07    0.88
   8  -1  -3    8.64    1.19
  -7   1   3   18.90    1.41
  -7   1   3   16.11    1.00
  -7  -1   3   20.48    1.48
  -7  -1   3   18.32    1.07
   7   1  -3   18.03    1.01
   7   1  -3   18.51    1.41
   7  -1  -3   18.67    0.98
   7  -1  -3   20.05    1.46
   7  -1  -3   17.98    1.10
  -6   1   3    2.20    0.63
  -6   1   3    1.37    0.45
  -6  -1   3    1.61    0.64
  -6  -1   3    1.92    0.50
   6   1  -3    1.98    0.45
   6   1  -3    1.87    0.68
   6   1  -3    1.48    0.43
   6  -1  -3    1.50    0.42
   6  -1  -3    1.35    0.66
   6  -1  -3    1.37    0.50
  -5   1   3   34.78    1.39
  -5   1   3   25.42    0.76
  -5   1   3   31.07    0.87
  -5  -1   3   33.72    1.41
  -5  -1   3   26.67    0.83
  -5  -1   3   33.00    0.95
   5   1  -3   33.17    1.40
   5   1  -3   31.65    0.85
   5   1  -3   31.75    1.36
   5   1  -3   30.06    0.94
   5  -1  -3   33.45    1.40
   5  -1  -3   31.02    1.13
  -4   1   3    0.14    0.40
  -4  -1   3   -0.19    0.46
  -4  -1   3   -0.02    0.23
  -4  -1   3    0.05    0.18
   4   1  -3    0.09    0.41
   4   1  -3   -0.34    0.40
   4   1  -3   -0.06    0.26
   4  -1  -3    0.15    0.42
   4  -1  -3    0.23    0.43
   4  -1  -3   -0.08    0.32
   3   1  -3    0.56    0.43
   3   1  -3    1.03    0.43
   3   1  -3    0.97    0.33
   3  -1  -3    0.85    0.41
   3  -1  -3    0.87    0.45
   3  -1  -3    0.83    0.40
  -2  -1   3   38.38    1.00
   2   1  -3   38.34    1.17
   2   1  -3   40.19    1.00
   2   1  -3   37.84    1.00
   2  -1  -3   38.45    1.05
   2  -1  -3   38.79    1.07
   2  -1  -3   37.42    1.11
  -1   1   3   43.56    0.95
  -1   1   3   43.48    1.22
  -1  -1   3   44.47    1.16
  -1  -1   3   40.44    0.78
  -1  -1   3   44.49    0.81
   1   1  -3   43.77    1.21
   1   1  -3   40.62    0.80
   1   1  -3   46.11    0.84
   1  -1  -3   44.76    1.07
   1  -1  -3   43.47    1.22
   0   1   3    0.04    0.32
   0   1   3    0.02    0.22
   0   1   3    0.07    0.26
   0  -1   3    0.10    0.34
   0  -1   3   -0.02    0.23
   0  -1   3    0.05    0.27
   0   1  -3   -0.08    0.33
   0   1  -3    0.03    0.29
   0   1  -3    0.07    0.26
   0  -1  -3    0.29    0.29
   0  -1  -3   -0.11    0.25
   0  -1  -3    0.16    0.28
   1   1   3   93.98    1.70
   1   1   3  121.70    2.23
   1   1   3   85.09    1.58
   1  -1   3   97.44    1.76
   1  -1   3   99.85    2.03
   1  -1   3   84.27    1.60
  -1   1  -3   85.31    1.82
  -1   1  -3   89.88    1.67
  -1  -1  -3   90.52    1.67
  -1  -1  -3   87.89    1.63
   2   1   3   65.62    1.62
   2   1   3   65.72    1.25
   2   1   3   58.17    1.71
   2   1   3   59.24    1.52
   2  -1   3   66.91    1.66
   2  -1   3   58.08    1.72
   2  -1   3   59.11    1.52
  -2   1  -3   61.04    1.68
  -2   1  -3   62.37    1.59
  -2   1  -3   65.93    1.51
  -2  -1  -3   62.54    1.57
  -2  -1  -3   61.00    1.56
  -2  -1  -3   64.10    1.46
   3   1   3  143.55    2.63
   3   1   3  142.92    2.10
   3   1   3  180.79    3.15
   3   1   3  124.59    2.40
   3  -1   3  145.83    2.67
   3  -1   3  166.16    3.08
   3  -1   3  123.67    2.38
  -3   1  -3  130.77    2.64
  -3   1  -3  133.05    2.54
  -3  -1  -3  132.39    2.50
  -3  -1  -3  134.49    2.54
   4   1   3   41.42    1.36
   4   1   3   41.92    1.75
   4   1   3   37.72    1.54
   4  -1   3   37.14    1.70
   4  -1   3   36.65    1.50
  -4   1  -3   40.21    1.73
  -4   1  -3   38.86    1.61
  -4  -1  -3   38.09    1.58
  -4  -1  -3   41.04    1.64
   5   1   3    0.01    0.53
   5  -1   3   -0.18    0.60
  -5   1  -3   -0.09    0.70
  -5   1  -3    0.19    0.52
  -5  -1  -3   -0.57    0.64
  -5  -1  -3    0.03    0.53
   6   1   3    1.76    0.80
   6  -1   3    1.66    0.85
  -6   1  -3    2.67    1.00
  -6  -1  -3    1.46    0.85
   7   1   3   -0.37    0.69
   7  -1   3   -0.56    0.76
  -7   1  -3   -0.73    0.86
  -7  -1  -3    0.18    0.84
   8   1   3    0.72    0.89
   8  -1   3    0.07    0.87
  -8   1  -3    0.23    1.02
  -8  -1  -3    0.29    1.02
 -10   2   3    2.78    0.94
 -10   2   3    2.84    0.87
 -10  -2   3    1.76    1.12
 -10  -2   3    2.24    0.86
  10   2  -3    2.45    0.68
  10   2  -3    2.45    0.96
  10  -2  -3    2.24    0.80
  10  -2  -3    2.02    0.88
  -9   2   3    2.78    0.94
  -9   2   3    1.21    0.70
  -9  -2   3    2.83    1.03
  -9  -2   3    2.28    0.80
   9   2  -3    1.31    0.67
   9   2  -3    2.73    0.96
   9  -2  -3    1.92    0.79
   9  -2  -3    3.27    0.98
  -8   2   3    7.60    1.13
  -8   2   3    6.08    0.90
  -8  -2   3    5.40    1.11
  -8  -2   3    6.78    0.94
   8   2  -3    6.58    0.80
   8   2  -3    7.78    1.18
   8  -2  -3    7.32    0.88
   8  -2  -3    7.79    1.16
   8  -2  -3    5.71    0.86
  -7   2   3   78.08    2.48
  -7   2   3   68.71    1.78
  -7  -2   3   78.79    2.53
  -7  -2   3   73.04    1.88
   7   2  -3   76.22    1.80
   7   2  -3   81.52    2.56
   7  -2  -3   78.94    2.52
   7  -2  -3   68.88    2.02
  -6   2   3   12.23    1.06
  -6   2   3   10.26    0.73
  -6  -2   3   11.28    1.11
  -6  -2   3   11.63    0.82
   6   2  -3   11.73    1.09
   6   2  -3   10.67    0.74
   6   2  -3   12.17    1.11
   6  -2  -3   11.91    0.70
   6  -2  -3   13.15    1.15
   6  -2  -3   11.35    0.91
  -5   2   3   10.46    0.90
  -5   2   3    8.39    0.52
  -5   2   3    8.63    0.55
  -5  -2   3    9.57    0.94
  -5  -2   3    9.57    0.63
   5   2  -3    9.94    0.92
   5   2  -3    9.35    0.58
   5   2  -3    9.98    0.66
   5   2  -3   10.19    0.92
   5  -2  -3    9.93    0.90
   5  -2  -3    9.67    0.79
  -4   2   3    6.36    0.71
  -4  -2   3    5.42    0.49
  -4  -2   3    6.21    0.50
   4   2  -3    6.18    0.74
   4   2  -3    6.34    0.70
   4   2  -3    6.06    0.44
   4  -2  -3    6.22    0.74
   4  -2  -3    6.68    0.67
  -3   2   3   -0.34    0.38
  -3  -2   3    0.05    0.26
  -3  -2   3   -0.21    0.21
   3   2  -3    0.29    0.42
   3   2  -3    0.21    0.40
   3   2  -3    0.10    0.26
   3  -2  -3    0.04    0.36
   3  -2  -3    0.05    0.40
   3  -2  -3    0.22    0.39
  -2   2   3   13.96    0.80
  -2  -2   3   12.57    0.65
  -2  -2   3   12.57    0.49
  -2  -2   3   13.17    0.51
   2   2  -3   13.83    0.91
   2   2  -3   14.40    0.72
   2  -2  -3   12.97    0.70
   2  -2  -3   14.28    0.83
   2  -2  -3   12.31    0.80
  -1   2   3    4.08    0.47
  -1   2   3    3.68    0.56
  -1   2   3    4.03    0.36
  -1  -2   3    4.19    0.48
  -1  -2   3    3.20    0.37
  -1  -2   3    4.03    0.49
   1   2  -3    4.11    0.54
   1   2  -3    3.91    0.40
   1   2  -3    3.93    0.38
   1  -2  -3    3.51    0.38
   1  -2  -3    3.63    0.58
   0   2   3    0.09    0.30
   0   2   3    1.00    0.44
   0   2   3   -0.09    0.23
   0   2   3    0.01    0.28
   0  -2   3   -0.08    0.32
   0  -2   3   -0.02    0.28
   0   2  -3   -0.02    0.37
   0   2  -3    0.15    0.26
   0   2  -3    0.33    0.31
   0  -2  -3   -0.06    0.25
   0  -2  -3   -0.20    0.27
   0  -2  -3   -0.10    0.30
   0  -2  -3    0.87    0.48
   1   2   3   26.02    0.99
   1   2   3   24.84    0.86
   1   2   3   23.15    1.10
   1   2   3   23.76    0.94
   1  -2   3   26.25    1.04
   1  -2   3   22.16    1.08
   1  -2   3   22.27    0.91
  -1   2  -3   23.33    1.11
  -1   2  -3   25.48    1.01
  -1   2  -3   24.20    0.88
  -1  -2  -3   23.75    0.89
  -1  -2  -3   23.17    0.94
   2   2   3    4.26    0.56
   2   2   3    4.15    0.47
   2   2   3    4.06    0.62
   2   2   3    3.89    0.54
   2  -2   3    4.57    0.59
   2  -2   3    3.90    0.63
   2  -2   3    4.02    0.55
  -2   2  -3    3.26    0.65
  -2   2  -3    4.50    0.58
  -2   2  -3    3.94    0.54
  -2  -2  -3    4.43    0.58
  -2  -2  -3    4.68    0.63
   3   2   3    0.41    0.40
   3   2   3    0.31    0.37
   3   2   3    0.58    0.43
   3   2   3    0.35    0.41
   3  -2   3    0.41    0.44
   3  -2   3    0.37    0.48
   3  -2   3   -0.20    0.38
  -3   2  -3    0.29    0.51
  -3   2  -3   -0.14    0.38
  -3  -2  -3    0.18    0.44
  -3  -2  -3   -0.03    0.44
   4   2   3    2.74    0.57
   4   2   3    1.80    0.63
   4   2   3    2.07    0.58
   4  -2   3    2.60    0.75
   4  -2   3    2.19    0.59
  -4   2  -3    2.33    0.79
  -4   2  -3    1.91    0.63
  -4  -2  -3    1.53    0.62
  -4  -2  -3    2.97    0.70
   5   2   3    0.39    0.55
   5  -2   3   -0.68    0.59
  -5   2  -3   -0.45    0.73
  -5   2  -3    0.04    0.52
  -5  -2  -3   -0.26    0.57
  -5  -2  -3    0.47    0.57
   6   2   3   28.62    1.71
   6  -2   3   27.54    1.85
  -6   2  -3   32.18    1.97
  -6  -2  -3   29.86    1.75
   7   2   3   18.46    1.60
   7  -2   3   14.64    1.63
  -7   2  -3   20.93    1.82
  -7  -2  -3   17.86    1.61
 -10   3   3    0.28    0.65
 -10   3   3    0.36    0.72
 -10  -3   3    0.15    0.85
 -10  -3   3    1.05    0.77
  10   3  -3    0.68    0.58
  10   3  -3    0.24    0.72
  10  -3  -3   -0.25    0.71
  10  -3  -3    0.74    0.75
  -9   3   3   -0.05    0.61
  -9   3   3   -0.37    0.56
  -9  -3   3   -0.51    0.74
  -9  -3   3   -0.17    0.58
   9   3  -3   -0.04    0.52
   9   3  -3   -0.49    0.66
   9  -3  -3   -0.05    0.69
   9  -3  -3   -0.61    0.65
  -8   3   3    1.58    0.78
  -8   3   3    1.81    0.70
  -8  -3   3    2.26    0.92
  -8  -3   3    1.37    0.69
   8   3  -3    1.96    0.63
   8   3  -3    2.16    0.96
   8  -3  -3    1.61    0.68
   8  -3  -3    2.08    0.88
   8  -3  -3    2.80    0.75
  -7   3   3   11.95    1.19
  -7   3   3    8.18    0.82
  -7  -3   3    9.94    1.23
  -7  -3   3    9.47    0.93
   7   3  -3   10.03    0.86
   7   3  -3    9.51    1.18
   7  -3  -3   10.15    0.86
   7  -3  -3    9.31    1.14
   7  -3  -3    9.23    0.97
  -6   3   3    1.10    0.59
  -6   3   3    0.67    0.42
  -6  -3   3    0.90    0.67
  -6  -3   3    0.59    0.50
   6   3  -3    1.25    0.58
   6   3  -3    0.63    0.44
   6   3  -3    0.61    0.63
   6  -3  -3    0.78    0.44
   6  -3  -3    0.89    0.66
   6  -3  -3    1.02    0.50
  -5   3   3    5.11    0.70
  -5   3   3    3.94    0.46
  -5   3   3    4.30    0.43
  -5  -3   3    5.57    0.84
  -5  -3   3    4.91    0.57
   5   3  -3    6.33    0.79
   5   3  -3    4.31    0.52
   5   3  -3    4.82    0.58
   5   3  -3    5.14    0.73
   5  -3  -3    5.35    0.76
   5  -3  -3    4.98    0.67
  -4   3   3  112.27    2.06
  -4  -3   3  108.64    1.62
  -4  -3   3  112.31    1.61
   4   3  -3  113.78    2.33
   4   3  -3  114.21    1.60
   4   3  -3  114.54    1.58
   4   3  -3  111.79    2.21
   4  -3  -3  114.11    2.33
   4  -3  -3  106.42    2.11
  -3   3   3   14.22    0.79
  -3   3   3   14.24    0.94
  -3  -3   3   13.00    0.51
  -3  -3   3   13.70    0.61
  -3  -3   3   13.84    0.62
   3   3  -3   12.91    0.91
   3   3  -3   13.97    0.63
   3   3  -3   14.53    0.65
   3   3  -3   14.77    0.89
   3  -3  -3   14.49    0.92
   3  -3  -3   14.12    0.88
  -2   3   3   52.32    1.10
  -2   3   3   53.48    1.40
  -2  -3   3   51.79    1.05
  -2  -3   3   48.54    0.99
  -2  -3   3   53.97    1.03
   2   3  -3   50.73    1.47
   2   3  -3   51.12    1.02
   2   3  -3   55.00    1.05
   2   3  -3   54.50    1.22
   2  -3  -3   52.10    1.07
   2  -3  -3   52.70    1.40
   2  -3  -3   55.83    1.48
  -1   3   3    7.58    0.71
  -1   3   3    8.61    0.51
  -1   3   3    8.77    0.49
  -1  -3   3    7.69    0.65
  -1  -3   3    8.95    0.59
  -1  -3   3    9.06    0.64
   1   3  -3    7.97    0.80
   1   3  -3    8.37    0.60
   1   3  -3    8.39    0.65
   1  -3  -3    8.33    0.50
   1  -3  -3    7.05    0.50
   1  -3  -3    7.87    0.50
   1  -3  -3    7.54    0.75
   0   3   3   11.24    0.76
   0   3   3   11.26    0.86
   0   3   3   10.53    0.63
   0   3   3   11.75    0.64
   0  -3   3   11.88    0.75
   0  -3   3   12.65    0.82
   0  -3   3   10.60    0.66
   0   3  -3   10.33    0.87
   0   3  -3   11.30    0.71
   0   3  -3   12.99    0.78
   0  -3  -3   11.84    0.58
   0  -3  -3   10.91    0.66
   0  -3  -3   11.46    0.67
   0  -3  -3   10.50    0.84
   1   3   3   63.29    1.46
   1   3   3   56.08    1.32
   1   3   3   55.40    1.59
   1   3   3   53.26    1.32
   1  -3   3   63.34    1.53
   1  -3   3   58.31    1.62
   1  -3   3   51.55    1.33
  -1   3  -3   56.18    1.65
  -1   3  -3   58.71    1.46
  -1   3  -3   58.52    1.32
  -1  -3  -3   56.15    1.17
  -1  -3  -3   54.47    1.36
   2   3   3   59.63    1.60
   2   3   3   54.19    1.40
   2   3   3   71.39    1.89
   2   3   3   53.51    1.50
   2  -3   3   58.92    1.63
   2  -3   3   47.97    1.63
   2  -3   3   51.26    1.48
  -2   3  -3   53.22    1.71
  -2   3  -3   54.06    1.57
  -2  -3  -3   55.55    1.36
  -2  -3  -3   51.43    1.50
   3   3   3   13.04    0.89
   3   3   3   11.44    0.98
   3   3   3   10.83    0.90
   3  -3   3   13.17    1.00
   3  -3   3    8.72    0.97
   3  -3   3   10.83    0.87
  -3   3  -3   10.85    1.03
  -3   3  -3   12.97    0.97
  -3  -3  -3   12.24    0.86
  -3  -3  -3   12.22    0.98
   4   3   3    4.14    0.66
   4   3   3    2.20    0.62
   4   3   3    3.24    0.68
   4  -3   3    3.65    0.84
   4  -3   3    3.23    0.68
  -4   3  -3    4.46    0.93
  -4   3  -3    2.18    0.65
  -4  -3  -3    2.63    0.65
  -4  -3  -3    3.20    0.75
   5   3   3    2.55    0.62
   5   3   3    3.17    0.76
   5  -3   3    2.42    0.87
  -5   3  -3    3.20    1.01
  -5   3  -3    2.68    0.71
  -5  -3  -3    2.67    0.76
  -5  -3  -3    2.81    0.79
   6   3   3    5.10    0.95
   6  -3   3    4.69    1.17
  -6   3  -3    5.36    1.26
  -6  -3  -3    5.06    1.03
   7   3   3    1.05    0.77
   7  -3   3    0.86    0.88
  -7   3  -3    1.74    1.06
  -7  -3  -3    0.55    0.80
 -10   4   3    0.10    0.72
 -10  -4   3    1.71    1.02
 -10  -4   3    0.74    0.78
  10   4  -3    0.94    0.60
  10   4  -3    0.76    0.85
  10  -4  -3    1.03    0.76
  10  -4  -3    1.57    0.77
  -9   4   3    3.26    0.89
  -9   4   3    2.69    0.82
  -9  -4   3    2.16    1.01
  -9  -4   3    2.38    0.86
   9   4  -3    3.19    0.75
   9   4  -3    3.42    1.01
   9  -4  -3    2.42    0.82
   9  -4  -3    3.63    0.96
   9  -4  -3    2.66    0.81
  -8   4   3    0.37    0.68
  -8   4   3    1.21    0.62
  -8  -4   3    1.90    0.93
  -8  -4   3    0.73    0.69
   8   4  -3    0.70    0.60
   8   4  -3    1.32    0.89
   8  -4  -3    0.85    0.67
   8  -4  -3    0.97    0.77
   8  -4  -3    0.60    0.65
  -7   4   3    4.99    0.90
  -7   4   3    3.22    0.67
  -7  -4   3    5.35    1.05
  -7  -4   3    4.78    0.82
   7   4  -3    4.73    0.72
   7   4  -3    4.82    1.00
   7  -4  -3    4.19    0.72
   7  -4  -3    3.93    0.91
   7  -4  -3    4.45    0.83
  -6   4   3    0.80    0.56
  -6   4   3    0.87    0.44
  -6  -4   3    0.08    0.63
  -6  -4   3    0.63    0.54
   6   4  -3    0.76    0.60
   6   4  -3    0.45    0.42
   6   4  -3   -0.59    0.59
   6  -4  -3    0.69    0.46
   6  -4  -3    0.11    0.62
   6  -4  -3    0.73    0.54
  -5   4   3    6.21    0.75
  -5   4   3    4.85    0.55
  -5  -4   3    5.56    0.90
  -5  -4   3    5.63    0.65
   5   4  -3    5.11    0.77
   5   4  -3    4.98    0.62
   5   4  -3    5.34    0.77
   5  -4  -3    6.19    0.83
   5  -4  -3    5.83    0.74
  -4   4   3    4.24    0.58
  -4   4   3    4.75    0.68
  -4   4   3    3.92    0.45
  -4   4   3    3.96    0.43
  -4  -4   3    3.79    0.47
  -4  -4   3    4.51    0.54
   4   4  -3    4.49    0.68
   4   4  -3    3.42    0.44
   4   4  -3    4.71    0.57
   4   4  -3    4.85    0.66
   4  -4  -3    4.01    0.67
   4  -4  -3    4.25    0.64
  -3   4   3   17.29    0.79
  -3   4   3   17.40    1.02
  -3   4   3   17.22    0.58
  -3  -4   3   14.91    0.71
  -3  -4   3   17.11    0.71
   3   4  -3   17.75    1.01
   3   4  -3   16.61    0.75
   3   4  -3   17.67    0.77
   3   4  -3   19.06    0.97
   3  -4  -3   17.25    1.01
   3  -4  -3   18.67    1.03
  -2   4   3   44.62    0.94
  -2   4   3   42.26    1.34
  -2   4   3   40.74    0.84
  -2   4   3   41.47    0.86
  -2  -4   3   39.56    0.92
  -2  -4   3   38.43    1.02
   2   4  -3   41.00    1.39
   2   4  -3   40.02    1.04
   2   4  -3   43.57    1.09
   2   4  -3   43.09    1.16
   2  -4  -3   39.33    1.35
  -1   4   3   10.44    0.84
  -1   4   3    9.64    0.59
  -1   4   3   10.05    0.59
  -1  -4   3    9.94    0.70
  -1  -4   3    9.19    0.65
   1   4  -3    9.63    0.85
   1   4  -3    9.63    0.67
   1   4  -3   10.70    0.70
   1  -4  -3   10.15    0.62
   1  -4  -3   10.61    0.60
   1  -4  -3   10.09    0.83
   0   4   3   18.26    0.94
   0   4   3   18.11    1.01
   0   4   3   18.17    0.79
   0   4   3   20.19    0.83
   0  -4   3   22.44    0.96
   0  -4   3   20.47    0.98
   0  -4   3   17.57    0.83
   0   4  -3   18.20    1.04
   0   4  -3   19.90    0.90
   0  -4  -3   18.33    0.81
   0  -4  -3   19.69    0.83
   0  -4  -3   21.36    1.06
   1   4   3   37.09    1.20
   1   4   3   35.69    1.20
   1   4   3   31.88    1.29
   1   4   3   32.59    1.12
   1  -4   3   36.25    1.24
   1  -4   3   34.55    1.32
   1  -4   3   30.57    1.11
  -1   4  -3   34.74    1.39
  -1   4  -3   33.13    1.19
  -1   4  -3   35.74    1.11
  -1  -4  -3   33.42    0.85
  -1  -4  -3   33.73    1.15
   2   4   3   25.82    1.13
   2   4   3   24.37    1.09
   2   4   3   23.84    1.21
   2   4   3   23.27    1.09
   2  -4   3   26.38    1.19
   2  -4   3   22.25    1.23
   2  -4   3   22.42    1.07
  -2   4  -3   24.23    1.29
  -2   4  -3   23.26    1.13
  -2  -4  -3   24.05    0.90
  -2  -4  -3   23.69    1.11
   3   4   3    1.57    0.52
   3   4   3    1.73    0.57
   3   4   3    1.81    0.53
   3  -4   3    1.89    0.59
   3  -4   3    0.77    0.57
   3  -4   3    1.91    0.55
  -3   4  -3    1.76    0.69
  -3   4  -3    1.46    0.54
  -3  -4  -3    1.22    0.50
  -3  -4  -3    0.76    0.56
   4   4   3    4.55    0.72
   4   4   3    3.89    0.78
   4   4   3    4.54    0.77
   4  -4   3    4.71    0.90
  -4   4  -3    4.46    0.97
  -4   4  -3    5.01    0.81
  -4  -4  -3    3.52    0.70
  -4  -4  -3    3.91    0.82
   5   4   3    0.63    0.48
   5   4   3   -0.36    0.48
   5  -4   3    0.29    0.75
  -5   4  -3    0.78    0.84
  -5  -4  -3   -0.15    0.54
  -5  -4  -3   -0.27    0.57
   6   4   3    1.37    0.68
   6  -4   3    1.53    0.94
  -6   4  -3    2.29    1.07
   7  -4   3    0.20    0.88
  -7   4  -3    0.77    1.01
 -10   5   3    1.06    0.73
 -10  -5   3    1.59    1.00
 -10  -5   3    1.77    0.85
  10   5  -3    1.41    0.62
  10   5  -3    1.17    0.83
  10  -5  -3    1.35    0.73
  10  -5  -3    1.65    0.84
  -9   5   3    3.97    0.95
  -9   5   3    2.19    0.80
  -9  -5   3    1.92    1.00
  -9  -5   3    2.50    0.89
   9   5  -3    2.51    0.74
   9   5  -3    3.72    1.14
   9  -5  -3    1.62    0.79
   9  -5  -3    2.20    0.89
   9  -5  -3    2.17    0.83
  -8   5   3    1.32    0.76
  -8   5   3    0.44    0.62
  -8  -5   3    1.21    0.92
  -8  -5   3    0.81    0.73
   8   5  -3    1.61    0.63
   8   5  -3    0.80    0.93
   8  -5  -3    0.85    0.69
   8  -5  -3    0.77    0.80
   8  -5  -3    1.15    0.73
  -7   5   3   12.17    1.15
  -7   5   3    8.32    0.88
  -7  -5   3   10.37    1.29
  -7  -5   3   10.21    1.03
   7   5  -3   10.68    0.95
   7   5  -3    9.93    1.27
   7  -5  -3   10.73    0.92
   7  -5  -3   10.83    1.22
   7  -5  -3    9.20    1.07
  -6   5   3   13.94    1.08
  -6   5   3   10.21    0.82
  -6  -5   3   13.63    1.29
   6   5  -3   14.13    1.20
   6   5  -3   13.16    0.93
   6   5  -3   13.94    1.29
   6  -5  -3   12.17    0.83
   6  -5  -3   13.32    1.21
   6  -5  -3   11.29    1.07
  -5   5   3   14.71    1.00
  -5   5   3   14.36    1.14
  -5   5   3   14.11    0.79
  -5  -5   3   15.36    1.26
  -5  -5   3   14.59    0.91
   5   5  -3   14.99    1.11
   5   5  -3   14.74    0.88
   5   5  -3   15.34    1.17
   5  -5  -3   14.19    0.75
   5  -5  -3   14.85    1.18
   5  -5  -3   16.98    1.15
  -4   5   3   82.67    1.76
  -4   5   3   83.82    2.15
  -4   5   3   77.88    1.41
  -4   5   3   80.82    1.42
  -4  -5   3   77.57    1.63
   4   5  -3   85.23    2.15
   4   5  -3   84.60    1.67
   4   5  -3   87.21    2.10
   4  -5  -3   80.07    1.32
   4  -5  -3   84.42    2.16
   4  -5  -3   73.91    1.99
  -3   5   3    1.73    0.36
  -3   5   3    0.98    0.49
  -3   5   3    1.18    0.31
  -3   5   3    1.54    0.31
  -3  -5   3    1.46    0.39
  -3  -5   3    1.77    0.44
   3   5  -3    1.92    0.53
   3   5  -3    1.74    0.37
   3   5  -3    2.00    0.47
   3   5  -3    0.85    0.44
   3  -5  -3    1.66    0.36
   3  -5  -3    1.43    0.52
   3  -5  -3    1.28    0.51
  -2   5   3  126.52    1.43
  -2   5   3  121.01    2.28
  -2   5   3  120.26    1.58
  -2   5   3  121.31    1.62
  -2  -5   3  136.54    1.64
  -2  -5   3  110.70    1.80
   2   5  -3  124.13    2.37
   2   5  -3  116.47    1.84
   2   5  -3  130.23    1.92
   2   5  -3  129.84    2.00
   2  -5  -3  111.49    1.51
   2  -5  -3  121.28    1.56
   2  -5  -3  117.94    2.31
  -1   5   3   81.20    1.84
  -1   5   3   80.33    1.44
  -1   5   3   82.49    1.42
  -1  -5   3   81.53    1.65
  -1  -5   3   79.78    1.53
  -1  -5   3   74.06    1.54
   1   5  -3   77.95    1.88
   1   5  -3   79.22    1.59
   1   5  -3   87.57    1.65
   1   5  -3   82.24    1.40
   1  -5  -3   76.61    1.39
   1  -5  -3   81.10    1.42
   1  -5  -3   74.53    1.84
   0   5   3  203.74    2.82
   0   5   3  236.32    3.23
   0   5   3  203.36    2.47
   0  -5   3  229.06    2.85
   0  -5   3  216.70    2.83
   0  -5   3  194.74    2.57
   0   5  -3  214.41    3.14
   0   5  -3  202.26    2.66
   0   5  -3  209.04    2.46
   0  -5  -3  201.12    2.46
   0  -5  -3  282.33    3.52
   1   5   3    4.33    0.58
   1   5   3    4.86    0.62
   1   5   3    3.89    0.61
   1   5   3    3.40    0.53
   1  -5   3    3.14    0.56
   1  -5   3    2.93    0.57
   1  -5   3    2.96    0.54
  -1   5  -3    3.28    0.65
  -1   5  -3    3.79    0.55
  -1  -5  -3    3.92    0.59
  -1  -5  -3    3.94    0.65
   2   5   3   24.55    1.17
   2   5   3   20.63    1.17
   2   5   3   21.55    1.08
   2  -5   3   24.70    1.20
   2  -5   3   23.13    1.28
   2  -5   3   21.22    1.11
  -2   5  -3   24.47    1.36
  -2   5  -3   24.01    1.18
  -2  -5  -3   22.68    0.85
  -2  -5  -3   23.36    1.16
   3   5   3   25.29    1.28
   3   5   3   24.51    1.32
   3   5   3   22.36    1.23
   3  -5   3   24.90    1.31
   3  -5   3   21.45    1.36
   3  -5   3   22.94    1.24
  -3   5  -3   22.68    1.47
  -3   5  -3   23.70    1.28
  -3  -5  -3   22.65    1.28
   4   5   3   11.24    1.02
   4   5   3   11.36    1.07
   4   5   3   11.27    1.05
   4  -5   3   10.57    1.19
  -4   5  -3   10.99    1.27
  -4   5  -3    9.82    1.00
  -4  -5  -3   11.44    1.08
   5   5   3   18.20    1.29
   5   5   3   16.42    1.28
   5  -5   3   14.13    1.47
  -5   5  -3   17.14    1.55
  -5  -5  -3   15.69    1.31
   6   5   3    4.12    0.90
   6  -5   3    3.79    1.08
  -6   5  -3    4.59    1.21
   7  -5   3   -1.16    0.76
  -7   5  -3    0.55    1.07
  -9   6   3    0.30    0.59
  -9   6   3    0.15    0.87
  -9   6   3   -0.01    0.61
  -9  -6   3    0.67    0.81
  -9  -6   3   -0.09    0.73
   9   6  -3   -0.62    0.54
   9   6  -3    0.08    0.91
   9  -6  -3   -0.37    0.68
   9  -6  -3    0.51    0.73
   9  -6  -3    0.32    0.69
  -8   6   3    9.09    1.10
  -8   6   3    9.07    1.32
  -8   6   3    7.60    0.95
  -8  -6   3    7.69    1.28
  -8  -6   3    9.68    1.15
   8   6  -3    9.29    0.95
   8   6  -3    7.82    1.29
   8  -6  -3    9.90    1.23
   8  -6  -3    4.89    0.99
  -7   6   3    0.73    0.64
  -7   6   3    0.70    0.77
  -7   6   3    0.74    0.56
  -7  -6   3    0.35    0.79
  -7  -6   3    0.36    0.64
   7   6  -3    0.58    0.68
   7   6  -3    0.43    0.57
   7   6  -3    0.63    0.78
   7  -6  -3    0.67    0.62
   7  -6  -3    0.17    0.70
   7  -6  -3    0.52    0.64
  -6   6   3    7.38    0.90
  -6   6   3    5.57    1.01
  -6   6   3    3.89    0.67
  -6  -6   3    5.53    1.05
   6   6  -3    5.32    0.95
   6   6  -3    5.97    0.78
   6   6  -3    6.55    1.04
   6  -6  -3    4.14    0.66
   6  -6  -3    5.39    0.95
   6  -6  -3    5.14    0.87
  -5   6   3    8.74    0.83
  -5   6   3    7.88    0.98
  -5   6   3    5.75    0.67
  -5  -6   3    8.86    0.84
   5   6  -3    8.79    0.98
   5   6  -3    8.20    0.81
   5   6  -3    8.68    1.00
   5  -6  -3    7.13    0.70
   5  -6  -3    7.61    1.00
   5  -6  -3    6.27    0.89
  -4   6   3    2.36    0.49
  -4   6   3    1.97    0.59
  -4   6   3    2.02    0.43
  -4  -6   3    2.32    0.54
   4   6  -3    2.35    0.59
   4   6  -3    1.87    0.51
   4   6  -3    2.86    0.61
   4  -6  -3    1.71    0.37
   4  -6  -3    1.83    0.45
   4  -6  -3    2.05    0.64
   4  -6  -3    1.94    0.61
  -3   6   3   46.85    1.13
  -3   6   3   46.93    1.63
  -3   6   3   45.73    1.15
  -3   6   3   47.05    1.14
  -3  -6   3   44.22    1.31
   3   6  -3   49.26    1.62
   3   6  -3   50.62    1.40
   3   6  -3   51.49    1.55
   3  -6  -3   44.25    1.09
   3  -6  -3   52.30    1.19
   3  -6  -3   45.86    1.62
  -2   6   3   13.25    0.98
  -2   6   3   13.63    0.71
  -2   6   3   14.44    0.71
  -2  -6   3   14.12    0.86
  -2  -6   3   11.44    0.60
  -2  -6   3   11.49    0.76
   2   6  -3   14.29    0.97
   2   6  -3   12.77    0.80
   2   6  -3   13.79    0.85
   2  -6  -3   12.36    0.68
   2  -6  -3   13.74    0.72
   2  -6  -3   12.50    0.95
  -1   6   3   29.38    1.28
  -1   6   3   29.12    1.01
  -1   6   3   30.39    1.00
  -1  -6   3   29.99    1.14
  -1  -6   3   29.58    1.03
  -1  -6   3   26.65    1.06
   1   6  -3   29.60    1.28
   1   6  -3   29.05    1.11
   1   6  -3   32.35    1.02
   1  -6  -3   28.46    0.99
   1  -6  -3   29.34    1.01
   1  -6  -3   29.74    1.27
   0   6   3    0.79    0.48
   0   6   3    1.34    0.43
   0  -6   3    0.68    0.41
   0  -6   3    1.25    0.44
   0  -6   3    0.58    0.43
   0   6  -3    0.90    0.46
   0   6  -3    1.16    0.44
   0  -6  -3    0.62    0.44
   0  -6  -3    1.40    0.53
   1   6   3    0.11    0.38
   1   6   3    0.31    0.39
   1   6   3   -0.35    0.33
   1  -6   3   -0.11    0.38
   1  -6   3   -0.17    0.40
   1  -6   3   -0.20    0.41
  -1   6  -3   -0.01    0.44
  -1   6  -3   -0.09    0.34
  -1  -6  -3   -0.25    0.39
  -1  -6  -3   -0.24    0.42
   2   6   3   42.97    1.57
   2   6   3   39.00    1.54
   2   6   3   37.58    1.43
   2  -6   3   42.31    1.60
   2  -6   3   41.08    1.64
   2  -6   3   37.23    1.44
  -2   6  -3   43.11    1.76
  -2   6  -3   40.42    1.53
  -2  -6  -3   41.22    1.51
   3   6   3    0.91    0.51
   3   6   3    0.03    0.46
   3   6   3    0.45    0.49
   3  -6   3    0.34    0.54
   3  -6   3    0.06    0.51
  -3   6  -3    0.29    0.64
  -3   6  -3   -0.20    0.43
  -3  -6  -3    0.28    0.56
   4   6   3    2.31    0.68
   4   6   3    1.60    0.63
   4  -6   3    2.27    0.80
  -4   6  -3    3.04    0.98
  -4   6  -3    3.02    0.70
  -4  -6  -3    2.54    0.76
   5   6   3    0.16    0.54
   5   6   3   -0.15    0.54
   5  -6   3    0.26    0.78
  -5   6  -3    0.14    0.87
  -5  -6  -3   -0.15    0.62
   6   6   3    3.33    0.84
   6  -6   3    1.89    1.03
  -6   6  -3    3.98    1.22
   7  -6   3    3.45    1.20
  -7   6  -3    4.51    1.30
  -9   7   3    7.95    1.12
  -9   7   3    6.93    1.35
  -9   7   3    6.25    1.05
  -9  -7   3    3.49    1.12
  -9  -7   3    6.01    1.10
   9   7  -3    8.67    0.98
   9   7  -3    6.41    1.38
   9  -7  -3    4.35    0.92
   9  -7  -3    6.63    1.12
   9  -7  -3    4.87    1.09
  -8   7   3    2.04    0.77
  -8   7   3    1.91    0.92
  -8   7   3    0.50    0.64
  -8  -7   3    1.60    0.94
  -8  -7   3    1.38    0.82
   8   7  -3    1.34    0.65
   8   7  -3    1.02    0.98
   8  -7  -3    0.87    0.70
   8  -7  -3    0.99    0.80
   8  -7  -3    0.26    0.73
  -7   7   3    3.78    0.83
  -7   7   3    4.31    1.04
  -7   7   3    4.02    0.78
  -7  -7   3    4.62    1.08
  -7  -7   3    3.22    0.84
   7   7  -3    3.73    0.91
   7   7  -3    4.79    0.81
   7   7  -3    3.86    1.08
   7  -7  -3    2.34    0.69
   7  -7  -3    5.20    0.98
   7  -7  -3    2.50    0.83
  -6   7   3    3.45    0.72
  -6   7   3    2.46    0.85
  -6   7   3    2.16    0.63
  -6  -7   3    2.57    0.92
  -6  -7   3    2.10    0.72
   6   7  -3    3.47    0.85
   6   7  -3    2.19    0.68
   6   7  -3    2.29    0.88
   6  -7  -3    2.63    0.66
   6  -7  -3    3.07    0.83
   6  -7  -3    1.77    0.73
  -5   7   3    4.27    0.69
  -5   7   3    4.11    0.83
  -5   7   3    3.51    0.60
  -5  -7   3    4.70    0.78
   5   7  -3    4.83    0.85
   5   7  -3    4.19    0.71
   5   7  -3    4.55    0.91
   5  -7  -3    3.09    0.61
   5  -7  -3    4.20    0.87
   5  -7  -3    4.07    0.85
  -4   7   3    0.87    0.40
  -4   7   3    0.32    0.57
  -4   7   3    0.25    0.36
  -4  -7   3    0.38    0.50
   4   7  -3    1.04    0.52
   4   7  -3    0.62    0.48
   4   7  -3    0.85    0.58
   4  -7  -3    0.26    0.43
   4  -7  -3    0.21    0.53
  -3   7   3    5.44    0.51
  -3   7   3    5.33    0.78
  -3   7   3    4.51    0.56
  -3  -7   3    5.58    0.68
   3   7  -3    4.92    0.71
   3   7  -3    5.65    0.69
   3   7  -3    4.99    0.70
   3  -7  -3    3.96    0.55
   3  -7  -3    4.44    0.74
  -2   7   3   77.69    2.10
  -2   7   3   76.47    1.61
  -2  -7   3   75.20    1.35
  -2  -7   3   68.54    1.69
   2   7  -3   78.68    2.07
   2   7  -3   74.39    1.76
   2   7  -3   80.84    1.83
   2  -7  -3   65.29    1.45
   2  -7  -3   73.06    2.02
  -1   7   3   19.00    1.17
  -1   7   3   18.94    0.92
  -1  -7   3   19.32    0.92
  -1  -7   3   17.22    0.96
   1   7  -3   19.01    1.12
   1   7  -3   20.21    1.05
   1   7  -3   19.51    0.93
   1  -7  -3   17.53    0.89
   1  -7  -3   18.94    1.10
   0   7   3   14.49    1.05
   0   7   3   14.72    0.89
   0  -7   3   14.78    0.99
   0  -7   3   15.47    0.96
   0  -7   3   14.23    0.92
   0   7  -3   15.38    1.07
   0   7  -3   14.34    0.95
   0   7  -3   15.78    0.79
   0  -7  -3   13.90    0.88
   0  -7  -3   16.58    1.05
   1   7   3    0.74    0.50
   1   7   3    0.72    0.49
   1   7   3    0.56    0.41
   1  -7   3   -0.21    0.45
   1  -7   3    1.07    0.51
   1  -7   3    0.65    0.48
  -1   7  -3    0.80    0.55
  -1   7  -3    0.89    0.48
  -1  -7  -3    0.90    0.51
  -1  -7  -3    0.03    0.46
   2   7   3    2.06    0.61
   2   7   3    2.67    0.67
   2   7   3    2.37    0.61
   2  -7   3    2.50    0.69
   2  -7   3    1.73    0.61
  -2   7  -3    2.93    0.75
  -2   7  -3    2.38    0.62
  -2  -7  -3    2.11    0.66
   3   7   3   58.77    2.04
   3   7   3   49.60    1.84
   3   7   3   47.15    1.78
  -3   7  -3   51.90    2.09
  -3   7  -3   53.45    1.92
  -3  -7  -3   50.55    1.86
   4   7   3    7.97    0.99
   4   7   3    5.99    0.90
   4  -7   3    5.93    1.05
  -4   7  -3    7.12    1.14
  -4  -7  -3    6.20    0.98
   5   7   3    1.00    0.67
   5  -7   3    0.44    0.78
  -5   7  -3    0.47    0.80
  -5  -7  -3    0.49    0.68
   6   7   3    6.58    1.06
   6  -7   3    5.23    1.23
  -6   7  -3    6.15    1.25
   7  -7   3    3.51    1.14
  -7   7  -3    8.03    1.42
  -9   8   3    0.38    0.98
  -9   8   3   -0.19    0.70
  -9  -8   3    0.75    0.91
  -9  -8   3    0.12    0.83
   9   8  -3    0.15    0.59
   9   8  -3    0.14    0.98
   9  -8  -3   -0.13    0.66
   9  -8  -3    0.27    0.61
   9  -8  -3   -0.42    0.74
  -8   8   3    3.43    0.83
  -8   8   3    3.89    1.11
  -8   8   3    2.04    0.76
  -8  -8   3    3.95    1.12
  -8  -8   3    4.69    0.98
   8   8  -3    3.09    0.76
   8   8  -3    2.18    1.08
   8  -8  -3    2.06    0.76
   8  -8  -3    3.78    0.97
   8  -8  -3    1.36    0.84
  -7   8   3    0.25    0.53
  -7   8   3   -0.43    0.74
  -7   8   3   -0.09    0.53
  -7  -8   3    0.63    0.84
  -7  -8   3   -0.23    0.59
   7   8  -3    0.21    0.70
   7   8  -3    0.53    0.59
   7   8  -3    0.04    0.88
   7  -8  -3   -0.14    0.59
   7  -8  -3   -0.31    0.69
   7  -8  -3    0.51    0.71
  -6   8   3    0.87    0.55
  -6   8   3    0.60    0.76
  -6   8   3    1.15    0.60
  -6  -8   3    1.99    0.92
  -6  -8   3    1.35    0.70
   6   8  -3    0.65    0.69
   6   8  -3    1.70    0.67
   6   8  -3    1.30    0.85
   6  -8  -3    1.01    0.61
   6  -8  -3    1.42    0.81
   6  -8  -3    1.07    0.78
  -5   8   3    4.75    0.71
  -5   8   3    4.52    0.93
  -5   8   3    4.08    0.67
  -5  -8   3    5.36    0.87
   5   8  -3    5.15    0.91
   5   8  -3    6.42    0.87
   5   8  -3    5.97    0.99
   5  -8  -3    4.48    0.72
   5  -8  -3    4.66    0.92
  -4   8   3    0.43    0.38
  -4   8   3    0.85    0.65
  -4   8   3    0.69    0.49
  -4  -8   3    0.72    0.56
   4   8  -3    1.05    0.58
   4   8  -3    1.09    0.59
   4   8  -3    0.31    0.61
   4  -8  -3    0.89    0.51
   4  -8  -3    0.68    0.60
  -3   8   3  130.47    2.92
  -3   8   3  121.30    2.19
  -3  -8   3  116.69    2.36
   3   8  -3  129.86    2.75
   3   8  -3  132.39    2.52
   3   8  -3  127.87    2.62
   3  -8  -3  108.36    2.00
   3  -8  -3  120.32    2.79
  -2   8   3   14.24    1.15
  -2   8   3   14.15    0.88
  -2  -8   3   14.96    0.74
  -2  -8   3   12.21    0.89
   2   8  -3   15.11    1.11
   2   8  -3   15.38    0.98
   2   8  -3   15.91    1.02
   2  -8  -3   12.80    0.83
   2  -8  -3   13.42    1.06
  -1   8   3    1.55    0.65
  -1   8   3    2.10    0.56
  -1  -8   3    1.89    0.49
  -1  -8   3    2.25    0.57
   1   8  -3    1.94    0.60
   1   8  -3    2.48    0.58
   1   8  -3    2.30    0.55
   1  -8  -3    1.95    0.54
   1  -8  -3    1.69    0.62
   0   8   3   -0.13    0.47
   0   8   3   -0.25    0.40
   0  -8   3    0.06    0.45
   0  -8   3    0.13    0.45
   0   8  -3   -0.34    0.42
   0   8  -3   -0.09    0.40
   0   8  -3    0.00    0.39
   0  -8  -3   -0.24    0.40
   0  -8  -3    0.38    0.48
   1   8   3    4.24    0.78
   1   8   3    4.39    0.75
   1   8   3    3.18    0.65
   1  -8   3    2.59    0.69
   1  -8   3    1.98    0.65
  -1   8  -3    3.34    0.75
  -1   8  -3    3.81    0.68
  -1  -8  -3    2.67    0.64
  -1  -8  -3    4.91    0.79
   2   8   3   96.60    2.56
   2   8   3   88.01    2.35
   2   8   3   90.38    2.30
   2  -8   3   98.22    2.62
   2  -8   3   86.27    2.29
  -2   8  -3   99.17    2.73
  -2   8  -3   90.01    2.39
  -2  -8  -3   89.09    2.32
   3   8   3   63.02    2.21
   3   8   3   56.67    2.00
   3   8   3   52.58    1.93
   3  -8   3   49.78    2.07
  -3   8  -3   60.45    2.31
  -3   8  -3   56.96    2.03
  -3  -8  -3   53.67    1.98
   4   8   3    4.20    0.89
   4   8   3    2.71    0.74
   4  -8   3    2.70    0.86
  -4   8  -3    2.84    0.96
  -4  -8  -3    3.11    0.86
   5   8   3    1.74    0.74
   5  -8   3    1.11    0.87
  -5   8  -3    1.41    0.90
   6   8   3    0.48    0.63
   6  -8   3    0.22    0.96
  -6   8  -3    0.90    0.85
  -9   9   3   -0.33    0.89
  -9   9   3    0.25    0.68
  -9  -9   3    0.22    0.89
  -9  -9   3    0.09    0.85
   9   9  -3   -0.08    0.51
   9   9  -3    0.22    1.00
   9  -9  -3    0.07    0.60
   9  -9  -3    0.35    0.67
   9  -9  -3   -0.48    0.66
  -8   9   3    1.01    0.92
  -8   9   3    1.60    0.76
  -8  -9   3    1.07    0.95
  -8  -9   3    1.59    0.89
   8   9  -3    2.37    0.74
   8   9  -3    2.41    1.14
   8  -9  -3    0.80    0.67
   8  -9  -3    2.11    0.89
   8  -9  -3    1.55    0.86
  -7   9   3   13.86    1.22
  -7   9   3   16.37    1.63
  -7   9   3   11.88    1.10
  -7  -9   3   15.17    1.54
  -7  -9   3   12.25    1.25
   7   9  -3   18.15    1.45
   7   9  -3   16.16    1.25
   7   9  -3   14.93    1.59
   7  -9  -3   11.47    1.35
  -6   9   3   13.32    1.07
  -6   9   3   13.88    1.49
  -6   9   3   11.74    1.03
  -6  -9   3   15.36    1.51
  -6  -9   3   14.36    1.22
   6   9  -3   14.90    1.31
   6   9  -3   14.79    1.18
   6   9  -3   13.15    1.41
   6  -9  -3   11.21    1.28
  -5   9   3   19.36    1.55
  -5   9   3   17.52    1.14
  -5  -9   3   18.75    1.26
   5   9  -3   22.03    1.44
   5   9  -3   20.94    1.30
   5   9  -3   22.56    1.56
   5  -9  -3   17.59    1.07
   5  -9  -3   15.45    1.37
  -4   9   3  190.78    3.81
  -4   9   3  173.71    2.88
  -4  -9   3  168.00    3.08
   4   9  -3  187.37    3.53
   4   9  -3  187.29    3.25
   4   9  -3  187.34    3.57
   4  -9  -3  157.82    3.45
  -3   9   3   47.96    1.99
  -3   9   3   44.78    1.51
  -3  -9   3   42.10    1.59
   3   9  -3   44.50    1.75
   3   9  -3   48.26    1.73
   3   9  -3   48.36    1.80
   3  -9  -3   39.79    1.39
   3  -9  -3   42.01    1.81
  -2   9   3   57.97    2.08
  -2   9   3   56.53    1.66
  -2  -9   3   50.77    1.68
   2   9  -3   61.28    2.00
   2   9  -3   56.73    1.79
   2   9  -3   60.30    1.84
   2  -9  -3   47.71    1.51
   2  -9  -3   52.82    1.93
  -1   9   3   11.33    1.15
  -1   9   3   11.52    0.92
  -1  -9   3   10.14    0.84
  -1  -9   3   10.03    0.92
   1   9  -3   12.50    1.09
   1   9  -3   11.16    0.95
   1   9  -3   12.82    0.96
   1  -9  -3   11.15    0.91
   1  -9  -3    9.92    0.98
   0   9   3    7.91    0.98
   0   9   3    6.99    0.83
   0  -9   3    7.50    0.88
   0  -9   3    6.25    0.83
   0   9  -3    6.81    0.93
   0   9  -3    7.11    0.88
   0   9  -3    6.55    0.78
   0  -9  -3    6.42    0.82
   0  -9  -3    6.03    0.86
   1   9   3    8.02    0.99
   1   9   3    7.31    0.93
   1   9   3    6.96    0.85
   1  -9   3    5.78    0.84
   1  -9   3    6.61    0.91
  -1   9  -3    7.63    1.02
  -1   9  -3    7.57    0.93
  -1  -9  -3    7.70    0.91
  -1  -9  -3    6.06    0.84
   2   9   3    5.00    0.90
   2   9   3    4.25    0.84
   2   9   3    4.96    0.80
   2  -9   3    3.84    0.86
  -2   9  -3    4.53    0.92
  -2   9  -3    3.08    0.73
  -2  -9  -3    5.66    0.89
  -2  -9  -3    4.27    0.78
   3   9   3   17.10    1.41
   3   9   3   14.89    1.27
   3   9   3   14.60    1.25
   3  -9   3   17.46    1.44
  -3   9  -3   18.23    1.49
  -3   9  -3   16.70    1.26
  -3  -9  -3   14.69    1.23
   4   9   3    1.07    0.75
   4  -9   3    1.17    0.76
  -4   9  -3    2.11    0.90
  -4  -9  -3    1.47    0.73
   5   9   3   15.62    1.39
  -5   9  -3   17.49    1.58
   6   9   3    3.81    0.84
   6  -9   3    2.91    0.90
  -6   9  -3    3.61    1.07
  -8  10   3   -0.27    0.87
  -8  10   3    0.33    0.67
  -8 -10   3   -0.23    0.82
  -8 -10   3    0.24    0.90
   8  10  -3    1.46    0.60
   8  10  -3    1.29    1.04
   8 -10  -3    0.53    0.54
   8 -10  -3    0.16    0.81
  -7  10   3    1.28    1.00
  -7  10   3    0.27    0.64
  -7 -10   3    0.67    0.86
  -7 -10   3    1.35    0.80
   7  10  -3    1.92    0.81
   7  10  -3    1.54    0.68
   7  10  -3    1.99    1.06
   7 -10  -3    0.41    0.55
   7 -10  -3    0.70    0.82
  -6  10   3    0.59    0.91
  -6  10   3    1.17    0.67
  -6 -10   3    2.65    1.00
  -6 -10   3    1.49    0.81
   6  10  -3    1.78    0.82
   6  10  -3    1.08    0.70
   6  10  -3    2.14    0.99
   6 -10  -3    1.40    0.58
   6 -10  -3    1.24    0.80
  -5  10   3   -0.20    0.81
  -5  10   3   -0.34    0.52
  -5 -10   3   -0.23    0.58
   5  10  -3    0.17    0.65
   5  10  -3    0.29    0.65
   5  10  -3    0.28    0.81
   5 -10  -3    0.09    0.52
   5 -10  -3   -0.12    0.67
  -4  10   3    2.06    0.91
  -4  10   3    1.98    0.66
  -4 -10   3    2.08    0.73
   4  10  -3    2.43    0.77
   4  10  -3    1.14    0.71
   4  10  -3    1.67    0.79
   4 -10  -3    1.82    0.66
   4 -10  -3    2.66    0.80
  -3  10   3   39.82    1.96
  -3  10   3   36.00    1.47
  -3 -10   3   35.17    1.58
   3  10  -3   38.26    1.71
   3  10  -3   43.30    1.76
   3  10  -3   39.25    1.75
   3 -10  -3   32.24    1.37
   3 -10  -3   34.61    1.74
  -2  10   3    5.67    1.00
  -2  10   3    3.61    0.74
  -2 -10   3    4.97    0.84
   2  10  -3    4.95    0.84
   2  10  -3    3.75    0.78
   2  10  -3    4.37    0.79
   2 -10  -3    2.32    0.71
   2 -10  -3    4.06    0.87
  -1  10   3   -0.15    0.65
  -1  10   3    0.06    0.52
  -1 -10   3   -0.12    0.44
  -1 -10   3    0.72    0.59
   1  10  -3    0.87    0.59
   1  10  -3    0.02    0.48
   1  10  -3    0.38    0.53
   1 -10  -3   -0.12    0.54
   1 -10  -3    0.13    0.58
   0  10   3    2.64    0.83
   0  10   3    1.19    0.61
   0 -10   3    1.85    0.63
   0 -10   3    1.74    0.66
   0  10  -3    2.65    0.74
   0  10  -3    2.07    0.66
   0  10  -3    2.24    0.61
   0 -10  -3    2.13    0.69
   0 -10  -3    1.64    0.66
   1  10   3    1.51    0.73
   1  10   3    1.90    0.71
   1  10   3    1.24    0.65
   1 -10   3    2.06    0.67
   1 -10   3    0.82    0.62
  -1  10  -3    1.84    0.73
  -1  10  -3    1.55    0.63
  -1 -10  -3    2.33    0.73
  -1 -10  -3    2.10    0.66
   2  10   3   46.55    2.06
   2  10   3   49.33    1.93
   2  10   3   43.86    1.81
   2 -10   3   49.61    2.04
  -2  10  -3   48.19    2.12
  -2  10  -3   48.06    1.96
  -2 -10  -3   42.21    1.79
  -2 -10  -3   47.91    1.87
   3  10   3    8.15    1.13
   3  10   3    7.39    0.98
   3 -10   3    5.18    1.04
  -3  10  -3    7.06    1.17
  -3 -10  -3    7.43    1.09
   4  10   3    5.94    1.05
   4 -10   3    5.03    1.05
  -4  10  -3    6.77    1.18
  -4 -10  -3    5.47    1.05
   5  10   3    0.24    0.61
   5 -10   3   -0.96    0.61
  -5  10  -3    0.21    0.76
   6 -10   3    2.61    0.83
  -8  11   3    1.81    1.08
  -8  11   3    1.83    0.83
  -8 -11   3    0.95    1.00
   8  11  -3    2.03    0.68
   8  11  -3    1.62    1.11
   8 -11  -3    0.70    0.51
   8 -11  -3    1.53    0.94
  -7  11   3    4.77    1.22
  -7  11   3    3.06    0.87
  -7 -11   3    2.70    1.04
  -7 -11   3    4.84    1.09
   7  11  -3    3.46    0.84
   7  11  -3    3.99    1.26
   7 -11  -3    3.09    0.71
   7 -11  -3    3.44    1.09
  -6  11   3    0.77    0.91
  -6  11   3    1.33    0.68
  -6 -11   3    2.31    1.01
  -6 -11   3    2.03    0.85
   6  11  -3    2.48    0.84
   6  11  -3    3.48    0.81
   6  11  -3    2.44    1.02
   6 -11  -3    1.26    0.60
   6 -11  -3    1.45    0.88
  -5  11   3    5.29    1.14
  -5  11   3    4.46    0.88
  -5 -11   3    3.58    0.90
   5  11  -3    3.18    0.89
   5  11  -3    4.74    0.95
   5  11  -3    4.02    1.09
   5 -11  -3    3.03    0.73
   5 -11  -3    4.18    0.93
  -4  11   3    0.04    0.82
  -4  11   3    0.93    0.64
  -4 -11   3    1.33    0.74
   4  11  -3    0.81    0.64
   4  11  -3    1.31    0.74
   4  11  -3    1.80    0.81
   4 -11  -3    0.41    0.59
   4 -11  -3    1.13    0.67
  -3  11   3   19.86    1.60
  -3  11   3   17.49    1.20
  -3 -11   3   16.06    1.24
   3  11  -3   17.63    1.32
   3  11  -3   22.73    1.44
   3  11  -3   20.14    1.46
   3 -11  -3   15.88    1.10
   3 -11  -3   16.56    1.35
  -2  11   3   17.88    1.51
  -2  11   3   17.97    1.22
  -2 -11   3   15.21    1.19
   2  11  -3   17.34    1.33
   2  11  -3   19.08    1.34
   2 -11  -3   15.68    1.11
   2 -11  -3   16.61    1.31
  -1  11   3   16.31    1.48
  -1  11   3   16.59    1.19
  -1 -11   3   13.68    1.12
   1  11  -3   17.30    1.30
   1  11  -3   16.65    1.24
   1  11  -3   16.77    1.21
   1 -11  -3   13.13    1.09
   1 -11  -3   15.64    1.24
   0  11   3   20.43    1.56
   0  11   3   18.83    1.27
   0 -11   3   20.81    1.23
   0 -11   3   18.70    1.27
   0  11  -3   24.26    1.53
   0  11  -3   22.51    1.40
   0 -11  -3   19.08    1.26
   0 -11  -3   16.52    1.23
   1  11   3    6.01    1.04
   1  11   3    4.58    0.91
   1  11   3    4.07    0.84
   1 -11   3    3.85    0.85
  -1  11  -3    4.72    0.95
  -1  11  -3    5.02    0.88
  -1 -11  -3    3.83    0.82
  -1 -11  -3    4.32    0.84
   2  11   3    0.10    0.67
   2  11   3   -0.02    0.60
   2  11   3   -0.31    0.53
   2 -11   3   -0.19    0.62
  -2  11  -3    0.72    0.71
  -2  11  -3   -0.15    0.52
  -2 -11  -3    0.17    0.62
  -2 -11  -3    0.01    0.57
   3  11   3   56.89    2.39
   3 -11   3   48.90    2.22
  -3  11  -3   58.79    2.48
  -3 -11  -3   50.09    2.14
   4  11   3    0.43    0.64
   4 -11   3   -0.26    0.64
  -4  11  -3   -0.78    0.63
  -4 -11  -3   -0.60    0.61
   5  11   3    3.19    0.86
   5 -11   3    2.50    0.91
  -7  12   3    0.19    0.96
  -7  12   3   -0.23    0.67
   7  12  -3    0.39    0.57
   7  12  -3   -0.11    0.98
   7 -12  -3    0.11    0.50
   7 -12  -3   -0.47    0.71
  -6  12   3    0.72    0.99
  -6  12   3    0.69    0.73
  -6 -12   3    1.98    1.05
  -6 -12   3    2.16    0.88
   6  12  -3    1.61    0.71
   6  12  -3    1.22    1.03
   6 -12  -3    0.76    0.60
   6 -12  -3    0.77    0.79
  -5  12   3    0.09    0.87
  -5  12   3    0.74    0.69
  -5 -12   3    1.26    0.78
   5  12  -3    1.22    0.69
   5  12  -3    1.01    0.71
   5  12  -3    0.14    0.89
   5 -12  -3    0.16    0.53
   5 -12  -3    0.23    0.64
  -4  12   3    6.15    1.22
  -4  12   3    3.92    0.86
  -4 -12   3    5.45    1.01
   4  12  -3    5.56    0.96
   4  12  -3    5.06    1.00
   4  12  -3    4.88    1.07
   4 -12  -3    3.77    0.80
   4 -12  -3    5.19    1.02
  -3  12   3    0.84    0.90
  -3  12   3    0.62    0.65
  -3 -12   3    1.32    0.71
   3  12  -3    1.00    0.68
   3  12  -3    0.69    0.79
   3  12  -3    0.25    0.71
   3 -12  -3    1.09    0.63
   3 -12  -3    0.77    0.68
  -2  12   3    1.60    0.90
  -2  12   3    2.04    0.74
  -2 -12   3    1.63    0.78
   2  12  -3    2.84    0.83
   2  12  -3    3.50    0.85
   2 -12  -3    1.65    0.68
   2 -12  -3    2.34    0.77
  -1  12   3    4.19    0.99
  -1  12   3    5.20    0.93
   1  12  -3    5.06    0.93
   1  12  -3    4.85    0.93
   1  12  -3    5.17    0.91
   1 -12  -3    4.70    0.89
   1 -12  -3    5.18    0.95
   0  12   3    0.34    0.72
   0  12   3   -0.17    0.61
   0  12  -3   -0.22    0.59
   0  12  -3    0.09    0.64
   0 -12  -3    0.09    0.58
   0 -12  -3   -0.30    0.55
   1  12   3    0.17    0.73
   1  12   3    0.89    0.70
   1  12   3   -0.12    0.62
   1 -12   3    0.12    0.56
  -1  12  -3    0.24    0.69
  -1  12  -3   -0.60    0.56
  -1 -12  -3   -0.82    0.58
  -1 -12  -3    0.26    0.58
   2  12   3    0.11    0.68
   2 -12   3    0.93    0.68
  -2  12  -3    0.40    0.70
  -2 -12  -3   -0.49    0.56
  -2 -12  -3   -0.19    0.53
   3  12   3    0.83    0.77
   3 -12   3    0.96    0.76
  -3  12  -3    1.59    0.86
  -3 -12  -3    1.28    0.71
   4  12   3    0.87    0.69
   4 -12   3   -0.42    0.60
  -4  12  -3    0.54    0.67
   5  12   3    0.81    0.61
   5 -12   3   -0.02    0.59
  -6  13   3   -0.60    0.93
  -6  13   3    0.57    0.74
   6  13  -3    0.48    0.61
   6  13  -3   -0.11    1.04
   6 -13  -3   -0.05    0.48
   6 -13  -3    0.16    0.57
  -5  13   3    1.99    1.07
  -5  13   3    1.61    0.77
   5  13  -3    2.58    0.83
   5  13  -3    1.52    1.01
   5 -13  -3    1.04    0.64
   5 -13  -3    1.90    0.82
  -4  13   3   13.82    1.65
  -4  13   3   14.94    1.27
   4  13  -3   14.64    1.31
   4  13  -3   16.99    1.37
   4  13  -3   16.44    1.58
   4 -13  -3   13.10    1.33
  -3  13   3    1.29    0.99
  -3  13   3    1.24    0.70
   3  13  -3    1.27    0.70
   3  13  -3    0.27    0.75
   3  13  -3    0.74    0.81
   3 -13  -3    0.60    0.60
   3 -13  -3    1.23    0.75
  -2  13   3   12.60    1.54
  -2  13   3   15.47    1.28
   2  13  -3   14.96    1.30
   2  13  -3   15.49    1.42
   2 -13  -3   11.72    1.11
  -1  13   3    4.82    1.06
  -1  13   3    4.11    0.92
   1  13  -3    5.14    0.97
   1  13  -3    5.86    0.99
   1 -13  -3    4.03    0.87
   1 -13  -3    5.10    0.93
   0  13   3   17.48    1.55
   0  13   3   15.68    1.32
   0  13  -3   18.10    1.40
   0  13  -3   15.66    1.35
   0 -13  -3   14.55    1.22
   0 -13  -3   14.16    1.26
   1  13   3    1.74    0.85
   1  13   3    0.70    0.76
   1  13   3    1.22    0.77
   1 -13   3    2.69    0.78
  -1  13  -3    1.45    0.78
  -1 -13  -3    1.48    0.70
  -1 -13  -3    1.27    0.70
   2  13   3    5.09    1.04
   2 -13   3    4.50    0.97
  -2  13  -3    5.83    1.03
  -2 -13  -3    3.55    0.86
   3  13   3    1.15    0.73
   3 -13   3    0.95    0.70
  -3  13  -3    1.13    0.69
  -3 -13  -3    1.42    0.70
   4  13   3    0.70    0.58
   4 -13   3    0.06    0.59
  -6  14   3    8.22    1.52
   6  14  -3    8.87    1.05
   6  14  -3    7.95    1.46
   6 -14  -3    7.15    1.14
  -5  14   3    1.51    1.12
  -5  14   3    1.84    0.82
   5  14  -3    1.35    0.76
   5  14  -3    1.83    1.10
   5 -14  -3    1.36    0.64
   5 -14  -3    2.12    0.79
  -4  14   3    2.23    1.14
  -4  14   3    2.79    0.86
   4  14  -3    4.95    0.98
   4  14  -3    3.10    1.10
   4 -14  -3    2.21    0.66
   4 -14  -3    2.66    0.81
  -3  14   3    3.22    1.15
  -3  14   3    3.35    0.93
   3  14  -3    5.47    1.10
   3  14  -3    2.94    1.04
   3 -14  -3    2.91    0.72
   3 -14  -3    2.74    0.82
  -2  14   3    0.23    0.97
  -2  14   3    0.85    0.74
   2  14  -3    0.43    0.65
   2  14  -3    0.73    0.86
   2  14  -3    1.51    0.84
   2 -14  -3    0.89    0.61
   2 -14  -3    0.87    0.66
  -1  14   3    1.82    0.93
  -1  14   3    1.76    0.79
   1  14  -3    1.57    0.74
   1  14  -3    1.78    0.81
   1 -14  -3    1.32    0.67
   1 -14  -3    1.57    0.70
   0  14   3    0.29    0.79
   0  14   3    0.28    0.71
   0  14  -3   -0.63    0.52
   0 -14  -3    0.21    0.55
   0 -14  -3    0.08    0.56
   1  14   3    0.69    0.76
  -1 -14  -3   -0.16    0.54
   2  14   3    3.01    0.89
   2 -14   3    2.27    0.79
  -2 -14  -3    2.29    0.75
   3  14   3   -1.45    0.54
   3 -14   3   -0.47    0.53
  -3 -14  -3   -0.37    0.51
  -5  15   3    2.54    1.15
  -5  15   3    1.38    0.83
   5  15  -3    3.13    0.83
   5  15  -3    3.47    1.25
   5 -15  -3    1.50    0.65
   5 -15  -3    2.00    0.78
  -4  15   3   37.01    2.40
   4  15  -3   40.42    2.03
   4  15  -3   39.38    2.36
   4 -15  -3   32.48    1.98
  -3  15   3    3.99    1.34
  -3  15   3    2.81    0.96
   3  15  -3    4.51    1.01
   3  15  -3    5.57    1.22
   3 -15  -3    3.35    0.74
   3 -15  -3    4.15    0.91
  -2  15   3   23.04    2.01
  -2  15   3   20.24    1.55
   2  15  -3   24.26    1.69
   2 -15  -3   17.80    1.29
   2 -15  -3   19.00    1.50
  -1  15   3    1.56    1.04
  -1  15   3    0.59    0.78
   1 -15  -3    0.93    0.64
   1 -15  -3    1.20    0.64
   0  15   3    1.68    0.85
   0 -15  -3    1.66    0.69
   1  15   3    1.08    0.83
  -1 -15  -3    0.57    0.58
   2  15   3    0.65    0.63
  -2 -15  -3    0.33    0.51
  -3  16   3   12.13    1.67
   3  16  -3   10.40    1.53
   3 -16  -3   10.63    1.21
  -2  16   3    0.30    1.05
   2 -16  -3   -0.18    0.51
   2 -16  -3    0.71    0.58
  -1  16   3    1.60    1.03
   1 -16  -3    1.55    0.68
   0  16   3    0.83    0.70
   0 -16  -3    0.33    0.56
 -10   0   4    5.97    1.10
 -10   0   4    6.57    1.06
  10   0  -4    4.36    0.86
  10   0  -4    8.07    1.25
  -9   0   4    0.58    0.68
  -9   0   4    0.14    0.58
   9   0  -4    0.08    0.59
   9   0  -4    0.73    0.92
  -8   0   4    0.81    0.70
  -8   0   4    0.35    0.56
   8   0  -4    0.93    0.87
  -7   0   4  345.79    5.04
  -7   0   4  338.19    3.48
   7   0  -4  348.34    5.10
  -6   0   4   29.84    1.52
  -6   0   4   28.88    0.96
   6   0  -4   28.49    1.48
   6   0  -4   28.75    1.53
   6   0  -4   27.82    1.13
  -5   0   4  161.82    2.95
   5   0  -4  158.01    2.90
   5   0  -4  163.99    2.93
   5   0  -4  148.48    2.29
   4   0  -4   38.06    1.37
   4   0  -4   38.12    1.35
   4   0  -4   38.63    1.18
  -3   0   4   80.23    1.67
   3   0  -4   78.78    1.77
   3   0  -4   86.16    1.71
   3   0  -4   84.40    1.71
  -2   0   4   60.81    1.52
   2   0  -4   65.33    1.58
   2   0  -4   66.13    1.32
   2   0  -4   61.54    1.54
  -1   0   4   55.49    1.54
  -1   0   4   53.19    1.04
  -1   0   4   57.46    1.07
   1   0  -4   56.36    1.46
   1   0  -4   53.47    0.99
   0   0   4  528.60    4.86
   0   0   4  498.19    3.70
   0   0   4  555.75    3.80
   0   0  -4  540.57    4.44
   0   0  -4  518.29    3.74
   0   0  -4  561.70    3.81
   1   0   4    9.09    0.87
   1   0   4    9.01    0.74
  -1   0  -4    9.78    0.82
  -1   0  -4    8.58    0.70
   2   0   4    9.12    0.97
   2   0   4    8.49    0.79
  -2   0  -4   10.80    0.93
  -2   0  -4    9.50    0.86
   3   0   4    6.60    0.93
   3   0   4    6.78    0.82
  -3   0  -4    6.67    0.92
  -3   0  -4    7.33    0.88
   4   0   4   23.03    1.57
   4   0   4   21.34    1.29
  -4   0  -4   24.40    1.52
  -4   0  -4   24.97    1.44
   5   0   4   99.63    3.08
  -5   0  -4  113.13    3.12
  -5   0  -4  112.23    3.02
   6   0   4   56.24    2.56
  -6   0  -4   60.27    2.58
   7   0   4    0.59    0.94
  -7   0  -4    0.95    0.99
 -10   1   4   18.91    1.61
 -10   1   4   14.78    1.26
 -10  -1   4   14.14    1.26
  10   1  -4   15.45    1.56
  10  -1  -4   16.60    1.58
  -9   1   4    5.99    1.07
  -9   1   4    5.46    0.89
  -9  -1   4    6.68    1.14
  -9  -1   4    5.76    0.93
   9   1  -4    5.29    1.23
   9  -1  -4    5.38    1.18
  -8   1   4    0.95    0.74
  -8   1   4    1.29    0.60
  -8  -1   4    0.61    0.73
  -8  -1   4    1.37    0.65
   8   1  -4    0.70    0.91
   8  -1  -4    1.59    0.90
  -7   1   4  124.10    3.07
  -7   1   4  106.93    1.99
  -7  -1   4  124.10    3.11
  -7  -1   4  119.89    2.15
   7   1  -4  126.08    3.14
   7  -1  -4  121.42    3.12
   7  -1  -4  113.75    2.41
  -6   1   4    9.68    1.02
  -6   1   4    8.54    0.62
  -6  -1   4    8.72    1.04
  -6  -1   4    8.56    0.66
   6   1  -4    8.78    1.05
   6   1  -4   10.96    1.10
   6  -1  -4    8.43    1.02
   6  -1  -4    9.05    0.82
  -5   1   4    1.80    0.59
  -5  -1   4    2.73    0.70
   5   1  -4    2.35    0.61
   5   1  -4    2.42    0.61
   5   1  -4    1.63    0.41
   5  -1  -4    1.84    0.57
   5  -1  -4    2.13    0.62
   5  -1  -4    1.50    0.47
  -4   1   4   64.20    1.72
   4   1  -4   63.35    1.77
   4   1  -4   64.37    1.68
   4   1  -4   68.17    1.43
   4  -1  -4   64.57    1.70
   4  -1  -4   63.65    1.71
   4  -1  -4   64.53    1.59
  -3  -1   4   20.93    0.88
   3   1  -4   20.63    1.03
   3   1  -4   22.24    0.95
   3   1  -4   22.57    0.92
   3  -1  -4   20.78    0.98
   3  -1  -4   22.26    1.02
   3  -1  -4   22.87    1.02
  -2   1   4   33.74    1.03
  -2   1   4   34.06    1.23
  -2  -1   4   33.68    1.14
   2   1  -4   32.96    1.25
   2   1  -4   36.09    0.96
   2  -1  -4   34.84    1.13
   2  -1  -4   35.30    1.07
   2  -1  -4   34.32    1.24
  -1   1   4  360.81    2.82
  -1   1   4  358.18    3.83
  -1   1   4  351.41    2.59
  -1   1   4  373.05    2.58
  -1  -1   4  361.78    3.70
  -1  -1   4  346.77    2.70
  -1  -1   4  372.17    2.72
   1   1  -4  359.16    3.67
   1   1  -4  355.10    2.67
   1   1  -4  391.64    2.74
   1  -1  -4  380.62    3.41
   0   1   4  141.67    2.57
   0   1   4  136.30    1.93
   0   1   4  152.24    2.01
   0  -1   4  136.12    2.47
   0  -1   4  136.71    2.00
   0  -1   4  143.90    2.01
   0   1  -4  137.50    2.38
   0   1  -4  138.44    1.99
   0   1  -4  146.24    2.03
   0  -1  -4  144.73    2.19
   0  -1  -4  139.31    1.92
   0  -1  -4  149.31    1.97
   1   1   4   54.56    1.75
   1   1   4   53.02    1.43
   1  -1   4   56.10    1.76
   1  -1   4   51.45    1.43
  -1   1  -4   54.90    1.65
  -1   1  -4   56.31    1.49
  -1  -1  -4   58.32    1.55
  -1  -1  -4   55.96    1.45
   2   1   4    1.01    0.50
   2   1   4    0.69    0.42
   2  -1   4    1.14    0.52
   2  -1   4    0.56    0.40
  -2   1  -4    1.05    0.52
  -2   1  -4    0.70    0.47
  -2  -1  -4    1.10    0.51
  -2  -1  -4    0.52    0.48
   3   1   4    4.86    0.84
   3   1   4    4.37    0.71
   3  -1   4    3.72    0.79
   3  -1   4    4.61    0.71
  -3   1  -4    4.02    0.83
  -3   1  -4    5.11    0.77
  -3  -1  -4    5.73    0.83
  -3  -1  -4    4.61    0.77
   4   1   4   12.81    1.24
   4   1   4   11.43    1.06
   4  -1   4   10.54    1.27
   4  -1   4   11.30    1.03
  -4   1  -4   12.77    1.28
  -4   1  -4   12.93    1.13
  -4  -1  -4   12.82    1.19
  -4  -1  -4   13.22    1.11
   5   1   4   -0.54    0.62
   5  -1   4    0.47    0.76
  -5   1  -4    0.38    0.78
  -5   1  -4   -0.18    0.58
  -5  -1  -4    0.32    0.72
  -5  -1  -4    0.26    0.62
   6   1   4   44.83    2.28
   6  -1   4   48.91    2.45
  -6   1  -4   61.29    2.64
  -6  -1  -4   54.15    2.42
   7   1   4    2.84    1.04
   7  -1   4    2.17    1.04
  -7   1  -4    2.06    1.14
  -7  -1  -4    1.88    1.09
 -10   2   4   26.80    1.55
 -10  -2   4   31.74    1.71
  10  -2  -4   31.16    2.03
  -9   2   4    7.36    1.15
  -9   2   4    8.56    0.96
  -9  -2   4    6.90    1.25
  -9  -2   4    9.45    1.03
   9   2  -4    8.51    1.38
   9  -2  -4    9.96    1.33
  -8   2   4    5.43    1.01
  -8   2   4    4.52    0.76
  -8  -2   4    5.44    1.04
  -8  -2   4    4.59    0.83
   8   2  -4    4.67    0.73
   8   2  -4    5.23    1.14
   8  -2  -4    4.97    1.11
  -7   2   4    3.43    0.84
  -7   2   4    1.46    0.55
  -7  -2   4    3.67    0.92
  -7  -2   4    4.20    0.70
   7   2  -4    4.08    0.93
   7  -2  -4    2.27    0.92
   7  -2  -4    2.90    0.65
  -6   2   4    6.72    0.89
  -6  -2   4    7.68    1.01
   6   2  -4    6.04    0.93
   6   2  -4    5.78    0.90
   6  -2  -4    6.61    0.97
   6  -2  -4    5.35    0.73
  -5   2   4    0.18    0.44
  -5  -2   4    1.37    0.62
  -5  -2   4    0.11    0.23
  -5  -2   4    0.49    0.33
   5   2  -4    0.01    0.48
   5   2  -4   -0.09    0.45
   5   2  -4    0.77    0.32
   5  -2  -4    0.69    0.54
   5  -2  -4    0.58    0.43
  -4   2   4    1.37    0.49
  -4  -2   4    1.11    0.33
   4   2  -4    1.17    0.51
   4   2  -4    0.97    0.49
   4   2  -4    0.70    0.33
   4  -2  -4    1.47    0.49
   4  -2  -4    1.40    0.51
   4  -2  -4    1.20    0.48
  -3   2   4    5.21    0.63
  -3  -2   4    5.87    0.55
   3   2  -4    5.45    0.67
   3   2  -4    6.31    0.65
   3  -2  -4    6.27    0.65
   3  -2  -4    5.63    0.65
   3  -2  -4    5.45    0.66
  -2   2   4    2.85    0.48
  -2   2   4    2.50    0.55
  -2  -2   4    2.57    0.43
  -2  -2   4    2.12    0.32
  -2  -2   4    2.13    0.28
   2   2  -4    2.75    0.55
   2   2  -4    2.30    0.39
   2  -2  -4    3.06    0.45
   2  -2  -4    2.86    0.58
  -1   2   4   49.22    1.19
  -1   2   4   44.64    1.47
  -1   2   4   48.23    0.99
  -1   2   4   49.39    0.98
  -1  -2   4   55.42    1.49
  -1  -2   4   45.41    1.06
  -1  -2   4   49.58    1.13
   1   2  -4   46.07    1.46
   1   2  -4   48.38    1.09
   1   2  -4   52.33    1.14
   1  -2  -4   51.04    1.24
   1  -2  -4   44.10    1.48
   0   2   4   37.20    1.01
   0   2   4   35.66    1.39
   0   2   4   35.45    1.07
   0   2   4   40.23    1.09
   0  -2   4   36.34    1.36
   0  -2   4   34.99    1.09
   0   2  -4   37.06    1.36
   0   2  -4   37.76    1.13
   0   2  -4   39.83    1.19
   0  -2  -4   39.87    1.12
   0  -2  -4   36.94    1.06
   0  -2  -4   39.90    1.09
   1   2   4   42.47    1.59
   1   2   4   40.78    1.29
   1  -2   4   37.80    1.50
   1  -2   4   39.30    1.28
  -1   2  -4   45.13    1.58
  -1   2  -4   43.79    1.37
  -1  -2  -4   47.03    1.34
  -1  -2  -4   43.72    1.31
   2   2   4   92.88    1.67
   2   2   4   91.86    2.41
   2   2   4   84.55    2.00
   2  -2   4   87.80    2.36
   2  -2   4   82.41    1.99
  -2   2  -4   86.19    2.28
  -2   2  -4   90.43    2.12
  -2  -2  -4   87.45    1.96
  -2  -2  -4   85.64    2.03
   3   2   4   11.16    1.15
   3   2   4    9.74    0.94
   3  -2   4   11.79    1.22
   3  -2   4    9.86    0.91
  -3   2  -4   11.05    1.16
  -3   2  -4   11.18    0.98
  -3  -2  -4   10.96    0.98
  -3  -2  -4   12.52    1.06
   4   2   4   16.51    1.36
   4   2   4   17.82    1.25
   4  -2   4   17.71    1.49
   4  -2   4   16.48    1.18
  -4   2  -4   18.10    1.47
  -4   2  -4   19.23    1.28
  -4  -2  -4   16.81    1.26
  -4  -2  -4   18.19    1.26
   5   2   4    2.83    0.88
   5  -2   4    1.88    0.93
  -5   2  -4    1.20    0.97
  -5   2  -4    1.35    0.70
  -5  -2  -4    1.55    0.82
  -5  -2  -4    1.21    0.74
   6   2   4    4.08    0.99
   6  -2   4    3.59    1.10
  -6   2  -4    3.74    1.21
  -6  -2  -4    2.67    0.99
   7   2   4    2.17    1.01
   7  -2   4    2.62    1.09
  -7   2  -4    1.39    1.10
 -10   3   4   -1.16    0.60
 -10  -3   4   -0.06    0.88
 -10  -3   4    0.01    0.72
  10   3  -4    0.06    0.68
  10   3  -4    0.03    1.05
  10  -3  -4    0.22    0.77
  -9   3   4    2.29    0.83
  -9   3   4    1.71    0.69
  -9  -3   4    1.75    0.98
  -9  -3   4    1.79    0.73
   9   3  -4    1.26    0.71
   9   3  -4    2.37    1.12
   9  -3  -4    3.05    1.02
  -8   3   4    3.09    0.86
  -8   3   4    3.00    0.66
  -8  -3   4    4.07    1.07
  -8  -3   4    3.59    0.81
   8   3  -4    3.80    0.72
   8   3  -4    3.53    1.05
   8  -3  -4    3.92    1.03
   8  -3  -4    3.29    0.77
  -7   3   4    1.86    0.74
  -7   3   4    1.29    0.49
  -7  -3   4    1.87    0.85
  -7  -3   4    1.37    0.61
   7   3  -4    1.36    0.80
   7   3  -4    1.54    0.53
   7   3  -4    1.62    0.84
   7  -3  -4    2.23    0.90
   7  -3  -4    1.42    0.57
  -6   3   4    0.31    0.50
  -6   3   4   -0.06    0.31
  -6  -3   4   -0.01    0.64
  -6  -3   4   -0.16    0.41
   6   3  -4   -0.24    0.55
   6   3  -4    0.16    0.36
   6   3  -4    0.68    0.66
   6  -3  -4   -0.85    0.60
   6  -3  -4    0.36    0.49
  -5   3   4    3.13    0.63
  -5  -3   4    2.28    0.43
   5   3  -4    2.37    0.65
   5   3  -4    2.23    0.58
   5  -3  -4    3.61    0.74
   5  -3  -4    1.75    0.55
  -4   3   4  277.68    3.27
  -4   3   4  277.72    3.68
  -4  -3   4  238.15    2.23
  -4  -3   4  253.42    2.35
  -4  -3   4  264.40    2.34
   4   3  -4  270.70    3.75
   4   3  -4  289.89    3.51
   4  -3  -4  276.94    3.25
   4  -3  -4  279.15    3.69
   4  -3  -4  261.12    3.48
  -3   3   4    5.76    0.67
  -3   3   4    5.80    0.68
  -3  -3   4    5.43    0.51
  -3  -3   4    4.70    0.46
  -3  -3   4    5.58    0.46
   3   3  -4    5.42    0.69
   3   3  -4    5.80    0.65
   3  -3  -4    5.52    0.61
   3  -3  -4    5.98    0.72
   3  -3  -4    6.07    0.72
  -2   3   4  121.26    2.10
  -2  -3   4  123.42    1.94
  -2  -3   4  117.20    1.61
   2   3  -4  126.66    2.43
   2   3  -4  119.27    1.56
   2   3  -4  138.53    1.67
   2   3  -4  133.99    1.76
   2  -3  -4  129.70    1.80
   2  -3  -4  120.62    2.35
  -1   3   4  107.22    1.86
  -1   3   4   96.71    2.15
  -1   3   4  104.25    1.50
  -1   3   4  114.47    1.54
  -1  -3   4  111.52    2.06
  -1  -3   4   96.12    1.62
  -1  -3   4  115.34    1.76
   1   3  -4  107.36    2.24
   1   3  -4  105.24    1.67
   1   3  -4  119.23    1.78
   1  -3  -4  109.70    1.60
   1  -3  -4  104.60    1.43
   1  -3  -4   92.39    2.11
   0   3   4   67.21    1.47
   0   3   4   68.75    1.90
   0   3   4   66.31    1.43
   0   3   4   75.53    1.48
   0  -3   4   65.41    1.76
   0  -3   4   63.72    1.47
   0   3  -4   69.82    1.89
   0   3  -4   71.42    1.56
   0  -3  -4   72.66    1.37
   0  -3  -4   67.49    1.42
   0  -3  -4   70.10    1.43
   1   3   4   11.31    0.74
   1   3   4   10.64    0.94
   1   3   4   10.00    0.78
   1  -3   4   11.77    0.95
   1  -3   4    9.65    0.74
  -1   3  -4   10.76    0.96
  -1   3  -4   10.55    0.80
  -1  -3  -4   10.93    0.74
  -1  -3  -4   11.22    0.80
   2   3   4   42.83    1.31
   2   3   4   40.64    1.69
   2   3   4   40.02    1.46
   2  -3   4   39.51    1.69
   2  -3   4   35.37    1.38
  -2   3  -4   40.28    1.71
  -2   3  -4   41.62    1.54
  -2  -3  -4   39.01    1.31
  -2  -3  -4   40.49    1.46
   3   3   4  147.06    2.48
   3   3   4  131.36    3.05
   3   3   4  132.57    2.76
   3  -3   4  135.12    3.18
   3  -3   4  124.78    2.70
  -3   3  -4  140.18    3.18
  -3   3  -4  145.85    2.96
  -3  -3  -4  138.12    2.61
  -3  -3  -4  137.89    2.84
   4   3   4    0.74    0.65
   4   3   4    0.40    0.55
   4  -3   4    1.13    0.76
  -4   3  -4    1.19    0.88
  -4   3  -4    0.77    0.59
  -4  -3  -4    0.28    0.57
  -4  -3  -4    1.00    0.67
   5   3   4   -0.20    0.63
   5  -3   4    0.35    0.79
  -5   3  -4   -0.31    0.83
  -5   3  -4   -0.20    0.57
  -5  -3  -4    0.18    0.64
   6   3   4    1.81    0.86
   6  -3   4    3.53    1.11
  -6   3  -4    3.21    1.18
   7   3   4   -0.57    0.76
   7  -3   4    0.06    0.83
  -7   3  -4   -0.56    0.94
 -10   4   4   14.07    1.25
 -10  -4   4   17.05    1.38
  10   4  -4   17.93    1.29
  10   4  -4   17.45    1.80
  10  -4  -4   16.87    1.56
  -9   4   4    5.46    1.03
  -9   4   4    3.55    0.82
  -9  -4   4    3.42    1.10
  -9  -4   4    5.17    0.95
   9   4  -4    5.08    0.89
   9   4  -4    4.79    1.24
   9  -4  -4    6.38    1.18
  -8   4   4    1.44    0.73
  -8   4   4    1.04    0.58
  -8  -4   4    0.94    0.87
  -8  -4   4    1.32    0.67
   8   4  -4    1.71    0.68
   8   4  -4    1.77    0.94
   8  -4  -4    1.62    0.88
   8  -4  -4    1.17    0.66
  -7   4   4   22.15    1.42
  -7   4   4   15.83    0.93
  -7  -4   4   17.54    1.52
  -7  -4   4   18.06    1.13
   7   4  -4   18.90    1.46
   7   4  -4   18.93    1.04
   7   4  -4   20.45    1.56
   7  -4  -4   19.12    1.55
   7  -4  -4   16.67    1.22
  -6   4   4   11.58    1.01
  -6   4   4    8.31    0.65
  -6  -4   4   10.16    1.24
  -6  -4   4   10.69    0.85
   6   4  -4   10.34    1.12
   6   4  -4   10.39    0.76
   6   4  -4   11.99    1.18
   6  -4  -4   11.83    1.22
   6  -4  -4    9.95    0.95
  -5   4   4    0.34    0.42
  -5   4   4    0.46    0.53
  -5  -4   4    0.09    0.38
   5   4  -4    0.00    0.52
   5   4  -4   -0.05    0.34
   5   4  -4    0.35    0.52
   5  -4  -4    0.00    0.57
   5  -4  -4    0.43    0.48
  -4   4   4    0.02    0.33
  -4   4   4   -0.23    0.44
  -4  -4   4    0.02    0.31
   4   4  -4   -0.09    0.40
   4   4  -4   -0.12    0.25
   4   4  -4   -0.05    0.30
   4   4  -4   -0.13    0.42
   4  -4  -4    0.16    0.49
   4  -4  -4    0.18    0.45
  -3   4   4   40.27    1.13
  -3   4   4   37.23    1.40
  -3  -4   4   37.68    0.97
  -3  -4   4   34.72    1.00
  -3  -4   4   36.36    1.01
   3   4  -4   36.85    1.45
   3   4  -4   38.23    1.01
   3   4  -4   41.57    1.28
   3  -4  -4   38.23    1.10
   3  -4  -4   39.73    1.44
   3  -4  -4   44.66    1.55
  -2   4   4  230.88    3.05
  -2   4   4  233.21    2.03
  -2   4   4  237.41    2.12
  -2  -4   4  228.49    2.61
  -2  -4   4  215.01    2.41
   2   4  -4  234.49    3.38
   2   4  -4  227.43    2.40
   2   4  -4  263.19    2.55
   2  -4  -4  233.92    2.24
   2  -4  -4  230.35    3.34
  -1   4   4   25.19    1.08
  -1   4   4   26.41    1.26
  -1   4   4   24.74    0.85
  -1   4   4   27.33    0.87
  -1  -4   4   25.63    1.07
  -1  -4   4   23.39    0.93
   1   4  -4   23.48    1.19
   1   4  -4   25.06    0.95
   1   4  -4   29.54    1.06
   1  -4  -4   25.84    0.73
   1  -4  -4   24.08    0.80
   1  -4  -4   26.76    0.83
   1  -4  -4   24.46    1.22
   0   4   4  120.38    2.11
   0   4   4  122.86    2.56
   0   4   4  119.98    1.98
   0  -4   4  128.28    2.44
   0  -4   4  113.18    2.05
   0   4  -4  121.18    2.55
   0   4  -4  123.10    2.13
   0  -4  -4  131.51    1.64
   0  -4  -4  124.15    1.96
   0  -4  -4  126.11    2.59
   1   4   4   52.27    1.47
   1   4   4   52.00    1.80
   1   4   4   51.87    1.50
   1  -4   4   50.42    1.75
   1  -4   4   48.36    1.50
  -1   4  -4   53.04    1.85
  -1   4  -4   54.12    1.59
  -1  -4  -4   54.62    1.26
  -1  -4  -4   51.80    1.50
   2   4   4   16.12    1.00
   2   4   4   15.85    1.20
   2   4   4   13.06    0.98
   2  -4   4   13.38    1.17
   2  -4   4   11.12    0.90
  -2   4  -4   13.59    1.21
  -2   4  -4   13.72    1.01
  -2  -4  -4   13.28    1.01
   3   4   4    0.74    0.48
   3   4   4    0.88    0.62
   3   4   4    0.92    0.55
   3  -4   4    0.74    0.62
   3  -4   4    0.13    0.52
  -3   4  -4    0.52    0.70
  -3   4  -4    0.67    0.52
  -3  -4  -4    0.89    0.61
   4   4   4   19.96    1.44
   4   4   4   20.22    1.35
   4  -4   4   19.70    1.59
  -4   4  -4   20.57    1.65
  -4   4  -4   19.41    1.36
  -4  -4  -4   22.65    1.41
   5   4   4    3.13    0.84
   5  -4   4    3.90    1.07
  -5   4  -4    6.16    1.29
  -5  -4  -4    5.18    1.01
   6   4   4   -0.38    0.57
   6  -4   4   -0.41    0.82
  -6   4  -4   -0.40    0.93
 -10   5   4    0.31    0.65
 -10  -5   4    0.41    0.90
 -10  -5   4    0.08    0.66
  10   5  -4   -0.38    0.60
  10   5  -4    0.66    1.01
  10  -5  -4   -0.09    0.67
  -9   5   4    1.33    0.72
  -9   5   4    0.07    0.58
  -9  -5   4    0.81    0.93
  -9  -5   4    0.45    0.72
   9   5  -4    1.70    0.76
   9   5  -4    0.16    1.01
   9  -5  -4    1.24    0.90
   9  -5  -4    0.70    0.67
  -8   5   4    0.58    0.68
  -8   5   4    0.43    0.56
  -8  -5   4    0.97    0.90
  -8  -5   4    0.77    0.68
   8   5  -4    1.48    0.66
   8   5  -4    0.95    0.97
   8  -5  -4    0.74    0.80
   8  -5  -4    1.35    0.70
  -7   5   4    1.00    0.63
  -7   5   4    0.22    0.73
  -7   5   4   -0.07    0.44
  -7  -5   4    0.05    0.79
  -7  -5   4   -0.12    0.60
   7   5  -4   -0.29    0.68
   7   5  -4    0.07    0.56
   7   5  -4   -0.42    0.77
   7  -5  -4    0.23    0.81
   7  -5  -4    0.20    0.58
  -6   5   4    4.23    0.74
  -6   5   4    5.38    0.92
  -6   5   4    3.37    0.54
  -6  -5   4    4.52    1.04
  -6  -5   4    4.28    0.71
   6   5  -4    4.40    0.88
   6   5  -4    4.35    0.66
   6   5  -4    3.51    0.87
   6  -5  -4    4.00    0.97
   6  -5  -4    3.60    0.79
  -5   5   4    0.31    0.43
  -5   5   4    0.95    0.58
  -5   5   4    0.35    0.34
  -5  -5   4    0.13    0.43
   5   5  -4    0.39    0.51
   5   5  -4    0.15    0.41
   5   5  -4    0.11    0.56
   5  -5  -4    0.96    0.66
   5  -5  -4    0.35    0.53
  -4   5   4   21.28    0.98
  -4   5   4   21.65    1.24
  -4   5   4   21.44    0.73
  -4  -5   4   18.91    0.91
   4   5  -4   20.90    1.22
   4   5  -4   20.49    0.89
   4   5  -4   21.29    1.17
   4  -5  -4   21.97    1.29
   4  -5  -4   20.00    1.21
  -3   5   4   18.03    0.77
  -3   5   4   15.99    1.06
  -3   5   4   16.59    0.65
  -3   5   4   17.13    0.66
  -3  -5   4   17.16    0.70
  -3  -5   4   15.53    0.80
   3   5  -4   16.14    1.09
   3   5  -4   17.14    0.82
   3   5  -4   19.13    1.00
   3  -5  -4   17.06    1.10
  -2   5   4    1.57    0.54
  -2   5   4    1.34    0.32
  -2   5   4    1.80    0.37
  -2  -5   4    1.17    0.36
  -2  -5   4    1.78    0.46
   2   5  -4    2.42    0.57
   2   5  -4    1.76    0.42
   2   5  -4    1.77    0.42
   2  -5  -4    1.79    0.57
  -1   5   4    0.73    0.45
  -1   5   4    0.09    0.44
  -1   5   4    0.55    0.33
  -1  -5   4   -0.12    0.34
  -1  -5   4   -0.18    0.36
   1   5  -4    0.28    0.42
   1   5  -4    0.22    0.34
   1  -5  -4    0.25    0.33
   1  -5  -4    0.45    0.33
   1  -5  -4    0.03    0.44
   0   5   4    0.03    0.38
   0   5   4    0.09    0.39
   0   5   4   -0.17    0.31
   0  -5   4    0.24    0.40
   0  -5   4   -0.01    0.36
   0   5  -4   -0.36    0.38
   0   5  -4   -0.29    0.30
   0  -5  -4    0.28    0.38
   0  -5  -4   -0.35    0.44
   1   5   4    2.10    0.53
   1   5   4    2.23    0.62
   1   5   4    1.40    0.50
   1  -5   4    2.38    0.63
   1  -5   4    1.50    0.50
  -1   5  -4    2.10    0.68
  -1   5  -4    1.63    0.51
  -1  -5  -4    2.00    0.54
   2   5   4   27.01    1.29
   2   5   4   20.40    1.33
   2   5   4   23.78    1.26
   2  -5   4   25.11    1.47
   2  -5   4   21.90    1.19
  -2   5  -4   25.38    1.55
  -2   5  -4   25.69    1.32
  -2  -5  -4   25.71    1.29
   3   5   4   15.93    1.11
   3   5   4   16.16    1.29
   3   5   4   13.97    1.14
   3  -5   4   12.51    1.25
   3  -5   4   13.19    1.08
  -3   5  -4   15.29    1.38
  -3   5  -4   14.22    1.14
  -3  -5  -4   15.86    1.19
   4   5   4    0.11    0.60
   4   5   4    0.46    0.58
   4  -5   4   -0.11    0.61
  -4   5  -4    0.42    0.86
  -4   5  -4   -0.28    0.50
  -4  -5  -4    0.00    0.60
   5   5   4    0.30    0.60
   5  -5   4    0.57    0.88
  -5   5  -4    0.99    1.01
  -5  -5  -4    0.17    0.69
   6   5   4    0.36    0.72
   6  -5   4    0.39    0.97
  -6   5  -4    0.28    0.95
  -9   6   4    8.52    1.44
  -9   6   4    4.78    0.93
  -9  -6   4    9.36    1.47
  -9  -6   4    9.56    1.21
   9   6  -4    9.90    1.03
   9   6  -4    9.00    1.50
   9  -6  -4    7.32    1.24
   9  -6  -4    5.80    1.03
  -8   6   4   30.03    1.70
  -8   6   4   30.73    1.99
  -8   6   4   23.54    1.31
  -8  -6   4   28.78    1.93
  -8  -6   4   26.13    1.51
   8   6  -4   31.62    2.04
   8  -6  -4   28.47    1.84
   8  -6  -4   23.75    1.60
  -7   6   4   22.03    1.41
  -7   6   4   20.41    1.63
  -7   6   4   17.20    1.07
  -7  -6   4   21.72    1.72
   7   6  -4   23.15    1.59
   7   6  -4   21.20    1.17
   7   6  -4   21.13    1.66
   7  -6  -4   21.42    1.64
   7  -6  -4   19.17    1.40
  -6   6   4   24.47    1.32
  -6   6   4   22.39    1.53
  -6   6   4   19.40    0.98
  -6  -6   4   21.36    1.60
  -6  -6   4   20.64    1.18
   6   6  -4   22.79    1.51
   6   6  -4   22.23    1.14
   6   6  -4   22.98    1.55
   6  -6  -4   21.11    1.58
   6  -6  -4   19.49    1.36
  -5   6   4   32.03    1.32
  -5   6   4   34.00    1.70
  -5   6   4   28.48    1.03
  -5  -6   4   29.37    1.25
   5   6  -4   31.23    1.62
   5   6  -4   31.52    1.23
   5   6  -4   32.96    1.57
   5  -6  -4   31.10    1.66
   5  -6  -4   28.07    1.51
  -4   6   4   37.98    1.21
  -4   6   4   38.35    1.65
  -4   6   4   32.58    0.99
  -4  -6   4   35.05    1.27
   4   6  -4   38.69    1.65
   4   6  -4   38.83    1.27
   4   6  -4   38.84    1.54
   4  -6  -4   36.20    1.61
  -3   6   4   15.19    0.70
  -3   6   4   16.43    1.12
  -3   6   4   15.47    0.73
  -3  -6   4   13.91    0.85
   3   6  -4   15.77    1.11
   3   6  -4   15.44    0.89
   3   6  -4   16.46    1.00
   3  -6  -4   14.15    1.11
  -2   6   4   20.40    1.18
  -2   6   4   20.03    0.86
  -2  -6   4   20.36    0.89
  -2  -6   4   18.71    0.95
   2   6  -4   20.27    1.20
   2   6  -4   19.44    0.96
   2   6  -4   22.58    0.97
   2  -6  -4   18.56    0.77
   2  -6  -4   21.28    0.84
   2  -6  -4   17.37    1.15
  -1   6   4    5.23    0.75
  -1   6   4    4.98    0.59
  -1  -6   4    4.30    0.59
  -1  -6   4    5.31    0.66
   1   6  -4    4.77    0.74
   1   6  -4    5.16    0.63
   1  -6  -4    5.09    0.60
   1  -6  -4    4.42    0.73
   0   6   4   19.31    1.15
   0   6   4   19.06    1.22
   0   6   4   20.87    1.03
   0  -6   4   22.61    1.18
   0  -6   4   17.96    1.02
   0   6  -4   21.62    1.31
   0   6  -4   20.03    1.07
   0  -6  -4   19.33    0.98
   0  -6  -4   18.89    1.19
   1   6   4    0.17    0.45
   1   6   4   -0.27    0.45
   1   6   4    0.15    0.44
   1  -6   4   -0.10    0.46
   1  -6   4   -0.20    0.42
  -1   6  -4    0.56    0.59
  -1   6  -4   -0.13    0.38
  -1  -6  -4   -0.03    0.47
   2   6   4   43.47    1.66
   2   6   4   41.37    1.80
   2   6   4   38.65    1.58
   2  -6   4   39.35    1.79
   2  -6   4   36.90    1.56
  -2   6  -4   41.84    1.93
  -2   6  -4   41.73    1.65
  -2  -6  -4   42.11    1.63
   3   6   4   18.25    1.22
   3   6   4   15.18    1.28
   3   6   4   15.01    1.20
   3  -6   4   15.14    1.34
   3  -6   4   15.35    1.15
  -3   6  -4   16.46    1.48
  -3   6  -4   16.62    1.24
  -3  -6  -4   15.75    1.21
   4   6   4    0.85    0.60
   4   6   4    0.48    0.62
   4  -6   4    0.96    0.74
  -4   6  -4    0.43    0.87
  -4   6  -4   -0.26    0.51
  -4  -6  -4    0.55    0.68
   5   6   4    4.57    0.97
   5  -6   4    4.07    1.11
  -5   6  -4    7.14    1.37
  -5  -6  -4    5.05    1.03
   6  -6   4    0.89    1.02
  -6   6  -4    0.34    1.06
  -9   7   4    1.32    0.99
  -9   7   4    1.31    0.73
  -9  -7   4    2.64    1.06
  -9  -7   4    1.56    0.87
   9   7  -4    2.33    0.70
   9   7  -4    2.51    1.15
   9  -7  -4    2.16    0.95
   9  -7  -4    1.25    0.84
  -8   7   4    0.39    0.57
  -8   7   4   -0.59    0.76
  -8   7   4    0.04    0.56
  -8  -7   4   -0.02    0.82
  -8  -7   4   -0.04    0.66
   8   7  -4    0.36    0.65
   8   7  -4   -0.12    0.53
   8   7  -4   -0.62    0.88
   8  -7  -4    0.41    0.61
   8  -7  -4    0.40    0.73
   8  -7  -4    0.02    0.67
  -7   7   4    0.75    0.63
  -7   7   4    1.78    0.93
  -7   7   4    1.18    0.63
  -7  -7   4    0.45    0.87
   7   7  -4    1.34    0.77
   7   7  -4    2.04    0.63
   7   7  -4    1.25    0.98
   7  -7  -4    0.79    0.81
   7  -7  -4    1.38    0.72
  -6   7   4   96.61    2.40
  -6   7   4   94.91    2.88
  -6   7   4   75.36    1.86
  -6  -7   4   86.44    2.79
  -6  -7   4   82.68    2.19
   6   7  -4   96.61    2.85
   6   7  -4   92.27    2.15
   6   7  -4  103.67    2.90
   6  -7  -4   86.04    2.80
   6  -7  -4   82.68    2.62
  -5   7   4    0.24    0.41
  -5   7   4   -0.01    0.57
  -5   7   4    0.29    0.37
  -5  -7   4   -0.58    0.49
   5   7  -4    0.47    0.62
   5   7  -4   -0.16    0.45
   5   7  -4   -0.34    0.61
   5  -7  -4   -0.04    0.61
  -4   7   4    3.84    0.79
  -4   7   4    2.98    0.53
  -4  -7   4    2.68    0.64
   4   7  -4    3.53    0.80
   4   7  -4    4.79    0.69
   4   7  -4    4.48    0.76
   4  -7  -4    3.39    0.82
  -3   7   4   27.00    1.45
  -3   7   4   24.58    0.99
  -3  -7   4   23.93    1.15
   3   7  -4   26.83    1.43
   3   7  -4   26.88    1.19
   3   7  -4   27.42    1.25
   3  -7  -4   22.60    1.39
  -2   7   4    4.96    0.80
  -2   7   4    5.28    0.66
  -2  -7   4    2.72    0.48
  -2  -7   4    5.65    0.75
   2   7  -4    5.16    0.79
   2   7  -4    4.60    0.66
   2   7  -4    5.13    0.64
   2  -7  -4    4.37    0.58
   2  -7  -4    5.43    0.83
  -1   7   4   66.18    2.01
  -1   7   4   65.51    1.64
  -1  -7   4   64.31    1.70
  -1  -7   4   57.84    1.69
   1   7  -4   64.60    2.07
   1   7  -4   63.00    1.73
   1  -7  -4   58.04    1.49
   1  -7  -4   66.21    2.07
   0   7   4   24.98    1.35
   0   7   4   26.05    1.45
   0   7   4   23.44    1.15
   0  -7   4   23.23    1.23
   0  -7   4   21.51    1.16
   0   7  -4   26.87    1.47
   0   7  -4   25.52    1.24
   0  -7  -4   22.91    1.11
   0  -7  -4   23.30    1.35
   1   7   4    1.23    0.58
   1   7   4    0.66    0.60
   1   7   4    1.42    0.60
   1  -7   4    1.39    0.60
   1  -7   4    0.67    0.57
  -1   7  -4    1.57    0.70
  -1   7  -4    2.00    0.60
  -1  -7  -4    1.38    0.60
  -1  -7  -4    1.43    0.68
   2   7   4    1.95    0.65
   2   7   4    2.80    0.78
   2   7   4    1.67    0.65
   2  -7   4    1.87    0.71
   2  -7   4    1.33    0.63
  -2   7  -4    1.74    0.80
  -2   7  -4    1.78    0.61
  -2  -7  -4    1.44    0.67
   3   7   4    1.83    0.66
   3   7   4    2.18    0.79
   3   7   4    1.64    0.70
   3  -7   4    1.26    0.75
  -3   7  -4    2.61    1.00
  -3   7  -4    2.13    0.69
  -3  -7  -4    1.53    0.73
   4   7   4    0.37    0.55
   4   7   4   -0.27    0.58
   4  -7   4   -0.29    0.62
  -4   7  -4    0.21    0.85
  -4   7  -4   -0.44    0.53
  -4  -7  -4    0.12    0.67
   5   7   4   21.81    1.60
   5  -7   4   18.56    1.65
  -5   7  -4   19.86    1.78
  -5  -7  -4   23.05    1.62
   6  -7   4    3.62    1.15
  -6   7  -4    6.02    1.39
  -9   8   4    0.13    0.86
  -9   8   4   -0.16    0.63
  -9  -8   4    0.59    0.92
  -9  -8   4   -0.19    0.79
   9   8  -4   -0.01    0.51
   9   8  -4    0.37    1.06
   9  -8  -4   -0.06    0.62
   9  -8  -4    0.28    0.77
  -8   8   4    3.12    1.11
  -8   8   4    3.68    0.86
  -8  -8   4    3.49    1.15
  -8  -8   4    4.62    1.00
   8   8  -4    4.46    0.95
   8   8  -4    3.48    0.78
   8   8  -4    3.82    1.20
   8  -8  -4    3.66    1.05
   8  -8  -4    2.79    0.97
  -7   8   4    1.17    0.60
  -7   8   4    1.31    0.89
  -7   8   4    0.73    0.58
  -7  -8   4    0.80    0.93
   7   8  -4    0.43    0.76
   7   8  -4    1.05    0.60
   7   8  -4    0.76    0.87
   7  -8  -4    0.99    0.71
   7  -8  -4    0.54    0.71
  -6   8   4    3.01    0.93
  -6   8   4    2.67    0.66
  -6  -8   4    2.70    0.80
   6   8  -4    2.79    0.87
   6   8  -4    3.60    0.75
   6   8  -4    3.00    1.01
   6  -8  -4    3.11    0.90
  -5   8   4   25.22    1.62
  -5   8   4   22.53    1.13
  -5  -8   4   22.55    1.28
   5   8  -4   25.13    1.56
   5   8  -4   25.54    1.26
   5   8  -4   27.91    1.60
   5  -8  -4   21.20    1.50
  -4   8   4   46.31    1.98
  -4   8   4   43.47    1.39
  -4  -8   4   42.29    1.58
   4   8  -4   46.34    1.93
   4   8  -4   47.04    1.61
   4   8  -4   48.41    1.82
   4  -8  -4   37.04    1.18
   4  -8  -4   40.74    1.87
  -3   8   4    0.39    0.61
  -3   8   4    0.56    0.47
  -3  -8   4    0.22    0.55
   3   8  -4    0.10    0.54
   3   8  -4   -0.23    0.57
   3   8  -4   -0.06    0.54
   3  -8  -4    0.56    0.48
   3  -8  -4    0.00    0.61
  -2   8   4   20.89    1.37
  -2   8   4   21.36    1.08
  -2  -8   4   18.95    1.12
   2   8  -4   22.25    1.39
   2   8  -4   21.10    1.14
   2   8  -4   22.78    1.13
   2  -8  -4   18.86    0.98
   2  -8  -4   20.40    1.33
  -1   8   4   51.10    1.91
  -1   8   4   48.22    1.54
  -1  -8   4   39.23    1.43
  -1  -8   4   44.71    1.61
   1   8  -4   51.68    1.96
   1   8  -4   48.71    1.65
   1  -8  -4   43.87    1.41
   1  -8  -4   43.61    1.81
   0   8   4   44.80    1.81
   0   8   4   49.93    1.94
   0   8   4   47.60    1.62
   0  -8   4   46.80    1.71
   0  -8   4   42.56    1.62
   0   8  -4   48.08    1.96
   0   8  -4   47.40    1.70
   0  -8  -4   42.24    1.50
   0  -8  -4   46.07    1.84
   1   8   4    1.56    0.65
   1   8   4    0.81    0.65
   1   8   4    0.18    0.55
   1  -8   4    0.54    0.60
   1  -8   4    0.60    0.56
  -1   8  -4    0.60    0.67
  -1   8  -4    0.79    0.56
  -1  -8  -4    0.38    0.56
  -1  -8  -4    0.78    0.63
   2   8   4   26.85    1.53
   2   8   4   25.10    1.57
   2   8   4   23.96    1.42
   2  -8   4   24.73    1.54
   2  -8   4   21.93    1.38
  -2   8  -4   25.10    1.66
  -2   8  -4   25.24    1.44
  -2  -8  -4   23.27    1.36
   3   8   4   43.23    1.93
   3   8   4   40.30    1.94
   3   8   4   36.63    1.78
  -3   8  -4   41.54    2.10
  -3   8  -4   39.93    1.87
  -3  -8  -4   38.35    1.80
   4   8   4   14.05    1.32
   4   8   4   12.33    1.27
   4  -8   4    7.99    1.22
  -4   8  -4   11.38    1.34
  -4  -8  -4   11.89    1.25
   5  -8   4    0.32    0.75
  -5   8  -4   -0.02    0.87
  -5  -8  -4    0.63    0.71
  -9   9   4   14.16    1.68
  -9   9   4   10.26    1.14
  -9  -9   4    9.26    1.54
  -9  -9   4   12.95    1.43
   9   9  -4   12.75    1.11
   9   9  -4   12.70    1.68
   9  -9  -4   11.41    1.33
   9  -9  -4    7.54    1.31
  -8   9   4    1.58    1.04
  -8   9   4    0.91    0.70
  -8  -9   4    1.29    1.01
  -8  -9   4    1.38    0.86
   8   9  -4    1.77    0.77
   8   9  -4    1.00    0.59
   8   9  -4    1.02    1.04
   8  -9  -4    2.22    0.88
   8  -9  -4    0.58    0.78
  -7   9   4   -0.22    0.81
  -7   9   4    0.51    0.61
  -7  -9   4   -0.16    0.86
   7   9  -4    0.50    0.68
   7   9  -4   -0.68    0.53
   7   9  -4    0.62    0.96
   7  -9  -4    0.13    0.70
  -6   9   4    1.46    0.91
  -6   9   4    0.97    0.60
  -6  -9   4    1.34    0.72
   6   9  -4    1.41    0.76
   6   9  -4    1.87    0.67
   6   9  -4    1.84    0.91
   6  -9  -4    0.94    0.61
   6  -9  -4    1.03    0.79
  -5   9   4   11.64    1.30
  -5   9   4   10.36    0.95
  -5  -9   4   10.01    1.06
   5   9  -4   10.78    1.19
   5   9  -4   12.31    1.06
   5   9  -4   11.03    1.22
   5  -9  -4   10.28    1.24
  -4   9   4   52.81    2.19
  -4   9   4   49.61    1.61
  -4  -9   4   45.05    1.72
   4   9  -4   48.97    2.04
   4   9  -4   51.24    1.78
   4   9  -4   55.62    2.03
   4  -9  -4   40.28    1.35
   4  -9  -4   43.83    2.00
  -3   9   4   21.45    1.49
  -3   9   4   20.00    1.13
  -3  -9   4   19.65    1.23
   3   9  -4   23.05    1.47
   3   9  -4   21.84    1.30
   3   9  -4   23.54    1.32
   3  -9  -4   18.29    1.04
   3  -9  -4   20.08    1.42
  -2   9   4    1.47    0.75
  -2   9   4    1.34    0.61
  -2  -9   4    1.13    0.65
   2   9  -4    1.04    0.69
   2   9  -4    1.19    0.60
   2   9  -4    2.00    0.62
   2  -9  -4    1.06    0.56
   2  -9  -4    1.22    0.68
  -1   9   4   11.35    1.21
  -1   9   4   12.08    0.99
  -1  -9   4   10.90    0.96
  -1  -9   4   10.82    1.03
   1   9  -4   11.45    1.20
   1   9  -4   11.14    1.01
   1  -9  -4   10.91    0.92
   1  -9  -4   10.86    1.10
   0   9   4    3.18    0.82
   0   9   4    2.26    0.76
   0   9   4    3.11    0.73
   0  -9   4    2.27    0.64
   0  -9   4    2.53    0.73
   0   9  -4    1.99    0.79
   0   9  -4    3.11    0.72
   0  -9  -4    1.46    0.65
   0  -9  -4    1.74    0.73
   1   9   4    8.22    1.07
   1   9   4    7.03    1.03
   1   9   4    6.13    0.90
   1  -9   4    7.96    1.03
   1  -9   4    6.26    0.98
  -1   9  -4    6.18    1.06
  -1   9  -4    7.14    0.95
  -1  -9  -4    7.14    0.92
  -1  -9  -4    7.20    1.01
   2   9   4    3.51    0.86
   2   9   4    3.39    0.89
   2   9   4    2.99    0.82
   2  -9   4    3.61    0.91
  -2   9  -4    4.27    0.97
  -2   9  -4    3.60    0.83
  -2  -9  -4    3.69    0.84
   3   9   4   21.79    1.56
   3   9   4   18.18    1.47
   3   9   4   19.19    1.43
   3  -9   4   22.47    1.65
  -3   9  -4   20.80    1.65
  -3   9  -4   21.57    1.48
  -3  -9  -4   20.24    1.45
   4   9   4   15.58    1.39
   4  -9   4   13.56    1.41
  -4   9  -4   13.78    1.51
  -4  -9  -4   14.69    1.33
   5  -9   4    0.56    0.76
  -5   9  -4    0.68    0.79
  -8  10   4    1.19    1.04
  -8  10   4    1.16    0.70
  -8 -10   4    0.47    1.00
  -8 -10   4    1.16    0.88
   8  10  -4    1.56    0.64
   8  10  -4    1.02    1.07
   8 -10  -4    0.87    0.84
  -7  10   4    1.19    0.98
  -7  10   4    0.97    0.68
  -7 -10   4    0.87    1.03
  -7 -10   4    0.98    0.82
   7  10  -4    1.21    0.72
   7  10  -4    1.54    0.70
   7  10  -4    0.89    1.02
   7 -10  -4    0.18    0.66
   7 -10  -4    1.20    0.83
  -6  10   4   -0.22    0.80
  -6  10   4   -0.29    0.51
  -6 -10   4    0.79    0.71
   6  10  -4    0.39    0.70
   6  10  -4    0.34    0.56
   6  10  -4    0.72    0.86
   6 -10  -4   -0.48    0.62
   6 -10  -4    0.23    0.70
  -5  10   4    7.17    1.19
  -5  10   4    6.38    0.88
  -5 -10   4    7.02    1.03
   5  10  -4    7.62    1.10
   5  10  -4    7.08    0.97
   5  10  -4    6.76    1.10
   5 -10  -4    3.87    0.76
   5 -10  -4    5.74    1.09
  -4  10   4    9.15    1.22
  -4  10   4    6.73    0.88
  -4 -10   4    7.61    1.04
   4  10  -4    6.68    1.08
   4  10  -4    8.59    1.05
   4  10  -4    8.75    1.11
   4 -10  -4    5.72    0.84
   4 -10  -4    6.90    1.03
  -3  10   4  201.53    4.09
  -3  10   4  184.43    3.10
  -3 -10   4  170.59    3.26
   3  10  -4  190.29    3.81
   3  10  -4  198.81    3.49
   3  10  -4  200.87    3.53
   3 -10  -4  154.05    2.65
   3 -10  -4  122.19    3.19
  -2  10   4   25.45    1.65
  -2  10   4   23.66    1.30
  -2 -10   4   21.89    1.33
   2  10  -4   26.94    1.62
   2  10  -4   24.39    1.36
   2 -10  -4   18.92    1.14
   2 -10  -4   23.53    1.52
  -1  10   4    1.87    0.81
  -1  10   4    1.56    0.68
  -1 -10   4    1.21    0.70
   1  10  -4    2.27    0.78
   1  10  -4    1.29    0.66
   1 -10  -4    0.70    0.58
   1 -10  -4    1.82    0.74
   0  10   4    2.02    0.83
   0  10   4    1.61    0.77
   0  10   4    1.84    0.71
   0 -10   4    0.64    0.60
   0 -10   4    0.77    0.66
   0  10  -4    1.47    0.77
   0  10  -4    1.50    0.65
   0 -10  -4    1.47    0.64
   0 -10  -4    1.96    0.75
   1  10   4    1.64    0.76
   1  10   4    1.53    0.79
   1  10   4    1.46    0.70
   1 -10   4    1.74    0.74
   1 -10   4    0.51    0.71
  -1  10  -4    1.69    0.78
  -1  10  -4    1.24    0.67
  -1 -10  -4    1.51    0.70
  -1 -10  -4    1.82    0.81
   2  10   4   36.51    1.91
   2  10   4   37.90    1.92
   2  10   4   33.56    1.75
   2 -10   4   28.97    1.75
  -2  10  -4   35.42    1.99
  -2  10  -4   31.65    1.73
  -2 -10  -4   27.22    1.54
   3  10   4    1.76    0.80
   3  10   4    0.51    0.67
   3 -10   4    0.71    0.77
  -3  10  -4    1.85    0.93
  -3 -10  -4    1.22    0.70
   4  10   4    1.99    0.79
   4 -10   4    1.95    0.84
  -4  10  -4    1.30    0.89
  -4 -10  -4    2.90    0.84
   5 -10   4    0.12    0.63
  -5  10  -4   -0.63    0.60
  -8  11   4    0.61    0.98
  -8  11   4    1.28    0.72
  -8 -11   4    1.60    1.10
  -8 -11   4    1.25    0.89
   8  11  -4    1.19    0.65
   8  11  -4    1.40    1.06
   8 -11  -4    0.23    0.64
   8 -11  -4    0.92    0.82
  -7  11   4    3.73    1.26
  -7  11   4    3.46    0.87
  -7 -11   4    3.79    1.27
  -7 -11   4    3.04    1.00
   7  11  -4    6.33    0.91
   7  11  -4    5.48    1.29
   7 -11  -4    1.58    0.76
   7 -11  -4    2.50    1.01
  -6  11   4    3.09    1.15
  -6  11   4    2.93    0.85
  -6 -11   4    3.21    0.95
   6  11  -4    2.73    0.85
   6  11  -4    3.40    0.79
   6  11  -4    3.38    1.06
   6 -11  -4    1.91    0.74
   6 -11  -4    3.20    1.03
  -5  11   4    4.31    1.13
  -5  11   4    4.44    0.83
  -5 -11   4    4.10    0.91
   5  11  -4    4.65    0.95
   5  11  -4    4.05    0.88
   5  11  -4    6.14    1.14
   5 -11  -4    2.33    0.75
   5 -11  -4    1.84    0.81
  -4  11   4    1.28    0.83
  -4  11   4    1.95    0.70
  -4 -11   4    1.76    0.80
   4  11  -4    2.11    0.83
   4  11  -4    2.82    0.83
   4  11  -4    1.28    0.82
   4 -11  -4    1.30    0.67
   4 -11  -4    1.94    0.79
  -3  11   4    5.10    1.04
  -3  11   4    4.70    0.87
  -3 -11   4    4.92    0.96
   3  11  -4    5.53    0.99
   3  11  -4    6.21    1.07
   3  11  -4    5.87    0.96
   3 -11  -4    3.38    0.71
   3 -11  -4    3.16    0.89
  -2  11   4    8.71    1.24
  -2  11   4    8.14    0.99
  -2 -11   4    7.62    1.06
   2  11  -4    8.36    1.15
   2  11  -4    8.03    1.04
   2 -11  -4    7.13    0.88
   2 -11  -4    9.21    1.16
  -1  11   4   16.23    1.46
  -1  11   4   14.29    1.18
  -1 -11   4   13.85    1.23
   1  11  -4   16.48    1.40
   1  11  -4   15.82    1.30
   1 -11  -4   13.30    1.07
   1 -11  -4   14.35    1.28
   0  11   4   11.01    1.30
   0  11   4   12.07    1.34
   0  11   4   10.39    1.12
   0 -11   4   10.32    1.03
   0 -11   4    9.14    1.10
   0  11  -4   12.51    1.30
   0  11  -4   11.99    1.16
   0 -11  -4    8.42    0.95
   0 -11  -4   11.80    1.18
   1  11   4   -0.16    0.65
   1  11   4   -0.31    0.70
   1  11   4    0.64    0.68
   1 -11   4   -0.10    0.59
  -1  11  -4    0.02    0.73
  -1  11  -4   -0.68    0.59
  -1 -11  -4   -0.19    0.55
  -1 -11  -4    0.96    0.68
   2  11   4   11.66    1.30
   2  11   4    9.30    1.22
   2  11   4    9.80    1.20
   2 -11   4    8.93    1.19
  -2  11  -4    8.32    1.25
  -2  11  -4   10.25    1.21
  -2 -11  -4    8.98    1.05
   3  11   4    5.20    1.04
   3 -11   4    4.39    0.99
  -3  11  -4    6.23    1.15
  -3 -11  -4    4.09    0.91
   4  11   4    2.26    0.79
   4 -11   4    2.36    0.88
  -4  11  -4    2.20    0.96
  -4 -11  -4    1.76    0.80
  -7  12   4    2.04    1.12
  -7  12   4    2.48    0.91
  -7 -12   4    2.34    1.22
   7  12  -4    3.81    0.83
   7  12  -4    4.53    1.31
   7 -12  -4    0.94    0.71
   7 -12  -4    2.97    1.03
  -6  12   4   -0.40    0.90
  -6  12   4    0.14    0.65
  -6 -12   4    0.70    0.73
   6  12  -4   -0.18    0.56
   6  12  -4   -0.69    0.89
   6 -12  -4    0.02    0.69
   6 -12  -4   -0.16    0.70
  -5  12   4    2.87    1.10
  -5  12   4    3.67    0.83
  -5 -12   4    4.09    1.02
   5  12  -4    2.88    0.82
   5  12  -4    3.38    0.82
   5  12  -4    2.91    1.04
   5 -12  -4    1.84    0.79
   5 -12  -4    2.05    0.84
  -4  12   4   -0.34    0.66
  -4  12   4    0.23    0.60
  -4 -12   4    0.03    0.67
   4  12  -4   -0.65    0.60
   4  12  -4   -0.19    0.63
   4  12  -4   -0.99    0.63
   4 -12  -4   -0.08    0.51
   4 -12  -4    0.13    0.56
  -3  12   4    2.68    0.92
  -3  12   4    1.53    0.73
  -3 -12   4    1.71    0.81
   3  12  -4    1.84    0.79
   3  12  -4    2.27    0.87
   3 -12  -4    1.78    0.63
   3 -12  -4    1.67    0.79
  -2  12   4   17.30    1.54
  -2  12   4   16.00    1.27
  -2 -12   4   14.36    1.28
   2  12  -4   18.08    1.48
   2  12  -4   15.34    1.30
   2 -12  -4   13.50    1.09
   2 -12  -4   18.01    1.44
  -1  12   4   20.19    1.62
  -1  12   4   19.48    1.38
  -1 -12   4   15.33    1.31
   1  12  -4   20.43    1.55
   1  12  -4   19.96    1.44
   1 -12  -4   15.17    1.14
   1 -12  -4   15.45    1.36
   0  12   4   25.47    1.79
   0  12   4   24.61    1.73
   0  12   4   25.27    1.56
   0  12  -4   25.05    1.69
   0  12  -4   24.76    1.59
   0 -12  -4   22.61    1.38
   0 -12  -4   24.04    1.56
   1  12   4    0.67    0.74
   1  12   4    0.68    0.75
   1  12   4    0.14    0.71
   1 -12   4   -0.04    0.64
  -1  12  -4    0.69    0.74
  -1  12  -4    0.17    0.68
  -1 -12  -4   -0.03    0.53
  -1 -12  -4   -0.62    0.54
   2  12   4    7.81    1.18
   2  12   4    6.87    1.14
   2 -12   4    4.39    0.98
  -2  12  -4    5.72    1.08
  -2 -12  -4    6.39    0.97
   3  12   4   -0.31    0.60
   3 -12   4    0.26    0.58
  -3 -12  -4   -0.35    0.49
   4  12   4    0.86    0.64
   4 -12   4    0.41    0.69
  -4 -12  -4    0.85    0.61
  -6  13   4    6.98    1.41
  -6  13   4    4.73    1.02
  -6 -13   4    7.30    1.24
   6  13  -4    6.12    0.97
   6  13  -4    6.40    1.31
   6 -13  -4    2.87    0.84
   6 -13  -4    4.95    1.04
  -5  13   4    0.27    0.97
  -5  13   4    0.14    0.64
  -5 -13   4   -0.17    0.71
   5  13  -4   -0.08    0.59
   5  13  -4   -0.38    0.83
   5 -13  -4   -0.19    0.54
   5 -13  -4   -0.26    0.58
  -4  13   4    0.47    0.96
  -4  13   4    0.32    0.65
  -4 -13   4    0.25    0.72
   4  13  -4    0.22    0.69
   4  13  -4   -0.51    0.58
   4  13  -4   -0.50    0.74
   4 -13  -4   -0.10    0.54
   4 -13  -4    0.03    0.57
  -3  13   4    1.18    0.91
  -3  13   4    0.59    0.75
  -3 -13   4    1.39    0.84
   3  13  -4    1.63    0.76
   3  13  -4    1.68    0.81
   3 -13  -4    0.46    0.56
   3 -13  -4    1.24    0.74
  -2  13   4    3.73    1.02
  -2  13   4    2.64    0.85
   2  13  -4    2.76    0.87
   2 -13  -4    2.39    0.70
   2 -13  -4    1.98    0.75
  -1  13   4    0.65    0.81
  -1  13   4    0.15    0.68
   1  13  -4    0.91    0.77
   1  13  -4    0.02    0.67
   1 -13  -4    0.96    0.59
   1 -13  -4   -0.28    0.56
   0  13   4    0.35    0.74
   0  13   4    0.73    0.89
   0  13   4    1.35    0.84
   0  13  -4    0.87    0.67
   0  13  -4    0.21    0.67
   0 -13  -4    0.54    0.54
   0 -13  -4    1.39    0.69
   1  13   4    3.58    0.97
   1  13   4    3.10    0.96
   1  13   4    3.72    0.96
  -1  13  -4    2.83    0.93
  -1  13  -4    2.56    0.86
  -1 -13  -4    3.20    0.75
  -1 -13  -4    4.25    0.89
   2  13   4    1.40    0.71
   2 -13   4    1.00    0.65
  -2 -13  -4    0.04    0.54
   3  13   4    0.12    0.65
   3 -13   4    0.14    0.63
  -3 -13  -4    0.67    0.55
  -5  14   4    0.21    0.99
  -5  14   4    0.48    0.74
   5  14  -4    1.71    0.68
   5  14  -4    0.48    0.95
   5 -14  -4    0.62    0.51
   5 -14  -4    0.30    0.54
  -4  14   4    0.25    0.99
  -4  14   4    0.07    0.71
   4  14  -4    0.17    0.63
   4 -14  -4    0.64    0.52
   4 -14  -4   -0.05    0.61
  -3  14   4    5.52    1.15
  -3  14   4    3.59    0.96
   3  14  -4    6.27    1.08
   3 -14  -4    2.91    0.75
   3 -14  -4    4.77    0.99
  -2  14   4    3.46    1.07
  -2  14   4    2.48    0.93
   2 -14  -4    4.16    0.80
   2 -14  -4    5.07    0.97
  -1  14   4    0.89    0.79
  -1  14   4   -0.30    0.74
   1  14  -4    0.48    0.63
   1 -14  -4    0.60    0.55
   1 -14  -4   -0.09    0.52
   0  14   4    3.43    0.98
   0  14   4    4.05    1.09
   0  14   4    2.32    0.92
   0  14  -4    2.78    0.87
   0 -14  -4    2.95    0.74
   0 -14  -4    2.41    0.76
   1  14   4    1.62    0.72
  -1 -14  -4   -0.53    0.44
   2  14   4    3.30    0.92
  -2 -14  -4    2.78    0.72
  -4  15   4    0.36    0.93
  -4  15   4    0.19    0.82
   4  15  -4    0.99    0.67
   4 -15  -4    0.62    0.47
   4 -15  -4    0.80    0.60
  -3  15   4   -0.32    0.70
  -3  15   4    0.25    0.83
   3  15  -4   -0.12    0.65
   3 -15  -4   -0.05    0.52
   3 -15  -4    1.05    0.54
  -2  15   4    1.79    0.90
  -2  15   4    1.28    0.93
   2  15  -4    2.03    0.86
   2 -15  -4    2.16    0.73
   2 -15  -4    0.98    0.64
  -1  15   4    0.90    0.80
  -1  15   4    0.35    0.80
   1  15  -4    0.49    0.68
   1 -15  -4    0.74    0.55
   1 -15  -4    0.36    0.49
   0  15   4    0.26    0.70
   0 -15  -4   -0.01    0.48
 -10   0   5   -0.45    0.57
 -10   0   5   -0.41    0.56
  10   0  -5    0.64    1.04
  -9   0   5    0.09    0.63
  -9   0   5   -0.05    0.42
   9   0  -5   -0.10    0.86
  -8   0   5   -0.14    0.63
  -8   0   5    0.16    0.41
   8   0  -5    1.07    0.86
  -7   0   5   -0.37    0.62
  -7   0   5    0.41    0.40
   7   0  -5    0.31    0.72
  -6   0   5   -0.07    0.62
   6   0  -5   -0.04    0.60
   6   0  -5   -0.30    0.59
   6   0  -5   -0.02    0.43
  -5   0   5   -0.33    0.53
   5   0  -5    0.45    0.53
   5   0  -5   -0.46    0.47
   5   0  -5   -0.07    0.39
  -4   0   5   -0.60    0.32
   4   0  -5   -0.01    0.45
   4   0  -5    0.43    0.48
   4   0  -5    0.14    0.39
  -3   0   5   -0.13    0.35
   3   0  -5   -0.09    0.34
   3   0  -5   -0.07    0.36
   3   0  -5   -0.21    0.38
  -2   0   5   -0.10    0.28
  -2   0   5   -0.09    0.34
   2   0  -5    0.11    0.35
   2   0  -5   -0.12    0.29
  -1   0   5    0.13    0.36
  -1   0   5    0.03    0.26
   1   0  -5    0.00    0.33
   1   0  -5   -0.16    0.24
   0   0   5    0.50    0.43
   0   0   5   -0.20    0.30
   0   0  -5   -0.05    0.33
   0   0  -5    0.12    0.30
   1   0   5    0.01    0.45
   1   0   5    0.00    0.39
  -1   0  -5   -0.04    0.39
  -1   0  -5    0.25    0.40
   2   0   5   -0.02    0.53
   2   0   5   -0.02    0.47
  -2   0  -5   -0.27    0.47
  -2   0  -5    0.46    0.50
   3   0   5    0.17    0.66
   3   0   5    0.06    0.50
  -3   0  -5   -0.32    0.55
  -3   0  -5   -0.26    0.52
   4   0   5    0.14    0.77
   4   0   5    0.28    0.55
  -4   0  -5    0.14    0.70
  -4   0  -5   -0.17    0.55
   5   0   5   -0.13    0.75
  -5   0  -5    0.35    0.81
  -5   0  -5    0.03    0.60
   6   0   5    0.07    0.95
  -6   0  -5   -0.35    0.84
 -10   1   5    3.64    0.94
 -10   1   5    2.89    0.79
 -10  -1   5    3.98    1.00
 -10  -1   5    2.39    0.83
  10   1  -5    2.79    1.19
  10  -1  -5    2.98    1.21
  -9   1   5   -0.45    0.59
  -9   1   5    0.15    0.42
  -9  -1   5   -0.40    0.61
  -9  -1   5    0.02    0.55
   9   1  -5    0.13    0.87
   9  -1  -5    0.38    0.94
  -8   1   5   20.10    1.55
  -8   1   5   18.11    0.97
  -8  -1   5   22.27    1.62
  -8  -1   5   18.81    1.02
   8   1  -5   21.21    1.66
   8  -1  -5   19.35    1.64
  -7   1   5   12.22    1.23
  -7  -1   5   10.14    1.24
  -7  -1   5   10.18    0.75
   7   1  -5   11.04    1.29
   7   1  -5   11.67    1.27
   7  -1  -5   12.23    1.30
  -6   1   5    8.73    1.05
  -6  -1   5    8.51    1.11
   6   1  -5    7.64    1.04
   6   1  -5    7.70    1.00
   6  -1  -5    7.58    1.03
   6  -1  -5    7.93    1.05
   6  -1  -5    7.70    0.83
  -5   1   5   39.42    1.61
  -5  -1   5   38.52    1.28
   5   1  -5   38.28    1.64
   5   1  -5   36.60    1.50
   5   1  -5   36.67    1.25
   5  -1  -5   37.93    1.55
   5  -1  -5   42.14    1.65
   5  -1  -5   38.22    1.41
  -4  -1   5    0.50    0.39
   4   1  -5    0.46    0.45
   4   1  -5    0.13    0.44
   4   1  -5    0.47    0.41
   4  -1  -5    0.06    0.39
   4  -1  -5    0.58    0.47
   4  -1  -5    0.48    0.46
  -3   1   5    3.71    0.57
  -3   1   5    3.77    0.62
  -3  -1   5    3.28    0.54
   3   1  -5    3.30    0.60
   3   1  -5    3.18    0.51
   3  -1  -5    2.86    0.56
   3  -1  -5    4.12    0.58
   3  -1  -5    4.47    0.68
  -2   1   5   13.25    0.75
  -2   1   5   13.49    0.95
  -2  -1   5   13.24    0.90
  -2  -1   5   11.90    0.61
  -2  -1   5   14.10    0.65
   2   1  -5   14.80    1.00
   2  -1  -5   13.92    0.91
   2  -1  -5   14.76    1.01
  -1   1   5   62.44    1.89
  -1   1   5   60.29    1.30
  -1   1   5   62.46    1.30
  -1  -1   5   59.97    1.79
  -1  -1   5   57.71    1.33
   1   1  -5   58.58    1.73
   1   1  -5   59.08    1.23
   1   1  -5   67.91    1.33
   1  -1  -5   65.78    1.67
   0   1   5    8.44    0.92
   0   1   5    7.24    0.69
   0  -1   5    7.44    0.87
   0  -1   5    7.75    0.73
   0   1  -5    7.56    0.82
   0   1  -5    6.90    0.68
   0  -1  -5    8.27    0.77
   0  -1  -5    7.55    0.65
   1   1   5    1.10    0.59
   1   1   5    1.97    0.54
   1  -1   5    2.46    0.65
   1  -1   5    1.12    0.46
  -1   1  -5    1.37    0.55
  -1   1  -5    1.85    0.51
  -1  -1  -5    1.75    0.54
  -1  -1  -5    2.26    0.56
   2   1   5   28.34    1.65
   2   1   5   27.45    1.36
   2  -1   5   26.92    1.57
   2  -1   5   27.30    1.33
  -2   1  -5   29.60    1.55
  -2   1  -5   31.72    1.44
  -2  -1  -5   31.72    1.46
  -2  -1  -5   30.51    1.40
   3   1   5   32.01    1.83
   3   1   5   35.05    1.64
   3  -1   5   35.45    1.91
   3  -1   5   35.47    1.62
  -3   1  -5   37.56    1.82
  -3   1  -5   39.11    1.70
  -3  -1  -5   37.75    1.68
  -3  -1  -5   39.58    1.71
   4   1   5    6.32    1.13
   4   1   5    4.98    0.90
   4  -1   5    4.93    1.10
  -4   1  -5    5.64    1.10
  -4   1  -5    7.14    1.03
  -4  -1  -5    5.42    1.01
  -4  -1  -5    4.79    0.94
   5   1   5    2.58    1.04
   5  -1   5    3.60    1.05
  -5   1  -5    2.93    1.02
  -5   1  -5    2.99    0.85
  -5  -1  -5    1.82    0.88
  -5  -1  -5    3.06    0.84
   6   1   5    3.47    1.08
   6  -1   5    1.95    1.03
  -6   1  -5    3.84    1.16
 -10   2   5    0.38    0.66
 -10  -2   5    0.53    0.69
  10   2  -5    1.31    1.10
  10  -2  -5    1.10    1.11
  -9   2   5    0.29    0.57
  -9   2   5    0.23    0.41
  -9  -2   5   -0.28    0.66
  -9  -2   5    0.12    0.57
   9   2  -5   -0.93    0.89
   9  -2  -5    0.10    0.97
  -8   2   5   15.59    1.39
  -8   2   5   11.19    0.82
  -8  -2   5   16.01    1.43
  -8  -2   5   13.88    0.94
   8   2  -5   15.13    1.52
   8  -2  -5   14.17    1.51
  -7   2   5    2.94    0.80
  -7  -2   5    2.79    0.88
  -7  -2   5    2.77    0.57
   7   2  -5    2.53    0.92
   7   2  -5    2.52    0.87
   7  -2  -5    2.55    0.98
   7  -2  -5    2.77    0.70
  -6   2   5   16.82    1.22
  -6  -2   5   15.46    1.40
   6   2  -5   15.88    1.32
   6   2  -5   16.43    1.28
   6  -2  -5   15.97    1.33
   6  -2  -5   15.30    1.09
  -5   2   5   10.98    1.00
  -5  -2   5   11.47    0.78
   5   2  -5   11.04    1.06
   5   2  -5   11.52    0.99
   5  -2  -5   11.08    0.98
   5  -2  -5   10.66    1.05
   5  -2  -5    9.85    0.87
  -4   2   5    0.33    0.47
  -4  -2   5    0.28    0.34
   4   2  -5   -0.04    0.48
   4   2  -5    0.67    0.49
   4  -2  -5    0.39    0.47
   4  -2  -5    0.37    0.48
   4  -2  -5    0.12    0.47
  -3   2   5    1.21    0.46
  -3   2   5    0.97    0.49
  -3  -2   5    0.87    0.39
   3   2  -5    0.99    0.46
   3   2  -5    0.46    0.39
   3  -2  -5    0.64    0.41
   3  -2  -5    1.42    0.49
   3  -2  -5    0.79    0.49
  -2   2   5    2.30    0.46
  -2   2   5    1.76    0.54
  -2  -2   5    2.65    0.51
  -2  -2   5    1.48    0.30
  -2  -2   5    1.53    0.33
   2   2  -5    2.29    0.57
   2  -2  -5    1.77    0.44
   2  -2  -5    2.85    0.64
  -1   2   5   16.11    0.80
  -1   2   5   16.32    1.11
  -1   2   5   15.86    0.76
  -1  -2   5   15.01    1.02
  -1  -2   5   13.77    0.75
   1   2  -5   17.10    1.06
   1   2  -5   15.56    0.79
   1  -2  -5   17.68    0.96
   1  -2  -5   16.57    0.68
   0   2   5   24.32    1.34
   0   2   5   25.74    1.07
   0  -2   5   25.40    1.33
   0  -2   5   25.09    1.07
   0   2  -5   25.13    1.29
   0   2  -5   24.44    1.03
   0  -2  -5   25.93    1.10
   0  -2  -5   24.51    1.00
   1   2   5    9.43    1.09
   1   2   5   10.78    0.90
   1  -2   5   10.85    1.09
   1  -2   5    9.70    0.84
  -1   2  -5    9.44    1.02
  -1   2  -5   10.93    0.91
  -1  -2  -5   11.44    0.90
  -1  -2  -5   11.00    0.89
   2   2   5    0.38    0.61
   2   2   5    0.25    0.49
   2  -2   5    0.24    0.53
   2  -2   5   -0.11    0.42
  -2   2  -5    0.42    0.57
  -2   2  -5    0.75    0.51
  -2  -2  -5    0.06    0.46
  -2  -2  -5    0.13    0.47
   3   2   5    0.52    0.70
   3   2   5    0.46    0.57
   3  -2   5   -0.03    0.71
   3  -2   5   -0.24    0.45
  -3   2  -5    0.07    0.63
  -3   2  -5    0.15    0.50
  -3  -2  -5    0.00    0.51
  -3  -2  -5    0.98    0.58
   4   2   5    0.06    0.70
   4   2   5    0.67    0.60
   4  -2   5    0.24    0.79
  -4   2  -5   -0.08    0.71
  -4   2  -5   -0.05    0.58
  -4  -2  -5    0.14    0.61
   5   2   5    9.97    1.38
   5  -2   5    9.08    1.42
  -5   2  -5   13.03    1.58
  -5   2  -5   14.13    1.33
  -5  -2  -5   12.09    1.25
   6   2   5   18.52    1.75
   6  -2   5   18.73    1.88
  -6   2  -5   21.94    1.91
 -10   3   5    1.35    0.71
 -10  -3   5    1.05    0.88
 -10  -3   5    1.64    0.73
  10   3  -5    1.48    1.06
  10  -3  -5    2.59    1.18
  -9   3   5    4.81    1.01
  -9   3   5    3.90    0.69
  -9  -3   5    6.20    1.22
  -9  -3   5    3.88    0.83
   9   3  -5    3.79    1.21
   9  -3  -5    3.89    1.18
  -8   3   5   10.75    1.20
  -8   3   5    7.54    0.73
  -8  -3   5   10.88    1.30
  -8  -3   5    8.51    0.88
   8   3  -5   11.10    1.37
   8   3  -5   11.07    1.40
   8  -3  -5    8.79    1.35
  -7   3   5    0.46    0.56
  -7  -3   5   -0.39    0.68
   7   3  -5    0.43    0.79
   7   3  -5    0.75    0.74
   7  -3  -5    0.20    0.82
   7  -3  -5    0.02    0.51
  -6   3   5   20.30    1.24
  -6  -3   5   20.77    1.54
  -6  -3   5   18.70    0.89
   6   3  -5   19.84    1.44
   6   3  -5   19.65    1.37
   6  -3  -5   22.72    1.51
   6  -3  -5   18.61    1.21
  -5   3   5    4.97    0.74
  -5   3   5    4.46    0.81
  -5  -3   5    3.20    0.48
   5   3  -5    4.70    0.85
   5   3  -5    3.97    0.73
   5  -3  -5    3.73    0.69
   5  -3  -5    2.64    0.75
   5  -3  -5    3.43    0.72
  -4   3   5    0.78    0.50
  -4   3   5    0.84    0.52
  -4  -3   5    0.42    0.32
  -4  -3   5    0.14    0.26
  -4  -3   5    0.19    0.31
   4   3  -5    0.47    0.51
   4   3  -5   -0.17    0.43
   4  -3  -5    0.30    0.44
   4  -3  -5    0.39    0.53
   4  -3  -5    0.64    0.49
  -3   3   5   33.04    1.32
  -3  -3   5   32.06    1.14
  -3  -3   5   30.28    0.89
   3   3  -5   31.74    1.45
   3   3  -5   35.08    1.15
   3  -3  -5   33.76    1.18
   3  -3  -5   30.66    1.39
  -2   3   5    3.41    0.57
  -2   3   5    3.91    0.69
  -2  -3   5    2.87    0.55
  -2  -3   5    3.15    0.44
   2   3  -5    3.86    0.68
   2   3  -5    3.27    0.39
   2  -3  -5    3.39    0.48
   2  -3  -5    3.71    0.71
  -1   3   5   25.67    1.05
  -1   3   5   28.02    1.38
  -1   3   5   25.87    0.92
  -1  -3   5   27.79    1.29
  -1  -3   5   24.66    0.98
   1   3  -5   26.00    1.34
   1   3  -5   26.87    1.00
   1  -3  -5   28.52    1.05
   1  -3  -5   28.06    0.88
   1  -3  -5   28.84    1.42
   0   3   5    2.74    0.48
   0   3   5    3.19    0.69
   0   3   5    2.80    0.54
   0  -3   5    3.55    0.66
   0  -3   5    2.74    0.53
   0   3  -5    3.24    0.68
   0   3  -5    3.31    0.54
   0  -3  -5    3.04    0.49
   0  -3  -5    2.96    0.54
   1   3   5    8.37    1.00
   1   3   5    9.06    0.88
   1  -3   5    7.14    0.90
   1  -3   5    6.62    0.76
  -1   3  -5    7.23    0.99
  -1   3  -5    7.14    0.79
  -1  -3  -5    6.98    0.79
   2   3   5    3.83    0.88
   2   3   5    5.20    0.80
   2  -3   5    3.77    0.82
   2  -3   5    3.50    0.70
  -2   3  -5    3.92    0.90
  -2   3  -5    4.28    0.75
  -2  -3  -5    4.70    0.77
   3   3   5    0.48    0.69
   3   3   5    0.72    0.57
   3  -3   5   -0.20    0.56
   3  -3   5    0.60    0.55
  -3   3  -5    0.74    0.76
  -3   3  -5    0.17    0.49
  -3  -3  -5    0.21    0.60
   4   3   5   16.74    1.54
   4   3   5   19.31    1.42
   4  -3   5   16.40    1.58
  -4   3  -5   19.28    1.64
  -4   3  -5   21.28    1.51
  -4  -3  -5   20.66    1.43
   5   3   5    0.12    0.75
   5  -3   5    0.03    0.84
  -5   3  -5    0.11    0.90
  -5   3  -5    0.66    0.69
  -5  -3  -5    0.09    0.59
   6   3   5   -0.40    0.77
   6  -3   5   -0.48    0.88
  -6   3  -5   -0.06    0.95
 -10   4   5   -0.20    0.55
 -10  -4   5    0.42    0.84
 -10  -4   5    0.07    0.67
  10   4  -5    0.07    1.00
  10  -4  -5    0.48    0.93
  -9   4   5   -0.26    0.55
  -9   4   5    0.05    0.46
  -9  -4   5   -0.33    0.83
  -9  -4   5   -0.07    0.66
   9   4  -5    0.20    0.97
   9  -4  -5    0.64    0.96
  -8   4   5    0.98    0.68
  -8   4   5   -0.14    0.38
  -8  -4   5    1.31    0.92
  -8  -4   5    0.58    0.59
   8   4  -5    0.10    0.80
   8   4  -5    0.95    0.89
   8  -4  -5    1.08    0.95
   8  -4  -5    0.79    0.67
  -7   4   5    1.85    0.68
  -7   4   5    1.45    0.47
  -7  -4   5    2.80    0.96
   7   4  -5    1.97    0.92
   7   4  -5    1.72    0.92
   7  -4  -5    1.99    1.00
   7  -4  -5    2.19    0.71
  -6   4   5    3.20    0.69
  -6   4   5    4.21    0.92
  -6  -4   5    3.87    0.61
   6   4  -5    3.33    0.89
   6   4  -5    2.72    0.83
   6  -4  -5    3.62    0.92
   6  -4  -5    3.40    0.79
  -5   4   5    9.47    0.88
  -5   4   5    9.63    1.05
  -5  -4   5    8.53    0.70
   5   4  -5    8.68    1.08
   5   4  -5    9.53    0.99
   5  -4  -5    9.82    1.11
   5  -4  -5    8.43    0.96
  -4   4   5    3.40    0.61
  -4   4   5    2.44    0.67
  -4  -4   5    1.84    0.44
   4   4  -5    2.64    0.70
   4   4  -5    3.76    0.65
   4  -4  -5    2.75    0.57
   4  -4  -5    2.65    0.70
   4  -4  -5    2.58    0.68
  -3   4   5   13.30    0.82
  -3   4   5   12.76    0.98
  -3  -4   5   12.71    0.79
  -3  -4   5   11.45    0.70
   3   4  -5   13.86    1.13
   3   4  -5   13.86    0.86
   3  -4  -5   11.93    0.79
   3  -4  -5   11.92    1.02
  -2   4   5   13.70    0.95
  -2   4   5   12.59    1.07
  -2   4   5   12.81    0.66
  -2   4   5   13.72    0.66
  -2  -4   5   11.78    0.86
  -2  -4   5   12.15    0.75
   2   4  -5   13.25    1.09
   2   4  -5   12.54    0.74
   2  -4  -5   12.19    1.05
  -1   4   5    0.16    0.38
  -1   4   5    0.09    0.41
  -1   4   5   -0.05    0.32
  -1  -4   5   -0.30    0.37
  -1  -4   5   -0.43    0.36
   1   4  -5    0.67    0.54
   1   4  -5   -0.04    0.33
   1  -4  -5    0.12    0.34
   1  -4  -5    0.30    0.54
   0   4   5    3.78    0.62
   0   4   5    5.96    0.87
   0   4   5    4.45    0.64
   0  -4   5    3.86    0.71
   0  -4   5    4.56    0.67
   0   4  -5    4.35    0.80
   0   4  -5    4.20    0.63
   0  -4  -5    5.28    0.64
   1   4   5    2.60    0.54
   1   4   5    2.12    0.72
   1   4   5    2.82    0.62
   1  -4   5    1.65    0.66
   1  -4   5    2.57    0.63
  -1   4  -5    2.52    0.79
  -1   4  -5    2.37    0.59
  -1  -4  -5    2.31    0.61
   2   4   5    0.00    0.59
   2   4   5    0.29    0.51
   2  -4   5    0.61    0.62
   2  -4   5    0.19    0.50
  -2   4  -5    0.14    0.65
  -2   4  -5    0.09    0.50
  -2  -4  -5    0.43    0.55
   3   4   5   -0.09    0.64
   3   4   5    0.09    0.55
   3  -4   5   -0.03    0.59
   3  -4   5   -0.20    0.56
  -3   4  -5   -0.09    0.73
  -3   4  -5    0.11    0.50
  -3  -4  -5    0.00    0.59
   4   4   5   -0.44    0.69
   4  -4   5   -0.05    0.65
  -4   4  -5    0.39    0.89
  -4   4  -5    0.18    0.58
  -4  -4  -5   -0.06    0.61
   5   4   5    0.41    0.77
   5  -4   5   -0.01    0.89
  -5   4  -5   -0.25    0.85
  -5   4  -5   -0.81    0.52
  -5  -4  -5   -0.13    0.62
 -10   5   5    1.69    1.04
 -10   5   5    1.42    0.66
 -10  -5   5    2.40    1.03
 -10  -5   5    0.94    0.74
  10   5  -5    1.76    1.09
  10  -5  -5    2.23    0.91
  -9   5   5    6.38    1.22
  -9   5   5    3.12    0.71
  -9  -5   5    7.51    1.38
  -9  -5   5    7.03    1.06
   9   5  -5    7.11    1.36
   9  -5  -5    8.00    1.43
  -8   5   5    0.28    0.65
  -8   5   5    0.77    0.72
  -8   5   5   -0.01    0.44
  -8  -5   5    0.33    0.92
  -8  -5   5    0.84    0.65
   8   5  -5    0.95    0.79
   8   5  -5    0.69    0.94
   8  -5  -5    0.79    0.91
   8  -5  -5    0.43    0.64
  -7   5   5   32.23    1.63
  -7   5   5   33.77    1.88
  -7   5   5   25.11    1.05
  -7  -5   5   30.24    1.93
  -7  -5   5   27.31    1.31
   7   5  -5   29.66    1.79
   7   5  -5   32.13    1.86
   7  -5  -5   32.95    1.98
   7  -5  -5   25.88    1.55
  -6   5   5   43.53    1.66
  -6   5   5   44.01    1.98
  -6  -5   5   36.96    1.36
   6   5  -5   41.17    1.96
   6   5  -5   45.53    1.94
   6  -5  -5   44.41    2.03
   6  -5  -5   36.87    1.74
  -5   5   5    3.70    0.65
  -5   5   5    3.51    0.83
  -5  -5   5    3.64    0.60
   5   5  -5    4.43    0.88
   5   5  -5    3.35    0.73
   5  -5  -5    3.65    0.89
   5  -5  -5    2.84    0.80
  -4   5   5    7.23    0.71
  -4   5   5    7.27    0.92
  -4  -5   5    5.82    0.67
   4   5  -5    5.93    0.93
   4   5  -5    7.04    0.64
   4   5  -5    7.98    0.88
   4  -5  -5    7.02    0.95
  -3   5   5   26.57    1.35
  -3   5   5   26.69    0.84
  -3  -5   5   23.70    0.99
  -3  -5   5   23.91    1.03
   3   5  -5   24.30    1.44
   3   5  -5   29.14    1.15
   3  -5  -5   28.24    1.48
  -2   5   5   16.50    1.10
  -2   5   5   17.75    1.23
  -2   5   5   17.39    0.80
  -2  -5   5   16.14    0.97
  -2  -5   5   15.17    0.90
   2   5  -5   16.36    1.23
   2   5  -5   16.28    0.88
   2  -5  -5   16.05    1.20
  -1   5   5    1.41    0.54
  -1   5   5    1.05    0.62
  -1   5   5    1.89    0.49
  -1  -5   5    1.50    0.52
  -1  -5   5    0.95    0.49
   1   5  -5    2.04    0.67
   1   5  -5    1.56    0.47
   1  -5  -5    1.68    0.47
   1  -5  -5    1.70    0.70
   0   5   5   12.85    1.01
   0   5   5   14.31    1.22
   0   5   5   13.56    0.93
   0  -5   5   13.41    1.12
   0  -5   5   11.29    0.93
   0   5  -5   13.12    1.23
   0   5  -5   13.54    0.97
   0  -5  -5   13.83    0.91
   1   5   5    2.78    0.60
   1   5   5    2.08    0.75
   1   5   5    3.12    0.66
   1  -5   5    1.51    0.66
   1  -5   5    2.06    0.62
  -1   5  -5    2.32    0.82
  -1   5  -5    2.54    0.62
  -1  -5  -5    2.97    0.67
   2   5   5    1.21    0.74
   2   5   5    0.90    0.60
   2  -5   5    0.06    0.57
   2  -5   5    0.12    0.54
  -2   5  -5    0.78    0.77
  -2   5  -5    0.58    0.55
  -2  -5  -5    0.62    0.59
   3   5   5    1.85    0.84
   3   5   5    2.04    0.74
   3  -5   5    1.87    0.79
   3  -5   5    1.53    0.69
  -3   5  -5    1.57    0.92
  -3   5  -5    2.48    0.72
  -3  -5  -5    1.90    0.75
   4   5   5   15.46    1.52
   4  -5   5   17.89    1.60
  -4   5  -5   17.93    1.68
  -4   5  -5   19.35    1.46
  -4  -5  -5   19.00    1.40
   5   5   5   -0.10    0.66
   5  -5   5   -0.97    0.82
  -5   5  -5   -0.61    0.88
  -5  -5  -5    0.03    0.58
  -9   6   5    0.99    1.01
  -9   6   5    0.73    0.63
  -9  -6   5    1.00    1.02
  -9  -6   5    0.42    0.74
   9   6  -5    0.54    0.67
   9   6  -5    1.24    1.06
   9  -6  -5    0.45    1.02
   9  -6  -5    0.58    0.72
  -8   6   5   -0.26    0.61
  -8   6   5    0.48    0.76
  -8   6   5    0.60    0.47
  -8  -6   5   -0.38    0.83
  -8  -6   5    0.05    0.65
   8   6  -5   -0.26    0.68
   8   6  -5    0.12    0.61
   8   6  -5   -0.50    0.87
   8  -6  -5    0.17    0.99
   8  -6  -5    0.20    0.66
  -7   6   5   17.61    1.27
  -7   6   5   18.78    1.53
  -7   6   5   12.39    0.86
  -7  -6   5   15.17    1.57
  -7  -6   5   14.77    1.13
   7   6  -5   14.63    1.40
   7   6  -5   17.12    1.53
   7  -6  -5   15.74    1.54
   7  -6  -5   13.51    1.27
  -6   6   5    0.10    0.42
  -6   6   5   -0.76    0.62
  -6   6   5    0.40    0.41
  -6  -6   5    0.09    0.58
   6   6  -5    0.43    0.69
   6   6  -5    0.27    0.52
   6   6  -5    0.09    0.70
   6  -6  -5   -0.79    0.76
   6  -6  -5    0.37    0.62
  -5   6   5    3.19    0.83
  -5  -6   5    2.15    0.63
   5   6  -5    1.92    0.76
   5   6  -5    2.89    0.59
   5   6  -5    2.67    0.75
   5  -6  -5    2.89    0.91
   5  -6  -5    2.02    0.78
  -4   6   5    5.26    0.90
  -4   6   5    5.20    0.56
  -4  -6   5    5.29    0.73
   4   6  -5    6.00    0.94
   4   6  -5    6.26    0.72
   4   6  -5    6.31    0.81
   4  -6  -5    4.62    0.88
  -3   6   5   11.09    1.08
  -3   6   5   10.35    0.70
  -3  -6   5    8.66    0.81
   3   6  -5    9.65    1.12
   3  -6  -5    8.04    1.04
  -2   6   5   11.52    1.03
  -2   6   5   11.43    0.77
  -2  -6   5   11.77    0.88
  -2  -6   5   10.86    0.89
   2   6  -5   11.89    1.16
   2   6  -5   11.53    0.84
   2  -6  -5    9.80    1.09
  -1   6   5   -0.61    0.48
  -1   6   5   -0.16    0.52
  -1   6   5   -0.14    0.41
  -1  -6   5   -0.25    0.39
  -1  -6   5    0.11    0.50
   1   6  -5   -0.07    0.54
   1   6  -5    0.03    0.41
   1  -6  -5   -0.09    0.43
   1  -6  -5    0.33    0.59
   0   6   5    8.57    0.95
   0   6   5    9.14    1.11
   0   6   5    9.00    0.89
   0  -6   5   11.65    1.05
   0  -6   5    8.22    0.88
   0   6  -5    8.63    1.11
   0   6  -5    9.23    0.90
   0  -6  -5    8.02    0.81
   0  -6  -5    8.37    1.07
   1   6   5   15.50    1.12
   1   6   5   12.98    1.29
   1   6   5   13.25    1.07
   1  -6   5   14.68    1.24
   1  -6   5   10.99    1.01
  -1   6  -5   14.05    1.36
  -1   6  -5   13.59    1.07
  -1  -6  -5   12.03    0.99
   2   6   5    2.06    0.80
   2   6   5    2.77    0.75
   2  -6   5    1.54    0.76
   2  -6   5    2.30    0.71
  -2   6  -5    2.54    0.93
  -2   6  -5    2.22    0.68
  -2  -6  -5    2.86    0.76
   3   6   5    5.66    1.08
   3   6   5    6.12    1.01
   3  -6   5    5.62    1.04
  -3   6  -5    5.83    1.21
  -3   6  -5    6.75    1.00
  -3  -6  -5    6.84    1.03
   4   6   5    0.09    0.70
   4  -6   5    0.32    0.69
  -4   6  -5   -0.12    0.90
  -4   6  -5    0.07    0.57
  -4  -6  -5    0.03    0.59
   5   6   5   -0.37    0.69
   5  -6   5    0.45    0.62
  -5   6  -5    0.32    0.99
  -5  -6  -5    0.67    0.63
  -9   7   5    0.11    0.96
  -9   7   5    0.09    0.62
  -9  -7   5   -0.25    0.87
  -9  -7   5   -0.28    0.69
   9   7  -5    0.35    0.69
   9   7  -5   -0.73    0.97
   9  -7  -5   -0.29    0.93
   9  -7  -5    0.18    0.75
  -8   7   5    0.28    0.77
  -8   7   5    0.34    0.50
  -8  -7   5    0.33    0.89
  -8  -7   5   -0.26    0.61
   8   7  -5   -0.11    0.69
   8   7  -5    0.14    0.65
   8   7  -5   -0.91    0.87
   8  -7  -5   -0.07    0.93
   8  -7  -5   -0.21    0.65
  -7   7   5    8.76    1.20
  -7   7   5    5.72    0.71
  -7  -7   5    6.41    1.31
  -7  -7   5    5.25    0.91
   7   7  -5    7.23    1.16
   7   7  -5    6.53    0.86
   7   7  -5    7.76    1.25
   7  -7  -5    6.20    1.25
   7  -7  -5    4.47    0.95
  -6   7   5    3.79    0.95
  -6   7   5    2.91    0.56
  -6  -7   5    3.60    0.80
   6   7  -5    3.06    0.91
   6   7  -5    4.07    0.76
   6   7  -5    3.89    0.96
   6  -7  -5    3.84    1.09
   6  -7  -5    2.76    0.86
  -5   7   5   11.71    1.22
  -5   7   5    8.54    0.72
  -5  -7   5    8.61    0.91
   5   7  -5    9.45    1.19
   5   7  -5    8.96    0.88
   5   7  -5    9.73    1.13
   5  -7  -5    8.69    1.15
  -4   7   5    1.77    0.74
  -4   7   5    2.13    0.49
  -4  -7   5    1.90    0.65
   4   7  -5    1.92    0.72
   4   7  -5    2.14    0.62
   4   7  -5    2.31    0.67
   4  -7  -5    1.55    0.76
  -3   7   5   11.33    1.12
  -3   7   5   10.97    0.79
  -3  -7   5    9.92    0.91
   3   7  -5   10.22    1.16
   3  -7  -5    8.72    1.11
  -2   7   5    0.41    0.56
  -2   7   5    0.17    0.43
  -2  -7   5   -0.14    0.42
  -2  -7   5    0.17    0.52
   2   7  -5   -0.02    0.57
   2   7  -5   -0.04    0.47
   2  -7  -5   -0.17    0.45
   2  -7  -5   -0.38    0.56
  -1   7   5   78.53    2.25
  -1   7   5   79.46    2.52
  -1   7   5   79.37    1.93
  -1  -7   5   73.25    2.02
   1   7  -5   74.95    2.45
   1   7  -5   77.63    2.01
   1  -7  -5   71.30    1.69
   1  -7  -5   74.68    2.41
   0   7   5    4.79    0.80
   0   7   5    3.98    0.89
   0   7   5    4.54    0.77
   0  -7   5    3.62    0.75
   0  -7   5    3.04    0.77
   0   7  -5    5.15    0.97
   0   7  -5    3.15    0.71
   0  -7  -5    4.62    0.72
   0  -7  -5    3.95    0.88
   1   7   5    9.53    1.01
   1   7   5    7.49    1.12
   1   7   5    8.06    0.97
   1  -7   5    5.84    0.96
   1  -7   5    5.40    0.89
  -1   7  -5    7.52    1.17
  -1   7  -5    7.67    0.93
  -1  -7  -5    7.35    0.91
   2   7   5    8.30    1.01
   2   7   5    9.12    1.21
   2   7   5    7.13    1.02
   2  -7   5    4.77    0.93
   2  -7   5    5.24    0.92
  -2   7  -5    5.85    1.17
  -2   7  -5    7.07    0.96
  -2  -7  -5    6.34    0.94
   3   7   5   15.53    1.46
   3   7   5   16.36    1.35
   3  -7   5   15.82    1.48
  -3   7  -5   17.99    1.67
  -3   7  -5   17.43    1.39
  -3  -7  -5   15.19    1.29
   4   7   5    5.93    1.15
   4  -7   5    3.95    1.03
  -4   7  -5    5.54    1.33
  -4   7  -5    6.81    1.06
  -4  -7  -5    5.38    0.99
   5   7   5    2.33    0.96
   5  -7   5    2.49    0.88
  -5   7  -5    4.02    1.26
  -5  -7  -5    3.37    0.80
  -9   8   5    5.75    1.31
  -9   8   5    4.47    0.88
  -9  -8   5    7.54    1.48
  -9  -8   5    5.35    1.06
   9   8  -5    5.65    0.94
   9   8  -5    6.00    1.37
   9  -8  -5    5.54    1.16
   9  -8  -5    4.21    1.07
  -8   8   5    0.10    0.90
  -8   8   5   -0.11    0.54
  -8  -8   5    1.14    1.05
   8   8  -5    0.52    0.66
   8   8  -5    0.11    0.65
   8   8  -5    0.61    0.98
   8  -8  -5   -0.08    0.98
   8  -8  -5    0.24    0.75
  -7   8   5    0.60    0.81
  -7   8   5    0.39    0.47
  -7  -8   5    1.51    1.04
  -7  -8   5    0.45    0.68
   7   8  -5    0.73    0.74
   7   8  -5    1.37    0.72
   7   8  -5    0.20    0.90
   7  -8  -5    1.28    1.00
   7  -8  -5    1.01    0.76
  -6   8   5   -0.52    0.62
  -6   8   5   -0.28    0.43
  -6  -8   5    0.73    0.66
   6   8  -5    0.12    0.73
   6   8  -5   -0.21    0.57
   6   8  -5    0.09    0.75
   6  -8  -5    0.22    0.67
  -5   8   5    0.65    0.74
  -5   8   5    0.38    0.46
  -5  -8   5    0.15    0.61
   5   8  -5    0.07    0.66
   5   8  -5    0.24    0.54
   5   8  -5   -0.05    0.69
   5  -8  -5    0.11    0.74
  -4   8   5  118.22    3.10
  -4   8   5  103.53    2.04
  -4  -8   5   96.44    2.32
   4   8  -5  113.28    3.06
   4   8  -5  117.11    2.38
   4  -8  -5  100.31    2.93
  -3   8   5   44.70    1.95
  -3   8   5   41.93    1.41
  -3  -8   5   39.77    1.55
   3   8  -5   44.24    1.97
   3  -8  -5   35.88    1.85
  -2   8   5    6.90    0.99
  -2   8   5    6.11    0.79
  -2  -8   5    4.24    0.81
   2   8  -5    3.85    0.88
   2   8  -5    6.98    0.83
   2  -8  -5    5.41    0.71
   2  -8  -5    5.51    0.98
  -1   8   5    5.94    0.94
  -1   8   5    5.51    1.01
  -1   8   5    5.78    0.84
  -1  -8   5    4.97    0.77
  -1  -8   5    4.54    0.84
   1   8  -5    6.19    0.99
   1   8  -5    4.23    0.75
   1  -8  -5    5.05    0.75
   1  -8  -5    4.70    0.93
   0   8   5    4.39    0.85
   0   8   5    6.96    1.11
   0   8   5    5.59    0.87
   0  -8   5    4.57    0.81
   0  -8   5    4.50    0.87
   0   8  -5    4.25    0.96
   0   8  -5    5.80    0.84
   0  -8  -5    4.77    0.78
   0  -8  -5    8.17    1.10
   1   8   5   10.09    1.10
   1   8   5   10.27    1.28
   1   8   5    9.91    1.11
   1  -8   5   10.05    1.20
   1  -8   5    9.08    1.06
  -1   8  -5   10.36    1.28
  -1   8  -5   10.91    1.07
  -1  -8  -5    8.90    0.95
   2   8   5   13.90    1.25
   2   8   5   12.63    1.37
   2   8   5   13.00    1.23
   2  -8   5   11.02    1.21
  -2   8  -5   12.75    1.46
  -2   8  -5   11.31    1.16
  -2  -8  -5   13.12    1.15
   3   8   5   13.19    1.43
   3   8   5   14.72    1.33
   3  -8   5   14.31    1.44
  -3   8  -5   15.00    1.65
  -3   8  -5   15.34    1.33
  -3  -8  -5   15.26    1.27
   4   8   5    5.79    1.11
  -4   8  -5    6.09    1.35
  -4  -8  -5    6.70    1.06
  -8   9   5    7.09    1.39
  -8   9   5    5.96    0.91
  -8  -9   5    7.44    1.45
   8   9  -5    8.13    0.99
   8   9  -5    7.26    1.43
   8  -9  -5    4.97    1.14
  -7   9   5    4.79    1.05
  -7   9   5    3.95    0.82
  -7  -9   5    3.85    1.21
  -7  -9   5    3.45    0.89
   7   9  -5    3.91    0.97
   7   9  -5    3.87    0.81
   7   9  -5    4.85    1.22
   7  -9  -5    2.62    0.93
  -6   9   5    1.60    0.86
  -6   9   5    1.08    0.61
  -6  -9   5    1.63    0.76
   6   9  -5    1.27    0.79
   6   9  -5    1.91    0.64
   6   9  -5    1.04    0.86
   6  -9  -5    2.46    0.88
  -5   9   5    1.35    0.81
  -5   9   5    1.82    0.62
  -5  -9   5    2.69    0.81
   5   9  -5    1.57    0.82
   5   9  -5    1.96    0.68
   5   9  -5    1.39    0.81
   5  -9  -5    2.67    0.91
  -4   9   5   47.38    2.15
  -4  -9   5   42.71    1.72
   4   9  -5   43.01    2.02
   4   9  -5   49.12    1.73
   4  -9  -5   38.71    2.00
  -3   9   5   31.18    1.77
  -3   9   5   29.94    1.35
  -3  -9   5   28.55    1.47
   3   9  -5   31.61    1.77
   3  -9  -5   29.41    1.72
  -2   9   5   -0.26    0.65
  -2   9   5   -0.08    0.56
  -2  -9   5    0.10    0.62
   2   9  -5    0.41    0.67
   2   9  -5   -0.19    0.53
   2  -9  -5   -0.22    0.58
   2  -9  -5    0.02    0.65
  -1   9   5   39.25    1.88
  -1   9   5   42.17    2.08
  -1   9   5   37.19    1.58
  -1  -9   5   34.67    1.63
   1   9  -5   39.17    1.96
   1   9  -5   38.20    1.64
   1  -9  -5   31.74    1.34
   1  -9  -5   40.45    1.95
   0   9   5    0.72    0.68
   0   9   5    0.90    0.80
   0   9   5    1.34    0.69
   0  -9   5    0.27    0.56
   0  -9   5    0.81    0.69
   0   9  -5    0.71    0.75
   0   9  -5    1.30    0.65
   0  -9  -5    0.17    0.56
   0  -9  -5    0.69    0.71
   1   9   5    4.45    0.94
   1   9   5    5.73    1.14
   1   9   5    6.02    0.98
   1  -9   5    4.99    0.92
   1  -9   5    4.26    0.93
  -1   9  -5    7.28    1.16
  -1   9  -5    5.48    0.95
  -1  -9  -5    5.00    0.85
   2   9   5   21.75    1.53
   2   9   5   19.67    1.63
   2   9   5   20.34    1.47
  -2   9  -5   20.54    1.67
  -2   9  -5   21.95    1.50
  -2  -9  -5   19.05    1.37
   3   9   5    6.50    1.15
   3   9   5    4.27    1.02
   3  -9   5    3.52    0.96
  -3   9  -5    6.26    1.20
  -3   9  -5    4.40    0.90
  -3  -9  -5    4.32    0.89
   4   9   5    1.61    0.95
   4  -9   5    2.21    0.87
  -4   9  -5    2.45    1.08
  -4  -9  -5    2.77    0.79
  -8  10   5    3.03    1.15
  -8  10   5    2.16    0.76
  -8 -10   5    3.17    1.22
   8  10  -5    2.81    0.66
   8  10  -5    2.50    1.23
   8 -10  -5    2.33    1.00
  -7  10   5    5.27    1.11
  -7  10   5    3.83    0.86
  -7 -10   5    6.14    1.39
  -7 -10   5    3.81    1.00
   7  10  -5    5.86    1.06
   7  10  -5    6.51    0.89
   7  10  -5    5.58    1.24
   7 -10  -5    3.37    1.05
  -6  10   5    0.36    0.70
  -6  10   5    0.66    0.64
  -6 -10   5    0.09    0.70
   6  10  -5    0.32    0.70
   6  10  -5    0.40    0.59
   6  10  -5    0.65    0.83
   6 -10  -5    0.74    0.80
  -5  10   5   -0.22    0.66
  -5  10   5    0.63    0.62
  -5 -10   5    0.56    0.69
   5  10  -5    1.21    0.79
   5  10  -5    0.21    0.56
   5  10  -5    0.96    0.80
   5 -10  -5   -0.32    0.71
  -4  10   5   40.44    2.08
  -4  10   5   34.40    1.48
  -4 -10   5   34.29    1.67
   4  10  -5   36.26    1.94
   4  10  -5   38.77    1.67
   4 -10  -5   29.47    1.83
  -3  10   5   23.89    1.67
  -3  10   5   21.18    1.28
  -3 -10   5   20.21    1.38
   3  10  -5   23.34    1.63
   3 -10  -5   19.47    1.11
   3 -10  -5   28.10    1.71
  -2  10   5    0.62    0.77
  -2  10   5    0.77    0.66
  -2 -10   5    0.34    0.68
   2  10  -5    1.51    0.77
   2  10  -5   -0.25    0.58
   2 -10  -5    0.08    0.61
   2 -10  -5   -0.40    0.63
  -1  10   5    0.48    0.72
  -1  10   5    1.40    0.93
  -1  10   5    1.49    0.75
  -1 -10   5    0.31    0.68
   1  10  -5    1.65    0.84
   1  10  -5    0.33    0.62
   1 -10  -5    0.97    0.58
   1 -10  -5    1.08    0.73
   0  10   5    2.69    0.87
   0  10   5    1.77    0.94
   0  10   5    3.00    0.85
   0 -10   5    1.22    0.70
   0 -10   5    1.24    0.82
   0  10  -5    2.17    0.89
   0  10  -5    2.35    0.74
   0 -10  -5    1.67    0.64
   0 -10  -5    2.19    0.83
   1  10   5    2.44    0.82
   1  10   5    3.31    1.01
   1  10   5    2.17    0.83
   1 -10   5    2.78    0.83
   1 -10   5    2.25    0.87
  -1  10  -5    3.47    0.90
  -1  10  -5    2.41    0.80
  -1 -10  -5    2.03    0.71
   2  10   5    2.05    0.81
   2  10   5    3.32    1.00
   2  10   5    2.53    0.91
   2 -10   5    1.72    0.81
  -2  10  -5    3.64    1.06
  -2  10  -5    1.60    0.72
  -2 -10  -5    2.85    0.79
   3  10   5   17.97    1.63
   3 -10   5   17.37    1.51
  -3  10  -5   16.50    1.56
  -3  10  -5   18.37    1.46
  -3 -10  -5   15.68    1.29
   4 -10   5   -0.50    0.63
  -4 -10  -5   -0.97    0.48
  -7  11   5    0.12    0.98
  -7  11   5   -0.32    0.62
  -7 -11   5   -0.18    0.98
  -7 -11   5    0.40    0.77
   7  11  -5    0.45    0.58
   7  11  -5    0.17    0.96
   7 -11  -5    0.41    0.84
  -6  11   5   -0.40    0.64
  -6  11   5    0.29    0.62
  -6 -11   5   -0.05    0.71
   6  11  -5    0.88    0.67
   6  11  -5   -0.42    0.55
   6  11  -5    0.01    0.81
   6 -11  -5    0.26    0.77
  -5  11   5    0.58    0.75
  -5  11   5    0.82    0.65
  -5 -11   5    0.93    0.76
   5  11  -5    1.09    0.70
   5  11  -5    1.63    0.67
   5 -11  -5    0.60    0.80
  -4  11   5    6.02    1.11
  -4  11   5    5.81    0.89
  -4 -11   5    5.21    0.99
   4  11  -5    4.30    1.00
   4  11  -5    7.81    1.01
   4 -11  -5    5.11    0.82
   4 -11  -5    6.49    1.10
  -3  11   5    0.16    0.76
  -3  11   5    0.19    0.63
  -3 -11   5    0.01    0.68
   3  11  -5    0.16    0.69
   3  11  -5    0.66    0.78
   3 -11  -5    0.37    0.63
   3 -11  -5    0.76    0.66
  -2  11   5    2.94    0.98
  -2  11   5    2.86    0.87
  -2 -11   5    2.49    0.88
   2  11  -5    2.13    0.93
   2  11  -5    3.04    0.80
   2 -11  -5    2.91    0.71
   2 -11  -5    1.92    0.78
  -1  11   5   59.54    2.44
  -1  11   5   63.13    2.61
  -1  11   5   57.03    2.08
  -1 -11   5   50.50    2.08
   1  11  -5   61.21    2.52
   1  11  -5   55.76    2.10
   1 -11  -5   48.28    1.74
   1 -11  -5   52.64    2.30
   0  11   5    1.18    0.76
   0  11   5    1.40    0.93
   0  11   5    1.13    0.79
   0 -11   5    0.71    0.76
   0  11  -5    0.50    0.74
   0  11  -5    0.04    0.59
   0 -11  -5    0.80    0.61
   0 -11  -5    0.71    0.73
   1  11   5    8.58    1.18
   1  11   5    5.56    1.21
   1  11   5    7.20    1.14
   1 -11   5    5.31    1.01
  -1  11  -5    6.56    1.17
  -1  11  -5    6.61    1.04
  -1 -11  -5    6.29    0.93
   2  11   5   31.76    1.86
   2  11   5   29.68    1.93
   2  11   5   28.09    1.77
   2 -11   5   25.86    1.73
  -2  11  -5   31.64    2.00
  -2  11  -5   26.99    1.69
  -2 -11  -5   23.59    1.50
   3  11   5    7.91    1.11
   3 -11   5    4.90    1.02
  -3  11  -5    7.08    1.23
  -3 -11  -5    6.43    1.00
  -7  12   5   10.42    1.52
  -7  12   5   12.02    1.21
  -7 -12   5   14.37    1.86
  -7 -12   5   10.79    1.43
   7  12  -5   13.83    1.14
   7 -12  -5   10.77    1.48
  -6  12   5    1.22    0.80
  -6  12   5    0.93    0.73
  -6 -12   5    0.02    0.74
   6  12  -5    0.50    0.61
   6  12  -5    0.64    0.92
   6 -12  -5    0.12    0.78
  -5  12   5    0.91    0.87
  -5  12   5    0.66    0.72
  -5 -12   5    0.66    0.79
   5  12  -5    1.21    0.72
   5  12  -5    0.24    0.60
   5 -12  -5    0.50    0.68
  -4  12   5    0.12    0.76
  -4  12   5    0.34    0.62
  -4 -12   5   -0.12    0.76
   4  12  -5    0.41    0.70
   4  12  -5    0.86    0.66
   4 -12  -5    0.78    0.69
   4 -12  -5    0.92    0.70
  -3  12   5    1.46    0.87
  -3  12   5    2.20    0.81
  -3 -12   5    1.25    0.83
   3  12  -5    2.19    0.85
   3  12  -5    2.58    0.87
   3 -12  -5    1.73    0.74
   3 -12  -5    0.69    0.65
  -2  12   5    0.23    0.76
  -2  12   5    1.38    0.79
  -2 -12   5    0.73    0.75
   2  12  -5    0.40    0.69
   2  12  -5    0.01    0.64
   2 -12  -5    0.52    0.54
   2 -12  -5    0.21    0.65
  -1  12   5   -0.47    0.71
  -1  12   5   -0.32    0.85
  -1  12   5   -0.40    0.71
  -1 -12   5    0.49    0.71
   1  12  -5    0.18    0.70
   1  12  -5   -0.32    0.59
   1 -12  -5   -0.23    0.47
   1 -12  -5    0.69    0.62
   0  12   5    2.08    0.84
   0  12   5    1.42    0.98
   0  12   5    1.80    0.86
   0  12  -5    2.02    0.84
   0  12  -5    1.66    0.74
   0 -12  -5    1.78    0.67
   0 -12  -5    0.77    0.66
   1  12   5    1.93    0.81
   1  12   5    2.03    1.04
   1  12   5    1.57    0.88
  -1  12  -5    0.64    0.76
  -1  12  -5    0.69    0.67
  -1 -12  -5    1.13    0.58
  -1 -12  -5    1.54    0.73
   2  12   5    0.83    0.68
   2  12   5    1.36    0.97
   2 -12   5    1.32    0.70
  -2  12  -5    0.72    0.63
  -2 -12  -5    1.03    0.57
  -6  13   5   13.06    1.48
  -6 -13   5   11.94    1.42
   6  13  -5   14.15    1.19
   6 -13  -5   10.40    1.46
  -5  13   5   -0.17    0.66
  -5  13   5    0.02    0.70
  -5 -13   5    0.84    0.82
   5  13  -5    0.71    0.59
   5 -13  -5   -0.22    0.67
   5 -13  -5    0.05    0.59
  -4  13   5   -0.28    0.73
  -4  13   5   -0.20    0.69
  -4 -13   5    0.22    0.73
   4  13  -5    0.00    0.62
   4  13  -5   -0.19    0.61
   4 -13  -5   -0.09    0.65
   4 -13  -5    0.57    0.62
  -3  13   5    4.62    1.11
  -3  13   5    2.97    0.89
  -3 -13   5    3.15    0.99
   3  13  -5    3.86    0.91
   3  13  -5    4.68    0.98
   3 -13  -5    2.55    0.74
   3 -13  -5    3.48    0.90
  -2  13   5    2.13    0.92
  -2  13   5    1.59    0.87
  -2 -13   5    0.37    0.75
   2  13  -5    0.95    0.71
   2  13  -5    0.34    0.68
   2 -13  -5    0.81    0.58
   2 -13  -5    1.48    0.76
  -1  13   5    0.42    0.75
  -1  13   5   -0.65    0.96
  -1  13   5   -0.56    0.77
   1  13  -5   -0.02    0.65
   1  13  -5   -0.50    0.55
   1 -13  -5   -0.05    0.49
   1 -13  -5   -0.96    0.50
   0  13   5    1.60    0.74
   0  13   5    0.81    0.97
   0  13   5    1.29    0.90
   0  13  -5    0.60    0.61
   0 -13  -5    0.46    0.52
   0 -13  -5    0.66    0.66
   1  13   5    0.33    0.58
   1  13   5   -0.62    0.82
   1  13   5    0.17    0.79
  -1  13  -5   -0.19    0.53
  -1 -13  -5    0.38    0.50
  -4  14   5    2.17    0.96
  -4  14   5    1.82    0.84
   4  14  -5    2.58    0.79
   4 -14  -5    1.89    0.75
   4 -14  -5    1.45    0.69
  -3  14   5    5.01    1.13
  -3  14   5    4.38    1.02
   3  14  -5    4.93    0.99
   3 -14  -5    2.73    0.61
   3 -14  -5    3.59    0.94
  -2  14   5    0.64    0.79
  -2  14   5   -0.56    0.75
   2 -14  -5    0.47    0.49
   2 -14  -5    0.36    0.56
  -1  14   5    0.89    0.80
  -1  14   5    0.58    1.04
  -1  14   5    0.64    0.87
   1  14  -5    0.61    0.63
   1 -14  -5    0.58    0.55
   1 -14  -5    0.48    0.55
   0  14   5    0.22    0.72
   0  14   5    2.60    1.13
   0  14   5    3.25    1.09
   0  14  -5    2.48    0.76
   0 -14  -5    1.32    0.59
   0 -14  -5    1.81    0.70
 -10   0   6    3.89    0.66
  10   0  -6    3.82    1.23
  -9   0   6   -0.30    0.62
  -9   0   6    0.16    0.45
   9   0  -6   -0.01    0.89
  -8   0   6   24.87    1.68
   8   0  -6   24.40    1.76
  -7   0   6  139.75    3.43
   7   0  -6  132.27    3.37
   7   0  -6  133.82    3.31
  -6   0   6  190.45    3.74
  -6   0   6  175.40    3.01
   6   0  -6  178.24    3.61
   6   0  -6  188.57    3.59
  -5   0   6   21.55    1.20
   5   0  -6   22.21    1.39
   5   0  -6   22.53    1.31
   5   0  -6   19.96    1.19
  -4   0   6    3.70    0.67
   4   0  -6    4.22    0.75
   4   0  -6    3.54    0.67
   4   0  -6    3.78    0.71
  -3   0   6    3.71    0.58
  -3   0   6    4.34    0.73
   3   0  -6    3.84    0.68
  -2   0   6    6.87    0.88
  -2   0   6    6.37    0.62
   2   0  -6    5.86    0.80
  -1   0   6  176.55    3.42
  -1   0   6  163.08    2.45
   1   0  -6  169.18    3.05
   1   0  -6  169.30    2.18
   0   0   6   87.93    2.60
   0   0   6   91.62    2.09
   0   0  -6   92.86    2.35
   0   0  -6   96.82    2.01
   1   0   6    9.74    1.16
   1   0   6    9.31    0.96
  -1   0  -6   14.16    1.17
  -1   0  -6    9.45    0.93
   2   0   6    0.94    0.72
   2   0   6    1.02    0.61
  -2   0  -6    1.46    0.65
  -2   0  -6    1.58    0.62
   3   0   6    0.64    0.85
   3   0   6    0.05    0.58
  -3   0  -6    0.77    0.67
  -3   0  -6    1.30    0.64
   4   0   6    6.16    1.32
  -4   0  -6    6.92    1.18
  -4   0  -6    6.70    1.00
   5   0   6   47.67    2.57
  -5   0  -6   47.10    2.16
 -10   1   6    1.33    0.49
 -10  -1   6    2.16    0.56
  10   1  -6    2.73    1.19
  10  -1  -6    2.33    1.19
  -9   1   6    4.00    0.92
  -9   1   6    2.32    0.58
  -9  -1   6    4.15    1.01
  -9  -1   6    4.22    0.65
   9   1  -6    2.10    1.06
   9  -1  -6    2.91    1.14
  -8   1   6   14.99    1.39
  -8  -1   6   14.08    1.43
  -8  -1   6   13.10    0.82
   8   1  -6   12.42    1.41
   8   1  -6   14.18    1.46
   8  -1  -6   14.97    1.59
  -7   1   6   15.95    1.39
  -7  -1   6   18.33    1.51
   7   1  -6   16.54    1.49
   7   1  -6   17.06    1.42
   7  -1  -6   14.15    1.34
   7  -1  -6   17.41    1.54
  -6   1   6   11.41    1.18
  -6  -1   6   10.10    1.24
   6   1  -6   10.95    1.20
   6   1  -6   10.22    1.10
   6  -1  -6   11.68    1.19
   6  -1  -6    9.86    1.18
   6  -1  -6   10.72    0.95
  -5   1   6    0.37    0.54
  -5  -1   6    0.13    0.41
   5   1  -6    0.60    0.61
   5   1  -6   -0.18    0.52
   5   1  -6    0.04    0.49
   5  -1  -6    0.36    0.58
   5  -1  -6    0.18    0.58
   5  -1  -6    0.06    0.50
  -4   1   6   28.37    1.31
  -4   1   6   30.03    1.43
  -4  -1   6   29.17    1.32
   4   1  -6   29.40    1.48
   4   1  -6   30.17    1.32
   4  -1  -6   29.54    1.40
   4  -1  -6   30.50    1.35
   4  -1  -6   28.78    1.42
  -3   1   6    7.65    0.77
  -3   1   6    9.63    0.97
  -3  -1   6    8.46    0.88
   3   1  -6    8.13    0.91
   3  -1  -6    7.07    0.80
   3  -1  -6    7.99    0.94
  -2   1   6    0.62    0.52
  -2   1   6   -0.24    0.29
  -2  -1   6    0.25    0.41
  -2  -1   6   -0.36    0.32
   2   1  -6   -0.22    0.43
   2  -1  -6   -0.11    0.43
  -1   1   6  157.84    3.29
  -1   1   6  142.93    2.28
  -1  -1   6  155.09    3.18
  -1  -1   6  141.39    2.33
   1   1  -6  150.85    2.99
   1   1  -6  138.29    2.06
   1  -1  -6  153.48    2.79
   0   1   6   27.62    1.59
   0   1   6   25.00    1.22
   0  -1   6   24.72    1.52
   0  -1   6   25.25    1.22
   0   1  -6   27.09    1.45
   0   1  -6   26.21    1.16
   0  -1  -6   25.81    1.30
   0  -1  -6   27.35    1.18
   1   1   6    3.53    0.86
   1   1   6    3.28    0.71
   1  -1   6    3.17    0.81
   1  -1   6    3.39    0.69
  -1   1  -6    4.04    0.81
  -1   1  -6    3.19    0.68
  -1  -1  -6    3.72    0.70
  -1  -1  -6    2.78    0.64
   2   1   6    0.06    0.72
   2   1   6    0.50    0.59
   2  -1   6    1.36    0.73
   2  -1   6    0.69    0.58
  -2   1  -6    0.52    0.63
  -2   1  -6    1.17    0.63
  -2  -1  -6    1.50    0.63
  -2  -1  -6    1.18    0.61
   3   1   6    1.84    0.93
   3   1   6    1.39    0.74
   3  -1   6    2.44    0.96
   3  -1   6    2.19    0.76
  -3   1  -6    3.16    0.88
  -3   1  -6    2.92    0.78
  -3  -1  -6    2.67    0.75
   4   1   6    0.63    0.91
   4  -1   6    0.91    0.91
  -4   1  -6    0.80    0.76
  -4   1  -6    0.07    0.52
  -4  -1  -6   -0.23    0.50
   5   1   6   20.64    1.88
   5  -1   6   24.29    2.00
  -5   1  -6   21.55    1.84
  -5   1  -6   19.26    1.48
  -5  -1  -6   22.25    1.52
 -10   2   6    9.70    0.84
 -10  -2   6   14.72    1.49
 -10  -2   6   12.36    0.98
  10   2  -6   10.53    1.57
  10  -2  -6   10.19    1.57
  -9   2   6    0.91    0.72
  -9   2   6    0.39    0.44
  -9  -2   6    1.75    0.86
  -9  -2   6    0.90    0.52
   9   2  -6    1.08    0.97
   9  -2  -6    1.38    1.11
  -8   2   6    0.65    0.68
  -8  -2   6    0.83    0.73
  -8  -2   6    0.28    0.44
   8   2  -6    0.28    0.88
   8   2  -6   -0.17    0.79
   8  -2  -6    0.84    0.92
  -7   2   6   39.81    1.89
  -7  -2   6   42.03    2.07
   7   2  -6   37.51    2.00
   7   2  -6   40.72    1.95
   7  -2  -6   39.91    2.08
  -6   2   6   12.79    1.16
   6   2  -6   11.81    1.25
   6   2  -6   11.24    1.12
   6  -2  -6   11.60    1.15
   6  -2  -6   12.71    1.30
   6  -2  -6   10.18    0.99
  -5   2   6   -0.09    0.55
  -5   2   6    1.30    0.59
   5   2  -6    0.09    0.61
   5   2  -6    0.34    0.55
   5  -2  -6    0.28    0.55
   5  -2  -6    0.04    0.59
   5  -2  -6   -0.06    0.53
  -4   2   6  111.70    2.44
  -4   2   6  113.53    2.68
  -4  -2   6  112.30    2.30
   4   2  -6  107.33    2.69
   4  -2  -6  109.91    2.41
   4  -2  -6  113.13    2.47
   4  -2  -6  103.74    2.54
  -3   2   6    6.09    0.74
  -3   2   6    6.99    0.90
  -3  -2   6    6.24    0.77
   3   2  -6    5.91    0.86
   3  -2  -6    6.32    0.78
   3  -2  -6    6.87    0.92
  -2   2   6   -0.29    0.37
  -2   2   6   -0.58    0.45
  -2   2   6   -0.10    0.31
  -2  -2   6    0.31    0.38
  -2  -2   6   -0.23    0.31
   2   2  -6   -0.16    0.48
   2  -2  -6    0.11    0.43
  -1   2   6  100.80    2.71
  -1   2   6   79.27    1.74
  -1  -2   6   87.12    2.42
  -1  -2   6   72.31    1.75
   1   2  -6   77.72    2.29
   1   2  -6   76.86    1.66
   1  -2  -6   86.03    2.05
   0   2   6   17.54    1.36
   0   2   6   16.96    1.07
   0  -2   6   15.91    1.30
   0  -2   6   15.98    1.02
   0   2  -6   16.17    1.24
   0   2  -6   16.25    1.00
   0  -2  -6   17.03    0.98
   1   2   6   17.44    1.48
   1   2   6   14.96    1.12
   1  -2   6   14.37    1.34
   1  -2   6   13.78    1.05
  -1   2  -6   14.55    1.28
  -1   2  -6   14.82    1.06
  -1  -2  -6   15.86    1.08
   2   2   6   -0.18    0.69
   2   2   6    0.13    0.57
   2  -2   6    0.60    0.62
   2  -2   6   -0.14    0.49
  -2   2  -6    0.14    0.64
  -2   2  -6   -0.06    0.49
  -2  -2  -6   -0.16    0.51
   3   2   6   26.37    1.87
   3   2   6   23.21    1.52
   3  -2   6   23.65    1.73
   3  -2   6   24.79    1.52
  -3   2  -6   23.99    1.69
  -3   2  -6   24.45    1.52
  -3  -2  -6   24.94    1.50
   4   2   6    5.09    1.21
   4  -2   6    6.98    1.35
  -4   2  -6    8.33    1.32
  -4   2  -6    7.58    1.09
  -4  -2  -6    9.12    1.13
   5   2   6    0.20    0.87
   5  -2   6   -0.40    0.81
  -5   2  -6    0.41    0.87
  -5   2  -6    0.36    0.56
  -5  -2  -6    0.12    0.46
 -10   3   6    3.12    0.60
 -10  -3   6    5.79    0.89
  10   3  -6    6.35    1.34
  10  -3  -6    5.72    1.35
  -9  -3   6    8.76    1.35
  -9  -3   6    6.99    0.79
   9   3  -6    6.78    1.35
   9  -3  -6    7.09    1.41
  -8   3   6    9.21    1.12
  -8  -3   6    8.39    1.23
  -8  -3   6    7.13    0.73
   8   3  -6    6.96    1.30
   8   3  -6    8.03    1.28
   8  -3  -6    8.22    1.35
  -7   3   6    1.77    0.71
  -7  -3   6    2.65    0.95
  -7  -3   6    1.83    0.55
   7   3  -6    1.75    0.95
   7   3  -6    1.69    0.82
   7  -3  -6    1.75    0.92
   7  -3  -6    2.09    0.73
  -6   3   6    2.62    0.73
  -6   3   6    2.79    0.85
   6   3  -6    1.76    0.82
   6   3  -6    2.22    0.79
   6  -3  -6    1.99    0.85
   6  -3  -6    2.21    0.72
  -5   3   6    7.36    0.93
  -5   3   6    7.62    0.96
   5   3  -6    6.25    0.98
   5   3  -6    7.34    0.90
   5  -3  -6    5.52    0.82
   5  -3  -6    5.21    0.93
   5  -3  -6    6.04    0.90
  -4   3   6    0.62    0.59
  -4   3   6    0.30    0.57
  -4  -3   6    0.51    0.43
  -4  -3   6    0.30    0.37
   4   3  -6    0.85    0.60
   4  -3  -6    0.81    0.54
   4  -3  -6    0.10    0.57
   4  -3  -6    0.16    0.60
  -3   3   6   56.73    1.74
  -3   3   6   55.57    2.01
  -3  -3   6   57.42    1.74
  -3  -3   6   54.99    1.32
   3   3  -6   58.93    2.09
   3  -3  -6   60.11    1.67
   3  -3  -6   54.66    2.01
  -2   3   6    0.19    0.46
  -2   3   6   -0.22    0.51
  -2   3   6    0.27    0.32
  -2  -3   6   -0.07    0.44
  -2  -3   6   -0.09    0.39
   2   3  -6    0.25    0.54
   2  -3  -6   -0.12    0.59
  -1   3   6    6.15    0.94
  -1   3   6    7.26    0.76
  -1  -3   6    6.77    0.86
  -1  -3   6    6.05    0.73
   1   3  -6    7.82    1.00
   1   3  -6    6.44    0.70
   0   3   6    0.82    0.62
   0   3   6    0.19    0.49
   0  -3   6   -0.33    0.46
   0  -3   6    0.35    0.47
   0   3  -6    0.60    0.61
   0   3  -6    0.61    0.45
   0  -3  -6    1.10    0.53
   1   3   6    2.01    0.83
   1   3   6    1.34    0.64
   1  -3   6    1.04    0.66
   1  -3   6    1.76    0.61
  -1   3  -6    2.40    0.78
  -1   3  -6    1.40    0.58
  -1  -3  -6    1.57    0.64
   2   3   6   71.51    2.69
   2   3   6   74.10    2.31
   2  -3   6   68.20    2.59
   2  -3   6   68.23    2.23
  -2   3  -6   74.48    2.62
  -2   3  -6   77.18    2.30
  -2  -3  -6   77.30    2.25
   3   3   6    1.13    0.90
   3   3   6    1.58    0.71
   3  -3   6    0.71    0.79
   3  -3   6    0.81    0.66
  -3   3  -6    0.59    0.83
  -3   3  -6    1.47    0.64
  -3  -3  -6    1.10    0.67
   4   3   6    4.25    1.17
   4  -3   6    3.88    1.15
  -4   3  -6    4.72    1.18
  -4   3  -6    4.73    0.92
  -4  -3  -6    3.55    0.91
   5   3   6    3.37    1.08
   5  -3   6    1.61    1.03
  -5   3  -6    2.28    1.06
  -5   3  -6    1.43    0.74
  -5  -3  -6    2.70    0.80
  -9   4   6    1.24    0.51
  -9  -4   6    3.17    1.02
  -9  -4   6    2.56    0.67
   9   4  -6    2.45    1.14
   9   4  -6    3.48    1.19
   9  -4  -6    3.49    1.20
  -8   4   6    8.94    1.11
  -8   4   6    9.42    1.26
  -8  -4   6    7.07    1.25
   8   4  -6    8.63    1.40
   8   4  -6    7.19    1.26
   8  -4  -6    7.27    1.31
   8  -4  -6    6.71    1.05
  -7   4   6    5.94    0.93
  -7   4   6    5.97    1.09
  -7  -4   6    6.29    1.16
  -7  -4   6    5.34    0.72
   7   4  -6    5.96    1.15
   7   4  -6    6.66    1.10
   7  -4  -6    7.22    1.25
   7  -4  -6    6.95    1.04
  -6   4   6    8.65    0.93
  -6   4   6    8.67    1.14
  -6  -4   6    6.06    0.68
   6   4  -6    5.77    1.06
   6   4  -6    7.58    1.02
   6  -4  -6    7.17    1.14
   6  -4  -6    8.05    1.03
  -5   4   6    1.63    0.63
  -5   4   6    1.89    0.72
  -5  -4   6    2.44    0.52
   5   4  -6    1.94    0.80
   5   4  -6    1.85    0.67
   5  -4  -6    1.93    0.78
   5  -4  -6    1.84    0.75
  -4   4   6   15.68    1.04
  -4   4   6   15.25    1.16
  -4  -4   6   13.21    0.79
   4   4  -6   14.43    1.26
   4  -4  -6   16.13    1.25
  -3   4   6   -0.36    0.48
  -3   4   6   -0.26    0.54
  -3  -4   6   -0.30    0.39
  -3  -4   6    0.30    0.39
   3   4  -6    0.13    0.58
   3  -4  -6    0.41    0.65
  -2   4   6   23.62    1.23
  -2   4   6   27.04    1.55
  -2   4   6   23.73    0.95
  -2  -4   6   23.90    1.30
  -2  -4   6   19.83    1.02
   2   4  -6   22.64    1.46
   2   4  -6   22.35    0.99
   2  -4  -6   29.21    1.62
  -1   4   6   40.30    1.86
  -1   4   6   38.03    1.32
  -1  -4   6   38.54    1.68
  -1  -4   6   34.89    1.36
   1   4  -6   39.34    1.84
   1   4  -6   35.89    1.30
   0   4   6   28.34    1.72
   0   4   6   30.20    1.36
   0  -4   6   31.06    1.63
   0  -4   6   27.64    1.33
   0   4  -6   32.01    1.74
   0   4  -6   29.56    1.32
   0  -4  -6   30.26    1.27
   1   4   6    2.94    0.95
   1   4   6    3.13    0.77
   1  -4   6    3.17    0.86
   1  -4   6    2.31    0.71
  -1   4  -6    3.11    0.90
  -1   4  -6    3.94    0.73
  -1  -4  -6    2.96    0.68
   2   4   6    0.20    0.78
   2   4   6   -0.18    0.57
   2  -4   6    0.21    0.70
   2  -4   6    0.04    0.57
  -2   4  -6    0.15    0.73
  -2   4  -6    0.55    0.54
  -2  -4  -6    0.19    0.58
   3   4   6    0.61    0.83
   3   4   6    0.12    0.60
   3  -4   6    0.39    0.64
   3  -4   6   -0.24    0.61
  -3   4  -6   -0.11    0.74
  -3   4  -6   -0.02    0.53
  -3  -4  -6    0.01    0.58
   4   4   6    7.69    1.33
   4  -4   6    7.97    1.25
  -4   4  -6    8.72    1.43
  -4   4  -6    9.11    1.14
  -4  -4  -6    6.34    1.03
  -9   5   6    0.77    0.75
  -9   5   6   -0.38    0.35
  -9  -5   6    0.20    0.93
  -9  -5   6    0.03    0.64
   9   5  -6    0.48    0.94
   9   5  -6    0.12    1.03
   9  -5  -6    1.04    1.06
  -8   5   6    5.98    0.98
  -8   5   6    6.54    1.15
  -8  -5   6    5.94    1.24
   8   5  -6    6.74    1.34
   8   5  -6    6.27    1.19
   8  -5  -6    5.41    1.26
   8  -5  -6    4.42    0.96
  -7   5   6    2.50    0.74
  -7   5   6    2.56    0.93
  -7  -5   6    2.06    0.87
  -7  -5   6    2.95    0.62
   7   5  -6    3.10    1.02
   7   5  -6    2.79    0.92
   7  -5  -6    3.17    1.06
   7  -5  -6    2.38    0.83
  -6   5   6   22.28    1.58
  -6  -5   6   17.50    0.99
   6   5  -6   20.40    1.60
   6   5  -6   21.43    1.47
   6  -5  -6   21.52    1.63
   6  -5  -6   18.83    1.40
  -5   5   6    2.81    0.84
  -5  -5   6    2.84    0.59
   5   5  -6    2.96    0.89
   5   5  -6    1.89    0.64
   5  -5  -6    2.31    0.82
  -4   5   6    0.78    0.60
  -4  -5   6    0.27    0.46
   4   5  -6    1.40    0.71
   4  -5  -6    0.26    0.64
  -3   5   6    1.57    0.60
  -3   5   6    1.53    0.69
  -3   5   6    1.61    0.42
  -3  -5   6    1.08    0.48
  -3  -5   6    1.46    0.55
   3   5  -6    1.87    0.75
   3  -5  -6    1.83    0.77
  -2   5   6    0.84    0.54
  -2   5   6    0.42    0.58
  -2   5   6    0.25    0.40
  -2  -5   6   -0.13    0.41
  -2  -5   6    0.36    0.49
   2   5  -6    0.42    0.66
   2   5  -6    0.16    0.48
   2  -5  -6    0.33    0.71
  -1   5   6    0.33    0.51
  -1   5   6    0.32    0.67
  -1   5   6    0.75    0.51
  -1  -5   6    0.87    0.54
  -1  -5   6    0.43    0.53
   1   5  -6    0.57    0.67
   1   5  -6    0.89    0.48
   1  -5  -6    0.78    0.48
   1  -5  -6    0.36    0.71
   0   5   6    6.02    1.10
   0   5   6    7.50    0.92
   0  -5   6    6.55    0.94
   0  -5   6    6.58    0.88
   0   5  -6    8.38    1.17
   0   5  -6    7.21    0.86
   0  -5  -6    6.85    0.85
   1   5   6    0.56    0.80
   1   5   6    0.82    0.65
   1  -5   6    0.46    0.69
   1  -5   6    1.00    0.62
  -1   5  -6    1.06    0.79
  -1   5  -6    0.48    0.50
  -1  -5  -6    0.73    0.59
   2   5   6   11.62    1.41
   2   5   6   11.00    1.15
   2  -5   6   12.06    1.37
   2  -5   6    9.33    1.07
  -2   5  -6   11.16    1.40
  -2   5  -6   11.27    1.11
  -2  -5  -6   11.71    1.08
   3   5   6    5.60    1.20
   3   5   6    4.12    0.97
   3  -5   6    3.92    1.01
  -3   5  -6    4.68    1.18
  -3   5  -6    5.50    0.91
  -3  -5  -6    4.36    0.88
   4   5   6    0.09    0.84
   4  -5   6    0.69    0.80
  -4   5  -6    0.02    0.86
  -4   5  -6    0.16    0.51
  -4  -5  -6    0.61    0.59
  -9   6   6    1.02    0.76
  -9   6   6    0.86    0.50
  -9  -6   6    1.45    1.04
  -9  -6   6    1.99    0.81
   9   6  -6    2.22    1.13
   9  -6  -6    2.10    1.15
   9  -6  -6    1.49    0.90
  -8   6   6    0.51    0.77
  -8   6   6   -0.08    0.40
  -8  -6   6   -0.08    0.91
   8   6  -6   -0.14    0.78
   8   6  -6    0.58    0.91
   8  -6  -6   -0.55    0.93
   8  -6  -6    0.43    0.72
  -7   6   6   12.84    1.37
  -7  -6   6   12.37    1.54
  -7  -6   6   10.26    1.00
   7   6  -6   11.62    1.43
   7   6  -6   13.15    1.41
   7  -6  -6   11.75    1.47
   7  -6  -6   10.89    1.26
  -6   6   6   11.02    1.27
  -6  -6   6    8.11    0.87
   6   6  -6    8.10    1.24
   6   6  -6   11.17    1.22
   6  -6  -6    9.92    1.31
   6  -6  -6   10.09    1.24
  -5   6   6   26.23    1.62
  -5  -6   6   21.87    1.16
   5   6  -6   22.90    1.63
   5  -6  -6   24.40    1.59
  -4   6   6   26.59    1.55
  -4  -6   6   20.54    1.12
   4   6  -6   22.76    1.58
   4  -6  -6   20.69    1.50
  -3   6   6    0.31    0.57
  -3   6   6    0.48    0.60
  -3   6   6    1.20    0.45
  -3  -6   6    0.83    0.57
   3   6  -6    1.27    0.79
   3  -6  -6    1.24    0.80
  -2   6   6    1.68    0.63
  -2   6   6    1.84    0.76
  -2   6   6    1.83    0.52
  -2  -6   6    0.77    0.53
  -2  -6   6    1.83    0.63
   2   6  -6    0.56    0.74
   2   6  -6    0.97    0.56
   2  -6  -6    1.72    0.86
  -1   6   6    3.18    0.72
  -1   6   6    3.28    0.93
  -1   6   6    4.20    0.74
  -1  -6   6    2.29    0.66
  -1  -6   6    3.05    0.71
   1   6  -6    3.81    0.98
   1   6  -6    3.88    0.68
   1  -6  -6    3.60    0.68
   1  -6  -6    4.10    0.96
   0   6   6    0.41    0.78
   0   6   6    0.74    0.64
   0  -6   6    1.40    0.66
   0  -6   6    0.65    0.60
   0   6  -6    0.57    0.81
   0   6  -6    0.87    0.54
   0  -6  -6    0.70    0.58
   1   6   6    2.84    0.98
   1   6   6    2.44    0.77
   1  -6   6    2.90    0.82
   1  -6   6    1.88    0.71
  -1   6  -6    2.15    0.90
  -1   6  -6    2.45    0.69
  -1  -6  -6    3.34    0.76
   2   6   6    0.41    0.81
   2   6   6    0.63    0.70
   2  -6   6    0.23    0.69
   2  -6   6    0.54    0.67
  -2   6  -6    0.14    0.81
  -2   6  -6    0.15    0.56
  -2  -6  -6    0.56    0.65
   3   6   6    1.37    0.92
   3   6   6    1.25    0.73
   3  -6   6    0.39    0.75
  -3   6  -6    1.56    0.98
  -3   6  -6    1.56    0.64
  -3  -6  -6    0.90    0.65
   4   6   6   -0.64    0.78
   4  -6   6    0.73    0.75
  -4   6  -6    0.27    0.95
  -4   6  -6   -0.11    0.49
  -4  -6  -6    0.16    0.52
  -9   7   6    1.23    0.67
  -9   7   6    0.30    0.38
  -9  -7   6   -0.30    0.90
  -9  -7   6    0.61    0.70
   9   7  -6    0.43    1.03
   9  -7  -6   -0.49    0.95
   9  -7  -6   -0.85    0.71
  -8   7   6    0.04    0.69
  -8   7   6    0.33    0.45
  -8  -7   6    0.25    0.96
  -8  -7   6    0.09    0.66
   8   7  -6    0.59    0.73
   8   7  -6    0.47    0.96
   8  -7  -6    0.00    0.99
   8  -7  -6    0.21    0.74
  -7   7   6   34.53    2.02
  -7  -7   6   26.71    1.42
   7   7  -6   32.52    1.97
   7  -7  -6   31.71    2.05
   7  -7  -6   27.34    1.80
  -6   7   6   16.77    1.52
  -6  -7   6   14.87    1.11
   6   7  -6   16.41    1.47
   6  -7  -6   15.06    1.42
  -5   7   6    0.30    0.70
  -5   7   6   -0.11    0.41
  -5  -7   6    0.12    0.61
   5   7  -6    0.06    0.73
   5  -7  -6   -0.41    0.69
  -4   7   6   -0.08    0.66
  -4   7   6    0.03    0.44
  -4  -7   6    0.25    0.58
   4   7  -6    0.49    0.76
   4   7  -6    0.36    0.57
   4  -7  -6    0.22    0.77
  -3   7   6   19.26    1.37
  -3   7   6   15.93    0.93
  -3  -7   6   14.97    1.10
   3   7  -6   16.34    1.50
   3  -7  -6   13.93    1.38
  -2   7   6    6.21    0.95
  -2   7   6    7.70    1.17
  -2   7   6    6.16    0.81
  -2  -7   6    5.21    0.87
   2   7  -6    6.59    1.14
   2   7  -6    5.58    0.75
   2  -7  -6    6.26    1.12
  -1   7   6   21.40    1.36
  -1   7   6   21.28    1.63
  -1   7   6   19.21    1.19
  -1  -7   6   20.83    1.33
  -1  -7   6   17.58    1.24
   1   7  -6   21.01    1.66
   1   7  -6   20.23    1.18
   1  -7  -6   19.10    1.07
   1  -7  -6   20.38    1.50
   0   7   6   33.90    1.98
   0   7   6   33.26    1.56
   0  -7   6   34.51    1.78
   0  -7   6   28.26    1.52
   0   7  -6   32.78    1.99
   0   7  -6   33.76    1.55
   0  -7  -6   32.77    1.39
   1   7   6    1.68    1.02
   1   7   6    1.96    0.78
   1  -7   6    1.12    0.71
   1  -7   6    0.77    0.69
  -1   7  -6    1.12    0.86
  -1   7  -6    1.74    0.67
  -1  -7  -6    1.36    0.65
   2   7   6    0.99    0.86
   2   7   6    0.36    0.67
   2  -7   6    0.75    0.73
   2  -7   6   -0.27    0.57
  -2   7  -6    0.93    0.90
  -2   7  -6    0.42    0.56
  -2  -7  -6   -0.26    0.56
   3   7   6    4.91    1.19
   3   7   6    5.24    1.05
   3  -7   6    4.41    1.00
  -3   7  -6    6.60    1.35
  -3   7  -6    4.88    0.90
  -3  -7  -6    5.81    0.92
   4   7   6   -0.35    0.85
   4  -7   6    0.66    0.62
  -4   7  -6    0.55    0.91
  -4   7  -6    0.13    0.47
  -4  -7  -6   -0.30    0.53
  -8   8   6    3.75    1.04
  -8   8   6    1.40    0.49
  -8  -8   6    2.57    1.21
  -8  -8   6    1.68    0.82
   8   8  -6    3.30    0.94
   8   8  -6    1.86    0.98
   8  -8  -6    2.74    1.00
  -7   8   6    1.79    0.88
  -7   8   6    0.91    0.50
  -7  -8   6    1.54    0.76
   7   8  -6    1.44    0.83
   7   8  -6    1.10    0.92
   7  -8  -6    0.82    0.83
  -6   8   6    2.84    0.95
  -6   8   6    2.33    0.58
  -6  -8   6    3.09    0.82
   6   8  -6    2.69    0.92
   6   8  -6    3.06    0.70
   6  -8  -6    1.56    0.86
  -5   8   6   30.57    1.83
  -5  -8   6   22.44    1.33
   5   8  -6   27.24    1.75
   5   8  -6   29.34    1.28
   5  -8  -6   23.49    1.69
  -4   8   6   12.71    1.31
  -4   8   6   11.09    0.86
  -4  -8   6    9.78    1.04
   4   8  -6   11.19    1.26
   4   8  -6   11.68    1.03
   4  -8  -6   10.74    1.34
  -3   8   6    0.15    0.71
  -3   8   6    0.51    0.49
  -3  -8   6    0.46    0.65
   3   8  -6   -0.06    0.68
   3  -8  -6   -0.08    0.75
  -2   8   6   17.50    1.38
  -2   8   6   16.25    1.55
  -2   8   6   17.49    1.14
  -2  -8   6   15.85    1.20
   2   8  -6   16.75    1.51
   2   8  -6   16.95    1.12
   2  -8  -6   14.76    1.36
  -1   8   6   10.60    1.19
  -1   8   6   12.69    1.40
  -1   8   6   10.69    1.04
  -1  -8   6   12.16    1.12
  -1  -8   6    9.52    1.11
   1   8  -6   10.43    1.34
   1   8  -6   10.47    1.00
   1  -8  -6   10.14    0.92
   1  -8  -6   10.91    1.23
   0   8   6   13.70    1.23
   0   8   6   12.11    1.48
   0   8   6   11.93    1.16
   0  -8   6   13.81    1.28
   0  -8   6   11.04    1.18
   0   8  -6   12.59    1.46
   0   8  -6   13.25    1.15
   0  -8  -6   12.80    1.00
   1   8   6    0.84    0.87
   1   8   6    0.16    0.68
   1  -8   6    0.02    0.65
   1  -8   6    0.11    0.67
  -1   8  -6    0.74    0.86
  -1   8  -6    0.00    0.51
  -1  -8  -6    1.00    0.64
   2   8   6    0.90    0.92
   2   8   6    0.44    0.73
   2  -8   6    0.83    0.71
  -2   8  -6    1.56    1.04
  -2   8  -6    0.88    0.64
  -2  -8  -6    0.87    0.61
   3   8   6    7.57    1.32
   3   8   6   10.44    1.37
   3  -8   6    7.15    1.12
  -3   8  -6   11.94    1.65
  -3   8  -6   10.73    1.15
  -3  -8  -6    8.93    1.03
  -8   9   6    3.01    0.93
  -8   9   6    0.92    0.49
  -8  -9   6    2.08    1.14
  -8  -9   6    2.14    0.83
   8   9  -6    0.75    0.68
   8   9  -6    1.48    1.06
   8  -9  -6    2.24    0.99
  -7   9   6    0.56    0.72
  -7   9   6    1.18    0.55
  -7  -9   6    0.50    0.70
   7   9  -6    1.35    0.80
   7   9  -6    0.78    0.70
   7   9  -6    0.71    0.86
   7  -9  -6    1.44    0.86
  -6   9   6   -0.44    0.65
  -6   9   6   -0.33    0.46
  -6  -9   6   -0.13    0.62
   6   9  -6    0.29    0.71
   6   9  -6    0.04    0.65
   6  -9  -6    0.29    0.79
  -5   9   6   18.31    1.58
  -5  -9   6   13.41    1.22
   5   9  -6   14.00    1.37
   5   9  -6   15.57    1.13
   5  -9  -6   12.75    1.40
  -4   9   6    4.04    0.98
  -4   9   6    2.09    0.57
  -4  -9   6    3.14    0.87
   4   9  -6    3.37    0.89
   4   9  -6    4.16    0.83
   4  -9  -6    3.95    1.05
  -3   9   6   51.81    2.25
  -3   9   6   47.31    1.66
  -3  -9   6   44.87    1.83
   3   9  -6   49.99    2.28
   3  -9  -6   44.93    2.20
  -2   9   6    9.46    1.19
  -2   9   6    9.46    1.36
  -2   9   6    8.42    0.98
  -2  -9   6    8.25    1.11
   2   9  -6    8.70    1.23
   2   9  -6    8.43    0.94
   2  -9  -6    7.84    1.18
  -1   9   6    0.21    0.66
  -1   9   6   -0.23    0.81
  -1   9   6    0.45    0.68
  -1  -9   6   -0.28    0.68
   1   9  -6    1.08    0.74
   1   9  -6    0.29    0.55
   1  -9  -6    0.40    0.63
   1  -9  -6    0.00    0.67
   0   9   6    2.48    0.77
   0   9   6    1.21    0.93
   0   9   6    2.47    0.86
   0  -9   6    1.23    0.65
   0  -9   6    1.47    0.81
   0   9  -6    2.41    0.97
   0   9  -6    3.07    0.80
   0  -9  -6    2.38    0.68
   1   9   6    6.95    1.30
   1   9   6    4.15    1.02
   1  -9   6    4.20    0.93
   1  -9   6    4.38    1.04
  -1   9  -6    6.20    1.29
  -1   9  -6    4.47    0.88
  -1  -9  -6    5.51    0.86
   2   9   6   11.95    1.53
   2   9   6   11.90    1.35
   2  -9   6    7.88    1.16
  -2   9  -6   11.52    1.57
  -2   9  -6   10.44    1.13
  -2  -9  -6   10.38    1.05
   3   9   6   10.29    1.48
  -3   9  -6   10.36    1.54
  -3   9  -6    7.13    1.03
  -3  -9  -6    8.22    1.07
  -7  10   6    0.31    0.68
  -7  10   6    0.21    0.40
  -7 -10   6   -0.68    0.69
   7  10  -6   -0.02    0.67
   7  10  -6   -0.33    0.69
   7 -10  -6   -0.44    0.77
  -6  10   6   14.80    1.48
  -6  10   6   14.39    1.01
  -6 -10   6   12.62    1.25
   6  10  -6   14.10    1.38
   6  10  -6   14.98    1.19
   6 -10  -6   11.75    1.53
  -5  10   6    3.86    0.97
  -5 -10   6    3.59    0.90
   5  10  -6    3.52    0.97
   5  10  -6    4.98    0.84
   5 -10  -6    3.47    1.03
  -4  10   6   31.50    1.93
  -4 -10   6   26.92    1.57
   4  10  -6   29.12    1.86
   4  10  -6   30.96    1.50
   4 -10  -6   27.72    1.89
  -3  10   6    2.63    0.96
  -3  10   6    2.06    0.76
  -3 -10   6    1.87    0.83
   3  10  -6    2.26    0.86
   3 -10  -6    2.58    0.86
  -2  10   6    9.68    1.27
  -2  10   6   12.68    1.55
  -2  10   6    9.04    1.07
  -2 -10   6    9.32    1.16
   2  10  -6   11.42    1.34
   2  10  -6    9.91    1.02
   2 -10  -6    8.93    0.92
   2 -10  -6   12.29    1.29
  -1  10   6    7.74    1.13
  -1  10   6    9.48    1.40
  -1  10   6    7.58    1.08
  -1 -10   6    6.41    1.09
   1  10  -6    6.68    1.19
   1  10  -6    6.51    0.95
   1 -10  -6    7.26    0.99
   1 -10  -6    7.90    1.18
   0  10   6   -0.03    0.64
   0  10   6    0.66    0.92
   0  10   6    0.91    0.76
   0 -10   6    0.45    0.80
   0  10  -6   -0.39    0.74
   0  10  -6    0.85    0.63
   0 -10  -6    1.11    0.64
   0 -10  -6    0.22    0.62
   1  10   6   20.68    1.83
   1  10   6   21.65    1.61
   1 -10   6   20.24    1.55
  -1  10  -6   20.84    1.71
  -1  10  -6   22.00    1.47
  -1 -10  -6   16.58    1.23
   2  10   6    3.28    1.12
   2  10   6    3.22    1.00
   2 -10   6    2.44    0.85
  -2  10  -6    3.36    0.92
  -2  10  -6    2.55    0.73
  -2 -10  -6    2.40    0.73
  -7  11   6    0.31    0.70
  -7  11   6    1.09    0.63
  -7 -11   6   -0.07    0.70
   7  11  -6   -0.05    0.65
   7 -11  -6    0.47    0.80
  -6  11   6   -0.76    0.62
  -6  11   6    0.11    0.63
  -6 -11   6    0.09    0.73
   6  11  -6    0.41    0.57
   6 -11  -6   -0.10    0.81
  -5  11   6   -0.59    0.59
  -5  11   6   -0.06    0.65
  -5 -11   6   -0.20    0.69
   5  11  -6    0.83    0.69
   5  11  -6    0.06    0.54
   5 -11  -6    0.21    0.81
  -4  11   6    0.17    0.70
  -4  11   6   -0.21    0.68
  -4 -11   6   -0.03    0.77
   4  11  -6   -0.48    0.59
   4  11  -6    0.31    0.65
   4 -11  -6    0.04    0.62
  -3  11   6    4.23    1.10
  -3  11   6    4.51    0.97
  -3 -11   6    2.99    0.95
   3  11  -6    3.53    1.00
   3 -11  -6    3.64    0.93
  -2  11   6    5.86    1.10
  -2  11   6    6.37    1.33
  -2  11   6    5.93    1.03
  -2 -11   6    3.67    1.01
   2  11  -6    8.36    1.30
   2  11  -6    4.50    0.83
   2 -11  -6    4.02    0.87
   2 -11  -6    6.80    1.17
  -1  11   6    0.97    0.72
  -1  11   6   -0.05    0.89
  -1  11   6    1.56    0.84
  -1 -11   6    0.81    0.79
   1  11  -6    0.52    0.84
   1  11  -6    0.62    0.59
   1 -11  -6    0.43    0.66
   1 -11  -6    0.82    0.69
   0  11   6    3.40    0.84
   0  11   6    3.64    1.19
   0  11   6    2.43    0.93
   0 -11   6    1.49    0.89
   0  11  -6    3.07    0.95
   0  11  -6    2.11    0.72
   0 -11  -6    1.68    0.68
   0 -11  -6    2.64    0.87
   1  11   6    5.89    1.34
   1  11   6    6.09    1.15
  -1  11  -6    5.29    1.16
  -1  11  -6    4.78    0.91
  -1 -11  -6    5.78    0.91
   2  11   6    1.69    1.05
   2  11   6    2.61    1.05
  -2  11  -6    2.74    0.80
  -2 -11  -6    3.08    0.70
  -6  12   6   -0.05    0.61
  -6  12   6    0.22    0.67
  -6 -12   6   -0.38    0.71
   6  12  -6    0.46    0.50
   6 -12  -6   -0.50    0.70
  -5  12   6   -0.28    0.71
  -5  12   6   -0.20    0.68
  -5 -12   6   -0.27    0.74
   5  12  -6   -0.02    0.59
   5 -12  -6   -0.49    0.75
  -4  12   6    3.37    0.97
  -4  12   6    1.66    0.83
  -4 -12   6    1.34    0.86
   4  12  -6    2.44    0.76
   4 -12  -6    1.27    0.75
  -3  12   6    0.39    0.76
  -3  12   6    0.37    0.77
  -3 -12   6   -0.29    0.74
   3  12  -6   -0.25    0.53
   3  12  -6   -0.09    0.58
   3 -12  -6    0.29    0.64
  -2  12   6   20.95    1.66
  -2  12   6   22.24    1.94
  -2  12   6   20.80    1.49
  -2 -12   6   16.95    1.50
   2  12  -6   22.35    1.68
   2  12  -6   21.11    1.38
   2 -12  -6   16.78    1.21
   2 -12  -6   20.77    1.60
  -1  12   6    2.47    0.88
  -1  12   6    3.36    1.16
  -1  12   6    4.02    1.05
  -1 -12   6    2.95    0.99
   1  12  -6    3.84    0.98
   1  12  -6    2.89    0.75
   1 -12  -6    2.92    0.72
   1 -12  -6    2.70    0.89
   0  12   6    2.74    0.80
   0  12   6    2.99    1.18
   0  12   6    2.74    1.02
   0  12  -6    2.89    0.72
   0 -12  -6    2.26    0.69
   0 -12  -6    1.40    0.75
   1  12   6    7.94    1.46
   1  12   6    8.51    1.33
  -1  12  -6    9.24    1.05
  -1 -12  -6    7.39    0.95
  -4  13   6    2.88    0.97
  -4  13   6    2.29    0.88
  -4 -13   6    1.48    0.94
   4  13  -6    4.42    0.86
   4 -13  -6    1.68    0.71
  -3  13   6    0.92    0.78
  -3  13   6    1.28    0.82
  -3 -13   6    1.82    0.95
   3  13  -6    2.40    0.84
   3 -13  -6    1.93    0.79
  -2  13   6   -0.08    0.63
  -2  13   6    1.01    1.05
  -2  13   6    0.05    0.77
  -2 -13   6    0.15    0.84
   2  13  -6    0.50    0.53
   2 -13  -6    0.78    0.69
   2 -13  -6   -0.40    0.51
  -1  13   6    0.10    0.62
  -1  13   6    0.11    0.99
  -1  13   6    0.43    0.88
   1  13  -6    0.94    0.62
   1 -13  -6    0.50    0.46
   1 -13  -6    0.94    0.74
   9   0  -7   -0.46    0.96
  -8   0   7   -0.35    0.64
   8   0  -7   -0.83    0.72
   8   0  -7   -0.01    0.87
  -7   0   7    0.13    0.70
   7   0  -7    0.33    0.80
   7   0  -7    0.03    0.76
  -6   0   7   -1.01    0.64
   6   0  -7    0.22    0.68
   6   0  -7   -0.47    0.65
  -5   0   7   -0.32    0.48
   5   0  -7    0.14    0.60
   5   0  -7    0.40    0.59
  -4   0   7    0.13    0.49
   4   0  -7   -0.07    0.55
  -3   0   7   -0.40    0.52
   3   0  -7   -0.05    0.47
  -2   0   7    0.46    0.56
  -2   0   7   -0.14    0.42
   2   0  -7   -0.11    0.48
  -1   0   7   -0.60    0.51
  -1   0   7   -0.18    0.51
   1   0  -7    0.19    0.53
   0   0   7   -0.71    0.54
   0   0   7    0.24    0.56
   0   0  -7    0.46    0.55
   0   0  -7    0.02    0.48
   1   0   7    0.15    0.66
   1   0   7   -0.15    0.50
  -1   0  -7    0.06    0.49
  -1   0  -7   -0.45    0.44
   2   0   7   -0.39    0.56
   2   0   7    0.17    0.59
  -2   0  -7    0.37    0.56
   3   0   7   -0.45    0.79
   3   0   7    0.27    0.62
  -3   0  -7   -0.52    0.50
   9   1  -7    0.35    0.95
   9  -1  -7    0.15    1.01
  -8   1   7   -0.60    0.60
  -8  -1   7    0.95    0.75
   8   1  -7    0.41    0.91
   8   1  -7    0.61    0.86
   8  -1  -7    0.65    0.93
  -7   1   7   10.11    1.21
  -7  -1   7   11.46    1.38
   7   1  -7    8.92    1.27
   7   1  -7    9.06    1.20
   7  -1  -7    9.99    1.27
   7  -1  -7   10.93    1.31
  -6   1   7    5.29    1.02
  -6   1   7    4.30    0.81
   6   1  -7    3.93    0.95
   6   1  -7    5.01    0.97
   6  -1  -7    4.70    0.94
   6  -1  -7    6.23    1.00
  -5   1   7    3.42    0.72
  -5   1   7    4.63    0.85
  -5  -1   7    3.40    0.68
   5   1  -7    3.36    0.86
   5  -1  -7    3.51    0.82
   5  -1  -7    3.80    0.83
   5  -1  -7    4.20    0.86
  -4   1   7   54.86    2.04
  -4  -1   7   50.82    1.85
   4   1  -7   49.35    1.96
   4  -1  -7   52.67    1.91
  -3   1   7   11.98    1.16
  -3  -1   7   12.37    1.08
   3   1  -7   11.24    1.12
   3  -1  -7   10.61    1.00
  -2   1   7   -0.37    0.51
  -2   1   7    0.12    0.42
  -2  -1   7    0.57    0.57
  -2  -1   7    0.03    0.40
   2   1  -7   -0.48    0.48
   2  -1  -7   -0.10    0.47
  -1   1   7    2.53    0.81
  -1   1   7    2.17    0.65
  -1  -1   7    2.76    0.80
  -1  -1   7    2.54    0.63
   1   1  -7    2.47    0.73
   1   1  -7    2.75    0.59
   0   1   7   17.82    1.48
   0   1   7   18.33    1.23
   0  -1   7   19.66    1.54
   0  -1   7   18.36    1.18
   0   1  -7   18.49    1.39
   0   1  -7   18.34    1.10
   0  -1  -7   17.56    1.11
   1   1   7    0.42    0.66
   1   1   7    0.83    0.66
   1  -1   7    1.44    0.77
   1  -1   7    0.75    0.60
  -1   1  -7    1.13    0.67
  -1   1  -7    1.16    0.55
  -1  -1  -7    1.10    0.60
   2   1   7    3.07    1.05
   2   1   7    2.98    0.85
   2  -1   7    5.25    1.09
   2  -1   7    2.89    0.77
  -2   1  -7    3.96    0.94
  -2   1  -7    3.86    0.80
  -2  -1  -7    3.15    0.76
   3   1   7    0.61    0.89
   3   1   7   -0.33    0.57
   3  -1   7   -0.20    0.77
   3  -1   7   -0.69    0.53
  -3   1  -7    0.04    0.49
  -3  -1  -7   -0.72    0.44
  -9  -2   7    0.90    0.76
   9   2  -7    0.52    0.93
   9  -2  -7   -0.16    1.02
  -8   2   7    0.49    0.67
  -8  -2   7   -0.21    0.65
   8   2  -7    0.48    0.89
   8   2  -7   -0.65    0.73
   8  -2  -7   -0.14    0.86
  -7   2   7   15.92    1.39
  -7  -2   7   17.67    1.57
   7   2  -7   15.29    1.51
   7   2  -7   17.16    1.44
   7  -2  -7   14.41    1.36
   7  -2  -7   15.61    1.52
  -6   2   7    6.98    1.08
  -6   2   7    6.58    1.00
  -6   2   7    5.51    0.96
   6   2  -7    4.98    1.05
   6  -2  -7    6.01    0.99
   6  -2  -7    5.41    1.01
   6  -2  -7    3.95    0.85
  -5   2   7    2.11    0.76
  -5   2   7    1.59    0.69
  -5   2   7    1.62    0.69
   5   2  -7    0.89    0.72
   5  -2  -7    0.93    0.63
   5  -2  -7    0.79    0.69
   5  -2  -7    1.24    0.71
  -4   2   7    6.87    0.99
  -4  -2   7    4.45    0.75
   4   2  -7    5.02    0.90
   4  -2  -7    5.66    0.85
   4  -2  -7    4.30    0.92
  -3   2   7    2.81    0.79
  -3  -2   7    1.96    0.63
  -3  -2   7    1.70    0.48
   3   2  -7    1.86    0.68
  -2   2   7   10.33    1.18
  -2   2   7    9.04    0.77
  -2  -2   7   10.10    1.07
  -2  -2   7    8.81    0.76
   2   2  -7    8.76    1.08
  -1   2   7   10.62    1.22
  -1   2   7   11.06    0.96
  -1  -2   7   12.66    1.26
  -1  -2   7   10.53    0.93
   1   2  -7   12.51    1.25
   1   2  -7   11.44    0.88
   0   2   7    9.58    1.26
   0   2   7    8.21    1.00
   0  -2   7    9.16    1.16
   0  -2   7    7.76    0.91
   0   2  -7    9.92    1.18
   0   2  -7    7.06    0.84
   0  -2  -7    8.38    0.93
   1   2   7    1.25    0.75
   1   2   7    0.29    0.65
   1  -2   7    0.48    0.67
   1  -2   7   -0.54    0.52
  -1   2  -7    0.10    0.60
  -1   2  -7    0.26    0.47
  -1  -2  -7    0.26    0.53
   2   2   7   -0.39    0.86
   2   2   7   -0.64    0.59
   2  -2   7    0.21    0.66
   2  -2   7    0.00    0.55
  -2   2  -7    0.07    0.66
  -2   2  -7    0.08    0.47
  -2  -2  -7   -0.14    0.54
   3   2   7    0.31    0.98
   3   2   7   -0.41    0.62
   3  -2   7    0.75    0.77
   3  -2   7   -0.36    0.62
  -3   2  -7   -0.14    0.76
  -3   2  -7   -0.30    0.40
  -3  -2  -7    0.57    0.51
  -9  -3   7    0.54    0.79
   9   3  -7   -0.83    0.84
   9   3  -7    0.40    0.98
   9  -3  -7    0.42    1.04
  -8   3   7    5.74    1.07
  -8  -3   7    5.67    1.17
   8   3  -7    4.94    1.23
   8   3  -7    3.14    1.04
   8  -3  -7    5.49    1.25
  -7   3   7    0.12    0.60
  -7   3   7   -0.36    0.64
  -7  -3   7   -0.01    0.72
   7   3  -7    0.13    0.76
   7   3  -7   -0.13    0.72
   7  -3  -7    0.00    0.80
   7  -3  -7   -0.10    0.61
  -6   3   7    3.23    0.82
  -6   3   7    3.84    0.87
   6   3  -7    2.19    0.94
   6  -3  -7    1.88    0.89
   6  -3  -7    2.58    0.82
  -5   3   7   21.10    1.38
  -5   3   7   20.52    1.48
   5   3  -7   19.24    1.48
   5  -3  -7   18.86    1.38
   5  -3  -7   18.08    1.37
  -4   3   7    0.30    0.53
  -4   3   7    0.76    0.65
  -4  -3   7   -0.01    0.42
   4   3  -7    0.69    0.70
   4  -3  -7    0.17    0.64
  -3   3   7    4.26    0.88
  -3  -3   7    3.94    0.74
  -3  -3   7    2.62    0.56
   3   3  -7    2.65    0.82
   3  -3  -7    3.29    0.91
  -2   3   7    1.74    0.73
  -2   3   7    1.60    0.50
  -2  -3   7    1.23    0.61
  -2  -3   7    1.26    0.54
   2   3  -7    1.90    0.76
  -1   3   7    1.22    0.72
  -1   3   7    0.78    0.60
  -1  -3   7    1.24    0.66
  -1  -3   7    0.95    0.57
   1   3  -7    0.71    0.67
   1   3  -7    0.22    0.50
   0   3   7    0.29    0.71
   0   3   7    0.13    0.61
   0  -3   7    0.46    0.60
   0  -3   7    0.87    0.59
   0   3  -7    0.71    0.69
   0   3  -7    0.23    0.45
   0  -3  -7    0.77    0.63
   1   3   7    3.56    1.10
   1   3   7    4.92    0.93
   1  -3   7    6.08    1.06
   1  -3   7    4.19    0.85
  -1   3  -7    5.93    1.07
  -1   3  -7    4.49    0.76
  -1  -3  -7    5.23    0.83
   2   3   7    4.90    1.23
   2   3   7    6.02    1.05
   2  -3   7    4.48    1.05
   2  -3   7    4.44    0.92
  -2   3  -7    5.66    1.15
  -2   3  -7    4.52    0.80
  -2  -3  -7    3.98    0.84
   3   3   7    1.15    0.98
   3   3   7    0.26    0.70
   3  -3   7    0.22    0.70
   3  -3   7   -0.32    0.64
  -3   3  -7    0.56    0.81
  -3   3  -7    0.35    0.49
  -3  -3  -7   -0.61    0.44
  -9   4   7    3.02    0.95
  -9  -4   7    1.25    0.86
  -9  -4   7    2.42    0.59
   9   4  -7    2.61    1.15
   9   4  -7    1.23    1.04
   9  -4  -7    2.02    1.18
  -8   4   7   -0.33    0.61
  -8  -4   7    0.42    0.80
  -8  -4   7    0.06    0.46
   8   4  -7    0.20    0.93
   8   4  -7   -0.01    0.87
   8  -4  -7   -0.18    0.92
  -7   4   7    0.19    0.68
  -7  -4   7    0.02    0.42
   7   4  -7    0.50    0.86
   7  -4  -7    0.18    0.86
   7  -4  -7   -0.05    0.62
  -6   4   7    0.94    0.76
  -6  -4   7    0.18    0.47
   6   4  -7    0.33    0.81
   6  -4  -7    1.63    0.86
   6  -4  -7    0.48    0.71
  -5   4   7    0.75    0.67
  -5   4   7    0.22    0.67
  -5  -4   7   -0.11    0.47
   5   4  -7    0.90    0.77
   5  -4  -7    0.27    0.68
  -4   4   7   -0.43    0.58
  -4   4   7    0.37    0.68
  -4  -4   7    0.37    0.45
   4   4  -7    1.19    0.74
   4  -4  -7   -0.01    0.72
  -3   4   7    1.78    0.75
  -3  -4   7    0.98    0.53
  -3  -4   7    1.09    0.47
   3   4  -7    1.64    0.76
   3  -4  -7    0.25    0.74
  -2   4   7    0.07    0.60
  -2   4   7    0.87    0.48
  -2  -4   7    0.49    0.52
  -2  -4   7   -0.32    0.50
   2   4  -7    0.01    0.69
  -1   4   7    0.14    0.66
  -1   4   7    0.19    0.56
  -1  -4   7   -0.31    0.51
  -1  -4   7    0.04    0.54
   1   4  -7    0.29    0.68
   1   4  -7    0.20    0.51
   0   4   7    2.14    0.91
   0   4   7    1.41    0.70
   0  -4   7    1.84    0.72
   0  -4   7    0.87    0.63
   0   4  -7    1.35    0.81
   0   4  -7    1.14    0.54
   0  -4  -7    1.19    0.65
   1   4   7    0.07    0.83
   1   4   7    0.86    0.66
   1  -4   7    0.49    0.71
   1  -4   7    0.80    0.66
  -1   4  -7    0.30    0.74
  -1   4  -7    0.72    0.55
  -1  -4  -7    0.80    0.60
   2   4   7    4.57    1.18
   2   4   7    2.68    0.89
   2  -4   7    2.23    0.84
   2  -4   7    2.50    0.83
  -2   4  -7    3.63    1.10
  -2   4  -7    2.98    0.74
  -2  -4  -7    3.24    0.78
   3   4   7   -0.42    0.86
   3   4   7   -0.51    0.65
   3  -4   7    0.36    0.67
  -3   4  -7    0.17    0.79
  -3   4  -7    0.24    0.50
  -3  -4  -7   -0.02    0.50
  -9   5   7    8.58    1.23
  -9  -5   7    6.38    0.74
   9   5  -7    7.66    1.44
   9   5  -7    6.79    1.36
   9  -5  -7    5.82    1.35
  -8   5   7    3.12    0.91
  -8  -5   7    1.94    0.95
  -8  -5   7    2.26    0.62
   8   5  -7    2.73    1.15
   8   5  -7    3.00    1.03
   8  -5  -7    3.32    1.18
   8  -5  -7    1.95    0.84
  -7   5   7   20.03    1.59
  -7  -5   7   15.16    0.95
   7   5  -7   16.99    1.62
   7  -5  -7   17.03    1.65
   7  -5  -7   15.21    1.40
  -6   5   7    3.00    0.92
  -6  -5   7    1.75    0.57
   6   5  -7    2.98    1.01
   6  -5  -7    2.17    0.85
  -5   5   7   25.58    1.60
  -5  -5   7   22.06    1.08
   5   5  -7   24.93    1.73
   5  -5  -7   22.91    1.61
  -4   5   7    2.07    0.74
  -4   5   7    1.72    0.77
  -4  -5   7    1.95    0.57
   4   5  -7    1.64    0.85
   4  -5  -7    1.79    0.84
  -3   5   7    0.25    0.52
  -3   5   7    1.25    0.75
  -3   5   7    0.82    0.44
  -3  -5   7    0.50    0.58
   3   5  -7   -0.39    0.69
   3  -5  -7    0.59    0.81
  -2   5   7    0.52    0.71
  -2   5   7    0.45    0.47
  -2  -5   7    0.40    0.49
  -2  -5   7    0.07    0.58
   2   5  -7    0.60    0.78
   2   5  -7    0.52    0.56
   2  -5  -7    0.13    0.77
  -1   5   7   -0.13    0.65
  -1   5   7    0.49    0.61
  -1  -5   7    0.10    0.61
  -1  -5   7   -0.13    0.58
   1   5  -7   -0.49    0.69
   1   5  -7    0.37    0.54
   0   5   7    0.10    0.78
   0   5   7   -0.76    0.55
   0  -5   7   -0.02    0.62
   0  -5   7    0.60    0.62
   0   5  -7    0.19    0.73
   0   5  -7   -0.08    0.47
   0  -5  -7    0.35    0.65
   1   5   7    2.47    1.06
   1   5   7    3.69    0.90
   1  -5   7    2.49    0.87
   1  -5   7    3.02    0.82
  -1   5  -7    3.12    1.04
  -1   5  -7    2.26    0.66
  -1  -5  -7    3.42    0.78
   2   5   7    2.20    1.06
   2   5   7    2.26    0.85
   2  -5   7    1.02    0.70
   2  -5   7    1.19    0.73
  -2   5  -7    3.10    1.04
  -2   5  -7    1.78    0.60
  -2  -5  -7    2.82    0.77
   3   5   7    0.80    0.96
   3   5   7    2.25    0.91
   3  -5   7    1.64    0.80
  -3   5  -7    1.05    0.95
  -3   5  -7    1.76    0.65
  -3  -5  -7    0.52    0.57
  -8   6   7    5.73    1.09
  -8  -6   7    5.06    1.14
  -8  -6   7    4.56    0.74
   8   6  -7    4.70    1.30
   8  -6  -7    4.51    1.28
   8  -6  -7    5.20    1.12
  -7   6   7    2.20    0.89
  -7  -6   7    1.43    0.60
   7   6  -7    2.22    1.02
   7  -6  -7    2.45    1.06
   7  -6  -7    1.56    0.84
  -6   6   7    1.34    0.82
  -6  -6   7    1.05    0.55
   6   6  -7    1.01    0.90
   6  -6  -7    1.36    0.84
  -5   6   7   -0.60    0.66
  -5  -6   7    0.09    0.47
   5   6  -7    0.24    0.81
   5  -6  -7    0.04    0.70
  -4   6   7   -0.80    0.57
  -4   6   7    0.19    0.66
  -4  -6   7   -0.25    0.57
   4   6  -7    0.26    0.73
   4  -6  -7    0.42    0.80
  -3   6   7   10.15    1.08
  -3   6   7    9.70    1.22
  -3   6   7    9.80    0.77
  -3  -6   7    6.85    0.92
   3   6  -7    9.78    1.33
   3  -6  -7    8.64    1.28
  -2   6   7    3.46    0.92
  -2   6   7    4.37    0.68
  -2  -6   7    2.66    0.74
   2   6  -7    3.20    1.03
   2   6  -7    3.08    0.72
   2  -6  -7    3.61    1.02
  -1   6   7   12.51    1.47
  -1   6   7   11.70    1.05
  -1  -6   7   12.07    1.23
  -1  -6   7   10.43    1.10
   1   6  -7   12.58    1.49
   1   6  -7   11.25    0.96
   0   6   7   -0.29    0.83
   0   6   7   -0.09    0.63
   0  -6   7   -0.15    0.56
   0  -6   7   -0.04    0.61
   0   6  -7    0.42    0.78
   0   6  -7   -0.72    0.46
   0  -6  -7   -0.35    0.63
   1   6   7    4.67    1.19
   1   6   7    3.07    0.89
   1  -6   7    2.54    0.86
   1  -6   7    3.02    0.87
  -1   6  -7    2.33    0.99
  -1   6  -7    2.86    0.70
  -1  -6  -7    3.37    0.78
   2   6   7    4.51    1.27
   2   6   7    4.36    0.98
   2  -6   7    3.88    0.90
   2  -6   7    3.42    0.95
  -2   6  -7    3.60    1.09
  -2   6  -7    3.75    0.75
  -2  -6  -7    3.68    0.82
  -8   7   7    0.45    0.76
  -8  -7   7    0.17    0.97
  -8  -7   7    0.82    0.69
   8   7  -7    0.36    0.91
   8  -7  -7   -0.68    0.77
  -7   7   7    0.49    0.70
  -7  -7   7   -0.07    0.62
   7   7  -7   -0.21    0.92
   7  -7  -7    0.81    0.80
  -6   7   7    0.94    0.76
  -6  -7   7    1.68    0.74
   6   7  -7    1.84    1.00
   6  -7  -7    2.24    0.94
  -5   7   7    3.36    0.91
  -5  -7   7    3.04    0.79
   5   7  -7    2.42    1.00
   5  -7  -7    3.29    1.00
  -4   7   7   16.31    1.41
  -4   7   7   16.38    1.47
  -4   7   7   15.62    0.89
  -4  -7   7   13.93    1.12
   4   7  -7   15.05    1.50
   4  -7  -7   14.41    1.46
  -3   7   7    0.64    0.70
  -3   7   7    1.43    0.82
  -3   7   7    1.20    0.52
  -3  -7   7    1.06    0.68
   3   7  -7    0.61    0.83
   3  -7  -7    1.63    0.91
  -2   7   7    3.80    1.03
  -2   7   7    3.14    0.77
  -2  -7   7    2.15    0.77
   2   7  -7    3.18    1.04
   2   7  -7    3.48    0.77
   2  -7  -7    3.76    1.08
  -1   7   7   -0.19    0.87
  -1   7   7    0.16    0.66
  -1  -7   7    0.70    0.62
  -1  -7   7    0.16    0.67
   1   7  -7    0.59    0.83
   1   7  -7    0.23    0.52
   0   7   7   27.95    2.01
   0   7   7   22.08    1.45
   0  -7   7   23.78    1.66
   0   7  -7   21.65    1.81
   0   7  -7   20.71    1.31
   0  -7  -7   23.29    1.33
   1   7   7    1.52    1.01
   1   7   7    0.17    0.72
   1  -7   7    0.13    0.61
   1  -7   7    0.45    0.72
  -1   7  -7    1.00    0.91
  -1   7  -7    0.61    0.50
  -1  -7  -7    0.65    0.60
   2   7   7    1.14    0.96
   2   7   7   -0.06    0.74
   2  -7   7    0.43    0.70
   2  -7   7   -0.31    0.73
  -2   7  -7   -0.17    0.84
  -2   7  -7   -0.24    0.47
  -2  -7  -7    0.18    0.57
  -8   8   7    0.28    0.60
  -8   8   7    0.92    0.43
  -8  -8   7    1.23    1.06
  -8  -8   7    0.69    0.69
   8  -8  -7    0.81    0.90
  -7   8   7    0.74    0.66
  -7  -8   7    0.60    0.71
   7   8  -7    0.91    0.75
   7  -8  -7    1.05    0.87
  -6   8   7   -0.30    0.66
  -6  -8   7   -0.10    0.62
   6   8  -7   -0.06    0.83
   6  -8  -7    0.07    0.73
  -5   8   7   17.94    1.51
  -5  -8   7   15.90    1.23
   5   8  -7   16.59    1.64
   5  -8  -7   14.54    1.51
  -4   8   7   32.73    1.86
  -4   8   7   32.87    1.96
  -4   8   7   31.03    1.26
  -4  -8   7   26.26    1.47
   4   8  -7   27.71    1.94
   4  -8  -7   27.54    1.89
  -3   8   7   10.17    1.25
  -3   8   7   11.52    1.35
  -3   8   7   10.04    0.89
  -3  -8   7    8.62    1.09
   3   8  -7   11.11    1.48
   3  -8  -7    9.19    1.36
  -2   8   7    9.77    1.46
  -2   8   7    7.54    0.99
  -2  -8   7    7.63    1.08
   2   8  -7    8.56    1.40
   2   8  -7    7.90    0.89
   2  -8  -7    9.03    1.32
  -1   8   7    2.66    1.13
  -1   8   7    2.36    0.81
  -1  -8   7    0.97    0.80
   1   8  -7    1.81    1.04
   1   8  -7    1.32    0.61
   1  -8  -7    1.76    0.70
   0   8   7   -0.09    0.95
   0   8   7    0.10    0.72
   0  -8   7    0.49    0.64
   0  -8   7   -0.15    0.73
   0   8  -7    0.08    0.88
   0   8  -7   -0.18    0.48
   0  -8  -7   -0.53    0.66
   1   8   7    0.21    0.89
   1   8   7    0.20    0.80
   1  -8   7    0.80    0.60
   1  -8   7   -0.28    0.73
  -1   8  -7    0.75    0.97
  -1   8  -7   -0.07    0.51
  -1  -8  -7    0.12    0.56
   2   8   7   16.51    1.74
   2   8   7   14.89    1.48
   2  -8   7   14.29    1.44
  -2   8  -7   14.57    1.68
  -2   8  -7   15.89    1.29
  -2  -8  -7   14.34    1.17
  -7   9   7    0.64    0.66
  -7   9   7    0.06    0.43
  -7  -9   7    0.04    0.69
   7  -9  -7   -0.24    0.75
  -6   9   7   -0.21    0.64
  -6   9   7    0.13    0.43
  -6  -9   7    0.52    0.70
   6   9  -7    0.45    0.68
   6  -9  -7   -0.05    0.77
  -5   9   7    4.41    0.99
  -5   9   7    2.30    0.63
  -5  -9   7    3.16    0.90
   5   9  -7    3.99    1.04
   5   9  -7    3.38    0.81
   5  -9  -7    3.07    1.05
  -4   9   7    3.39    0.94
  -4   9   7    2.93    0.70
  -4  -9   7    2.69    0.85
   4   9  -7    2.03    0.91
   4   9  -7    2.95    0.88
   4  -9  -7    2.97    1.04
  -3   9   7   11.66    1.36
  -3   9   7   10.65    1.50
  -3   9   7   12.39    1.05
  -3  -9   7   10.47    1.17
   3   9  -7    9.20    1.39
   3  -9  -7   11.15    1.49
  -2   9   7    4.24    0.95
  -2   9   7    4.13    1.23
  -2   9   7    3.54    0.90
  -2  -9   7    4.15    0.97
   2   9  -7    2.31    1.08
   2   9  -7    3.05    0.74
   2  -9  -7    4.26    1.04
  -1   9   7   -0.27    0.94
  -1   9   7    0.62    0.78
  -1  -9   7   -0.78    0.72
   1   9  -7   -0.33    0.92
   1   9  -7   -0.38    0.53
   1  -9  -7   -0.35    0.63
   0   9   7   13.75    1.67
   0   9   7   12.90    1.31
   0  -9   7   12.32    1.36
   0   9  -7   13.42    1.65
   0   9  -7   13.79    1.14
   0  -9  -7   12.98    1.15
   1   9   7    3.52    1.18
   1   9   7    5.11    1.11
   1  -9   7    2.55    1.02
  -1   9  -7    3.91    1.22
  -1   9  -7    4.00    0.76
  -1  -9  -7    3.70    0.77
  -6  10   7   -0.50    0.58
  -6  10   7    0.21    0.44
  -6 -10   7    0.56    0.70
   6  10  -7   -0.09    0.62
   6  10  -7   -0.29    0.63
   6 -10  -7   -0.61    0.73
  -5  10   7    4.60    1.02
  -5 -10   7    5.38    1.03
   5  10  -7    4.64    1.05
   5  10  -7    6.79    1.01
   5 -10  -7    4.32    1.20
  -4  10   7   28.65    1.84
  -4  10   7   26.67    1.32
  -4 -10   7   22.84    1.54
   4  10  -7   23.18    1.77
   4  10  -7   25.60    1.48
   4 -10  -7   19.70    1.76
  -3  10   7    0.60    0.73
  -3  10   7    1.27    1.04
  -3  10   7    1.85    0.81
  -3 -10   7    0.96    0.81
   3  10  -7    1.03    0.77
   3 -10  -7    0.79    0.72
  -2  10   7   -0.29    0.67
  -2  10   7    1.31    1.06
  -2  10   7    1.26    0.83
  -2 -10   7    0.84    0.83
   2  10  -7    0.38    0.70
   2  10  -7    0.18    0.52
   2 -10  -7    1.39    0.78
  -1  10   7    3.49    1.21
  -1  10   7    2.51    0.88
  -1 -10   7    2.02    0.91
   1  10  -7    3.04    1.06
   1  10  -7    1.70    0.65
   1 -10  -7    2.75    0.84
   1 -10  -7    2.84    0.94
   0  10   7    0.06    0.99
   0  10   7   -0.51    0.76
   0 -10   7   -0.24    0.78
   0  10  -7    0.71    0.92
   0  10  -7   -0.02    0.51
   0 -10  -7   -0.08    0.66
  -5  11   7    1.76    0.83
  -5  11   7    2.02    0.64
  -5 -11   7    1.83    0.87
   5  11  -7    1.43    0.81
   5  11  -7    1.70    0.77
   5 -11  -7    1.51    0.95
  -4  11   7   14.87    1.49
  -4  11   7   13.81    1.22
  -4 -11   7    9.76    1.29
   4  11  -7   11.89    1.35
   4  11  -7   12.39    1.10
   4 -11  -7    9.91    1.47
  -3  11   7    6.30    1.13
  -3  11   7    7.21    1.41
  -3  11   7    8.33    1.14
  -3 -11   7    7.80    1.25
   3  11  -7    6.58    1.20
   3 -11  -7    5.40    1.07
  -2  11   7    4.26    0.96
  -2  11   7    5.33    1.33
  -2  11   7    5.18    1.05
  -2 -11   7    3.60    1.03
   2  11  -7    4.45    0.77
   2 -11  -7    4.23    1.03
  -1  11   7   -0.08    0.91
  -1  11   7   -0.30    0.74
  -1 -11   7   -0.27    0.75
   1  11  -7    0.23    0.57
   1 -11  -7   -0.09    0.66
   1 -11  -7    0.39    0.69
  -3  12   7   -0.76    0.61
  -3  12   7    0.19    1.00
  -3  12   7    0.02    0.81
  -3 -12   7    0.92    0.92
   3  12  -7    0.47    0.60
   3 -12  -7   -0.29    0.52
   9   0  -8    8.39    1.48
   8   0  -8   19.54    1.74
  -7   0   8   18.62    1.58
   7   0  -8   17.39    1.57
   6   0  -8   40.76    2.03
  -5   0   8   11.86    1.15
   5   0  -8   10.02    1.19
  -4   0   8    1.98    0.76
   4   0  -8    3.20    0.84
  -3   0   8    0.18    0.63
  -3   0   8   -0.56    0.42
   3   0  -8    0.28    0.56
  -2   0   8   37.77    1.95
  -2   0   8   31.97    1.31
  -1   0   8  137.65    3.68
  -1   0   8  124.08    2.70
   0   0   8   13.93    1.42
   0   0   8   12.64    1.13
   0   0  -8   11.15    1.00
   1   0   8    2.58    0.92
   1   0   8    2.05    0.77
  -1   0  -8    2.42    0.65
   2   0   8    9.57    1.32
   2   0   8    9.84    1.22
  -2   0  -8   10.64    1.01
   9   1  -8   -1.09    0.86
   9   1  -8   -0.04    0.99
   9  -1  -8    0.91    1.03
   8   1  -8    3.33    1.12
   8  -1  -8    2.82    1.06
   8  -1  -8    4.18    1.12
  -7   1   8   68.71    2.50
  -7  -1   8   72.49    2.75
   7   1  -8   66.57    2.69
   7  -1  -8   66.36    2.58
  -6   1   8    4.01    1.03
   6   1  -8    4.01    1.04
   6  -1  -8    3.72    0.97
  -5   1   8    2.84    0.84
   5   1  -8    1.98    0.86
  -4   1   8    0.44    0.67
  -4  -1   8    0.31    0.57
   4   1  -8    0.40    0.64
  -3   1   8    4.31    0.92
  -3   1   8    3.59    0.62
  -3  -1   8    4.66    0.89
  -3  -1   8    3.71    0.59
   3   1  -8    4.21    0.91
  -2   1   8   12.74    1.32
  -2   1   8   12.65    0.95
  -2  -1   8   13.09    1.30
  -2  -1   8   13.26    0.95
   2   1  -8   13.60    1.37
  -1   1   8   10.26    1.30
  -1   1   8    8.88    1.07
  -1  -1   8   10.55    1.32
  -1  -1   8    8.11    0.98
   1   1  -8   11.09    1.29
   0   1   8   12.46    1.43
   0   1   8   10.28    1.11
   0  -1   8   11.15    1.32
   0  -1   8    9.42    1.05
   0   1  -8    9.03    0.97
   0  -1  -8    9.65    0.96
   1   1   8    5.81    1.13
   1   1   8    5.81    0.98
   1  -1   8    6.58    1.16
   1  -1   8    6.10    0.99
  -1   1  -8    6.54    0.86
  -1  -1  -8    8.18    0.97
   2   1   8    0.29    0.71
   2   1   8   -0.01    0.64
   2  -1   8    0.48    0.59
   2  -1   8   -0.36    0.65
  -2   1  -8   -0.64    0.45
  -2  -1  -8    0.27    0.51
  -8   2   8   12.55    1.26
   8   2  -8   13.01    1.61
   8  -2  -8   11.13    1.49
  -7   2   8    0.01    0.71
  -7  -2   8    0.22    0.71
   7   2  -8    0.46    0.86
  -6   2   8    0.41    0.68
   6   2  -8    0.75    0.85
   6  -2  -8    0.80    0.76
  -5   2   8   39.57    1.95
   5   2  -8   34.38    1.92
   5  -2  -8   36.13    1.90
  -4   2   8    7.51    1.12
  -4  -2   8    8.29    0.98
   4   2  -8    6.98    1.09
  -3   2   8   35.34    1.93
  -3  -2   8   31.26    1.72
  -3  -2   8   27.16    1.17
   3   2  -8   30.44    1.79
  -2   2   8    1.03    0.73
  -2   2   8   -0.05    0.49
  -2  -2   8    0.63    0.62
  -2  -2   8   -0.14    0.50
   2   2  -8   -0.13    0.67
  -1   2   8   33.72    1.96
  -1   2   8   30.14    1.48
  -1  -2   8   36.75    2.00
  -1  -2   8   29.97    1.48
   1   2  -8   33.81    1.90
   0   2   8    7.89    1.25
   0   2   8    6.26    1.01
   0  -2   8    6.50    1.10
   0  -2   8    6.76    0.98
   0   2  -8    7.76    1.17
   0   2  -8    8.08    0.95
   0  -2  -8    7.83    0.92
   1   2   8    0.99    0.75
   1   2   8    0.71    0.71
   1  -2   8    0.76    0.64
   1  -2   8    0.00    0.63
  -1   2  -8    0.73    0.70
  -1   2  -8    0.12    0.46
  -1  -2  -8    0.35    0.64
   2   2   8    3.99    1.14
   2   2   8    1.68    0.88
   2  -2   8    2.75    0.93
   2  -2   8    4.12    0.98
  -2   2  -8    2.85    0.68
  -2  -2  -8    3.98    0.77
  -8   3   8    2.05    0.79
   8   3  -8    0.18    0.95
   8  -3  -8    0.50    1.02
  -7   3   8    0.14    0.71
   7   3  -8   -0.23    0.85
   7  -3  -8   -0.30    0.85
  -6   3   8    4.04    0.93
   6   3  -8    3.90    1.11
   6  -3  -8    3.19    0.93
  -5   3   8    1.03    0.72
   5   3  -8    0.03    0.74
   5  -3  -8    0.82    0.76
  -4   3   8   37.06    1.97
   4   3  -8   38.75    2.02
  -3   3   8    0.31    0.69
  -3  -3   8   -0.08    0.53
  -3  -3   8    0.27    0.47
   3   3  -8    0.43    0.72
  -2   3   8   10.48    1.30
  -2   3   8    7.98    0.83
  -2  -3   8    8.14    1.10
  -2  -3   8    7.46    0.93
   2   3  -8    9.44    1.28
  -1   3   8    2.64    0.86
  -1   3   8    0.91    0.72
  -1  -3   8    0.37    0.64
  -1  -3   8    0.13    0.60
   1   3  -8    0.94    0.78
   0   3   8    1.22    0.83
   0   3   8    0.99    0.74
   0  -3   8    0.99    0.65
   0  -3   8    0.36    0.64
   0   3  -8    0.42    0.69
   0   3  -8    0.82    0.63
   1   3   8    6.55    1.32
   1   3   8    7.98    1.15
   1  -3   8    8.43    1.24
   1  -3   8    7.54    1.11
  -1   3  -8    7.49    1.24
  -1   3  -8    7.56    0.89
  -1  -3  -8    6.99    1.03
  -8   4   8   -0.07    0.61
   8   4  -8    0.77    1.01
   8  -4  -8   -0.21    0.94
  -7   4   8    3.78    0.95
  -7   4   8    4.18    0.93
   7   4  -8    2.97    1.07
   7  -4  -8    2.99    1.06
   7  -4  -8    2.62    0.91
  -6   4   8    2.99    0.88
  -6   4   8    3.58    0.93
  -6  -4   8    2.83    0.56
   6   4  -8    2.68    0.97
   6  -4  -8    3.58    0.96
  -5   4   8    0.75    0.70
  -5  -4   8   -0.21    0.46
   5   4  -8   -0.06    0.81
   5  -4  -8   -0.56    0.67
  -4   4   8   17.72    1.48
  -4  -4   8   14.25    0.96
   4   4  -8   15.62    1.49
   4  -4  -8   16.26    1.51
  -3   4   8    1.60    0.81
  -3  -4   8    1.15    0.56
   3   4  -8    0.92    0.82
  -2   4   8    0.27    0.70
  -2   4   8    0.95    0.54
  -2  -4   8    0.70    0.64
  -2  -4   8    0.19    0.62
   2   4  -8   -0.09    0.74
  -1   4   8    2.87    0.96
  -1   4   8    2.49    0.79
  -1  -4   8    1.92    0.70
  -1  -4   8    1.57    0.71
   1   4  -8    1.56    0.88
   1   4  -8    1.98    0.66
   0   4   8    4.20    1.03
   0   4   8    3.36    0.89
   0  -4   8    3.89    0.97
   0  -4   8    3.83    0.87
   0   4  -8    4.18    1.10
   0   4  -8    3.38    0.76
   0  -4  -8    4.94    0.90
   1   4   8    1.24    1.08
   1   4   8    1.71    0.86
   1  -4   8    1.72    0.79
   1  -4   8    2.20    0.85
  -1   4  -8    1.73    0.89
  -1   4  -8    1.77    0.59
  -1  -4  -8    2.08    0.79
  -8   5   8    2.38    0.79
  -8  -5   8    1.75    0.50
   8   5  -8    1.52    0.97
   8  -5  -8    0.82    1.03
  -7   5   8    9.61    1.25
   7   5  -8    8.44    1.41
   7  -5  -8    8.83    1.28
  -6   5   8    2.98    0.90
  -6   5   8    4.06    0.94
  -6  -5   8    3.14    0.65
   6   5  -8    3.08    1.06
   6  -5  -8    2.80    0.96
  -5   5   8    1.09    0.77
  -5  -5   8    1.26    0.57
   5   5  -8    0.90    0.87
   5  -5  -8    0.45    0.83
  -4   5   8    2.80    0.90
  -4  -5   8    1.74    0.63
   4   5  -8    1.95    0.89
   4  -5  -8    1.65    0.89
  -3   5   8   -0.60    0.66
  -3   5   8   -0.15    0.44
  -3  -5   8   -0.04    0.62
   3   5  -8   -0.30    0.79
  -2   5   8    1.47    0.83
  -2   5   8    1.62    0.59
  -2  -5   8    2.02    0.68
  -2  -5   8    0.97    0.67
   2   5  -8    0.69    0.87
  -1   5   8    2.72    0.98
  -1   5   8    2.69    0.84
  -1  -5   8    2.01    0.77
  -1  -5   8    1.43    0.74
   1   5  -8    2.01    0.94
   1   5  -8    1.59    0.68
   0   5   8    2.41    1.12
   0   5   8    2.79    0.89
   0  -5   8    2.82    0.86
   0  -5   8    1.97    0.81
   0   5  -8    2.96    1.02
   0   5  -8    2.68    0.63
   0  -5  -8    2.26    0.79
   1   5   8   -0.08    0.92
   1   5   8    0.29    0.75
   1  -5   8    1.27    0.74
   1  -5   8    0.20    0.72
  -1   5  -8    1.30    0.90
  -1   5  -8    0.37    0.50
  -1  -5  -8    0.29    0.67
  -7   6   8    3.29    0.91
  -7  -6   8    1.34    0.57
   7   6  -8    1.79    1.01
   7  -6  -8    1.88    0.95
  -6   6   8    3.81    0.94
  -6   6   8    4.55    0.99
  -6  -6   8    3.31    0.69
   6   6  -8    3.38    1.10
   6  -6  -8    3.13    1.00
  -5   6   8   11.06    1.30
  -5  -6   8    9.44    0.87
   5   6  -8   11.08    1.48
   5  -6  -8    8.84    1.34
  -4   6   8   -0.08    0.67
  -4  -6   8    0.06    0.63
   4   6  -8    0.05    0.79
   4  -6  -8    0.26    0.80
  -3   6   8    6.45    1.18
  -3   6   8    6.08    0.72
  -3  -6   8    4.08    0.87
   3   6  -8    5.16    1.17
   3  -6  -8    5.28    1.18
  -2   6   8    0.60    0.73
  -2   6   8   -0.51    0.50
  -2  -6   8   -0.39    0.64
   2   6  -8    0.42    0.81
   2   6  -8    0.32    0.62
  -1   6   8    2.95    1.00
  -1   6   8    2.89    0.87
  -1  -6   8    3.79    0.89
  -1  -6   8    2.50    0.78
   1   6  -8    3.64    1.09
   1   6  -8    3.76    0.83
   0   6   8    0.47    0.95
   0   6   8   -0.39    0.69
   0  -6   8   -0.08    0.57
   0  -6   8    0.25    0.71
   0   6  -8    0.93    0.86
   0   6  -8    0.11    0.44
   0  -6  -8   -0.12    0.70
   1   6   8    5.12    1.27
   1   6   8    5.14    1.10
   1  -6   8    4.78    0.98
   1  -6   8    2.92    0.95
  -1   6  -8    4.16    1.13
  -1   6  -8    3.88    0.71
  -1  -6  -8    4.75    0.92
  -7   7   8    8.18    1.21
  -7  -7   8    8.81    0.85
   7   7  -8    8.02    1.40
   7  -7  -8    9.54    1.40
  -6   7   8    0.37    0.65
  -6   7   8    0.90    0.66
  -6  -7   8    1.06    0.55
   6   7  -8    1.04    0.97
   6  -7  -8    1.12    0.94
  -5   7   8    3.35    0.92
  -5   7   8    4.14    0.98
  -5  -7   8    2.89    0.81
   5   7  -8    3.87    1.20
   5  -7  -8    3.51    1.06
  -4   7   8    1.58    0.85
  -4   7   8    1.51    0.51
  -4  -7   8    1.21    0.75
   4   7  -8    1.89    1.00
   4  -7  -8    1.65    0.97
  -3   7   8    0.43    0.69
  -3   7   8   -0.11    0.49
  -3  -7   8    0.00    0.70
   3   7  -8   -0.21    0.86
   3  -7  -8   -0.21    0.82
  -2   7   8    3.14    1.03
  -2   7   8    2.69    0.80
  -2  -7   8    2.98    0.90
   2   7  -8    2.37    1.09
   2   7  -8    2.79    0.78
  -1   7   8   13.36    1.66
  -1   7   8   12.53    1.22
  -1  -7   8   10.50    1.24
   1   7  -8   13.10    1.60
   1   7  -8   12.49    1.11
   0   7   8   17.95    1.83
   0   7   8   20.84    1.51
   0   7  -8   20.82    1.89
   0   7  -8   18.09    1.22
   0  -7  -8   19.57    1.26
  -6   8   8   -0.89    0.51
  -6  -8   8   -0.30    0.63
   6   8  -8    1.19    0.90
   6  -8  -8   -0.47    0.78
  -5   8   8    4.78    0.98
  -5   8   8    4.48    1.05
  -5  -8   8    4.34    0.95
   5   8  -8    3.65    1.18
   5  -8  -8    3.74    1.15
  -4   8   8    3.13    0.97
  -4   8   8    3.43    0.64
  -4  -8   8    1.76    0.83
   4   8  -8    2.17    1.10
   4  -8  -8    2.17    1.03
  -3   8   8   12.60    1.42
  -3   8   8   11.63    0.95
  -3  -8   8   10.42    1.17
   3   8  -8   12.73    1.65
   3  -8  -8   10.66    1.55
  -2   8   8    2.00    1.08
  -2   8   8    1.84    0.79
  -2  -8   8    3.39    0.98
   2   8  -8    2.68    1.15
   2   8  -8    3.00    0.81
  -1   8   8    9.50    1.54
  -1   8   8    8.32    1.13
  -1  -8   8    5.67    1.11
   1   8  -8    6.64    1.39
   1   8  -8    7.66    0.86
  -5   9   8   14.30    1.38
  -5   9   8   13.14    1.42
  -5   9   8   13.51    0.92
  -5  -9   8   11.29    1.22
   5   9  -8   12.88    1.60
   5  -9  -8   12.75    1.54
  -4   9   8   24.46    1.84
  -4   9   8   23.20    1.19
  -4  -9   8   19.48    1.44
   4   9  -8   20.77    1.83
   4  -9  -8   22.44    1.90
  -3   9   8   -0.37    0.60
  -3   9   8   -0.05    0.48
  -3  -9   8   -0.39    0.74
   3   9  -8    0.08    0.93
   3  -9  -8    0.49    0.83
  -2   9   8    1.17    1.02
  -2   9   8    1.05    0.77
  -2  -9   8    1.18    0.86
   2   9  -8    1.09    1.01
   2   9  -8    1.08    0.67
  -4   0   9    0.11    0.57
  -3   0   9   -0.50    0.49
  -3   0   9   -0.69    0.40
  -2   0   9    0.34    0.59
  -2   0   9    0.30    0.45
  -1   0   9    0.38    0.58
  -1   0   9    0.10    0.57
   0   0   9    0.12    0.55
   0   0   9   -0.07    0.57
   7   1  -9    0.77    0.86
   6   1  -9   -0.41    0.77
  -5   1   9   10.01    1.17
   5   1  -9    9.00    1.26
  -4   1   9   13.02    1.30
  -3   1   9    6.58    1.10
  -3   1   9    5.59    0.73
  -3  -1   9    4.61    0.92
  -3  -1   9    6.10    0.72
  -2   1   9    1.33    0.71
  -2   1   9    1.93    0.58
  -2  -1   9    0.60    0.67
  -2  -1   9    1.61    0.67
  -1   1   9   -0.20    0.57
  -1   1   9   -0.38    0.58
  -1  -1   9    0.31    0.55
  -1  -1   9   -0.25    0.56
   0   1   9   -0.01    0.60
   0   1   9    0.19    0.61
   0  -1   9    0.05    0.58
   0  -1   9    0.16    0.57
   7   2  -9    5.09    1.24
   6   2  -9    0.41    0.83
  -5   2   9    1.83    0.72
   5   2  -9    1.59    0.87
  -4   2   9    0.04    0.60
  -4  -2   9   -0.14    0.43
   4   2  -9    0.03    0.70
  -3   2   9    0.77    0.67
  -3   2   9    0.68    0.49
  -3  -2   9   -0.07    0.53
  -3  -2   9    0.04    0.46
   3   2  -9    0.45    0.73
  -2   2   9    0.91    0.67
  -2   2   9    0.88    0.55
  -2  -2   9    1.66    0.70
  -2  -2   9    0.63    0.63
   2   2  -9    1.79    0.83
  -1   2   9    1.23    0.86
  -1   2   9    0.93    0.75
  -1  -2   9    1.40    0.70
  -1  -2   9    1.42    0.68
   7   3  -9   -0.32    0.83
  -6   3   9    2.15    0.74
   6   3  -9    1.39    0.96
   6  -3  -9    0.84    0.91
  -5   3   9    0.49    0.62
   5   3  -9    0.39    0.80
  -4   3   9   -0.03    0.62
  -4  -3   9   -0.04    0.45
   4   3  -9    0.00    0.78
  -3   3   9   10.64    1.23
  -3  -3   9    9.69    0.90
   3   3  -9    9.48    1.34
  -2   3   9    1.04    0.68
  -2   3   9    1.16    0.52
  -2  -3   9    0.30    0.55
  -2  -3   9    0.42    0.65
   2   3  -9   -0.03    0.95
  -1   3   9    2.37    0.84
  -1   3   9    1.31    0.76
  -1  -3   9   -0.06    0.51
  -1  -3   9    1.65    0.77
   1   3  -9    1.07    0.87
   7   4  -9    0.96    0.97
   6   4  -9    0.60    0.92
   6  -4  -9    0.51    0.85
  -5   4   9    0.35    0.66
  -5  -4   9    0.17    0.44
   5   4  -9    0.52    0.87
  -4   4   9    0.96    0.69
  -4  -4   9   -0.22    0.44
   4   4  -9    0.17    0.77
  -3   4   9    0.84    0.67
  -3   4   9    1.06    0.50
  -3  -4   9    0.04    0.51
   3   4  -9    0.67    0.83
  -2   4   9   -0.01    0.80
  -2   4   9    0.70    0.48
  -2  -4   9    0.30    0.68
   2   4  -9    0.11    0.82
  -1   4   9    0.20    0.68
  -1   4   9    0.49    0.72
  -1  -4   9    0.10    0.63
   1   4  -9    0.30    0.85
  -6   5   9    4.19    0.95
  -6  -5   9    4.17    0.64
   6   5  -9    5.10    1.23
   6  -5  -9    3.62    1.10
  -5   5   9   -0.33    0.57
  -5  -5   9   -0.29    0.44
   5   5  -9   -0.08    0.81
   5  -5  -9    0.07    0.84
  -4   5   9    4.92    1.06
  -4  -5   9    4.72    0.70
   4   5  -9    5.46    1.21
  -3   5   9    1.82    0.86
  -3   5   9    1.61    0.58
  -3  -5   9    0.75    0.70
   3   5  -9    2.22    1.06
  -2   5   9    0.78    0.65
  -2   5   9    0.16    0.53
  -2  -5   9    1.17    0.72
   2   5  -9    0.04    0.90
  -5   6   9    0.42    0.61
  -5  -6   9   -0.39    0.42
   5   6  -9    0.61    0.91
   5  -6  -9   -0.73    0.77
  -4   6   9    1.86    0.88
  -4  -6   9    1.06    0.65
   4   6  -9    1.49    0.94
  -3   6   9    3.52    0.98
  -3   6   9    2.81    0.60
  -3  -6   9    0.78    0.72
   3   6  -9    2.46    1.03
  -2   6   9    4.46    1.10
  -2   6   9    2.94    0.75
  -2  -6   9    2.19    0.81
   2   6  -9    3.69    1.19
   0   0   0    0.00    0.00
;
_shelx_hkl_checksum              10462
loop_
_space_group_symop_operation_xyz
'x, y, z'
'-x, y+1/2, -z+1/2'
'-x, -y, -z'
'x, -y-1/2, z-1/2'
loop_
_atom_site_label
_atom_site_type_symbol
_atom_site_fract_x
_atom_site_fract_y
_atom_site_fract_z
_atom_site_U_iso_or_equiv
_atom_site_adp_type
_atom_site_occupancy
_atom_site_site_symmetry_order
_atom_site_calc_flag
_atom_site_refinement_flags_posn
_atom_site_refinement_flags_adp
F1 F 0.39732(13) 0.60449(8) 0.15394(15) 0.0335(3) Uani 1 1 d . .
O1 O 0.87351(19) 0.49817(10) 0.28702(19) 0.0323(3) Uani 1 1 d . .
N1 N 0.77945(19) 0.54505(11) 0.3571(2) 0.0255(3) Uani 1 1 d . .
C1 C 0.63297(19) 0.71697(12) 0.3427(2) 0.0185(3) Uani 1 1 d . .
F2 F 0.32534(14) 0.74102(10) 0.28289(19) 0.0403(3) Uani 1 1 d . .
O2 O 0.69096(17) 0.50195(10) 0.43814(19) 0.0326(3) Uani 1 1 d . .
C2 C 0.6497(2) 0.82413(12) 0.3468(2) 0.0205(3) Uani 1 1 d . .
H2 H 0.5494 0.8662 0.3380 0.025 Uiso 1 1 calc R U
C3 C 0.8120(2) 0.87052(12) 0.3636(2) 0.0220(3) Uani 1 1 d . .
H3 H 0.8220 0.9439 0.3672 0.026 Uiso 1 1 calc R U
C4 C 0.9583(2) 0.81056(13) 0.3750(2) 0.0215(3) Uani 1 1 d . .
H4 H 1.0687 0.8427 0.3863 0.026 Uiso 1 1 calc R U
C5 C 0.9445(2) 0.70368(13) 0.3701(2) 0.0196(3) Uani 1 1 d . .
H5 H 1.0445 0.6620 0.3767 0.024 Uiso 1 1 calc R U
C6 C 0.78394(19) 0.65847(12) 0.3556(2) 0.0178(3) Uani 1 1 d . .
C7 C 0.4541(2) 0.66824(14) 0.3168(3) 0.0262(4) Uani 1 1 d . .
H7 H 0.446(3) 0.6221(17) 0.416(3) 0.031 Uiso 1 1 d . U
loop_
_atom_site_aniso_label
_atom_site_aniso_U_11
_atom_site_aniso_U_22
_atom_site_aniso_U_33
_atom_site_aniso_U_23
_atom_site_aniso_U_13
_atom_site_aniso_U_12
F1 0.0252(5) 0.0412(6) 0.0289(6) -0.0060(4) 0.0051(4) -0.0089(4)
O1 0.0461(8) 0.0229(6) 0.0307(7) -0.0022(5) 0.0180(6) 0.0087(5)
N1 0.0280(7) 0.0220(7) 0.0254(7) 0.0013(5) 0.0093(6) 0.0000(5)
C1 0.0164(7) 0.0253(8) 0.0138(7) 0.0009(5) 0.0060(5) 0.0000(6)
F2 0.0196(5) 0.0516(8) 0.0508(7) -0.0063(5) 0.0150(5) 0.0027(5)
O2 0.0351(7) 0.0265(7) 0.0355(7) 0.0052(5) 0.0132(6) -0.0076(5)
C2 0.0217(7) 0.0237(8) 0.0163(7) 0.0014(6) 0.0077(6) 0.0056(6)
C3 0.0282(8) 0.0184(7) 0.0171(7) 0.0010(6) 0.0064(6) -0.0010(6)
C4 0.0198(7) 0.0260(8) 0.0177(7) 0.0023(6) 0.0063(6) -0.0047(6)
C5 0.0174(7) 0.0249(8) 0.0168(7) 0.0029(6) 0.0071(6) 0.0021(6)
C6 0.0205(7) 0.0182(7) 0.0147(6) 0.0013(5) 0.0069(6) 0.0006(5)
C7 0.0171(7) 0.0364(9) 0.0243(8) -0.0014(7) 0.0071(6) -0.0023(7)
loop_
_atom_type_symbol
_atom_type_description
_atom_type_scat_dispersion_real
_atom_type_scat_dispersion_imag
_atom_type_scat_source
C C 0.0033 0.0016 'International Tables Vol C Tables 4.2.6.8 and 6.1.1.4'
H H 0.0000 0.0000 'International Tables Vol C Tables 4.2.6.8 and 6.1.1.4'
N N 0.0061 0.0033 'International Tables Vol C Tables 4.2.6.8 and 6.1.1.4'
O O 0.0106 0.0060 'International Tables Vol C Tables 4.2.6.8 and 6.1.1.4'
F F 0.0171 0.0103 'International Tables Vol C Tables 4.2.6.8 and 6.1.1.4'
loop_
_geom_angle_atom_site_label_1
_geom_angle_atom_site_label_2
_geom_angle_atom_site_label_3
_geom_angle
O2 N1 O1 123.32(15)
O2 N1 C6 118.59(14)
O1 N1 C6 117.95(13)
C2 C1 C6 117.61(13)
C2 C1 C7 119.83(14)
C6 C1 C7 122.51(14)
C1 C2 C3 120.62(14)
C1 C2 H2 119.7
C3 C2 H2 119.7
C4 C3 C2 120.35(14)
C4 C3 H3 119.8
C2 C3 H3 119.8
C3 C4 C5 120.07(14)
C3 C4 H4 120.0
C5 C4 H4 120.0
C6 C5 C4 119.15(14)
C6 C5 H5 120.4
C4 C5 H5 120.4
C5 C6 C1 122.20(14)
C5 C6 N1 116.61(13)
C1 C6 N1 121.18(13)
F2 C7 F1 106.87(13)
F2 C7 C1 110.70(14)
F1 C7 C1 109.35(13)
F2 C7 H7 107.5(12)
F1 C7 H7 101.0(13)
C1 C7 H7 120.4(12)
loop_
_geom_bond_atom_site_label_1
_geom_bond_atom_site_label_2
_geom_bond_distance
F1 C7 1.375(2)
O1 N1 1.2269(18)
N1 O2 1.2242(18)
N1 C6 1.464(2)
C1 C2 1.389(2)
C1 C6 1.396(2)
C1 C7 1.506(2)
F2 C7 1.343(2)
C2 C3 1.391(2)
C2 H2 0.9500
C3 C4 1.378(2)
C3 H3 0.9500
C4 C5 1.383(2)
C4 H4 0.9500
C5 C6 1.377(2)
C5 H5 0.9500
C7 H7 0.96(2)
