#------------------------------------------------------------------------------
#$Date: 2017-07-27 01:34:31 +0300 (Thu, 27 Jul 2017) $
#$Revision: 199346 $
#$URL: file:///home/coder/svn-repositories/cod/cif/4/12/63/4126312.cif $
#------------------------------------------------------------------------------
#
# This file is available in the Crystallography Open Database (COD),
# http://www.crystallography.net/
#
# All data on this site have been placed in the public domain by the
# contributors.
#
data_4126312
loop_
_publ_author_name
'Surbella, Robert G.'
'Ducati, Lucas Colucci'
'Pellegrini, Kristi L.'
'McNamara, Bruce K.'
'Autschbach, Jochen'
'Schwantes, Jon Michael'
'Cahill, Christopher L.'
_publ_section_title
;
 Transuranic Hybrid Materials: Crystallographic and Computational Metrics
 of Supramolecular Assembly.
;
_journal_name_full               'Journal of the American Chemical Society'
_journal_paper_doi               10.1021/jacs.7b05689
_journal_year                    2017
_chemical_formula_moiety         '(C5 H5 Br N 1+)2, (Np O2 Cl4 2-)'
_chemical_formula_sum            'C10 H10 Br2 Cl4 N2 Np O2'
_chemical_formula_weight         728.82
_space_group_crystal_system      monoclinic
_space_group_IT_number           12
_space_group_name_Hall           '-C 2y'
_space_group_name_H-M_alt        'C 1 2/m 1'
_symmetry_cell_setting           monoclinic
_symmetry_Int_Tables_number      12
_symmetry_space_group_name_Hall  '-C 2y'
_symmetry_space_group_name_H-M   'C 1 2/m 1'
_atom_sites_solution_hydrogens   geom
_audit_creation_method           SHELXL-2014/7
_cell_angle_alpha                90
_cell_angle_beta                 102.023(2)
_cell_angle_gamma                90
_cell_formula_units_Z            2
_cell_length_a                   15.9996(11)
_cell_length_b                   8.6659(6)
_cell_length_c                   6.8488(5)
_cell_measurement_reflns_used    9339
_cell_measurement_temperature    296(2)
_cell_measurement_theta_max      55.805
_cell_measurement_theta_min      4.799
_cell_volume                     928.76(11)
_computing_cell_refinement       'SAINT, Bruker-AXS'
_computing_data_collection       'APEX, Bruker-AXS'
_computing_data_reduction        'SAINT, Bruker-AXS'
_computing_molecular_graphics    'WINGX (Farrugia, 2012)'
_computing_publication_material  'Crystal Maker (Palmer, 2009)'
_computing_structure_refinement  'SHELXL-2014/7 (Sheldrick, 2014)'
_computing_structure_solution    'SIR92 (Gualardi, 1994)'
_diffrn_ambient_temperature      296(2)
_diffrn_measured_fraction_theta_full 0.999
_diffrn_measured_fraction_theta_max 0.993
_diffrn_measurement_device_type  'Bruker D8 Venture, Photon CCD'
_diffrn_measurement_method       'omega and phi scans'
_diffrn_radiation_probe          x-ray
_diffrn_radiation_type           AgK\a
_diffrn_radiation_wavelength     0.56086
_diffrn_reflns_av_R_equivalents  0.0361
_diffrn_reflns_av_unetI/netI     0.0157
_diffrn_reflns_Laue_measured_fraction_full 0.999
_diffrn_reflns_Laue_measured_fraction_max 0.993
_diffrn_reflns_limit_h_max       26
_diffrn_reflns_limit_h_min       -26
_diffrn_reflns_limit_k_max       14
_diffrn_reflns_limit_k_min       -14
_diffrn_reflns_limit_l_max       11
_diffrn_reflns_limit_l_min       -11
_diffrn_reflns_number            33516
_diffrn_reflns_point_group_measured_fraction_full 0.999
_diffrn_reflns_point_group_measured_fraction_max 0.993
_diffrn_reflns_theta_full        25.500
_diffrn_reflns_theta_max         27.992
_diffrn_reflns_theta_min         2.399
_diffrn_source                   'Silver microfocus'
_exptl_absorpt_coefficient_mu    9.067
_exptl_absorpt_correction_T_max  0.390
_exptl_absorpt_correction_T_min  0.146
_exptl_absorpt_correction_type   multi-scan
_exptl_absorpt_process_details   'Krause et. al 2015'
_exptl_crystal_colour            Yellow-Green
_exptl_crystal_density_diffrn    2.606
_exptl_crystal_description       Prismatic
_exptl_crystal_F_000             662
_exptl_crystal_recrystallization_method 'Acidic (HCl) aqueous evaporation'
_exptl_crystal_size_max          0.345
_exptl_crystal_size_mid          0.183
_exptl_crystal_size_min          0.128
_exptl_transmission_factor_max   0.7456
_exptl_transmission_factor_min   0.3103
_refine_diff_density_max         1.168
_refine_diff_density_min         -1.014
_refine_diff_density_rms         0.107
_refine_ls_extinction_coef       0.0156(3)
_refine_ls_extinction_expression Fc^*^=kFc[1+0.001xFc^2^\l^3^/sin(2\q)]^-1/4^
_refine_ls_extinction_method     'SHELXL-2014/7 (Sheldrick 2014'
_refine_ls_goodness_of_fit_ref   1.037
_refine_ls_hydrogen_treatment    constr
_refine_ls_matrix_type           full
_refine_ls_number_parameters     59
_refine_ls_number_reflns         2393
_refine_ls_number_restraints     0
_refine_ls_restrained_S_all      1.037
_refine_ls_R_factor_all          0.0166
_refine_ls_R_factor_gt           0.0165
_refine_ls_shift/su_max          0.001
_refine_ls_shift/su_mean         0.000
_refine_ls_structure_factor_coef Fsqd
_refine_ls_weighting_details
'w=1/[\s^2^(Fo^2^)+(0.0127P)^2^+1.3918P] where P=(Fo^2^+2Fc^2^)/3'
_refine_ls_weighting_scheme      calc
_refine_ls_wR_factor_gt          0.0332
_refine_ls_wR_factor_ref         0.0333
_reflns_Friedel_coverage         0.000
_reflns_number_gt                2386
_reflns_number_total             2393
_reflns_threshold_expression     'I > 2\s(I)'
_cod_data_source_file            ja7b05689_si_002.cif
_cod_data_source_block           Compound_7
_cod_original_sg_symbol_H-M      'C 2/m'
_cod_database_code               4126312
_shelx_shelxl_version_number     2014/7
_shelx_space_group_comment
;
The symmetry employed for this shelxl refinement is uniquely defined
by the following loop, which should always be used as a source of
symmetry information in preference to the above space-group names.
They are only intended as comments.
;
_shelx_res_file
;

    shelx.res created by SHELXL-2014/7

TITL SIR92 run in space group C 2/m
CELL  0.56086  15.9996   8.6659   6.8488   90.000  102.023   90.000
ZERR     2.00   0.0011   0.0006   0.0005    0.000    0.002    0.000
LATT   7
SYMM  - X,   Y, - Z
SFAC  C    H    N    O    CL   BR   NP
UNIT  20 20 4 4 8 4 2
MERG   2
OMIT     2   0   0
EQIV $1 x+1/2, y-1/2, z
HTAB C1 Cl1_$1
EQIV $2 -x+3/2, -y+1/2, -z+1
HTAB C2 Cl2_$2
HTAB N1 Cl1_$1
EQIV $3 -x+3/2, -y+3/2, -z
HTAB N1 Cl1_$3
HTAB C1 Cl1_$1
HTAB C2 Cl2_$2
HTAB N1 Cl1_$1
HTAB N1 Cl1_$3
FMAP   2
PLAN   25
SIZE     0.128   0.183   0.345
ACTA    51.00
BOND   $H
CONF
L.S.  24
TEMP    23.00
WGHT    0.012700    1.391800
EXTI    0.015634
FVAR       0.10202
C1    1    0.890032    0.365270    0.378408    11.00000    0.04588    0.04453 =
         0.04574   -0.00633    0.01262    0.00271
AFIX  43
H1    2    0.904612    0.273620    0.323205    11.00000   -1.20000
AFIX   0
C2    1    0.849891    0.361290    0.536093    11.00000    0.04054    0.03999 =
         0.04283    0.00470    0.00857    0.00018
AFIX  43
H2    2    0.837227    0.267880    0.590196    11.00000   -1.20000
AFIX   0
C3    1    0.828645    0.500000    0.612899    10.50000    0.02977    0.04909 =
         0.02826    0.00000    0.00494    0.00000
N1    3    0.908321    0.500000    0.303609    10.50000    0.04328    0.05397 =
         0.03449    0.00000    0.01366    0.00000
AFIX  43
HN1   2    0.932870    0.500002    0.203209    10.50000   -1.20000
AFIX   0
O1    4    0.532990    0.500000   -0.228403    10.50000    0.05064    0.03701 =
         0.03237    0.00000    0.02010    0.00000
CL1   5    0.500000    0.806395    0.000000    10.50000    0.05224    0.01819 =
         0.04616    0.00000    0.01876    0.00000
CL2   5    0.662011    0.500000    0.188129    10.50000    0.03272    0.04376 =
         0.04996    0.00000    0.00110    0.00000
BR1   6    0.767688    0.500000    0.817862    10.50000    0.04536    0.08492 =
         0.04052    0.00000    0.01873    0.00000
NP1   7    0.500000    0.500000    0.000000    10.25000    0.02766    0.01694 =
         0.02377    0.00000    0.00896    0.00000
HKLF    4

REM  SIR92 run in space group C 2/m
REM R1 =  0.0165 for    2386 Fo > 4sig(Fo)  and  0.0166 for all    2393 data
REM     59 parameters refined using      0 restraints

END

WGHT      0.0127      1.3919

REM Highest difference peak  1.168,  deepest hole -1.014,  1-sigma level  0.107
Q1    1   0.7447  0.5000  0.7544  10.50000  0.05    1.17
Q2    1   0.5417  0.5434  0.0219  11.00000  0.05    0.97
Q3    1   0.6458  0.5000  0.2651  10.50000  0.05    0.93
Q4    1   0.7711  0.5609  0.8559  11.00000  0.05    0.76
Q5    1   0.5935  0.5000  0.1390  10.50000  0.05    0.58
Q6    1   0.5489  0.5000 -0.1414  10.50000  0.05    0.50
Q7    1   0.8023  0.5000  0.6786  10.50000  0.05    0.48
Q8    1   0.6566  0.5518  0.1455  11.00000  0.05    0.42
Q9    1   0.5488  0.6179  0.1249  11.00000  0.05    0.41
Q10   1   0.8390  0.4224  0.5689  11.00000  0.05    0.39
Q11   1   0.8708  0.3701  0.4577  11.00000  0.05    0.39
Q12   1   0.7907  0.5000  0.8005  10.50000  0.05    0.38
Q13   1   0.5795  0.5953  0.0428  11.00000  0.05    0.36
Q14   1   0.5920  0.5000  0.0367  10.50000  0.05    0.35
Q15   1   0.6223  0.5507  0.2258  11.00000  0.05    0.34
Q16   1   0.5023  0.5380 -0.2278  11.00000  0.05    0.33
Q17   1   0.6706  0.5000  0.6138  10.50000  0.05    0.33
Q18   1   0.7086  0.5509  0.6593  11.00000  0.05    0.33
Q19   1   0.5714  0.5322  0.2121  11.00000  0.05    0.31
Q20   1   0.5854  0.5000  0.2433  10.50000  0.05    0.31
Q21   1   0.8513  0.5000  0.9124  10.50000  0.05    0.31
Q22   1   0.7220  0.6097  0.6557  11.00000  0.05    0.30
Q23   1   0.8969  0.3507  0.4797  11.00000  0.05    0.30
Q24   1   0.9183  0.3130  0.7804  11.00000  0.05    0.29
Q25   1   0.5686  0.5728 -0.0840  11.00000  0.05    0.29
;
_shelx_res_checksum              34921
_shelx_hkl_file
;
   2   0   0   -0.47    0.01
   2   0   0   -0.45    0.02
   2   0   0   -0.44    0.02
  -4   0   0  257.69   10.14
  -4   0   0  311.17    9.96
   4   0   0  317.65   10.20
   4   0   0  318.81   10.16
   4   0   0  288.40   10.06
  -4   0   0  292.22   10.25
  -4   0   0  289.83    9.95
  -4   0   0  334.89   10.47
   4   0   0  282.28   10.05
   4   0   0  281.52   10.27
  -6   0   0  212.83    6.87
  -6   0   0  184.25    6.89
   6   0   0  205.73    6.87
  -6   0   0  201.92    6.96
  -6   0   0  204.36    6.89
   6   0   0  207.36    6.85
  -6   0   0  191.98    6.88
   6   0   0  208.79    6.86
   6   0   0  212.39    6.90
  -8   0   0  346.10   11.32
   8   0   0  346.57   11.32
   8   0   0  342.68   11.29
   8   0   0  343.06   11.36
  -8   0   0  336.50   11.29
  -8   0   0  322.89   11.43
   8   0   0  341.76   11.31
  -8   0   0  322.61   11.36
   8   0   0  327.60   11.39
  10   0   0   50.48    1.88
 -10   0   0   49.94    2.04
  10   0   0   49.80    1.98
  10   0   0   51.83    1.95
 -10   0   0   50.37    1.93
 -10   0   0   48.66    1.94
 -10   0   0   53.00    1.90
  10   0   0   48.00    1.97
  10   0   0   49.25    1.85
 -10   0   0   51.90    1.87
  12   0   0  188.41    6.62
  12   0   0  188.69    6.59
  12   0   0  192.13    6.70
 -12   0   0  195.89    6.70
  12   0   0  196.62    6.63
 -12   0   0  190.99    6.61
 -12   0   0  195.78    6.65
  12   0   0  190.56    6.76
 -12   0   0  194.59    6.86
  14   0   0   47.38    1.91
  14   0   0   50.24    2.03
 -14   0   0   47.88    2.02
  14   0   0   51.29    2.09
 -14   0   0   51.17    2.20
 -14   0   0   49.52    1.92
  14   0   0   47.71    1.99
 -14   0   0   48.79    1.99
 -14   0   0   49.54    1.97
  14   0   0   48.62    1.92
 -16   0   0   13.88    0.89
  16   0   0   14.24    0.82
  16   0   0   13.69    0.97
  16   0   0   14.36    0.81
 -16   0   0   15.07    0.96
 -16   0   0   12.96    0.90
 -16   0   0   14.13    0.84
 -16   0   0   15.13    1.11
  16   0   0   14.29    0.97
 -18   0   0   51.87    2.26
  18   0   0   56.85    2.35
 -18   0   0   54.16    2.54
  18   0   0   51.88    2.10
  18   0   0   53.80    2.38
 -18   0   0   54.09    2.23
  18   0   0   52.60    2.15
  18   0   0   54.77    2.15
 -20   0   0   10.34    0.97
  20   0   0   11.24    0.82
  20   0   0   11.66    1.16
  20   0   0   11.87    0.77
  20   0   0   12.54    1.08
 -20   0   0   11.98    0.98
  20   0   0   12.11    0.69
 -20   0   0   10.31    1.32
 -20   0   0   11.29    1.05
 -22   0   0    9.21    1.06
 -22   0   0    9.37    1.15
  22   0   0   10.11    1.26
  24   0   0    4.44    0.96
  24   0   0    7.28    1.20
  26   0   0    5.36    1.03
  -3  -1   0  263.55   10.00
   3  -1   0  286.04    9.86
   3  -1   0  294.70    9.85
   3  -1   0  288.91    9.90
  -3  -1   0  279.73    9.93
   3  -1   0  302.18    9.95
   3  -1   0  271.28    9.94
   3  -1   0  277.70    9.92
   3  -1   0  294.60    9.96
  -3  -1   0  272.54    9.97
  -3  -1   0  294.43    9.92
  -3   1   0  246.54    9.88
  -3   1   0  295.46    9.85
   3   1   0  324.14   10.05
   3   1   0  323.92   10.06
   3   1   0  275.09   10.00
   3   1   0  322.86   10.00
   3   1   0  318.00   10.03
  -3   1   0  311.66    9.98
   3   1   0  317.59    9.99
  -5  -1   0  141.85    4.92
   5  -1   0  148.81    4.89
  -5  -1   0  140.96    4.91
   5  -1   0  143.43    4.90
   5  -1   0  147.24    4.87
   5  -1   0  140.88    4.84
  -5  -1   0  147.51    4.90
   5  -1   0  138.81    4.97
  -5  -1   0  143.91    4.89
  -5   1   0  146.51    4.89
   5   1   0  146.50    4.92
   5   1   0  148.43    4.88
   5   1   0  147.50    4.89
   5   1   0  145.49    4.90
  -5   1   0  135.74    4.98
   5   1   0  141.95    4.86
  -5   1   0  150.83    4.87
   5   1   0  150.64    4.92
  -5   1   0  146.98    4.90
  -5   1   0  138.82    4.85
  -5   1   0  134.19    4.82
  -7  -1   0  307.76   10.36
   7  -1   0  319.02   10.30
  -7  -1   0  304.13   10.46
  -7  -1   0  282.89   10.25
  -7  -1   0  323.47   10.32
   7  -1   0  314.51   10.33
  -7  -1   0  317.70   10.30
  -7  -1   0  303.78   10.34
   7  -1   0  307.25   10.26
   7  -1   0  312.80   10.27
   7  -1   0  290.36   10.40
   7   1   0  320.47   10.35
   7   1   0  315.56   10.34
  -7   1   0  276.70   10.28
   7   1   0  275.63   10.39
   7   1   0  304.81   10.28
   7   1   0  330.59   10.29
   7   1   0  329.99   10.31
  -7   1   0  313.60   10.32
  -7   1   0  321.76   10.28
  -7   1   0  279.64   10.26
  -7   1   0  318.73   10.30
   7   1   0  299.85   10.28
  -7   1   0  285.49   10.43
   9  -1   0    1.69    0.23
  -9  -1   0    2.05    0.30
  -9  -1   0    1.57    0.30
   9  -1   0    1.45    0.30
   9  -1   0    1.34    0.21
  -9  -1   0    2.30    0.28
  -9  -1   0    1.95    0.29
   9  -1   0    1.57    0.23
   9  -1   0    1.47    0.26
  -9   1   0    1.33    0.23
  -9   1   0    1.72    0.27
   9   1   0    1.67    0.15
  -9   1   0    1.86    0.28
  -9   1   0    1.64    0.25
   9   1   0    1.54    0.29
   9   1   0    1.77    0.17
   9   1   0    1.72    0.24
  -9   1   0    1.77    0.24
   9   1   0    2.33    0.34
  -9   1   0    1.45    0.32
   9   1   0    1.85    0.25
 -11  -1   0  150.96    5.45
 -11  -1   0  155.91    5.30
 -11  -1   0  148.78    5.25
  11  -1   0  148.51    5.42
  11  -1   0  152.34    5.23
 -11  -1   0  149.60    5.41
  11  -1   0  141.20    5.30
  11  -1   0  154.85    5.33
  11  -1   0  151.44    5.26
 -11  -1   0  155.14    5.34
  11   1   0  152.86    5.35
 -11   1   0  140.68    5.27
  11   1   0  160.70    5.30
 -11   1   0  154.88    5.31
 -11   1   0  152.97    5.51
 -11   1   0  155.23    5.28
  11   1   0  149.51    5.13
  11   1   0  156.03    5.25
 -11   1   0  151.17    5.24
  11   1   0  151.04    5.26
  11   1   0  155.25    5.34
 -13  -1   0   11.61    0.84
  13  -1   0   12.51    0.65
 -13  -1   0   12.57    0.77
 -13  -1   0   12.82    0.74
 -13  -1   0   12.38    0.88
 -13  -1   0   11.27    0.68
  13  -1   0   11.16    0.65
  13  -1   0   12.20    0.79
  13  -1   0   11.85    0.85
  13  -1   0   12.27    0.68
  13   1   0   12.95    0.73
 -13   1   0   12.12    0.72
 -13   1   0   12.15    0.73
 -13   1   0   11.96    0.69
 -13   1   0   12.35    0.67
 -13   1   0   12.27    0.92
  13   1   0   11.59    0.67
  13   1   0   11.50    0.79
  13   1   0   11.47    0.67
  13   1   0   12.54    0.55
  13   1   0   12.29    0.78
 -15  -1   0   63.64    2.56
  15  -1   0   64.93    2.48
  15  -1   0   63.85    2.43
  15  -1   0   66.41    2.59
  15  -1   0   66.55    2.69
  15  -1   0   62.71    2.47
 -15  -1   0   63.55    2.48
 -15  -1   0   61.64    2.70
 -15  -1   0   65.76    2.53
 -15  -1   0   63.76    2.68
 -15   1   0   65.31    2.81
  15   1   0   67.80    2.62
 -15   1   0   66.13    2.56
  15   1   0   69.19    2.51
  15   1   0   66.08    2.31
 -15   1   0   67.71    2.61
  15   1   0   68.44    2.62
  15   1   0   63.63    2.47
  15   1   0   62.32    2.80
 -15   1   0   62.99    2.50
  17  -1   0    5.96    0.59
 -17  -1   0    6.36    0.85
  17  -1   0    5.73    0.82
 -17  -1   0    6.31    0.70
 -17  -1   0    4.54    0.78
  17  -1   0    5.08    0.51
 -17   1   0    5.12    0.58
  17   1   0    5.79    0.57
  17   1   0    5.53    0.58
  17   1   0    3.99    0.53
  17   1   0    6.49    0.75
 -17   1   0    5.15    0.66
  17   1   0    5.72    0.40
 -17   1   0    4.87    0.82
  19  -1   0   35.49    1.81
  19  -1   0   32.40    1.45
  19  -1   0   32.03    1.44
 -19  -1   0   31.92    1.75
 -19  -1   0   32.74    1.62
 -19  -1   0   31.15    1.88
  19  -1   0   35.84    1.72
  19  -1   0   32.20    1.49
 -19  -1   0   30.54    1.69
  19   1   0   35.86    1.77
 -19   1   0   33.33    1.59
 -19   1   0   32.48    1.49
  19   1   0   31.95    1.43
  19   1   0   35.35    2.00
  19   1   0   32.27    1.48
 -19   1   0   31.56    1.96
 -19   1   0   31.06    1.52
  21  -1   0    3.31    0.78
 -21  -1   0    2.82    0.67
 -21  -1   0    2.73    0.77
  21  -1   0    2.97    0.49
  21  -1   0    3.06    0.61
 -21  -1   0    2.59    0.87
  21  -1   0    2.93    0.73
  21   1   0    3.18    0.67
  21   1   0    2.27    0.45
 -21   1   0    2.49    0.58
  21   1   0    2.57    0.70
 -21   1   0    2.31    0.71
  23  -1   0    5.91    0.97
  23  -1   0    6.56    1.16
 -23  -1   0    7.85    1.26
  23   1   0    8.40    1.28
  23   1   0    8.49    1.30
  23   1   0    9.10    1.32
  25  -1   0    4.72    0.94
  25   1   0    3.69    0.80
   0  -2   0  721.71   20.99
   0  -2   0  666.43   20.99
   0  -2   0  556.66   20.86
   0  -2   0  554.68   20.92
   0   2   0  664.12   21.10
   0   2   0  605.62   20.98
   0   2   0  589.04   20.97
   0   2   0  599.78   20.98
   0   2   0  601.60   20.93
   2  -2   0    1.37    0.16
   2  -2   0    1.13    0.21
  -2  -2   0    1.36    0.16
   2  -2   0    1.53    0.18
   2  -2   0    1.59    0.16
  -2  -2   0    1.33    0.18
   2  -2   0    1.30    0.22
  -2  -2   0    1.33    0.19
  -2  -2   0    1.74    0.19
  -2  -2   0    1.65    0.19
   2   2   0    1.01    0.23
   2   2   0    1.49    0.17
   2   2   0    1.15    0.17
  -2   2   0    1.40    0.12
  -2   2   0    1.31    0.21
   2   2   0    1.41    0.18
  -2   2   0    1.25    0.16
  -2   2   0    1.31    0.16
  -2   2   0    1.31    0.18
  -4  -2   0  269.41    9.15
   4  -2   0  254.67    9.07
   4  -2   0  256.71    9.03
   4  -2   0  271.33    9.16
   4  -2   0  276.51    9.03
   4  -2   0  276.31    9.09
   4  -2   0  268.44    9.15
  -4  -2   0  259.54    9.07
  -4  -2   0  258.53    9.05
   4  -2   0  256.44    9.04
  -4  -2   0  228.95    9.13
  -4  -2   0  278.90    9.09
  -4  -2   0  277.72    9.08
   4   2   0  289.58    9.06
   4   2   0  277.16    9.07
  -4   2   0  287.48    9.07
  -4   2   0  272.53    9.03
   4   2   0  261.95    9.09
  -4   2   0  275.19    9.06
  -4   2   0  291.88    9.05
  -4   2   0  246.57    9.10
  -4   2   0  248.67    9.14
   4   2   0  297.81    9.09
   4   2   0  288.17    9.07
  -6  -2   0   47.76    1.74
  -6  -2   0   46.39    1.77
   6  -2   0   48.94    1.72
   6  -2   0   45.86    1.99
   6  -2   0   49.33    1.72
  -6  -2   0   49.56    1.76
   6  -2   0   47.18    1.83
   6  -2   0   50.91    1.67
  -6  -2   0   46.40    1.78
   6  -2   0   48.79    1.74
   6  -2   0   49.57    1.74
   6   2   0   48.66    1.74
   6   2   0   48.56    1.76
   6   2   0   43.72    1.86
  -6   2   0   48.01    1.74
  -6   2   0   47.29    1.88
  -6   2   0   47.64    1.67
  -6   2   0   48.32    1.72
   6   2   0   48.99    1.79
   6   2   0   46.64    1.75
  -6   2   0   42.68    1.76
  -8  -2   0  121.68    4.28
  -8  -2   0  126.18    4.54
  -8  -2   0  126.22    4.34
   8  -2   0  125.67    4.20
   8  -2   0  128.59    4.28
  -8  -2   0  120.62    4.30
   8  -2   0  126.52    4.30
  -8  -2   0  125.39    4.31
   8  -2   0  127.71    4.25
  -8  -2   0  110.55    4.29
   8  -2   0  119.16    4.43
  -8   2   0  107.84    4.24
   8   2   0  126.25    4.33
  -8   2   0  126.40    4.25
   8   2   0  128.05    4.25
   8   2   0  131.70    4.36
  -8   2   0  117.91    4.21
   8   2   0  124.91    4.34
  -8   2   0  128.41    4.29
   8   2   0  123.70    4.29
  -8   2   0  108.04    4.61
   8   2   0  126.32    4.29
   8   2   0  128.78    4.27
  10  -2   0   12.43    0.56
 -10  -2   0   11.87    0.64
  10  -2   0   11.41    0.59
  10  -2   0   12.54    0.63
 -10  -2   0   11.56    0.68
 -10  -2   0   11.42    0.61
  10  -2   0   11.57    0.67
  10  -2   0   10.78    0.75
 -10  -2   0   11.76    0.67
 -10  -2   0   11.48    0.68
 -10  -2   0   11.95    0.85
  10   2   0   11.88    0.61
  10   2   0   11.84    0.69
 -10   2   0   11.70    0.81
 -10   2   0   12.22    0.62
  10   2   0   12.39    0.66
  10   2   0   12.55    0.68
 -10   2   0   10.24    0.53
 -10   2   0   12.12    0.49
 -10   2   0   12.71    0.65
  10   2   0   11.38    0.62
  12  -2   0  101.25    3.88
 -12  -2   0   99.54    3.78
  12  -2   0  104.54    3.68
  12  -2   0  101.99    3.73
 -12  -2   0   98.38    3.74
 -12  -2   0  105.93    3.73
 -12  -2   0  102.31    3.57
 -12  -2   0  107.14    4.00
  12  -2   0  101.37    3.63
 -12  -2   0  102.28    3.69
  12   2   0   99.43    3.75
  12   2   0  101.70    3.64
 -12   2   0   93.43    3.64
 -12   2   0  102.49    3.97
  12   2   0  102.33    3.75
 -12   2   0  102.86    3.53
 -12   2   0  103.96    3.68
  12   2   0  113.37    3.74
  12   2   0  105.94    3.53
  12   2   0  103.31    3.72
  12   2   0  102.84    3.67
  14  -2   0   20.39    0.94
  14  -2   0   20.40    1.01
 -14  -2   0   20.30    1.32
  14  -2   0   22.85    1.28
  14  -2   0   21.02    0.99
 -14  -2   0   22.17    1.12
  14  -2   0   22.12    1.12
 -14  -2   0   22.52    1.11
 -14  -2   0   19.53    1.15
  14   2   0   20.88    1.01
  14   2   0   21.56    1.15
  14   2   0   21.24    1.13
  14   2   0   20.47    1.00
  14   2   0   21.67    1.09
 -14   2   0   19.25    1.11
 -14   2   0   21.13    1.05
 -14   2   0   21.61    1.32
  14   2   0   23.63    1.08
 -14   2   0   21.71    0.90
  16  -2   0    5.87    0.57
 -16  -2   0    6.73    0.79
  16  -2   0    6.70    0.84
 -16  -2   0    6.06    0.88
 -16  -2   0    5.99    0.80
  16  -2   0    6.18    0.59
  16  -2   0    6.99    0.80
  16  -2   0    6.82    0.53
 -16  -2   0    5.82    0.70
 -16  -2   0    7.06    0.73
 -16   2   0    6.57    0.59
  16   2   0    7.16    0.66
  16   2   0    5.56    0.59
  16   2   0    6.15    0.77
  16   2   0    7.21    0.59
  16   2   0    7.17    0.78
 -16   2   0    7.10    0.93
  16   2   0    6.52    0.70
 -16   2   0    6.82    0.72
  18  -2   0   30.61    1.33
 -18  -2   0   29.29    1.77
  18  -2   0   31.75    1.73
 -18  -2   0   30.75    1.47
 -18  -2   0   26.75    1.63
  18  -2   0   32.62    1.60
  18  -2   0   29.31    1.39
 -18  -2   0   31.54    1.54
 -18   2   0   30.40    1.27
  18   2   0   30.79    1.51
  18   2   0   29.04    1.38
  18   2   0   26.61    1.39
 -18   2   0   30.94    1.93
 -18   2   0   29.52    1.40
  18   2   0   32.44    1.63
  18   2   0   30.06    1.62
 -18   2   0   31.71    1.49
 -20  -2   0    5.95    0.99
 -20  -2   0    4.74    0.87
  20  -2   0    4.33    0.62
 -20  -2   0    5.69    0.80
  20  -2   0    5.39    0.78
  20  -2   0    4.51    0.53
  20  -2   0    5.70    0.94
 -20  -2   0    5.76    0.77
  20  -2   0    3.94    0.64
  20   2   0    5.33    0.77
 -20   2   0    4.77    0.59
  20   2   0    4.93    0.74
 -20   2   0    4.51    0.69
 -20   2   0    5.40    0.74
  20   2   0    4.14    0.57
  20   2   0    6.37    0.92
  20   2   0    6.02    0.83
 -22  -2   0    7.49    1.15
  22  -2   0    9.05    1.08
 -22  -2   0    7.64    1.31
  22  -2   0    6.64    1.16
  22   2   0    9.89    1.23
 -22   2   0    7.49    1.06
  22   2   0    9.16    1.16
  22   2   0    8.53    0.89
  24  -2   0    4.50    0.91
  24  -2   0    2.33    0.89
 -24  -2   0    3.78    1.13
  24   2   0    4.27    0.87
  24   2   0    2.56    0.90
  24   2   0    4.16    0.89
   1  -3   0  465.57   14.64
   1  -3   0  426.37   14.58
  -1  -3   0  396.04   14.48
  -1  -3   0  442.74   14.42
  -1  -3   0  449.97   14.67
  -1  -3   0  405.02   14.61
  -1  -3   0  454.33   14.59
   1  -3   0  399.74   14.65
   1  -3   0  462.54   14.78
   1   3   0  427.06   14.55
   1   3   0  464.45   14.64
   1   3   0  452.80   14.56
   1   3   0  452.97   14.55
   1   3   0  423.60   14.44
  -1   3   0  466.77   14.58
  -1   3   0  404.64   14.45
  -1   3   0  410.75   14.63
  -1   3   0  395.95   14.65
  -1   3   0  418.40   14.41
  -1   3   0  408.74   14.42
   1   3   0  444.73   14.60
  -1   3   0  418.50   14.81
  -1   3   0  470.01   14.66
   1   3   0  399.84   14.53
   3  -3   0  216.35    7.71
  -3  -3   0  220.06    7.74
  -3  -3   0  230.18    7.75
   3  -3   0  213.51    7.74
   3  -3   0  231.99    7.86
   3  -3   0  243.56    7.71
   3  -3   0  218.06    7.71
  -3  -3   0  202.15    7.88
  -3  -3   0  223.17    7.76
  -3  -3   0  223.37    7.71
   3  -3   0  227.63    7.64
   3  -3   0  225.56    7.83
  -3  -3   0  237.71    7.75
   3   3   0  231.50    7.84
  -3   3   0  229.89    7.72
  -3   3   0  233.41    7.86
  -3   3   0  244.32    7.65
  -3   3   0  229.23    7.84
   3   3   0  232.71    7.73
  -3   3   0  218.11    7.74
   3   3   0  244.36    7.74
  -3   3   0  242.49    7.72
   3   3   0  231.41    7.74
   3   3   0  238.78    7.74
  -5  -3   0  157.94    5.36
  -5  -3   0  149.82    5.33
   5  -3   0  157.08    5.38
   5  -3   0  155.11    5.48
   5  -3   0  163.00    5.30
   5  -3   0  151.44    5.33
   5  -3   0  149.18    5.20
   5  -3   0  152.72    5.33
  -5  -3   0  134.49    5.46
  -5  -3   0  160.90    5.37
  -5  -3   0  154.43    5.36
   5  -3   0  157.69    5.22
   5  -3   0  154.91    5.30
   5   3   0  153.85    5.44
   5   3   0  162.15    5.33
  -5   3   0  153.98    5.33
  -5   3   0  154.77    5.43
  -5   3   0  159.35    5.22
   5   3   0  159.28    5.35
  -5   3   0  157.26    5.30
   5   3   0  162.41    5.35
  -5   3   0  154.01    5.46
   5   3   0  152.81    5.39
  -5   3   0  162.24    5.32
   7  -3   0  458.36   14.94
  -7  -3   0  446.98   15.01
  -7  -3   0  439.24   14.98
   7  -3   0  436.49   14.96
   7  -3   0  441.81   14.93
   7  -3   0  421.14   15.14
  -7  -3   0  456.76   15.31
  -7  -3   0  399.23   15.08
   7  -3   0  456.02   15.05
   7  -3   0  437.29   14.96
  -7  -3   0  416.50   15.09
   7  -3   0  458.91   14.89
   7  -3   0  431.45   15.03
  -7  -3   0  412.89   14.91
  -7   3   0  455.54   14.97
   7   3   0  466.41   15.01
   7   3   0  472.95   14.96
   7   3   0  468.13   14.98
   7   3   0  478.71   15.01
  -7   3   0  431.72   15.03
   7   3   0  480.80   15.02
  -7   3   0  448.87   15.01
  -7   3   0  465.97   14.94
  -7   3   0  421.98   15.13
   9  -3   0   26.84    1.09
  -9  -3   0   27.32    1.20
   9  -3   0   27.84    1.14
   9  -3   0   28.00    1.17
  -9  -3   0   23.38    1.20
   9  -3   0   27.54    1.13
  -9  -3   0   27.44    1.16
   9  -3   0   28.70    1.03
  -9  -3   0   28.37    1.46
   9  -3   0   27.39    1.33
  -9  -3   0   26.22    1.12
  -9  -3   0   26.12    1.19
   9   3   0   28.74    1.15
  -9   3   0   27.58    1.05
   9   3   0   29.75    1.21
   9   3   0   27.26    1.12
  -9   3   0   27.48    1.15
   9   3   0   26.77    1.19
   9   3   0   25.60    1.13
   9   3   0   27.04    1.19
  -9   3   0   27.24    1.34
  -9   3   0   27.55    1.11
  -9   3   0   24.05    1.15
  11  -3   0  177.10    5.68
  11  -3   0  161.06    5.90
  11  -3   0  161.31    5.66
 -11  -3   0  154.43    5.68
 -11  -3   0  170.90    5.74
 -11  -3   0  165.27    5.75
 -11  -3   0  165.79    6.06
  11  -3   0  165.29    5.62
  11  -3   0  161.78    5.70
 -11  -3   0  159.57    5.69
  11  -3   0  162.47    5.54
 -11  -3   0  148.14    5.68
 -11   3   0  165.87    5.63
  11   3   0  179.17    5.74
 -11   3   0  144.96    5.60
  11   3   0  163.69    5.67
  11   3   0  162.93    5.74
  11   3   0  164.01    5.73
 -11   3   0  167.25    5.68
 -11   3   0  146.92    5.66
  11   3   0  165.73    5.61
  11   3   0  166.58    5.64
 -11   3   0  165.86    5.96
 -13  -3   0   33.18    1.48
  13  -3   0   33.66    1.51
  13  -3   0   33.85    1.41
  13  -3   0   28.74    1.34
 -13  -3   0   33.03    1.44
 -13  -3   0   31.57    1.38
  13  -3   0   34.34    1.42
  13  -3   0   33.81    1.68
 -13  -3   0   31.85    1.48
 -13  -3   0   31.06    1.46
  13  -3   0   32.71    1.36
 -13  -3   0   34.91    1.82
  13   3   0   33.33    1.61
  13   3   0   33.49    1.37
 -13   3   0   33.32    1.71
  13   3   0   32.44    1.40
  13   3   0   31.40    1.49
  13   3   0   36.88    1.48
  13   3   0   34.13    1.30
  13   3   0   33.06    1.48
 -13   3   0   31.69    1.42
 -13   3   0   33.16    1.37
 -13   3   0   31.09    1.26
 -13   3   0   31.11    1.35
 -15  -3   0   63.36    2.90
  15  -3   0   65.12    2.36
  15  -3   0   66.26    2.51
 -15  -3   0   54.84    2.70
 -15  -3   0   59.73    2.55
  15  -3   0   65.06    2.57
  15  -3   0   64.57    2.43
 -15  -3   0   64.28    2.51
 -15  -3   0   65.01    2.57
  15  -3   0   67.73    2.80
  15  -3   0   62.94    2.46
  15   3   0   60.38    2.45
  15   3   0   63.50    2.48
  15   3   0   68.96    2.54
 -15   3   0   62.36    2.43
  15   3   0   66.32    2.62
 -15   3   0   64.31    2.50
  15   3   0   64.46    2.29
 -15   3   0   67.57    2.88
  15   3   0   65.36    2.59
  15   3   0   62.17    2.43
  17  -3   0   10.28    0.64
 -17  -3   0   10.12    1.18
 -17  -3   0    8.80    0.90
 -17  -3   0   10.07    0.89
  17  -3   0   10.21    1.07
 -17  -3   0    9.81    0.83
  17  -3   0   10.44    0.94
  17  -3   0   10.61    0.73
  17  -3   0   10.89    0.75
  17   3   0    9.22    0.91
 -17   3   0   10.27    0.84
 -17   3   0   10.69    0.75
  17   3   0    9.83    0.75
  17   3   0   10.28    0.99
  17   3   0    8.51    0.71
  17   3   0   10.12    0.77
  19  -3   0   41.19    1.82
  19  -3   0   44.08    1.91
  19  -3   0   45.15    2.05
 -19  -3   0   39.71    2.06
 -19  -3   0   43.22    2.35
  19  -3   0   40.61    1.70
 -19  -3   0   43.34    1.99
  19  -3   0   45.16    2.25
 -19  -3   0   41.54    1.93
  19   3   0   44.26    2.07
 -19   3   0   42.16    1.87
  19   3   0   40.43    1.85
 -19   3   0   41.64    1.93
  19   3   0   41.81    1.81
  19   3   0   41.36    1.87
  19   3   0   41.63    2.01
 -21  -3   0    3.52    0.77
  21  -3   0    4.03    0.91
  21  -3   0    4.19    0.56
  21  -3   0    5.76    0.91
  21  -3   0    6.52    0.99
 -21  -3   0    4.74    1.55
  21   3   0    4.73    0.89
  21   3   0    4.45    0.79
 -21   3   0    4.34    0.73
  21   3   0    4.64    0.70
 -23  -3   0    6.82    1.27
  23  -3   0    6.57    1.08
  23  -3   0    6.18    0.96
  23   3   0    6.97    0.97
  23   3   0    6.80    1.08
 -25  -3   0    5.44    1.53
  25  -3   0    5.61    1.11
   0  -4   0  497.77   17.86
   0  -4   0  509.58   17.75
   0  -4   0  561.30   17.79
   0  -4   0  524.81   17.64
   0  -4   0  566.28   17.77
   0   4   0  518.33   17.64
   0   4   0  524.09   17.86
   0   4   0  600.27   17.86
   0   4   0  500.59   17.69
   0   4   0  503.30   17.70
   0   4   0  498.85   17.65
  -2  -4   0   36.64    1.79
  -2  -4   0   44.25    1.63
  -2  -4   0   40.75    1.60
   2  -4   0   44.49    1.59
   2  -4   0   43.21    1.58
  -2  -4   0   43.46    1.62
  -2  -4   0   37.95    1.72
  -2  -4   0   43.44    1.66
   2  -4   0   38.99    1.75
  -2   4   0   43.86    1.60
  -2   4   0   42.89    1.60
   2   4   0   45.25    1.62
  -2   4   0   43.17    1.61
   2   4   0   44.45    1.62
  -2   4   0   42.18    1.66
   2   4   0   44.71    1.64
  -2   4   0   48.70    1.80
   2   4   0   41.05    1.59
  -2   4   0   41.95    1.70
   2   4   0   42.99    1.74
   2   4   0   43.40    1.56
  -4  -4   0  326.85   11.19
   4  -4   0  317.40   11.14
   4  -4   0  345.60   11.13
  -4  -4   0  283.29   11.36
  -4  -4   0  317.05   11.20
  -4  -4   0  323.70   11.14
   4  -4   0  337.94   11.14
   4  -4   0  348.41   11.45
  -4  -4   0  314.65   11.17
   4  -4   0  307.66   11.18
  -4  -4   0  343.57   11.19
   4  -4   0  312.85   11.14
   4  -4   0  339.51   11.31
  -4   4   0  367.45   11.36
   4   4   0  343.78   11.29
  -4   4   0  353.64   11.06
  -4   4   0  326.05   11.15
  -4   4   0  322.99   11.31
   4   4   0  332.30   11.16
   4   4   0  346.69   11.18
  -4   4   0  308.64   11.18
  -4   4   0  349.42   11.15
   4   4   0  337.45   11.19
   4   4   0  338.97   11.16
  -6  -4   0   87.65    3.20
   6  -4   0   89.97    3.03
   6  -4   0   87.07    3.14
   6  -4   0   86.34    3.37
   6  -4   0   87.72    3.18
   6  -4   0   82.10    3.03
  -6  -4   0   77.53    3.35
   6  -4   0   92.69    3.14
   6  -4   0   87.62    3.25
  -6  -4   0   88.59    3.21
  -6  -4   0   87.87    3.21
   6  -4   0   88.12    3.18
  -6  -4   0   91.10    3.24
  -6   4   0   94.00    3.33
  -6   4   0   89.82    3.04
  -6   4   0   89.01    3.16
   6   4   0   91.80    3.20
  -6   4   0   89.59    3.19
   6   4   0   91.40    3.26
  -6   4   0   89.64    3.36
   6   4   0   91.88    3.17
   6   4   0   90.34    3.19
   6   4   0   89.29    3.19
  -6   4   0   90.08    3.15
   8  -4   0  110.60    4.28
  -8  -4   0  100.68    4.22
  -8  -4   0  111.96    4.10
  -8  -4   0  116.36    4.12
  -8  -4   0  110.30    3.97
   8  -4   0  111.79    4.05
   8  -4   0  117.77    4.11
   8  -4   0  114.41    3.90
  -8  -4   0  116.81    4.47
   8  -4   0  118.92    4.02
  -8  -4   0  114.86    4.08
   8  -4   0  112.39    4.08
  -8  -4   0  112.82    4.11
   8  -4   0  113.92    4.01
  -8   4   0  116.90    4.03
   8   4   0  114.59    4.06
   8   4   0  112.77    4.08
   8   4   0  119.80    4.04
  -8   4   0  116.47    3.92
   8   4   0  113.09    4.08
  -8   4   0  119.63    4.18
  -8   4   0  114.56    4.27
  -8   4   0  117.04    4.07
   8   4   0  121.70    4.13
 -10  -4   0   30.63    1.34
  10  -4   0   31.83    1.15
 -10  -4   0   26.66    1.41
  10  -4   0   28.87    1.32
 -10  -4   0   28.43    1.24
  10  -4   0   30.74    1.37
  10  -4   0   29.41    1.54
 -10  -4   0   31.45    1.39
  10  -4   0   30.62    1.26
  10  -4   0   33.34    1.30
 -10  -4   0   32.09    1.72
  10  -4   0   31.97    1.32
 -10  -4   0   31.02    1.38
 -10   4   0   31.68    1.42
 -10   4   0   30.32    1.18
 -10   4   0   31.54    1.56
  10   4   0   31.08    1.32
  10   4   0   31.92    1.29
 -10   4   0   31.76    1.29
  10   4   0   30.57    1.37
 -10   4   0   28.74    1.36
  10   4   0   31.12    1.36
  10   4   0   30.81    1.31
  10   4   0   32.43    1.36
 -12  -4   0  108.52    3.90
  12  -4   0  108.52    3.80
  12  -4   0  106.49    3.85
 -12  -4   0   94.86    3.91
 -12  -4   0  110.38    4.34
 -12  -4   0  106.11    3.94
  12  -4   0  101.77    3.93
  12  -4   0  107.54    3.89
 -12  -4   0   97.93    3.80
  12  -4   0  108.48    3.69
 -12  -4   0  109.45    3.94
  12  -4   0  107.46    4.16
  12  -4   0  111.81    3.84
  12   4   0  110.48    3.82
 -12   4   0  108.28    3.81
  12   4   0  107.88    3.92
  12   4   0  106.15    3.82
 -12   4   0  112.81    4.21
  12   4   0  106.69    3.85
 -12   4   0  100.70    3.72
 -12   4   0  106.63    3.88
  12   4   0  112.09    3.91
 -12   4   0   99.69    3.84
  14  -4   0   28.61    1.40
  14  -4   0   28.72    1.16
 -14  -4   0   27.11    1.34
  14  -4   0   29.43    1.63
 -14  -4   0   29.80    1.38
 -14  -4   0   31.54    1.88
 -14  -4   0   25.43    1.30
  14  -4   0   27.21    1.25
 -14  -4   0   30.54    1.45
 -14  -4   0   29.17    1.42
  14  -4   0   29.08    1.32
  14  -4   0   29.25    1.33
 -14   4   0   29.29    1.36
  14   4   0   29.65    1.43
  14   4   0   29.83    1.36
  14   4   0   28.71    1.28
 -14   4   0   31.15    1.71
  14   4   0   28.45    1.44
  14   4   0   28.87    1.31
 -14   4   0   26.23    1.20
 -14   4   0   28.62    1.29
 -14   4   0   26.11    1.23
  14   4   0   30.27    1.24
  16  -4   0   12.83    1.00
  16  -4   0   12.57    0.78
 -16  -4   0   13.23    1.37
  16  -4   0   13.15    0.84
 -16  -4   0   13.02    0.98
 -16  -4   0   11.06    0.94
  16  -4   0   12.21    0.68
  16  -4   0   12.44    1.21
 -16  -4   0   12.73    1.01
 -16   4   0   14.05    0.85
  16   4   0   12.69    0.83
  16   4   0   13.37    0.80
 -16   4   0   13.59    0.94
  16   4   0   13.25    1.01
  16   4   0   13.84    0.70
 -16   4   0   12.19    0.63
  16   4   0   12.20    1.23
  18  -4   0   29.31    1.56
  18  -4   0   26.15    1.34
  18  -4   0   25.94    1.17
  18  -4   0   30.77    1.82
 -18  -4   0   27.12    1.55
 -18  -4   0   27.23    1.44
 -18  -4   0   29.72    1.98
  18  -4   0   26.17    1.28
 -18  -4   0   24.12    1.45
  18   4   0   26.49    1.10
 -18   4   0   26.26    1.32
  18   4   0   28.43    1.56
  18   4   0   26.24    1.31
  18   4   0   28.68    1.55
 -18   4   0   27.80    1.48
  18   4   0   26.58    1.32
  20  -4   0    5.69    0.85
  20  -4   0    5.03    0.71
  20  -4   0    5.79    1.01
  20  -4   0    4.43    0.53
 -20  -4   0    4.69    0.88
 -20  -4   0    7.43    1.29
  20   4   0    5.69    0.72
 -20   4   0    7.39    0.96
  20   4   0    4.68    0.81
  20   4   0    5.68    0.84
 -22  -4   0    9.03    1.47
  22  -4   0    7.87    1.05
  22  -4   0    9.76    1.38
  22   4   0    9.09    1.24
  22   4   0    7.68    1.12
  24  -4   0    4.89    1.10
 -24  -4   0    7.32    1.37
  24   4   0    3.12    1.06
  -1  -5   0   99.12    3.51
   1  -5   0   96.72    3.63
   1  -5   0  101.84    3.47
  -1  -5   0   96.12    3.53
   1  -5   0   95.23    3.42
  -1  -5   0   97.38    3.49
   1  -5   0   90.21    3.54
  -1  -5   0   94.67    3.58
  -1  -5   0  101.85    3.49
   1  -5   0   87.16    3.69
  -1   5   0   99.80    3.58
   1   5   0   96.19    3.50
   1   5   0   99.47    3.53
  -1   5   0   99.43    3.50
  -1   5   0  108.30    3.70
   1   5   0   94.45    3.46
   1   5   0  109.11    3.70
  -1   5   0   99.42    3.47
  -1   5   0   98.06    3.55
  -1   5   0   98.54    3.47
   1   5   0  100.04    3.56
  -1   5   0   95.41    3.43
   1   5   0   99.24    3.50
   1   5   0   96.98    3.42
  -1   5   0   96.34    3.50
   1   5   0   99.27    3.48
   3  -5   0   62.78    2.54
  -3  -5   0   62.15    2.37
  -3  -5   0   65.05    2.37
   3  -5   0   60.54    2.54
  -3  -5   0   62.77    2.38
  -3  -5   0   63.35    2.41
   3  -5   0   63.85    2.42
  -3  -5   0   59.96    2.38
  -3  -5   0   55.02    2.59
   3  -5   0   66.32    2.32
   3  -5   0   64.58    2.32
  -3   5   0   66.65    2.27
  -3   5   0   64.25    2.35
   3   5   0   67.85    2.52
   3   5   0   59.82    2.35
  -3   5   0   65.36    2.33
   3   5   0   62.29    2.37
  -3   5   0   63.45    2.40
  -3   5   0   64.45    2.47
   3   5   0   65.34    2.35
  -3   5   0   62.87    2.32
  -3   5   0   64.91    2.36
  -3   5   0   70.83    2.57
   3   5   0   63.23    2.34
   3   5   0   62.94    2.34
   5  -5   0   39.02    1.73
  -5  -5   0   37.87    1.68
  -5  -5   0   40.66    1.64
  -5  -5   0   39.22    1.63
   5  -5   0   39.49    1.64
   5  -5   0   41.95    1.57
  -5  -5   0   34.70    1.82
   5  -5   0   40.09    1.81
  -5  -5   0   40.64    1.63
   5  -5   0   41.27    1.59
  -5  -5   0   40.23    1.68
   5  -5   0   40.85    1.59
   5   5   0   40.99    1.61
   5   5   0   41.89    1.59
  -5   5   0   41.69    1.48
  -5   5   0   39.73    1.59
  -5   5   0   45.41    1.81
  -5   5   0   40.73    1.60
  -5   5   0   42.14    1.77
   5   5   0   40.42    1.60
  -5   5   0   41.16    1.65
   5   5   0   40.00    1.71
   5   5   0   40.08    1.62
   7  -5   0  146.44    5.17
   7  -5   0  148.96    5.31
   7  -5   0  145.15    5.03
  -7  -5   0  152.20    5.27
  -7  -5   0  158.27    5.69
  -7  -5   0  148.07    5.29
   7  -5   0  144.19    5.22
  -7  -5   0  149.74    5.26
  -7  -5   0  144.07    5.13
  -7  -5   0  129.67    5.43
   7  -5   0  140.41    5.03
   7  -5   0  144.80    5.46
   7  -5   0  154.08    5.17
   7  -5   0  142.33    5.20
  -7  -5   0  145.11    5.24
   7   5   0  153.73    5.31
  -7   5   0  148.22    5.19
  -7   5   0  154.78    5.44
  -7   5   0  148.76    5.19
   7   5   0  149.63    5.22
   7   5   0  153.33    5.23
  -7   5   0  152.21    5.05
   7   5   0  149.27    5.22
   7   5   0  150.87    5.19
  -7   5   0  146.12    5.24
  -7   5   0  167.35    5.44
  -9  -5   0    4.04    0.31
   9  -5   0    4.00    0.46
  -9  -5   0    4.38    0.57
  -9  -5   0    3.72    0.49
  -9  -5   0    3.30    0.49
   9  -5   0    3.97    0.41
   9  -5   0    4.12    0.48
   9  -5   0    3.79    0.44
   9  -5   0    3.60    0.63
   9  -5   0    3.42    0.37
   9  -5   0    4.14    0.27
  -9  -5   0    3.82    0.63
  -9  -5   0    3.54    0.48
  -9  -5   0    5.12    0.83
  -9  -5   0    4.18    0.37
  -9   5   0    3.67    0.59
  -9   5   0    4.18    0.57
  -9   5   0    4.26    0.33
   9   5   0    4.65    0.49
   9   5   0    4.82    0.51
   9   5   0    4.00    0.50
  -9   5   0    3.98    0.56
   9   5   0    4.02    0.44
   9   5   0    4.32    0.42
  -9   5   0    3.80    0.44
  11  -5   0   56.21    2.04
  11  -5   0   56.88    2.25
 -11  -5   0   60.84    2.79
  11  -5   0   57.06    2.27
  11  -5   0   56.89    2.19
  11  -5   0   56.83    2.30
  11  -5   0   58.03    2.20
 -11  -5   0   50.73    2.12
 -11  -5   0   55.45    2.29
 -11  -5   0   60.94    2.36
 -11  -5   0   55.25    2.32
  11  -5   0   56.60    2.57
  11   5   0   62.92    2.30
 -11   5   0   59.23    2.36
 -11   5   0   57.80    2.28
  11   5   0   58.85    2.27
  11   5   0   55.74    2.35
 -11   5   0   59.79    2.56
  11   5   0   55.66    2.29
 -11   5   0   59.19    2.25
 -11   5   0   53.96    2.07
  11   5   0   59.84    2.22
  11   5   0   59.47    2.26
  13  -5   0   10.01    0.78
  13  -5   0   11.13    0.55
 -13  -5   0   10.75    0.82
 -13  -5   0   12.17    1.29
 -13  -5   0   10.13    0.87
  13  -5   0   11.03    0.76
 -13  -5   0    9.70    0.86
 -13  -5   0    9.14    0.65
  13  -5   0   10.80    0.83
  13  -5   0   12.16    0.72
 -13  -5   0   10.12    0.81
  13  -5   0   10.99    1.11
  13  -5   0   10.77    0.68
  13   5   0   11.18    0.71
 -13   5   0    8.47    0.86
  13   5   0   10.48    0.85
  13   5   0   12.49    0.78
 -13   5   0   10.12    0.71
  13   5   0   10.55    0.88
 -13   5   0   11.17    1.02
 -13   5   0   10.47    0.61
  13   5   0   11.38    0.70
 -13   5   0   11.33    0.80
  13   5   0   10.94    0.74
  15  -5   0   21.85    1.51
  15  -5   0   24.35    1.12
 -15  -5   0   26.39    1.87
 -15  -5   0   24.49    1.28
  15  -5   0   23.09    0.97
  15  -5   0   20.36    1.86
 -15  -5   0   19.20    1.10
 -15  -5   0   22.93    1.25
  15  -5   0   22.97    1.18
 -15  -5   0   25.40    1.37
  15   5   0   21.68    1.63
 -15   5   0   20.81    1.06
 -15   5   0   23.23    1.25
  15   5   0   23.92    1.41
 -15   5   0   19.86    1.11
  15   5   0   24.97    1.13
 -15   5   0   22.24    1.14
  15   5   0   23.68    1.17
  15   5   0   25.24    1.11
  17  -5   0    4.31    0.58
 -17  -5   0    3.86    0.64
 -17  -5   0    4.03    0.59
  17  -5   0    5.08    0.76
  17  -5   0    4.99    0.43
 -17  -5   0    7.16    1.36
 -17  -5   0    4.40    0.88
  17  -5   0    5.06    0.95
  17  -5   0    4.71    0.55
  17   5   0    4.81    0.74
 -17   5   0    4.34    0.51
  17   5   0    4.81    0.68
 -17   5   0    2.72    0.51
 -17   5   0    4.15    0.71
  17   5   0    4.76    0.74
  17   5   0    4.95    0.52
  17   5   0    4.89    0.64
  19  -5   0   18.88    1.17
 -19  -5   0   22.78    1.92
  19  -5   0   20.52    1.43
 -19  -5   0   21.57    1.46
  19  -5   0   18.12    0.92
  19  -5   0   20.15    1.65
 -19   5   0   18.26    1.33
 -19   5   0   19.62    1.34
  19   5   0   19.91    1.34
  19   5   0   19.84    1.39
  19   5   0   19.15    1.14
  21  -5   0    2.58    0.75
 -21  -5   0    3.13    1.17
 -21  -5   0    2.23    0.82
  21  -5   0    2.63    0.93
  21   5   0    3.81    0.83
  21   5   0    2.61    0.71
 -21   5   0    1.74    0.80
  23  -5   0    2.98    0.95
  23  -5   0    3.59    1.09
 -23  -5   0    4.92    1.40
  23   5   0    2.60    0.86
  23   5   0    2.38    0.82
   0  -6   0  386.36   13.55
   0  -6   0  411.84   13.63
   0  -6   0  371.85   13.93
   0  -6   0  428.57   13.93
   0  -6   0  420.58   13.63
   0  -6   0  413.19   13.82
   0   6   0  396.83   13.66
   0   6   0  404.50   13.66
   0   6   0  397.06   13.54
   0   6   0  408.39   13.62
   0   6   0  407.56   13.72
   0   6   0  397.25   13.62
  -2  -6   0   48.25    2.44
   2  -6   0   59.60    2.62
  -2  -6   0   56.31    2.19
   2  -6   0   56.66    2.13
  -2  -6   0   53.23    2.27
   2  -6   0   60.30    2.17
   2  -6   0   56.80    2.38
  -2  -6   0   57.20    2.22
   2  -6   0   57.62    2.17
  -2  -6   0   57.69    2.21
  -2  -6   0   59.00    2.27
   2  -6   0   53.99    2.44
  -2  -6   0   59.00    2.51
   2   6   0   64.46    2.40
   2   6   0   57.48    2.21
  -2   6   0   55.90    2.17
   2   6   0   56.35    2.18
  -2   6   0   56.50    2.20
   2   6   0   58.16    2.27
   2   6   0   55.23    2.17
  -2   6   0   57.90    2.11
  -2   6   0   56.19    2.12
   2   6   0   56.09    2.21
  -2   6   0   60.19    2.31
  -2   6   0   58.88    2.17
  -2   6   0   59.47    2.21
   2   6   0   58.99    2.10
  -2   6   0   58.52    2.27
   2   6   0   60.63    2.19
   2   6   0   57.63    2.23
  -4  -6   0  148.09    5.40
  -4  -6   0  156.64    5.35
   4  -6   0  155.50    5.28
   4  -6   0  150.13    5.27
  -4  -6   0  151.03    5.35
   4  -6   0  153.82    5.58
   4  -6   0  143.13    5.54
  -4  -6   0  153.45    5.73
  -4  -6   0  133.06    5.61
  -4  -6   0  146.44    5.36
  -4  -6   0  148.10    5.35
   4   6   0  151.80    5.31
  -4   6   0  158.49    5.29
  -4   6   0  151.72    5.33
   4   6   0  149.11    5.30
  -4   6   0  151.20    5.19
   4   6   0  151.11    5.34
   4   6   0  169.61    5.51
  -4   6   0  156.64    5.48
  -4   6   0  150.84    5.31
   4   6   0  150.43    5.30
  -4   6   0  151.22    5.38
   4   6   0  158.43    5.25
  -6  -6   0   92.67    3.50
   6  -6   0   92.90    3.56
   6  -6   0   96.23    3.72
  -6  -6   0   92.52    3.56
  -6  -6   0   96.82    3.57
   6  -6   0   95.32    3.51
  -6  -6   0  104.75    4.04
   6  -6   0   96.42    3.46
  -6  -6   0   95.17    3.57
   6  -6   0   94.94    3.50
   6  -6   0   98.02    3.48
  -6  -6   0   84.40    3.81
  -6  -6   0   97.37    3.64
   6  -6   0   98.02    3.82
  -6   6   0  113.34    3.81
  -6   6   0  101.64    3.74
  -6   6   0   94.42    3.51
   6   6   0   98.00    3.55
  -6   6   0   97.32    3.59
   6   6   0  100.22    3.66
  -6   6   0   97.98    3.53
   6   6   0   96.76    3.53
   6   6   0   99.30    3.52
   6   6   0   96.67    3.53
  -6   6   0   97.02    3.37
   8  -6   0  107.14    4.06
   8  -6   0  109.24    3.99
   8  -6   0  106.41    4.02
  -8  -6   0  111.40    4.10
  -8  -6   0  110.58    4.14
   8  -6   0  113.42    4.17
  -8  -6   0  111.68    4.09
  -8  -6   0  126.25    4.66
   8  -6   0  106.97    3.83
  -8  -6   0  110.61    4.09
   8  -6   0  114.39    3.98
   8  -6   0  110.86    4.36
  -8  -6   0   96.20    4.29
  -8   6   0  110.62    3.84
  -8   6   0  110.96    4.02
  -8   6   0  114.22    4.28
   8   6   0  112.54    4.05
   8   6   0  116.20    4.17
   8   6   0  110.67    4.00
   8   6   0  114.88    4.06
  -8   6   0  111.95    4.16
   8   6   0  108.83    4.04
  -8   6   0  106.62    4.02
  -8   6   0  128.01    4.29
  10  -6   0   32.16    1.45
 -10  -6   0   31.61    1.24
  10  -6   0   32.56    1.78
  10  -6   0   30.95    1.20
  10  -6   0   30.62    1.44
 -10  -6   0   34.82    1.98
  10  -6   0   31.88    1.37
 -10  -6   0   31.25    1.49
 -10  -6   0   30.18    1.28
 -10  -6   0   34.21    1.34
 -10  -6   0   26.72    1.65
 -10  -6   0   31.57    1.51
 -10  -6   0   34.67    1.59
  10  -6   0   33.26    1.50
 -10  -6   0   32.56    1.52
  10  -6   0   32.05    1.39
  10   6   0   33.07    1.50
 -10   6   0   31.14    1.41
 -10   6   0   31.20    1.23
 -10   6   0   35.62    1.63
  10   6   0   31.86    1.54
 -10   6   0   33.39    1.70
  10   6   0   31.73    1.47
 -10   6   0   32.05    1.49
  10   6   0   32.88    1.44
  10   6   0   30.57    1.42
  10   6   0   31.91    1.39
 -12  -6   0   82.54    3.12
 -12  -6   0   65.80    2.75
  12  -6   0   77.24    2.90
  12  -6   0   75.77    2.70
 -12  -6   0   88.68    3.67
  12  -6   0   73.90    2.96
 -12  -6   0   66.31    3.15
 -12  -6   0   82.58    3.05
 -12  -6   0   74.50    3.03
  12  -6   0   73.81    2.88
  12  -6   0   71.75    2.97
  12  -6   0   78.58    2.99
  12  -6   0   80.85    3.39
  12   6   0   77.63    2.95
 -12   6   0   83.77    3.12
 -12   6   0   78.41    2.93
  12   6   0   79.94    2.98
  12   6   0   76.67    2.99
  12   6   0   79.16    3.01
 -12   6   0   75.42    3.00
  12   6   0   77.18    2.90
 -12   6   0   79.41    3.34
  12   6   0   77.47    3.00
 -14  -6   0   23.47    1.47
  14  -6   0   25.87    1.02
 -14  -6   0   30.13    1.52
  14  -6   0   23.01    1.38
  14  -6   0   25.80    1.21
  14  -6   0   27.15    1.72
 -14  -6   0   22.38    1.10
  14  -6   0   24.99    1.30
 -14  -6   0   27.45    1.39
  14  -6   0   25.46    1.56
  14   6   0   25.73    1.24
 -14   6   0   23.37    1.35
 -14   6   0   24.00    1.09
  14   6   0   25.84    1.21
  14   6   0   25.75    1.91
 -14   6   0   26.26    1.27
  14   6   0   26.26    1.28
  14   6   0   26.03    1.41
 -16  -6   0   11.80    1.02
  16  -6   0   11.08    1.34
  16  -6   0    9.25    0.82
  16  -6   0   10.10    0.56
 -16  -6   0    9.16    0.71
 -16  -6   0   11.51    1.10
 -16  -6   0   14.36    1.64
 -16  -6   0   10.08    1.01
  16  -6   0   11.71    1.05
  16  -6   0   10.21    0.74
 -16   6   0   10.45    0.72
  16   6   0   10.43    0.84
  16   6   0   11.24    0.75
  16   6   0   10.46    0.98
 -16   6   0   11.13    0.85
 -16   6   0   10.83    0.97
 -16   6   0    8.42    0.86
  16   6   0   10.48    0.76
  16   6   0   11.60    1.02
 -18  -6   0   25.34    1.60
  18  -6   0   23.55    1.51
 -18  -6   0   26.03    2.07
  18  -6   0   24.25    1.86
  18  -6   0   23.73    1.48
  18  -6   0   20.00    1.28
 -18  -6   0   23.54    1.56
  18   6   0   22.11    1.43
  18   6   0   22.57    1.46
  18   6   0   22.90    1.25
 -18   6   0   22.66    1.32
 -18   6   0   22.23    1.40
  18   6   0   20.55    1.17
 -20  -6   0    8.60    1.35
 -20  -6   0    8.24    1.53
  20  -6   0   10.03    1.49
  20  -6   0    8.72    1.12
  20   6   0    7.86    1.10
 -20   6   0    9.54    1.22
  20   6   0    9.31    1.23
  22  -6   0    5.68    1.27
 -22  -6   0    8.92    1.64
  22  -6   0    5.36    1.04
  22   6   0    6.43    1.04
  22   6   0    5.25    0.93
   1  -7   0   99.36    3.73
  -1  -7   0  106.51    3.84
   1  -7   0  102.33    4.04
   1  -7   0   97.90    4.15
  -1  -7   0  104.46    4.01
  -1  -7   0  111.58    4.20
  -1  -7   0  108.53    3.83
   1  -7   0  112.95    4.11
  -1  -7   0   94.12    4.16
   1  -7   0  109.43    3.82
   1  -7   0  105.01    3.82
  -1   7   0  104.72    3.85
   1   7   0  107.71    3.72
   1   7   0  107.98    3.87
   1   7   0  107.59    3.98
  -1   7   0  104.97    3.81
   1   7   0  102.20    3.80
   1   7   0  105.79    3.88
  -1   7   0  105.01    3.85
  -1   7   0  101.52    3.81
   1   7   0  105.93    3.82
  -1   7   0  108.72    3.94
  -1   7   0  110.39    3.94
   1   7   0  121.91    4.09
  -1   7   0  104.16    3.73
  -1   7   0  104.42    3.76
   1   7   0  102.81    3.85
  -3  -7   0  131.81    4.72
   3  -7   0  131.34    4.97
  -3  -7   0  129.15    4.73
   3  -7   0  133.79    4.68
   3  -7   0  129.82    4.65
  -3  -7   0  140.29    5.16
  -3  -7   0  132.85    4.71
  -3  -7   0  111.56    5.01
   3  -7   0  124.87    4.99
  -3  -7   0  130.66    4.79
   3  -7   0  126.91    4.62
   3  -7   0  132.37    4.83
  -3  -7   0  124.36    4.78
   3   7   0  135.96    4.58
  -3   7   0  134.67    4.78
   3   7   0  128.49    4.67
   3   7   0  133.00    4.80
   3   7   0  130.77    4.69
   3   7   0  134.36    4.73
   3   7   0  130.78    4.72
   3   7   0  151.14    4.93
  -3   7   0  129.64    4.62
  -3   7   0  131.40    4.58
  -3   7   0  133.89    4.67
  -3   7   0  129.91    4.75
  -3   7   0  134.72    4.84
  -3   7   0  131.46    4.69
  -3   7   0  134.53    4.71
   3   7   0  133.60    4.69
   5  -7   0  104.58    3.78
  -5  -7   0  104.93    3.80
  -5  -7   0  113.64    4.31
  -5  -7   0   98.39    3.79
  -5  -7   0  102.09    3.77
   5  -7   0   98.45    3.68
   5  -7   0   99.94    4.01
  -5  -7   0   87.13    4.07
   5  -7   0  101.42    4.05
  -5  -7   0  101.53    3.86
   5  -7   0  104.67    3.69
  -5   7   0  104.85    3.92
  -5   7   0  106.83    3.72
   5   7   0  104.17    3.75
   5   7   0  100.51    3.72
  -5   7   0  103.61    3.59
  -5   7   0   99.90    3.75
  -5   7   0  102.03    3.76
  -5   7   0   99.47    3.73
   5   7   0  102.00    3.77
   5   7   0  113.90    3.94
   5   7   0  101.15    3.73
  -5   7   0  104.94    3.84
  -7  -7   0  118.62    4.29
  -7  -7   0  109.61    4.19
  -7  -7   0  106.13    4.59
   7  -7   0  111.09    4.11
   7  -7   0  116.46    4.45
  -7  -7   0  119.50    4.37
   7  -7   0  114.56    4.19
   7  -7   0  114.82    4.21
  -7  -7   0  111.33    4.28
  -7  -7   0  127.97    4.86
  -7  -7   0  122.59    4.32
   7  -7   0  111.30    4.28
   7  -7   0  119.37    4.60
   7  -7   0  120.55    4.18
  -7   7   0  120.01    4.33
  -7   7   0  124.76    4.48
  -7   7   0  113.98    4.33
  -7   7   0  116.44    4.24
   7   7   0  121.69    4.38
   7   7   0  116.03    4.25
   7   7   0  115.96    4.21
   7   7   0  116.62    4.23
   9  -7   0   23.38    1.15
   9  -7   0   25.44    1.58
  -9  -7   0   22.93    1.14
   9  -7   0   24.44    0.97
   9  -7   0   23.98    1.13
  -9  -7   0   26.80    1.78
  -9  -7   0   25.12    1.38
  -9  -7   0   24.29    1.30
  -9  -7   0   23.24    1.26
   9  -7   0   25.90    1.37
  -9  -7   0   24.08    1.24
   9  -7   0   24.44    1.25
  -9  -7   0   22.96    1.07
   9  -7   0   23.25    1.17
  -9  -7   0   21.25    1.50
   9   7   0   24.03    1.16
   9   7   0   24.78    1.28
   9   7   0   23.76    1.21
  -9   7   0   25.07    1.22
  -9   7   0   27.25    1.44
  -9   7   0   25.03    1.05
  -9   7   0   23.14    1.22
   9   7   0   24.20    1.23
   9   7   0   23.86    1.20
  -9   7   0   23.55    1.40
  -9   7   0   19.86    1.50
  11  -7   0   63.37    2.54
  11  -7   0   61.52    2.46
 -11  -7   0   62.56    2.64
  11  -7   0   65.04    2.57
 -11  -7   0   71.03    3.26
 -11  -7   0   61.30    2.36
  11  -7   0   59.75    2.54
  11  -7   0   61.48    2.46
 -11  -7   0   58.58    2.31
 -11  -7   0   56.46    2.83
  11  -7   0   67.74    3.02
 -11  -7   0   67.14    2.64
 -11  -7   0   62.84    2.61
  11   7   0   64.33    2.58
  11   7   0   66.93    2.49
  11   7   0   64.32    2.56
  11   7   0   63.03    2.55
  11   7   0   64.84    2.53
 -11   7   0   63.87    2.60
 -11   7   0   63.50    2.51
  13  -7   0   24.84    1.34
 -13  -7   0   21.97    1.57
 -13  -7   0   26.34    1.54
  13  -7   0   24.49    1.38
 -13  -7   0   25.97    1.42
  13  -7   0   23.86    0.99
 -13  -7   0   29.67    2.51
  13  -7   0   26.73    1.83
 -13  -7   0   25.81    1.05
  13  -7   0   23.15    1.20
  13  -7   0   25.27    1.35
  13   7   0   24.95    1.29
  13   7   0   25.48    1.22
 -13   7   0   25.90    1.41
 -13   7   0   25.82    1.46
 -13   7   0   23.35    1.07
  13   7   0   24.76    1.28
  13   7   0   26.17    1.41
 -13   7   0   23.56    1.28
  15  -7   0   27.82    1.47
  15  -7   0   25.62    1.09
  15  -7   0   29.12    1.54
  15  -7   0   30.61    2.01
 -15  -7   0   25.52    1.67
 -15  -7   0   27.53    1.54
 -15  -7   0   28.61    1.66
 -15  -7   0   32.05    2.28
  15  -7   0   27.35    1.33
  15   7   0   27.54    1.39
 -15   7   0   26.77    1.42
 -15   7   0   27.06    1.53
  15   7   0   27.39    1.33
  15   7   0   29.14    1.54
 -15   7   0   26.36    1.49
  15   7   0   28.24    1.54
  15   7   0   27.88    1.35
  17  -7   0   10.50    1.12
  17  -7   0    9.25    1.43
 -17  -7   0   11.66    1.24
 -17  -7   0   13.61    1.74
 -17  -7   0   11.28    1.43
  17   7   0    9.22    0.78
  17   7   0   10.88    1.14
  17   7   0   11.58    1.08
 -17   7   0    9.99    0.98
  17   7   0   10.30    0.90
 -17   7   0   11.82    1.11
 -19  -7   0   16.10    1.96
  19  -7   0   17.23    1.77
  19  -7   0   15.61    1.35
 -19  -7   0   16.91    1.61
  19   7   0   16.11    1.27
  19   7   0   13.21    1.28
 -19   7   0   11.75    1.31
  21  -7   0    4.52    1.25
 -21  -7   0    2.93    1.38
  21  -7   0    3.19    0.89
  21   7   0    3.14    0.90
  21   7   0    3.91    0.82
   0  -8   0  132.92    4.65
   0  -8   0  125.73    4.89
   0  -8   0  130.07    4.65
   0  -8   0  136.81    5.01
   0  -8   0  119.04    5.04
   0   8   0  123.28    4.66
   0   8   0  130.59    4.64
   0   8   0  129.17    4.73
   0   8   0  132.25    4.69
   0   8   0  128.48    4.69
   0   8   0  133.66    4.84
  -2  -8   0   12.45    0.83
   2  -8   0   14.17    1.00
   2  -8   0   14.36    0.84
  -2  -8   0   14.01    1.16
   2  -8   0   14.11    0.81
   2  -8   0   12.54    0.75
  -2  -8   0   12.72    1.16
  -2  -8   0   13.57    1.01
   2  -8   0   12.60    1.09
   2  -8   0   14.27    1.14
  -2  -8   0   13.81    0.87
   2   8   0   15.18    0.99
  -2   8   0   15.11    0.93
  -2   8   0   15.74    1.03
   2   8   0   14.09    0.82
   2   8   0   11.32    0.99
  -2   8   0   13.82    0.82
  -2   8   0   15.22    0.89
   2   8   0   14.11    0.81
  -2   8   0   14.29    0.94
   2   8   0   11.95    1.05
  -2   8   0   12.80    1.03
  -2   8   0   14.36    0.89
  -2   8   0   13.43    0.76
  -2   8   0   13.98    0.73
   2   8   0   15.51    1.00
   2   8   0   14.24    0.89
   4  -8   0   29.08    1.30
   4  -8   0   29.25    1.46
  -4  -8   0   27.61    1.75
  -4  -8   0   26.87    1.42
  -4  -8   0   29.05    1.48
  -4  -8   0   28.60    1.49
  -4  -8   0   33.18    1.84
  -4  -8   0   30.11    1.40
   4  -8   0   27.31    1.28
   4  -8   0   27.92    1.67
  -4  -8   0   28.08    1.38
   4  -8   0   28.63    1.68
   4  -8   0   29.85    1.34
   4   8   0   32.36    1.39
  -4   8   0   30.34    1.41
   4   8   0   26.55    1.53
  -4   8   0   28.98    1.48
  -4   8   0   29.34    1.38
  -4   8   0   30.71    1.39
  -4   8   0   28.82    1.34
  -4   8   0   28.62    1.24
   4   8   0   32.16    1.54
   4   8   0   28.26    1.37
  -4   8   0   30.16    1.51
   4   8   0   30.29    1.49
   4   8   0   28.85    1.36
   4   8   0   31.05    1.43
  -4   8   0   35.45    1.65
   4   8   0   29.55    1.35
   6  -8   0   29.27    1.36
  -6  -8   0   27.66    1.47
  -6  -8   0   25.78    1.38
   6  -8   0   29.17    1.74
   6  -8   0   30.82    1.67
   6  -8   0   31.34    1.34
  -6  -8   0   28.96    1.80
  -6  -8   0   33.80    1.97
  -6  -8   0   29.72    1.55
   6  -8   0   29.33    1.34
  -6  -8   0   28.16    1.42
  -6  -8   0   31.59    1.46
  -6   8   0   29.05    1.41
   6   8   0   29.90    1.41
  -6   8   0   28.30    1.22
   6   8   0   29.57    1.40
   6   8   0   32.15    1.54
   6   8   0   30.60    1.28
  -6   8   0   29.96    1.50
   6   8   0   30.56    1.38
  -6   8   0   30.89    1.44
  -6   8   0   30.78    1.42
  -6   8   0   30.75    1.56
   6   8   0   31.14    1.45
  -6   8   0   30.94    1.37
   8  -8   0   30.14    1.41
  -8  -8   0   37.81    2.16
   8  -8   0   30.30    1.44
  -8  -8   0   33.26    1.70
  -8  -8   0   29.78    1.54
  -8  -8   0   31.83    1.90
  -8  -8   0   30.45    1.58
   8  -8   0   33.81    1.76
  -8  -8   0   34.62    1.58
   8  -8   0   35.01    1.95
  -8  -8   0   29.88    1.43
   8   8   0   31.03    1.45
  -8   8   0   37.52    1.78
  -8   8   0   30.65    1.51
   8   8   0   32.27    1.50
  -8   8   0   31.54    1.52
   8   8   0   33.56    1.62
  -8   8   0   32.25    1.60
  -8   8   0   31.23    1.69
   8   8   0   32.85    1.40
   8   8   0   31.89    1.53
  -8   8   0   30.85    1.27
   8   8   0   31.78    1.51
  10  -8   0    9.60    0.75
 -10  -8   0    9.19    0.73
  10  -8   0    9.71    0.91
  10  -8   0    9.40    1.20
 -10  -8   0    8.08    0.86
 -10  -8   0    8.73    0.96
 -10  -8   0   10.06    1.19
 -10  -8   0    8.82    0.68
  10  -8   0    9.04    0.85
 -10  -8   0    9.53    1.04
  10  -8   0    8.63    0.70
 -10  -8   0   10.32    1.40
 -10  -8   0    8.16    0.63
  10   8   0    9.16    0.83
  10   8   0    9.05    1.20
  10   8   0    7.90    0.80
 -10   8   0    8.69    0.79
  10   8   0    9.91    0.83
 -10   8   0    9.60    1.08
 -10   8   0   11.85    1.05
  10   8   0    8.48    0.71
 -10   8   0    9.15    0.88
 -10   8   0    9.03    0.56
  12  -8   0   22.48    1.31
  12  -8   0   25.50    1.29
  12  -8   0   23.46    1.37
 -12  -8   0   27.14    1.59
 -12  -8   0   22.22    1.69
  12  -8   0   26.88    1.54
  12  -8   0   28.70    1.94
 -12  -8   0   26.76    1.51
 -12  -8   0   28.02    1.53
  12   8   0   24.09    1.35
  12   8   0   26.95    1.42
 -12   8   0   25.28    1.46
 -12   8   0   29.29    1.60
 -12   8   0   26.35    1.16
 -12   8   0   25.11    1.37
  12   8   0   25.73    1.27
  12   8   0   25.32    1.40
 -14  -8   0    9.18    1.57
 -14  -8   0   11.26    1.21
 -14  -8   0    8.91    1.07
  14  -8   0    9.70    1.04
 -14  -8   0    9.11    1.29
  14  -8   0   10.53    1.47
  14  -8   0    9.22    0.90
  14  -8   0    8.69    0.76
  14   8   0    8.09    0.73
  14   8   0    8.33    0.87
  14   8   0    8.11    0.80
 -14   8   0    9.62    0.95
 -14   8   0    7.94    1.00
 -14   8   0    8.48    0.62
  14   8   0    8.47    0.97
  14   8   0    8.15    0.93
 -14   8   0    7.76    1.05
  16  -8   0    3.79    0.82
  16  -8   0    4.97    1.13
 -16  -8   0    3.79    0.92
  16  -8   0    3.24    0.63
 -16  -8   0    4.55    0.89
 -16  -8   0    5.55    1.28
 -16   8   0    3.89    0.73
  16   8   0    4.93    0.81
 -16   8   0    4.44    0.81
 -16   8   0    3.23    0.76
  16   8   0    4.70    0.68
  16   8   0    2.99    0.68
  16   8   0    3.16    0.57
 -16   8   0    4.84    0.64
 -18  -8   0   12.31    1.94
  18  -8   0   10.52    1.27
 -18  -8   0   10.38    1.52
  18  -8   0   12.26    1.99
  18   8   0    8.89    1.21
 -18   8   0   10.38    1.29
  18   8   0    9.39    1.11
 -20  -8   0    4.48    1.59
  20  -8   0    3.29    0.94
  20  -8   0    3.38    1.25
  20   8   0    4.04    0.90
  20   8   0    3.06    0.79
   1  -9   0   52.33    2.19
   1  -9   0   57.32    2.56
  -1  -9   0   53.04    2.22
   1  -9   0   53.80    2.55
  -1  -9   0   62.45    2.70
  -1  -9   0   54.61    2.26
  -1  -9   0   53.28    2.49
   1  -9   0   51.69    2.66
  -1  -9   0   52.79    2.70
   1  -9   0   51.33    2.20
   1   9   0   53.51    2.25
   1   9   0   51.13    2.23
  -1   9   0   55.21    2.08
  -1   9   0   56.31    2.33
  -1   9   0   55.26    2.35
  -1   9   0   56.32    2.23
  -1   9   0   60.05    2.52
  -1   9   0   52.98    2.24
   1   9   0   58.81    2.40
   1   9   0   53.44    2.21
   1   9   0   54.45    2.06
   1   9   0   54.68    2.29
  -1   9   0   55.61    2.27
   1   9   0   54.57    2.27
  -1   9   0   53.17    2.15
  -3  -9   0   42.93    1.91
   3  -9   0   42.45    2.28
   3  -9   0   46.14    2.10
   3  -9   0   43.76    2.25
   3  -9   0   44.00    1.85
   3  -9   0   40.79    1.77
  -3  -9   0   40.88    2.06
  -3  -9   0   48.45    2.40
  -3  -9   0   42.46    1.91
  -3  -9   0   39.22    2.32
   3  -9   0   44.55    1.87
  -3   9   0   45.76    2.06
   3   9   0   43.24    1.92
   3   9   0   44.65    1.72
   3   9   0   47.66    2.05
  -3   9   0   44.09    1.90
  -3   9   0   46.52    1.88
  -3   9   0   44.09    1.78
  -3   9   0   44.87    1.92
   3   9   0   43.81    1.87
   3   9   0   44.74    1.94
  -3   9   0   46.35    2.03
  -3   9   0   45.25    1.94
   3   9   0   42.00    1.88
  -5  -9   0   46.76    2.46
  -5  -9   0   40.79    1.91
  -5  -9   0   41.38    2.04
   5  -9   0   43.79    2.30
  -5  -9   0   41.80    1.92
  -5  -9   0   41.72    1.97
  -5  -9   0   40.69    1.96
   5  -9   0   42.96    1.83
  -5  -9   0   38.08    2.31
   5  -9   0   40.27    1.79
   5  -9   0   44.87    1.94
   5  -9   0   40.97    2.21
   5  -9   0   41.68    1.78
   5   9   0   43.66    1.90
   5   9   0   42.71    1.92
   5   9   0   47.35    2.06
  -5   9   0   44.54    1.89
   5   9   0   42.26    1.89
  -5   9   0   42.82    1.70
   5   9   0   46.12    1.91
   5   9   0   45.85    1.76
  -5   9   0   45.08    2.02
  -5   9   0   43.81    1.84
  -5   9   0   45.68    2.05
  -5   9   0   42.30    1.90
  -5   9   0   42.64    1.89
   5   9   0   44.08    1.86
  -7  -9   0   54.29    2.35
   7  -9   0   58.19    2.65
  -7  -9   0   55.49    2.48
  -7  -9   0   52.09    2.36
   7  -9   0   52.48    2.18
   7  -9   0   57.27    2.84
   7  -9   0   54.99    2.20
  -7  -9   0   48.24    2.28
  -7  -9   0   47.39    2.73
  -7  -9   0   60.14    2.95
   7   9   0   54.60    2.24
   7   9   0   52.95    2.28
  -7   9   0   54.93    2.28
   7   9   0   53.87    2.27
   7   9   0   55.25    2.12
  -7   9   0   52.22    2.04
  -7   9   0   54.26    2.30
  -7   9   0   57.42    2.24
  -7   9   0   55.42    2.41
   7   9   0   58.56    2.45
  -9  -9   0   14.59    1.27
  -9  -9   0   17.41    1.68
   9  -9   0   18.45    1.57
   9  -9   0   15.72    1.25
   9  -9   0   15.81    0.85
   9  -9   0   14.47    0.96
  -9  -9   0   15.18    2.35
  -9  -9   0   14.00    1.14
   9   9   0   14.93    1.04
  -9   9   0   15.28    0.81
  -9   9   0   14.92    1.16
   9   9   0   14.95    0.95
   9   9   0   15.41    1.08
  -9   9   0   17.65    1.46
  -9   9   0   14.35    1.08
   9   9   0   15.30    0.89
  -9   9   0   16.51    0.97
  -9   9   0   15.50    1.09
 -11  -9   0   27.25    1.57
 -11  -9   0   29.19    1.69
 -11  -9   0   23.88    1.14
 -11  -9   0   30.95    2.17
 -11  -9   0   19.06    2.06
  11  -9   0   26.74    1.93
  11  -9   0   22.04    1.30
 -11  -9   0   27.48    1.26
 -11   9   0   31.89    2.07
 -11   9   0   24.93    1.50
  11   9   0   25.23    1.37
  11   9   0   25.16    1.43
 -11   9   0   25.33    1.44
  11   9   0   25.24    1.31
  11   9   0   24.95    1.40
 -11   9   0   25.26    1.44
 -11   9   0   24.26    1.09
  13  -9   0   15.95    1.30
 -13  -9   0   17.74    1.38
  13  -9   0   14.84    1.74
 -13  -9   0   18.71    1.43
 -13  -9   0   16.15    1.67
 -13  -9   0   15.04    1.81
  13   9   0   15.37    1.13
 -13   9   0   14.99    0.92
  13   9   0   14.68    1.02
  13   9   0   15.95    1.01
 -13   9   0   14.67    1.28
  13   9   0   16.01    1.18
 -13   9   0   13.80    1.17
  15  -9   0   13.84    1.28
  15  -9   0   14.54    1.73
 -15  -9   0   11.61    1.51
 -15  -9   0   12.90    1.47
 -15  -9   0   11.32    1.75
 -15   9   0   13.38    1.51
 -15   9   0   13.92    1.25
  15   9   0   11.93    1.16
  15   9   0   10.65    1.07
  15   9   0   12.87    1.02
 -17  -9   0    7.11    1.18
  17  -9   0   10.64    1.89
  17  -9   0    5.48    0.97
 -17  -9   0    8.26    1.73
 -17   9   0    6.19    1.00
  17   9   0    5.98    0.87
  17   9   0    6.81    0.96
  19  -9   0    7.54    1.17
 -19  -9   0    8.94    1.93
  19   9   0    8.03    1.22
  19   9   0    8.21    1.14
   0 -10   0   80.71    3.28
   0 -10   0   92.72    3.72
   0 -10   0   77.28    3.78
   0 -10   0   82.82    3.75
   0  10   0   80.16    3.33
   0  10   0   82.71    3.04
   0  10   0   89.28    3.41
   0  10   0   84.23    3.32
   0  10   0   85.52    3.29
   0  10   0   83.96    3.23
   0  10   0   83.35    3.27
   2 -10   0   42.30    2.38
  -2 -10   0   48.79    2.47
  -2 -10   0   40.78    2.15
  -2 -10   0   42.10    2.15
   2 -10   0   45.63    2.34
  -2 -10   0   37.79    2.40
   2 -10   0   46.83    2.26
  -2  10   0   42.05    1.92
   2  10   0   42.22    1.93
   2  10   0   43.52    1.89
   2  10   0   37.80    2.11
   2  10   0   43.58    1.71
  -2  10   0   38.07    2.12
  -2  10   0   44.58    1.89
   2  10   0   46.00    2.09
  -2  10   0   43.14    2.04
  -2  10   0   42.56    1.80
  -2  10   0   44.68    2.00
   2  10   0   44.09    1.98
  -2  10   0   43.26    1.97
  -4 -10   0   58.03    2.63
  -4 -10   0   67.31    3.14
  -4 -10   0   51.86    2.95
   4 -10   0   60.86    2.60
   4 -10   0   59.58    2.92
   4 -10   0   54.47    2.31
   4 -10   0   60.80    2.95
   4  10   0   57.31    2.42
  -4  10   0   58.45    2.72
  -4  10   0   58.99    2.50
   4  10   0   59.16    2.46
   4  10   0   59.76    2.50
  -4  10   0   63.27    2.44
  -4  10   0   61.32    2.48
   4  10   0   58.29    2.22
  -4  10   0   56.96    2.46
   4  10   0   63.15    2.65
   4  10   0   58.54    2.48
  -4  10   0   61.00    2.60
  -4  10   0   57.45    2.28
  -6 -10   0   45.75    2.24
   6 -10   0   45.12    2.05
  -6 -10   0   44.01    2.15
   6 -10   0   46.74    2.49
  -6 -10   0   42.31    2.10
   6 -10   0   43.34    1.91
  -6 -10   0   40.42    2.51
  -6 -10   0   52.27    2.75
   6 -10   0   46.33    2.77
   6  10   0   46.71    2.08
  -6  10   0   46.40    2.11
   6  10   0   45.64    2.05
   6  10   0   49.13    2.11
   6  10   0   47.92    1.83
  -6  10   0   47.29    2.20
  -6  10   0   48.15    2.06
  -6  10   0   44.38    1.82
  -6  10   0   49.84    2.02
   6  10   0   45.47    1.99
   6  10   0   46.06    2.14
  -6  10   0   45.57    2.08
   6  10   0   48.79    2.24
  -8 -10   0   33.23    1.85
   8 -10   0   34.89    1.56
   8 -10   0   35.35    2.04
  -8 -10   0   34.14    1.91
   8 -10   0   36.92    2.30
  -8 -10   0   31.09    1.63
  -8 -10   0   39.64    2.47
   8 -10   0   31.70    1.57
   8  10   0   33.48    1.70
   8  10   0   36.24    1.92
  -8  10   0   34.46    1.62
   8  10   0   35.90    1.69
   8  10   0   35.40    1.64
   8  10   0   34.96    1.69
   8  10   0   35.63    1.49
  -8  10   0   35.35    1.68
  -8  10   0   34.80    1.74
  -8  10   0   34.00    1.80
   8  10   0   36.46    1.88
  -8  10   0   32.64    1.42
 -10 -10   0   24.57    1.58
 -10 -10   0   24.31    1.65
 -10 -10   0   20.12    1.88
  10 -10   0   21.45    1.57
 -10 -10   0   26.44    2.14
  10 -10   0   23.70    1.19
  10 -10   0   20.28    1.26
  10 -10   0   25.03    2.04
  10  10   0   21.60    1.24
  10  10   0   22.25    1.38
 -10  10   0   22.01    1.04
  10  10   0   24.67    1.38
 -10  10   0   24.21    1.43
  10  10   0   22.98    1.38
 -10  10   0   23.40    1.50
 -10  10   0   24.74    1.29
  10  10   0   22.86    1.14
  10  10   0   22.75    1.64
 -10  10   0   22.59    1.46
 -12 -10   0   21.90    2.03
  12 -10   0   30.65    2.28
 -12 -10   0   29.72    1.84
 -12 -10   0   28.56    1.89
 -12 -10   0   31.47    1.45
 -12 -10   0   30.08    2.42
 -12  10   0   29.57    1.48
  12  10   0   28.65    1.54
 -12  10   0   27.56    1.71
 -12  10   0   27.76    1.69
 -12  10   0   28.50    1.35
  12  10   0   28.11    1.61
  12  10   0   27.07    1.35
  12  10   0   26.85    1.53
  14 -10   0   11.74    1.30
 -14 -10   0   14.03    1.97
 -14 -10   0   13.41    1.67
  14 -10   0   13.05    1.98
 -14 -10   0   14.95    1.60
  14  10   0   12.53    1.11
  14  10   0   13.29    1.04
  14  10   0   12.49    1.20
 -14  10   0   11.86    1.34
  16 -10   0    9.11    1.60
  16 -10   0    9.27    1.16
 -16 -10   0    6.80    1.31
 -16 -10   0    9.09    1.77
  16  10   0    7.22    1.01
 -16  10   0    7.18    1.09
  16  10   0    7.43    1.06
  18 -10   0    8.32    1.28
  18  10   0    6.34    0.95
  -1 -11   0   20.47    1.63
   1 -11   0   21.83    1.84
   1 -11   0   24.56    1.79
  -1 -11   0   26.13    1.81
   1 -11   0   25.84    1.68
  -1 -11   0   21.35    1.81
   1  11   0   23.33    1.32
  -1  11   0   22.93    1.37
   1  11   0   24.47    1.48
  -1  11   0   23.13    1.37
   1  11   0   23.00    1.37
  -1  11   0   25.66    1.49
  -1  11   0   22.97    1.29
   1  11   0   23.26    1.29
  -1  11   0   23.71    1.30
  -1  11   0   23.32    1.25
   1  11   0   25.35    1.30
   1  11   0   22.13    1.04
   1  11   0   21.84    1.34
  -1  11   0   22.52    1.35
  -3 -11   0   10.67    1.21
   3 -11   0   13.16    1.51
   3 -11   0   11.33    1.96
  -3 -11   0   13.02    1.47
   3 -11   0   12.64    1.14
  -3 -11   0   12.66    1.53
  -3  11   0   12.99    0.97
   3  11   0   11.81    1.15
   3  11   0   12.98    1.06
   3  11   0   10.43    0.93
   3  11   0   12.52    0.82
   3  11   0   11.81    0.92
  -3  11   0   10.42    1.00
  -3  11   0   11.64    0.91
  -3  11   0   11.29    1.14
   3  11   0   12.54    1.06
  -3  11   0   11.82    1.07
  -3  11   0   11.00    0.84
  -5 -11   0   16.04    1.60
  -5 -11   0   11.06    1.53
   5 -11   0   13.38    0.92
  -5 -11   0   11.79    1.17
   5 -11   0   13.40    1.49
   5 -11   0   15.28    1.13
   5 -11   0   13.84    1.62
   5  11   0   13.35    1.00
   5  11   0   12.74    1.25
  -5  11   0   13.67    0.88
   5  11   0   14.30    0.74
  -5  11   0   13.93    1.14
  -5  11   0   12.17    1.09
  -5  11   0   14.85    1.27
  -5  11   0   16.66    1.05
   5  11   0   13.28    1.12
   5  11   0   15.36    1.19
  -5  11   0   13.58    1.03
   7 -11   0   18.19    1.16
   7 -11   0   20.18    1.20
   7 -11   0   22.55    1.71
   7 -11   0   22.49    1.95
  -7 -11   0   17.52    1.28
  -7 -11   0   24.68    2.00
  -7  11   0   19.87    1.05
   7  11   0   21.28    1.25
  -7  11   0   22.83    1.52
   7  11   0   22.17    1.37
   7  11   0   21.88    1.01
  -7  11   0   24.55    1.27
  -7  11   0   20.70    1.54
  -7  11   0   19.80    1.35
   7  11   0   19.10    1.25
   7  11   0   20.69    1.35
  -7  11   0   20.78    1.40
  -9 -11   0    6.94    1.01
  -9 -11   0   10.11    1.56
   9 -11   0    5.98    0.84
   9 -11   0    7.03    0.69
   9 -11   0    9.87    1.62
  -9 -11   0    6.17    0.99
   9 -11   0   10.93    1.72
  -9 -11   0    8.04    1.14
  -9 -11   0    9.79    1.53
   9  11   0    6.88    0.63
   9  11   0    8.69    0.86
  -9  11   0    8.42    0.86
   9  11   0    7.63    0.95
  -9  11   0    6.13    0.92
  -9  11   0    7.25    0.95
  -9  11   0    7.84    0.69
   9  11   0    7.45    0.89
  -9  11   0    7.65    1.05
   9  11   0    8.53    1.01
 -11 -11   0   11.42    1.80
 -11 -11   0    9.46    1.30
  11 -11   0   11.58    1.77
 -11 -11   0    9.55    1.48
 -11 -11   0   10.29    1.32
  11  11   0   10.39    1.01
 -11  11   0    9.04    1.14
 -11  11   0    8.68    1.35
  11  11   0    8.38    0.96
  11  11   0    9.85    1.10
  11  11   0    8.86    0.75
 -11  11   0    6.77    1.16
 -13 -11   0    8.51    1.30
 -13 -11   0   10.54    1.86
  13 -11   0    8.18    1.10
 -13 -11   0    7.85    1.34
  13 -11   0    7.41    1.54
 -13  11   0    5.84    1.23
  13  11   0    6.78    1.00
  13  11   0    8.09    0.93
  13  11   0    9.10    1.13
  15 -11   0    4.59    1.02
  15 -11   0    4.52    1.54
 -15 -11   0    7.06    2.11
  15  11   0    3.96    0.78
  15  11   0    4.25    0.92
  17  11   0    2.61    1.01
   0 -12   0   23.48    1.72
   0 -12   0   20.05    2.48
   0 -12   0   21.16    1.99
   0  12   0   20.13    1.28
   0  12   0   21.09    1.29
   0  12   0   21.12    1.24
   0  12   0   18.75    1.34
   0  12   0   21.14    1.39
  -2 -12   0    9.43    1.37
  -2 -12   0    9.38    1.46
   2 -12   0   12.58    1.29
  -2 -12   0   13.43    1.46
   2 -12   0   12.39    1.62
   2 -12   0   12.37    1.63
   2  12   0   12.63    0.79
   2  12   0   11.91    0.98
  -2  12   0   11.71    0.97
  -2  12   0   11.88    1.16
  -2  12   0   14.71    1.24
   2  12   0   10.98    1.09
   2  12   0   12.84    1.03
   2  12   0   10.99    1.13
  -2  12   0   11.30    0.96
   2  12   0   12.99    1.09
  -2  12   0   10.05    1.09
   4 -12   0   15.05    1.25
   4 -12   0   15.16    1.81
   4 -12   0   13.45    1.64
  -4 -12   0   12.12    1.39
  -4 -12   0   14.63    1.77
  -4 -12   0   15.48    1.59
   4  12   0   14.78    1.25
  -4  12   0   12.67    1.18
  -4  12   0   13.92    1.03
  -4  12   0   12.27    1.20
   4  12   0   12.96    1.07
   4  12   0   14.42    1.07
  -4  12   0   13.51    0.96
   4  12   0   15.48    1.22
   6 -12   0   14.35    1.56
   6 -12   0   14.89    1.87
  -6 -12   0   15.63    1.69
  -6 -12   0   13.08    1.78
  -6 -12   0   14.87    1.37
   6 -12   0   14.30    1.12
   6  12   0   13.81    1.12
  -6  12   0   15.20    1.09
   6  12   0   13.78    1.21
   6  12   0   13.93    1.07
  -6  12   0   13.06    0.93
  -6  12   0   13.81    1.24
  -6  12   0   13.33    1.33
   8 -12   0    7.92    1.20
   8 -12   0   10.08    1.02
   8 -12   0   10.21    1.81
  -8 -12   0    8.10    1.42
   8  12   0    9.79    1.01
  -8  12   0    9.16    1.30
   8  12   0   10.70    1.15
  -8  12   0    9.47    1.14
  -8  12   0    7.86    0.98
  10 -12   0    6.45    1.47
 -10 -12   0    8.97    1.51
 -10 -12   0   10.64    1.80
 -10  12   0    6.33    1.06
  10  12   0    8.17    1.01
  10  12   0    8.07    0.99
  10  12   0    6.53    1.03
  12 -12   0    9.24    1.80
 -12 -12   0   12.98    2.12
 -12 -12   0   10.18    1.58
  12  12   0    9.51    1.06
  12  12   0    9.18    1.27
  14 -12   0    3.33    1.11
  14  12   0    4.81    0.88
   1 -13   0   25.06    1.83
  -1 -13   0   20.28    2.17
   1 -13   0   20.30    2.06
  -1 -13   0   25.62    2.07
   1 -13   0   22.09    2.14
  -1 -13   0   25.53    1.93
   1  13   0   22.94    1.46
   1  13   0   20.25    1.64
   1  13   0   22.05    1.49
  -1  13   0   21.77    1.51
  -1  13   0   19.86    1.29
  -1  13   0   23.37    1.63
   1  13   0   18.79    1.30
  -1  13   0   22.19    1.42
   3 -13   0   21.74    1.66
  -3 -13   0   17.98    1.86
   3 -13   0   20.51    1.99
   3 -13   0   19.45    2.06
  -3 -13   0   15.97    2.12
  -3 -13   0   21.37    1.83
  -3  13   0   18.99    1.51
   3  13   0   19.22    1.42
  -3  13   0   20.57    1.24
   3  13   0   21.71    1.85
  -3  13   0   17.34    1.39
  -3  13   0   18.77    1.26
   3  13   0   18.58    1.40
   5 -13   0   19.27    1.47
   5 -13   0   25.52    2.28
  -5 -13   0   16.41    2.18
   5 -13   0   20.37    2.05
  -5  13   0   16.54    1.57
   5  13   0   20.02    1.48
  -5  13   0   21.75    1.40
   5  13   0   19.46    1.47
  -5  13   0   19.43    1.50
  -7 -13   0   21.69    2.18
   7 -13   0   16.14    2.32
  -7 -13   0   14.39    2.22
  -7  13   0   17.18    1.48
   7  13   0   19.62    1.46
  -9 -13   0    8.22    1.67
  -9 -13   0   13.68    2.09
   9 -13   0   14.89    2.47
  -9  13   0   10.59    1.47
   9  13   0   10.69    1.38
 -11 -13   0    8.25    1.74
   0 -14   0   14.85    1.70
   0 -14   0   11.78    2.20
   0  14   0   13.83    1.42
   0  14   0   11.08    1.35
   2 -14   0    8.91    1.43
   2 -14   0    9.55    1.68
  -2 -14   0    8.72    1.64
   2  14   0    7.83    0.98
  -2  14   0    6.68    0.98
   2  14   0    6.60    1.00
   4 -14   0    4.42    1.51
   4 -14   0    6.73    1.49
   4  14   0    4.82    0.95
  -4  14   0    3.91    0.96
   4  14   0    7.01    0.98
   6 -14   0    9.62    1.90
   6  14   0   10.92    1.45
  26   0  -1    9.55    1.54
  24   0  -1    5.10    0.96
  24   0  -1    4.51    0.93
  24   0  -1    5.77    1.15
 -22   0   1   16.47    1.20
  22   0  -1   17.49    1.37
 -22   0   1   17.05    1.28
  22   0  -1   19.02    1.28
 -22   0   1   16.68    2.07
  20   0  -1   12.54    1.03
 -20   0   1   13.95    1.42
  20   0  -1   11.89    0.76
  20   0  -1   15.00    1.13
  20   0  -1   12.97    0.73
 -20   0   1   11.88    0.85
 -20   0   1   11.77    1.04
 -20   0   1   13.26    0.95
  20   0  -1   14.00    0.78
  20   0  -1   10.90    0.79
  18   0  -1   64.33    2.38
  18   0  -1   63.83    2.57
  18   0  -1   64.03    2.33
 -18   0   1   61.28    2.55
  18   0  -1   60.11    2.30
  18   0  -1   59.13    2.33
  18   0  -1   62.78    2.56
 -18   0   1   58.47    2.36
 -18   0   1   62.12    2.88
 -18   0   1   60.06    2.42
 -16   0   1   11.28    0.80
  16   0  -1   12.07    0.71
  16   0  -1   10.95    0.64
  16   0  -1   12.27    0.85
 -16   0   1   11.86    0.72
  16   0  -1   11.56    0.67
 -16   0   1   12.85    0.77
  16   0  -1   13.36    0.89
 -16   0   1   11.83    0.87
 -16   0   1   12.03    1.09
 -14   0   1  202.17    6.88
  14   0  -1  193.54    6.83
  14   0  -1  211.74    6.92
  14   0  -1  198.75    6.86
 -14   0   1  198.19    7.02
  14   0  -1  199.43    7.02
 -14   0   1  202.34    7.00
 -14   0   1  192.89    7.25
 -14   0   1  203.00    6.91
  14   0  -1  201.83    6.88
  14   0  -1  203.39    7.01
 -12   0   1   17.07    0.76
  12   0  -1   17.06    0.87
  12   0  -1   17.31    0.78
 -12   0   1   15.81    0.83
 -12   0   1   12.93    1.13
  12   0  -1   15.47    0.84
  12   0  -1   16.21    0.76
  12   0  -1   16.51    0.74
  12   0  -1   16.06    0.75
 -12   0   1   15.89    0.86
 -12   0   1   17.23    0.79
  10   0  -1  180.10    5.91
 -10   0   1  174.87    5.86
  10   0  -1  174.24    5.90
  10   0  -1  171.71    5.95
 -10   0   1  179.19    5.96
 -10   0   1  169.32    5.97
  10   0  -1  163.74    6.07
 -10   0   1  161.62    6.09
  10   0  -1  173.00    5.85
 -10   0   1  175.47    5.88
   8   0  -1  198.19    7.10
  -8   0   1  206.72    7.03
  -8   0   1  211.10    7.12
  -8   0   1  215.40    7.05
   8   0  -1  213.76    7.12
   8   0  -1  216.07    7.10
   8   0  -1  216.69    7.03
   8   0  -1  208.45    7.13
   8   0  -1  211.14    7.08
  -8   0   1  216.06    7.15
  -8   0   1  189.29    7.21
  -6   0   1  279.01   10.61
  -6   0   1  301.30   10.53
  -6   0   1  330.85   10.46
   6   0  -1  312.12   10.45
  -6   0   1  324.66   10.57
  -6   0   1  303.96   10.45
   6   0  -1  321.24   10.51
   6   0  -1  321.47   10.45
   6   0  -1  311.35   10.72
   6   0  -1  312.82   10.50
   6   0  -1  308.36   10.55
   4   0  -1  208.72    6.81
  -4   0   1  201.86    6.77
  -4   0   1  176.18    6.81
   4   0  -1  194.25    6.86
   4   0  -1  211.57    6.80
   4   0  -1  205.05    6.79
  -4   0   1  210.83    6.77
   4   0  -1  191.18    6.89
   4   0  -1  206.87    6.79
   4   0  -1  205.31    6.81
  -4   0   1  214.16    6.82
  -4   0   1  195.47    6.79
   2   0  -1  315.24   11.36
  -2   0   1  377.69   11.62
   2   0  -1  336.58   11.29
   2   0  -1  338.27   11.35
  -2   0   1  314.28   11.35
  -2   0   1  343.32   11.41
  -2   0   1  378.79   11.24
   2   0  -1  286.83   11.20
   2   0  -1  292.12   11.21
   2   0  -1  342.96   11.40
   0   0   1  254.75    8.69
   0   0  -1  262.09    8.80
   0   0   1  274.52    8.70
   0   0  -1  222.83    8.59
   0   0  -1  280.46    9.23
   0   0   1  259.10    8.62
   0   0  -1  251.21    8.78
   0   0   1  244.08    8.61
   0   0  -1  258.47    8.76
   2   0   1  177.40    5.76
  -2   0  -1  162.35    5.76
   2   0   1  174.68    5.76
   2   0   1  173.91    5.76
  -2   0  -1  168.84    5.78
   2   0   1  167.86    5.77
  -2   0  -1  158.90    5.77
  -2   0  -1  179.15    5.76
  -2   0  -1  170.65    5.76
   2   0   1  185.13    5.86
   2   0   1  167.44    5.78
  -4   0  -1  822.32   30.09
  -4   0  -1  799.45   30.01
   4   0   1  959.13   30.32
  -4   0  -1 1000.00   30.25
   6   0   1   82.88    2.88
  -6   0  -1   82.40    2.90
  -6   0  -1   80.65    2.82
   6   0   1   82.85    2.90
  -6   0  -1   82.07    2.88
  -6   0  -1   82.43    2.89
  -6   0  -1   80.68    2.87
   6   0   1   81.79    2.87
  -6   0  -1   82.20    2.99
   6   0   1   81.24    3.00
   8   0   1  214.83    7.17
   8   0   1  213.09    7.18
  -8   0  -1  212.11    7.30
  -8   0  -1  210.41    7.14
  -8   0  -1  204.46    7.13
   8   0   1  206.85    7.28
  -8   0  -1  202.70    7.03
  -8   0  -1  212.57    7.17
   8   0   1  214.92    7.14
   8   0   1  206.17    7.13
  -8   0  -1  207.67    7.17
 -10   0  -1   61.74    2.48
  10   0   1   68.60    2.65
 -10   0  -1   72.04    2.54
  10   0   1   68.67    2.49
 -10   0  -1   67.13    2.48
 -10   0  -1   67.39    2.52
  10   0   1   65.98    2.54
  10   0   1   68.06    2.51
  10   0   1   69.99    2.48
 -10   0  -1   65.12    2.33
 -10   0  -1   69.92    2.67
  12   0   1  243.77    8.28
 -12   0  -1  246.12    8.26
  12   0   1  238.97    8.40
  12   0   1  243.21    8.21
 -12   0  -1  240.33    8.20
 -12   0  -1  238.73    8.42
  12   0   1  241.76    8.19
 -12   0  -1  242.31    8.25
 -12   0  -1  222.43    8.21
  12   0   1  236.07    8.23
  14   0   1    9.68    0.79
 -14   0  -1    9.48    0.74
  14   0   1    8.88    0.59
 -14   0  -1    7.63    0.70
  14   0   1    8.18    0.64
 -14   0  -1    9.25    0.68
  14   0   1    9.63    0.84
 -14   0  -1    9.50    0.72
 -14   0  -1    8.46    0.81
 -14   0  -1    8.84    0.65
  14   0   1    9.27    0.63
 -16   0  -1   71.04    2.83
  16   0   1   79.48    3.12
 -16   0  -1   71.92    2.92
  16   0   1   76.82    2.84
  16   0   1   73.66    2.81
 -16   0  -1   75.82    2.92
 -16   0  -1   72.01    3.09
  16   0   1   80.50    3.02
  16   0   1   70.64    2.85
 -18   0  -1   13.65    1.07
  18   0   1   15.85    0.98
  18   0   1   18.13    1.27
  18   0   1   14.44    0.86
  18   0   1   16.09    1.23
 -18   0  -1   14.33    1.21
  18   0   1   14.77    0.94
 -18   0  -1   13.92    0.96
  20   0   1   10.86    1.15
  20   0   1    8.98    0.72
 -20   0  -1    9.43    0.90
 -20   0  -1   10.36    1.00
  20   0   1    9.29    0.87
 -20   0  -1    9.25    0.98
 -22   0  -1    8.05    1.15
 -22   0  -1    7.31    1.00
  22   0   1    7.81    1.19
  22   0   1    8.89    1.28
  24   0   1    6.88    1.05
  24   0   1    6.97    1.15
  25  -1  -1    6.04    1.11
  25  -1  -1    5.20    1.05
  25   1  -1    6.17    1.08
  25   1  -1    8.99    1.47
  25   1  -1    6.34    1.10
  23  -1  -1    2.20    0.74
 -23  -1   1    3.60    0.88
  23  -1  -1    3.47    0.83
  23   1  -1    2.92    0.82
  23   1  -1    2.95    0.74
  23   1  -1    3.02    0.62
 -21  -1   1   12.61    1.55
  21  -1  -1   18.45    1.28
  21  -1  -1   15.23    0.91
  21  -1  -1   15.48    0.88
 -21  -1   1   14.58    1.12
 -21  -1   1   15.66    1.05
 -21  -1   1   16.13    1.33
  21  -1  -1   17.45    0.94
  21  -1  -1   17.64    1.35
  21  -1  -1   16.32    0.85
 -21   1   1   15.16    1.09
 -21   1   1   16.47    1.05
  21   1  -1   17.26    1.13
  21   1  -1   17.60    1.28
  21   1  -1   16.79    1.33
  21   1  -1   16.51    0.91
  21   1  -1   14.79    0.85
 -19  -1   1   22.01    1.23
  19  -1  -1   23.57    1.39
  19  -1  -1   21.03    1.06
 -19  -1   1   23.89    1.47
 -19  -1   1   21.85    1.60
  19  -1  -1   23.00    1.08
  19  -1  -1   23.00    1.39
  19  -1  -1   24.55    1.14
 -19  -1   1   21.72    1.16
  19  -1  -1   21.04    1.03
  19   1  -1   23.80    1.28
  19   1  -1   24.48    1.43
  19   1  -1   22.61    1.04
  19   1  -1   23.00    1.14
 -19   1   1   22.89    1.72
 -19   1   1   22.84    1.21
 -19   1   1   21.89    1.20
  19   1  -1   22.75    1.08
  19   1  -1   23.22    1.00
  19   1  -1   24.16    1.40
 -17  -1   1   11.54    0.78
 -17  -1   1   11.61    0.81
  17  -1  -1   11.92    0.70
 -17  -1   1   11.27    1.00
  17  -1  -1   11.42    0.65
  17  -1  -1   11.56    0.92
  17  -1  -1   11.68    0.93
  17  -1  -1   12.08    0.70
 -17  -1   1   12.18    1.10
  17  -1  -1   12.78    0.75
  17   1  -1   12.56    0.70
  17   1  -1   11.08    0.64
  17   1  -1   12.61    0.77
 -17   1   1   12.37    1.19
 -17   1   1   12.44    0.80
 -17   1   1   12.02    0.84
  17   1  -1   13.07    0.86
  17   1  -1   10.30    0.91
  17   1  -1   12.41    0.64
 -15  -1   1   44.58    2.05
 -15  -1   1   46.46    1.82
  15  -1  -1   45.32    1.75
 -15  -1   1   46.31    1.86
  15  -1  -1   46.20    1.78
 -15  -1   1   41.40    2.10
  15  -1  -1   45.51    1.94
  15  -1  -1   46.92    1.78
  15  -1  -1   44.96    1.99
 -15  -1   1   44.67    1.91
  15   1  -1   44.83    1.74
 -15   1   1   45.72    1.83
 -15   1   1   48.90    2.26
  15   1  -1   47.53    1.91
 -15   1   1   45.48    1.78
  15   1  -1   48.46    1.96
  15   1  -1   46.55    1.73
 -15   1   1   47.01    1.92
  15   1  -1   44.62    1.77
 -15   1   1   47.52    1.87
  15   1  -1   50.30    1.87
 -13  -1   1   40.90    1.99
  13  -1  -1   45.70    1.93
 -13  -1   1   47.89    1.81
 -13  -1   1   47.10    1.87
  13  -1  -1   46.65    1.87
  13  -1  -1   47.07    1.75
 -13  -1   1   45.01    1.98
 -13  -1   1   44.71    1.76
  13  -1  -1   46.35    1.74
  13   1  -1   45.25    1.73
  13   1  -1   48.27    1.81
 -13   1   1   46.93    1.78
 -13   1   1   46.48    2.14
 -13   1   1   44.83    1.85
  13   1  -1   46.34    1.84
 -13   1   1   45.78    1.81
  13   1  -1   47.55    1.88
 -13   1   1   46.19    1.74
  13   1  -1   45.41    1.74
  13   1  -1   46.79    1.71
  11  -1  -1  125.67    4.45
 -11  -1   1  126.62    4.39
 -11  -1   1  112.26    4.54
  11  -1  -1  122.99    4.52
  11  -1  -1  127.87    4.36
  11  -1  -1  130.14    4.36
 -11  -1   1  128.56    4.47
 -11  -1   1  120.81    4.57
  11  -1  -1  133.22    4.40
 -11  -1   1  126.31    4.37
  11   1  -1  127.26    4.34
 -11   1   1  128.27    4.37
 -11   1   1  128.12    4.41
 -11   1   1  128.70    4.46
  11   1  -1  123.37    4.35
  11   1  -1  126.31    4.50
  11   1  -1  133.00    4.44
 -11   1   1  122.08    4.68
  11   1  -1  125.82    4.46
 -11   1   1  127.73    4.35
  -9  -1   1    1.93    0.35
   9  -1  -1    1.66    0.30
  -9  -1   1    1.81    0.31
   9  -1  -1    1.46    0.15
   9  -1  -1    1.98    0.22
   9  -1  -1    1.70    0.21
  -9  -1   1    1.87    0.25
  -9  -1   1    2.17    0.30
   9  -1  -1    1.97    0.34
  -9  -1   1    1.99    0.23
   9  -1  -1    1.60    0.22
   9  -1  -1    2.16    0.21
   9  -1  -1    1.38    0.24
   9   1  -1    1.84    0.21
   9   1  -1    1.63    0.26
  -9   1   1    2.11    0.31
   9   1  -1    2.13    0.24
  -9   1   1    2.49    0.43
   9   1  -1    1.59    0.25
  -9   1   1    2.05    0.24
   9   1  -1    1.80    0.18
  -9   1   1    1.71    0.21
   9   1  -1    1.35    0.20
   7  -1  -1  327.62   11.71
  -7  -1   1  350.93   11.60
   7  -1  -1  330.67   11.71
   7  -1  -1  347.72   11.65
  -7  -1   1  350.80   11.66
  -7  -1   1  347.06   11.75
   7  -1  -1  340.99   11.61
  -7  -1   1  330.93   11.67
   7  -1  -1  372.74   11.60
  -7  -1   1  344.90   11.59
   7  -1  -1  342.61   11.68
   7  -1  -1  327.74   11.86
   7  -1  -1  352.53   11.73
  -7   1   1  310.15   11.78
  -7   1   1  329.57   11.64
   7   1  -1  345.79   11.73
  -7   1   1  372.10   11.77
   7   1  -1  365.39   11.69
   7   1  -1  354.97   11.68
  -7   1   1  374.55   11.59
   7   1  -1  323.55   11.67
   7   1  -1  357.11   11.71
  -7   1   1  375.91   11.58
   7   1  -1  340.95   11.79
   7   1  -1  345.09   11.65
   7   1  -1  356.80   11.69
  -5  -1   1   12.82    0.66
  -5  -1   1   14.16    0.54
   5  -1  -1   14.48    0.52
  -5  -1   1   12.90    0.55
   5  -1  -1   14.26    0.54
   5  -1  -1   13.53    0.56
   5  -1  -1   13.35    0.58
   5  -1  -1   13.94    0.63
   5  -1  -1   14.02    0.68
  -5  -1   1   13.43    0.57
   5  -1  -1   14.30    0.57
  -5  -1   1   13.46    0.58
  -5  -1   1   12.61    0.56
   5   1  -1   12.76    0.55
   5   1  -1   12.38    0.61
   5   1  -1   13.57    0.52
   5   1  -1   13.98    0.61
  -5   1   1   13.94    0.55
  -5   1   1   14.72    0.53
  -5   1   1   11.60    0.66
   5   1  -1   13.86    0.56
  -5   1   1   13.49    0.63
  -5   1   1   13.56    0.57
   5   1  -1   13.26    0.53
  -5   1   1   14.08    0.54
   3  -1  -1  354.95   12.56
  -3  -1   1  361.08   12.34
  -3  -1   1  352.06   12.38
  -3  -1   1  386.23   12.60
  -3  -1   1  384.82   12.25
   3  -1  -1  352.53   12.59
  -3  -1   1  331.43   12.31
   3  -1  -1  384.41   12.43
   3   1  -1  396.82   12.42
   3   1  -1  370.59   12.35
   3   1  -1  365.19   12.34
   3   1  -1  339.97   12.32
  -3   1   1  332.73   12.36
   3   1  -1  371.47   12.48
   3   1  -1  355.01   12.44
   3   1  -1  387.07   12.36
   3   1  -1  361.62   12.52
  -3   1   1  395.39   12.38
  -3   1   1  388.86   12.67
   1  -1  -1  136.98    4.82
   1  -1  -1  135.26    4.75
  -1  -1   1  131.71    4.79
   1  -1  -1  143.40    4.77
  -1  -1   1  141.74    4.80
   1  -1  -1  143.57    4.82
  -1  -1   1  133.10    4.76
   1  -1  -1  136.48    4.81
   1  -1  -1  144.73    4.81
  -1  -1   1  149.75    4.78
   1  -1  -1  149.18    4.82
  -1  -1   1  155.57    4.81
  -1  -1   1  143.47    4.77
  -1  -1   1  153.19    4.82
  -1  -1   1  152.94    4.77
  -1   1   1  140.10    4.81
   1   1  -1  143.05    4.77
   1   1  -1  152.47    4.84
   1   1  -1  121.48    4.74
  -1   1   1  148.29    4.77
  -1   1   1  128.47    4.73
   1   1  -1  145.71    4.78
  -1   1   1  131.98    4.75
   1   1  -1  147.27    4.81
  -1   1   1  134.05    4.76
   1   1  -1  150.10    4.81
   1   1  -1  137.38    4.79
   1   1  -1  138.39    4.78
   1   1  -1  136.99    4.81
   1  -1   1  490.53   14.63
   1  -1   1  412.72   14.44
  -1  -1  -1  423.83   14.60
  -1  -1  -1  386.93   14.54
  -1  -1  -1  383.45   14.40
  -1  -1  -1  491.15   14.55
  -1  -1  -1  473.57   14.82
  -1  -1  -1  373.49   14.58
   1   1   1  367.66   14.42
   1   1   1  380.85   14.47
   1   1   1  421.98   14.72
   1   1   1  485.65   14.74
   1   1   1  410.02   14.43
  -1   1  -1  479.64   14.54
  -1   1  -1  468.94   14.96
  -1   1  -1  447.95   14.60
  -1   1  -1  474.39   14.72
   1   1   1  458.23   14.64
  -1   1  -1  391.55   14.44
  -1   1  -1  385.74   14.56
   3  -1   1   17.51    0.69
  -3  -1  -1   17.60    0.73
  -3  -1  -1   17.44    0.72
   3  -1   1   17.99    0.69
  -3  -1  -1   18.36    0.77
  -3  -1  -1   18.20    0.66
   3  -1   1   18.11    0.69
   3  -1   1   17.54    0.71
  -3  -1  -1   17.33    0.71
  -3  -1  -1   16.49    0.71
  -3   1  -1   18.11    0.69
   3   1   1   17.91    0.71
   3   1   1   18.07    0.66
  -3   1  -1   17.58    0.79
   3   1   1   18.20    0.72
  -3   1  -1   17.99    0.72
   3   1   1   18.09    0.73
  -3   1  -1   17.70    0.70
  -3   1  -1   18.41    0.69
  -5  -1  -1  347.28   12.37
   5  -1   1  361.98   12.24
   5  -1   1  362.42   12.37
   5  -1   1  374.36   12.23
  -5  -1  -1  363.34   12.26
  -5  -1  -1  347.28   12.23
  -5  -1  -1  367.45   12.24
   5  -1   1  374.79   12.20
  -5  -1  -1  377.34   12.32
   5  -1   1  359.37   12.22
  -5  -1  -1  367.72   12.26
   5   1   1  374.29   12.24
   5   1   1  379.62   12.44
   5   1   1  333.62   12.20
  -5   1  -1  376.48   12.36
  -5   1  -1  346.74   12.24
   5   1   1  378.64   12.26
  -5   1  -1  342.96   12.21
  -5   1  -1  347.69   12.21
   5   1   1  384.41   12.27
   5   1   1  379.32   12.28
  -5   1  -1  386.22   12.26
   7  -1   1  127.13    4.32
  -7  -1  -1  116.94    4.26
  -7  -1  -1  125.89    4.36
  -7  -1  -1  123.57    4.38
   7  -1   1  125.01    4.34
   7  -1   1  129.53    4.30
  -7  -1  -1  126.53    4.43
   7  -1   1  121.08    4.48
  -7  -1  -1  122.85    4.33
   7  -1   1  123.87    4.34
  -7  -1  -1  117.58    4.33
   7   1   1  124.20    4.20
  -7   1  -1  124.93    4.33
  -7   1  -1  128.93    4.48
   7   1   1  126.04    4.43
   7   1   1  127.95    4.35
  -7   1  -1  126.81    4.35
  -7   1  -1  127.53    4.35
   7   1   1  125.23    4.27
   7   1   1  126.75    4.33
   7   1   1  126.13    4.36
  -7   1  -1  124.93    4.31
  -9  -1  -1   91.47    3.27
   9  -1   1   86.68    3.31
   9  -1   1   91.37    3.56
   9  -1   1   93.97    3.29
   9  -1   1   89.67    3.25
  -9  -1  -1   93.82    3.41
   9  -1   1   93.80    3.31
  -9  -1  -1   93.85    3.32
  -9  -1  -1   88.38    3.29
  -9  -1  -1   87.66    3.18
   9   1   1   93.46    3.30
  -9   1  -1   90.28    3.28
   9   1   1   93.80    3.27
  -9   1  -1   91.89    3.15
   9   1   1   97.25    3.30
   9   1   1   91.43    3.32
   9   1   1   92.37    3.17
  -9   1  -1   90.31    3.29
  -9   1  -1   93.73    3.45
  -9   1  -1   88.64    3.23
   9   1   1   93.01    3.39
  -9   1  -1   92.08    3.25
 -11  -1  -1  106.10    3.83
  11  -1   1  107.87    4.04
 -11  -1  -1  105.91    3.98
  11  -1   1  105.55    3.78
  11  -1   1  108.58    3.85
 -11  -1  -1  102.78    3.85
  11  -1   1  106.28    3.80
 -11  -1  -1  108.51    3.87
 -11  -1  -1  108.33    3.88
  11  -1   1  108.14    3.88
 -11  -1  -1   95.81    3.69
 -11   1  -1  110.21    3.86
 -11   1  -1  112.37    4.07
  11   1   1  108.37    3.90
  11   1   1  113.35    3.86
 -11   1  -1   99.98    3.79
  11   1   1  108.58    3.85
 -11   1  -1  106.18    3.64
  11   1   1  109.31    3.97
  11   1   1  105.31    3.81
 -11   1  -1  108.74    3.84
 -11   1  -1  112.49    3.67
 -11   1  -1  107.86    3.85
  13  -1   1   25.54    1.36
  13  -1   1   24.87    1.17
 -13  -1  -1   22.59    1.29
 -13  -1  -1   25.28    1.31
 -13  -1  -1   20.73    0.97
 -13  -1  -1   25.23    1.20
 -13  -1  -1   25.01    1.20
 -13  -1  -1   24.27    1.15
  13  -1   1   25.01    1.24
  13  -1   1   25.26    1.11
  13  -1   1   25.44    1.11
 -13   1  -1   29.94    1.43
  13   1   1   25.66    1.31
  13   1   1   23.67    1.16
  13   1   1   27.45    1.19
 -13   1  -1   24.51    1.17
 -13   1  -1   24.88    1.13
 -13   1  -1   24.76    1.14
  13   1   1   24.27    1.24
  13   1   1   24.82    1.12
 -13   1  -1   26.98    1.20
 -13   1  -1   23.77    1.15
  15  -1   1   26.87    1.33
  15  -1   1   25.56    1.17
  15  -1   1   25.27    1.22
  15  -1   1   25.77    1.74
 -15  -1  -1   26.29    1.42
 -15  -1  -1   27.01    1.31
  15  -1   1   25.64    1.17
 -15  -1  -1   24.03    1.38
 -15  -1  -1   22.75    1.24
 -15  -1  -1   24.90    1.22
  15   1   1   27.46    1.23
 -15   1  -1   25.80    1.28
  15   1   1   25.48    1.38
  15   1   1   25.78    1.17
 -15   1  -1   23.62    1.33
 -15   1  -1   25.28    1.24
 -15   1  -1   25.61    1.21
  15   1   1   24.89    1.21
  15   1   1   25.21    1.33
 -15   1  -1   23.44    1.24
 -15   1  -1   25.95    1.46
  17  -1   1   15.44    0.89
 -17  -1  -1   16.41    1.17
 -17  -1  -1   16.59    1.08
  17  -1   1   15.79    1.16
  17  -1   1   15.68    0.90
  17  -1   1   16.09    0.99
 -17  -1  -1   15.73    0.98
  17  -1   1   16.86    1.24
 -17  -1  -1   16.47    1.20
  17   1   1   16.03    0.90
  17   1   1   15.85    0.97
 -17   1  -1   17.07    0.95
  17   1   1   18.20    1.17
 -17   1  -1   14.08    1.24
 -17   1  -1   15.68    0.96
  17   1   1   16.51    1.00
  17   1   1   17.35    1.16
 -17   1  -1   16.12    1.05
  19  -1   1   23.59    1.45
 -19  -1  -1   20.99    1.49
  19  -1   1   25.42    1.30
 -19  -1  -1   22.51    1.28
  19  -1   1   22.44    1.18
  19  -1   1   22.82    1.49
 -19  -1  -1   22.79    1.38
 -19  -1  -1   24.47    1.48
  19   1   1   26.80    1.52
 -19   1  -1   24.15    1.37
  19   1   1   21.98    1.16
 -19   1  -1   23.80    1.22
 -19   1  -1   23.43    1.26
  19   1   1   26.55    1.84
  19   1   1   23.22    1.27
 -21  -1  -1    2.01    0.72
  21  -1   1    0.88    0.47
  21  -1   1    1.45    0.72
  21  -1   1    1.92    0.76
 -21  -1  -1    1.08    0.60
  21   1   1    1.57    0.51
 -21   1  -1    1.63    0.54
  21   1   1    1.04    0.66
 -21   1  -1    1.48    0.60
  23  -1   1   10.12    1.35
 -23  -1  -1    9.36    1.36
  23  -1   1   11.08    1.48
  23   1   1    7.42    1.17
  23   1   1    9.09    1.34
  23   1   1   10.41    1.39
  25  -1   1    3.17    0.96
  25   1   1    1.68    0.79
  26  -2  -1    5.07    0.97
  24  -2  -1    2.50    0.82
  24  -2  -1    2.15    0.75
  24   2  -1    2.05    0.91
  24   2  -1    0.59    0.84
  22  -2  -1    9.94    1.20
 -22  -2   1    9.54    1.37
  22  -2  -1   10.25    1.15
 -22  -2   1   10.02    1.41
  22   2  -1   11.29    1.15
  22   2  -1    9.69    0.89
 -22   2   1    9.64    1.11
  22   2  -1   10.61    1.26
  20  -2  -1    9.69    0.64
 -20  -2   1    7.93    1.22
 -20  -2   1    9.71    1.19
  20  -2  -1    7.92    0.65
  20  -2  -1   11.08    1.06
  20  -2  -1   10.81    0.79
  20  -2  -1    9.58    0.71
 -20  -2   1    9.06    1.41
  20   2  -1   11.08    1.13
  20   2  -1    9.68    0.65
  20   2  -1   11.21    0.86
  20   2  -1   10.05    0.70
  20   2  -1   10.59    1.03
 -20   2   1    9.38    0.86
  18  -2  -1   37.83    1.60
  18  -2  -1   42.26    2.00
  18  -2  -1   39.84    1.60
 -18  -2   1   40.39    1.80
 -18  -2   1   36.81    2.01
  18  -2  -1   37.96    1.64
  18  -2  -1   40.56    1.88
 -18  -2   1   41.64    2.23
 -18   2   1   40.56    2.25
  18   2  -1   42.54    1.89
  18   2  -1   38.57    1.59
  18   2  -1   40.45    1.93
 -18   2   1   41.01    1.65
  18   2  -1   39.38    1.64
  18   2  -1   41.25    1.72
  18   2  -1   42.14    1.76
 -18   2   1   37.65    1.71
 -16  -2   1    0.77    0.29
  16  -2  -1    0.80    0.25
 -16  -2   1    1.25    0.56
  16  -2  -1    0.77    0.39
  16  -2  -1    1.40    0.29
  16  -2  -1    1.32    0.28
  16  -2  -1    2.04    0.55
 -16  -2   1    1.09    0.49
 -16  -2   1    0.34    0.33
 -16  -2   1    0.89    0.36
  16   2  -1    1.39    0.21
 -16   2   1    0.91    0.34
 -16   2   1    1.44    0.34
  16   2  -1    1.46    0.36
  16   2  -1    1.21    0.45
  16   2  -1    1.22    0.25
  16   2  -1    0.98    0.27
  16   2  -1    1.61    0.37
  16   2  -1    0.92    0.47
 -16   2   1    1.20    0.55
  14  -2  -1  116.53    4.05
  14  -2  -1  115.37    4.30
  14  -2  -1  111.72    4.27
  14  -2  -1   98.64    4.05
  14  -2  -1  117.51    4.05
  14  -2  -1  117.96    4.18
 -14  -2   1  118.93    4.14
 -14  -2   1  105.02    4.26
 -14  -2   1  112.71    4.40
 -14  -2   1  114.48    4.19
 -14   2   1  115.28    4.01
 -14   2   1  118.53    4.55
  14   2  -1  126.91    4.15
  14   2  -1  115.25    4.09
  14   2  -1  115.38    4.20
  14   2  -1  114.43    4.05
  14   2  -1  115.14    3.93
  14   2  -1  116.81    4.23
 -14   2   1  116.04    4.08
  12  -2  -1    4.74    0.55
 -12  -2   1    4.63    0.49
  12  -2  -1    5.43    0.52
  12  -2  -1    5.52    0.34
 -12  -2   1    5.03    0.69
  12  -2  -1    5.13    0.37
  12  -2  -1    5.30    0.38
 -12  -2   1    5.17    0.46
  12  -2  -1    3.96    0.49
 -12  -2   1    4.00    0.53
 -12  -2   1    3.74    0.40
  12   2  -1    4.68    0.37
  12   2  -1    4.87    0.54
  12   2  -1    5.27    0.32
  12   2  -1    4.87    0.37
 -12   2   1    5.09    0.42
 -12   2   1    5.08    0.27
 -12   2   1    5.24    0.43
  12   2  -1    5.15    0.31
  12   2  -1    5.52    0.43
  12   2  -1    5.11    0.45
  12   2  -1    4.80    0.51
 -12   2   1    4.16    0.69
  10  -2  -1   69.24    2.39
  10  -2  -1   70.17    2.38
  10  -2  -1   71.64    2.45
  10  -2  -1   68.80    2.64
 -10  -2   1   69.22    2.49
 -10  -2   1   59.82    2.50
  10  -2  -1   65.10    2.39
  10  -2  -1   71.29    2.42
 -10  -2   1   65.78    2.53
 -10  -2   1   66.33    2.72
 -10  -2   1   66.18    2.46
  10  -2  -1   69.35    2.60
  10  -2  -1   70.63    2.53
  10   2  -1   69.06    2.44
  10   2  -1   68.27    2.42
  10   2  -1   66.89    2.56
  10   2  -1   71.17    2.38
 -10   2   1   67.27    2.40
  10   2  -1   68.19    2.42
 -10   2   1   71.86    2.46
  10   2  -1   69.08    2.53
 -10   2   1   67.75    2.37
  10   2  -1   67.69    2.44
 -10   2   1   67.72    2.77
   8  -2  -1   68.08    2.50
  -8  -2   1   70.59    2.57
   8  -2  -1   69.68    2.45
  -8  -2   1   71.98    2.53
   8  -2  -1   73.39    2.47
   8  -2  -1   73.35    2.49
   8  -2  -1   70.43    2.42
  -8  -2   1   67.29    2.72
  -8  -2   1   70.35    2.46
   8  -2  -1   70.33    2.55
  -8  -2   1   64.40    2.49
   8  -2  -1   73.39    2.63
   8  -2  -1   70.01    2.67
  -8   2   1   69.15    2.47
   8   2  -1   70.11    2.58
   8   2  -1   73.87    2.51
  -8   2   1   72.88    2.50
   8   2  -1   72.32    2.48
   8   2  -1   73.25    2.45
   8   2  -1   71.17    2.49
   8   2  -1   70.87    2.55
   8   2  -1   70.50    2.45
  -8   2   1   67.05    2.76
   6  -2  -1  120.42    4.17
  -6  -2   1  118.91    4.10
  -6  -2   1  121.23    4.07
   6  -2  -1  118.90    3.98
  -6  -2   1  124.54    4.43
   6  -2  -1  122.76    4.08
   6  -2  -1  114.94    4.11
  -6  -2   1  124.80    4.16
  -6  -2   1  118.21    4.11
  -6  -2   1  112.47    4.01
   6  -2  -1  117.22    4.04
   6  -2  -1  120.68    4.06
   6  -2  -1  118.88    4.08
   6   2  -1  124.22    4.17
  -6   2   1  115.89    4.10
  -6   2   1  122.82    4.08
   6   2  -1  120.74    4.07
   6   2  -1  122.24    4.10
   6   2  -1  124.07    4.11
   6   2  -1  110.97    4.17
   6   2  -1  117.86    4.05
   6   2  -1  123.58    4.06
   6   2  -1  116.67    3.99
  -6   2   1  109.18    4.26
   4  -2  -1    9.32    0.53
  -4  -2   1    8.72    0.45
   4  -2  -1    8.87    0.46
   4  -2  -1    8.31    0.46
   4  -2  -1    8.83    0.38
  -4  -2   1    9.00    0.41
  -4  -2   1    8.52    0.41
  -4   2   1    8.31    0.45
   4   2  -1    9.31    0.41
  -4   2   1    8.51    0.47
   4   2  -1    8.90    0.40
   4   2  -1    9.20    0.39
   4   2  -1    8.61    0.44
  -4   2   1    8.59    0.42
   4   2  -1    8.64    0.43
  -4   2   1    8.19    0.53
   4   2  -1    8.05    0.46
  -2  -2   1  115.67    3.82
  -2  -2   1  112.68    3.79
   2  -2  -1  107.47    3.89
   2  -2  -1  111.66    3.87
  -2  -2   1  112.69    3.83
  -2  -2   1  112.29    3.80
   2  -2  -1  115.87    3.78
  -2  -2   1  113.45    3.83
  -2   2   1  116.55    3.78
   2   2  -1  110.14    3.80
  -2   2   1  107.91    3.93
   2   2  -1  114.16    3.81
  -2   2   1  115.54    3.87
  -2   2   1  107.70    3.89
   2   2  -1  109.66    3.81
   2   2  -1  115.74    3.86
   2   2  -1  101.25    3.85
   2   2  -1  113.11    3.82
  -2   2   1  113.40    3.81
   2   2  -1  116.18    3.78
   2   2  -1  110.81    3.77
  -2   2   1  116.67    3.82
   2   2  -1  107.35    3.75
  -2   2   1  111.64    3.74
   0  -2  -1  263.63    8.66
   0  -2   1  268.60    8.93
   0  -2   1  275.41    8.63
   0  -2  -1  240.49    8.64
   0  -2   1  265.12    8.87
   0  -2  -1  245.34    8.65
   0  -2   1  256.76    8.64
   0  -2  -1  243.70    8.78
   0  -2   1  253.46    8.68
   0  -2   1  272.04    8.76
   0  -2  -1  244.79    8.66
   0  -2  -1  255.49    8.69
   0  -2  -1  265.59    8.68
   0   2  -1  254.89    8.91
   0   2   1  243.15    8.64
   0   2   1  256.49    8.73
   0   2  -1  266.13    8.63
   0   2   1  250.68    8.66
   0   2  -1  256.94    8.65
   0   2   1  269.19    8.77
   0   2   1  265.43    8.63
   0   2  -1  275.41    8.70
   0   2  -1  237.73    8.63
   0   2   1  253.80    8.70
   0   2   1  267.11    8.60
   0   2  -1  261.44    8.88
   2  -2   1    3.79    0.23
  -2  -2  -1    3.53    0.28
   2  -2   1    4.12    0.25
   2  -2   1    3.76    0.36
  -2  -2  -1    4.11    0.25
   2  -2   1    4.07    0.26
  -2  -2  -1    4.24    0.28
  -2  -2  -1    3.71    0.28
   2  -2   1    4.11    0.24
  -2   2  -1    4.19    0.27
   2   2   1    3.79    0.27
   2   2   1    3.37    0.27
   2   2   1    3.84    0.24
  -2   2  -1    3.91    0.23
   2   2   1    4.05    0.30
   2   2   1    3.68    0.31
  -2   2  -1    3.68    0.30
  -2   2  -1    3.52    0.24
  -2   2  -1    3.88    0.27
  -4  -2  -1  361.24   13.67
   4  -2   1  409.52   13.76
  -4  -2  -1  429.80   13.69
   4  -2   1  424.32   13.82
  -4  -2  -1  394.83   13.82
  -4  -2  -1  416.61   13.80
   4  -2   1  416.07   13.81
   4  -2   1  412.13   13.62
  -4  -2  -1  416.88   13.68
   4  -2   1  405.33   13.75
  -4  -2  -1  371.46   13.67
  -4  -2  -1  376.11   13.65
   4  -2   1  413.94   13.63
   4   2   1  411.65   13.88
  -4   2  -1  419.98   13.89
   4   2   1  435.70   13.70
   4   2   1  401.46   13.66
   4   2   1  440.07   13.69
  -4   2  -1  386.34   13.65
   4   2   1  405.77   13.68
  -4   2  -1  449.25   13.90
  -4   2  -1  439.54   14.01
  -4   2  -1  375.53   13.63
   4   2   1  418.91   13.78
  -4   2  -1  368.94   13.73
   6  -2   1   32.17    1.18
   6  -2   1   31.89    1.21
  -6  -2  -1   30.21    1.24
   6  -2   1   31.48    1.24
  -6  -2  -1   32.01    1.27
  -6  -2  -1   30.30    1.25
   6  -2   1   32.34    1.25
  -6  -2  -1   30.03    1.26
   6  -2   1   31.98    1.22
  -6  -2  -1   30.48    1.26
  -6  -2  -1   31.72    1.30
   6   2   1   30.22    1.25
  -6   2  -1   30.38    1.11
  -6   2  -1   32.75    1.22
   6   2   1   32.25    1.24
   6   2   1   31.39    1.25
  -6   2  -1   30.13    1.24
   6   2   1   30.69    1.23
   6   2   1   31.67    1.27
  -6   2  -1   32.89    1.22
  -6   2  -1   32.14    1.18
  -8  -2  -1  146.29    5.17
  -8  -2  -1  149.31    5.17
  -8  -2  -1  138.41    5.10
   8  -2   1  153.99    5.06
   8  -2   1  153.43    5.11
   8  -2   1  145.71    5.12
   8  -2   1  149.09    5.13
  -8  -2  -1  146.03    5.13
  -8  -2  -1  142.08    5.19
   8  -2   1  150.57    5.33
   8  -2   1  145.97    5.09
  -8   2  -1  144.70    5.06
  -8   2  -1  145.72    5.13
   8   2   1  140.89    5.13
   8   2   1  151.51    5.09
   8   2   1  151.70    5.12
   8   2   1  159.75    5.19
  -8   2  -1  146.42    5.30
   8   2   1  147.51    5.19
  -8   2  -1  152.85    5.07
  -8   2  -1  146.50    5.10
  -8   2  -1  148.84    5.11
   8   2   1  145.99    5.15
   8   2   1  143.85    5.16
 -10  -2  -1   12.04    0.72
  10  -2   1   11.97    0.63
  10  -2   1   11.82    0.65
  10  -2   1   11.50    0.84
 -10  -2  -1   11.14    0.65
  10  -2   1   11.29    0.67
 -10  -2  -1   10.77    0.67
  10  -2   1   11.61    0.60
 -10  -2  -1   11.66    0.74
  10  -2   1   12.10    0.71
 -10   2  -1   12.41    0.67
  10   2   1   11.37    0.73
  10   2   1   11.30    0.72
 -10   2  -1   12.22    0.83
  10   2   1   11.32    0.67
 -10   2  -1   11.24    0.53
  10   2   1   12.34    0.59
 -10   2  -1   11.15    0.74
 -10   2  -1   12.49    0.59
  10   2   1   11.80    0.64
 -10   2  -1   13.20    0.71
 -10   2  -1   12.00    0.65
  12  -2   1  129.80    4.87
 -12  -2  -1  136.57    4.70
  12  -2   1  131.69    4.67
  12  -2   1  129.67    4.58
  12  -2   1  132.71    4.55
 -12  -2  -1  129.45    4.64
 -12  -2  -1  135.63    4.70
 -12  -2  -1  123.34    4.73
  12  -2   1  130.77    4.64
  12   2   1  130.52    4.60
 -12   2  -1  133.03    4.64
 -12   2  -1  124.73    4.56
  12   2   1  128.92    4.70
  12   2   1  128.77    4.48
  12   2   1  128.28    4.63
 -12   2  -1  123.96    4.45
 -12   2  -1  132.71    4.87
  12   2   1  127.04    4.71
  12   2   1  135.79    4.66
 -12   2  -1  129.86    4.59
 -12   2  -1  129.59    4.64
 -12   2  -1  130.74    4.49
 -14  -2  -1    2.63    0.47
  14  -2   1    2.24    0.39
  14  -2   1    2.99    0.64
 -14  -2  -1    2.50    0.45
 -14  -2  -1    2.11    0.56
 -14  -2  -1    2.21    0.50
 -14  -2  -1    2.47    0.63
 -14  -2  -1    2.61    0.44
  14  -2   1    2.48    0.35
  14  -2   1    2.53    0.37
  14  -2   1    3.25    0.51
  14   2   1    3.44    0.54
 -14   2  -1    2.30    0.37
  14   2   1    3.06    0.53
  14   2   1    2.95    0.27
  14   2   1    2.98    0.43
  14   2   1    2.99    0.39
  14   2   1    3.37    0.48
 -14   2  -1    2.06    0.42
 -14   2  -1    3.64    0.48
 -14   2  -1    4.15    0.68
 -14   2  -1    3.17    0.44
 -14   2  -1    2.79    0.42
 -16  -2  -1   42.14    2.11
 -16  -2  -1   45.14    1.94
  16  -2   1   47.72    2.17
 -16  -2  -1   41.76    1.85
  16  -2   1   43.75    1.85
 -16  -2  -1   40.87    1.99
  16  -2   1   42.45    1.77
  16  -2   1   42.07    1.74
  16  -2   1   42.70    2.01
 -16   2  -1   44.29    1.90
 -16   2  -1   43.72    2.15
 -16   2  -1   42.31    1.78
  16   2   1   46.37    1.99
  16   2   1   45.42    1.88
 -16   2  -1   40.45    1.79
  16   2   1   43.63    1.96
 -16   2  -1   39.81    1.83
  16   2   1   41.68    1.84
  16   2   1   42.79    1.78
  18  -2   1    8.81    0.70
  18  -2   1    7.76    0.67
 -18  -2  -1    9.53    0.97
  18  -2   1    9.51    1.01
 -18  -2  -1    9.52    1.38
 -18  -2  -1    7.71    0.93
  18  -2   1    8.37    0.77
 -18  -2  -1    8.95    0.84
  18  -2   1    8.27    1.38
  18   2   1    9.30    1.03
  18   2   1    9.63    0.93
 -18   2  -1    8.09    0.64
 -18   2  -1    8.73    0.89
  18   2   1    9.05    0.77
 -18   2  -1    8.13    0.79
  18   2   1    9.59    1.02
  18   2   1    8.68    0.69
 -20  -2  -1    5.28    1.00
  20  -2   1    7.33    0.74
  20  -2   1    6.00    0.87
 -20  -2  -1    7.67    1.17
  20  -2   1    6.43    1.18
 -20  -2  -1    7.12    0.99
  20  -2   1    7.03    0.83
 -20  -2  -1    7.45    0.91
 -20   2  -1    6.88    0.66
  20   2   1    6.60    0.94
  20   2   1    6.18    0.77
 -20   2  -1    5.10    0.70
 -20   2  -1    6.97    0.96
  20   2   1    7.49    1.01
  20   2   1    5.33    0.67
  20   2   1    6.91    1.08
 -22  -2  -1    2.77    0.82
  22  -2   1    2.73    0.83
  22  -2   1    4.44    0.91
 -22  -2  -1    5.90    1.10
  22   2   1    3.48    0.89
  22   2   1    6.37    0.96
  22   2   1    3.80    0.77
 -22   2  -1    3.74    0.79
  24  -2   1    3.36    1.09
  24  -2   1    4.59    1.02
  24   2   1    4.76    1.04
  24   2   1    4.05    0.88
  24   2   1    4.88    1.16
 -25  -3   1    6.88    1.50
  25  -3  -1    9.23    1.40
  25   3  -1    7.07    1.20
  23  -3  -1    6.99    1.16
 -23  -3   1    6.57    1.24
  23  -3  -1    6.77    0.98
  23   3  -1    7.15    0.96
  23   3  -1    8.98    1.27
 -21  -3   1   16.53    2.82
  21  -3  -1   16.42    1.35
  21  -3  -1   14.01    0.85
  21  -3  -1   17.75    1.41
 -21  -3   1   17.98    1.28
  21   3  -1   17.81    1.28
  21   3  -1   17.28    1.33
  21   3  -1   15.67    0.97
 -21   3   1   18.10    1.19
 -19  -3   1   20.90    1.63
  19  -3  -1   19.68    0.96
  19  -3  -1   17.54    0.99
 -19  -3   1   18.07    1.31
 -19  -3   1   17.02    1.36
  19  -3  -1   18.31    0.91
  19  -3  -1   20.82    1.46
  19  -3  -1   20.17    1.27
  19   3  -1   20.40    1.30
  19   3  -1   18.90    0.99
  19   3  -1   20.76    1.27
  19   3  -1   19.89    0.95
 -19   3   1   19.99    1.13
  19   3  -1   19.22    1.02
 -17  -3   1   23.82    1.65
  17  -3  -1   22.55    1.13
  17  -3  -1   24.98    1.50
  17  -3  -1   25.46    1.35
 -17  -3   1   19.79    1.68
  17  -3  -1   24.96    1.06
 -17  -3   1   26.06    1.31
  17   3  -1   26.17    1.47
 -17   3   1   24.50    1.22
  17   3  -1   24.60    1.10
  17   3  -1   26.09    1.39
  17   3  -1   24.75    1.51
  17   3  -1   26.80    1.28
 -17   3   1   27.56    1.78
  17   3  -1   23.54    1.40
  15  -3  -1   79.62    3.17
  15  -3  -1   79.34    2.99
  15  -3  -1   74.36    2.80
 -15  -3   1   79.93    2.96
 -15  -3   1   71.17    2.98
 -15  -3   1   75.02    3.32
  15  -3  -1   77.87    2.85
  15  -3  -1   72.96    3.05
 -15  -3   1   76.37    2.99
  15  -3  -1   77.73    2.90
  15   3  -1   79.21    2.96
 -15   3   1   79.47    3.38
  15   3  -1   78.50    2.99
  15   3  -1   75.48    3.01
  15   3  -1   81.66    2.93
  15   3  -1   78.30    2.72
 -15   3   1   76.20    2.88
  15   3  -1   75.37    2.83
  15   3  -1   76.95    2.87
 -13  -3   1   53.77    2.27
  13  -3  -1   58.73    2.20
 -13  -3   1   56.62    2.31
  13  -3  -1   58.98    2.48
  13  -3  -1   59.39    2.17
  13  -3  -1   59.68    2.09
  13  -3  -1   58.72    2.39
 -13  -3   1   58.82    2.29
  13  -3  -1   59.48    2.24
  13  -3  -1   60.30    2.31
 -13  -3   1   60.13    2.66
  13   3  -1   62.42    2.29
 -13   3   1   57.41    2.09
  13   3  -1   56.79    2.19
  13   3  -1   56.36    2.30
  13   3  -1   60.70    2.15
 -13   3   1   59.19    2.65
  13   3  -1   58.48    2.35
  13   3  -1   58.60    2.16
  13   3  -1   58.09    2.17
 -13   3   1   59.44    2.23
  11  -3  -1  137.64    4.68
 -11  -3   1  137.51    5.12
  11  -3  -1  133.98    4.96
  11  -3  -1  136.47    4.87
  11  -3  -1  124.73    4.57
 -11  -3   1  125.60    4.71
  11  -3  -1  135.21    4.67
 -11  -3   1  135.63    4.82
  11  -3  -1  135.06    4.78
 -11  -3   1  139.34    4.78
  11  -3  -1  142.79    4.75
  11  -3  -1  136.94    4.72
  11  -3  -1  135.87    4.59
 -11   3   1  128.12    4.66
 -11   3   1  138.71    5.12
  11   3  -1  138.11    4.64
 -11   3   1  136.59    4.73
  11   3  -1  141.43    4.81
  11   3  -1  135.31    4.71
  11   3  -1  136.85    4.70
  11   3  -1  136.80    4.69
  11   3  -1  133.46    4.82
  -9  -3   1   27.11    1.19
  -9  -3   1   25.32    1.39
   9  -3  -1   28.72    1.13
   9  -3  -1   27.40    1.01
   9  -3  -1   26.51    1.16
  -9  -3   1   28.88    1.18
   9  -3  -1   28.31    1.13
   9  -3  -1   28.28    1.16
   9  -3  -1   27.82    1.09
   9  -3  -1   28.23    1.23
   9  -3  -1   27.42    1.32
  -9  -3   1   28.06    1.06
   9  -3  -1   28.81    0.99
  -9  -3   1   25.11    1.03
   9   3  -1   27.14    1.10
   9   3  -1   28.39    1.22
   9   3  -1   27.14    1.14
  -9   3   1   27.63    1.40
  -9   3   1   27.89    1.13
   9   3  -1   26.62    1.10
   9   3  -1   28.83    1.18
  -9   3   1   27.32    1.14
   7  -3  -1  317.62   12.49
  -7  -3   1  367.25   12.27
   7  -3  -1  359.61   12.36
   7  -3  -1  324.77   12.46
   7  -3  -1  353.38   12.32
  -7  -3   1  381.80   12.41
   7  -3  -1  389.42   12.30
   7  -3  -1  358.84   12.38
   7  -3  -1  340.94   12.50
  -7  -3   1  364.72   12.61
  -7  -3   1  353.54   12.35
  -7  -3   1  374.18   12.36
  -7   3   1  391.96   12.34
   7   3  -1  393.72   12.35
   7   3  -1  389.95   12.30
   7   3  -1  391.58   12.32
  -7   3   1  349.40   12.39
  -7   3   1  388.71   12.31
  -7   3   1  332.62   12.53
   7   3  -1  378.15   12.38
   7   3  -1  396.71   12.38
   5  -3  -1   39.19    1.63
   5  -3  -1   34.33    1.53
  -5  -3   1   38.71    1.47
  -5  -3   1   39.76    1.49
  -5  -3   1   38.29    1.46
   5  -3  -1   40.71    1.46
   5  -3  -1   38.36    1.52
   5  -3  -1   39.61    1.42
  -5  -3   1   40.18    1.52
  -5  -3   1   37.42    1.58
  -5  -3   1   39.21    1.45
   5   3  -1   39.61    1.50
  -5   3   1   39.92    1.45
  -5   3   1   36.41    1.55
   5   3  -1   38.40    1.49
   5   3  -1   39.47    1.45
   5   3  -1   40.46    1.46
   5   3  -1   39.86    1.44
  -5   3   1   38.65    1.44
  -5   3   1   40.45    1.48
   5   3  -1   35.46    1.54
  -3  -3   1  470.74   18.11
  -3  -3   1  550.90   18.13
  -3  -3   1  482.11   18.03
   3  -3  -1  530.58   18.51
   3  -3  -1  579.73   18.22
  -3  -3   1  561.21   18.28
  -3  -3   1  561.63   18.16
  -3  -3   1  578.19   18.51
   3  -3  -1  515.56   18.17
   3  -3  -1  513.47   18.38
  -3  -3   1  549.07   18.51
  -3   3   1  535.00   18.11
  -3   3   1  549.94   18.44
  -3   3   1  544.47   18.56
  -3   3   1  462.25   18.17
   3   3  -1  539.21   18.26
   3   3  -1  526.90   18.16
   3   3  -1  594.31   18.43
   3   3  -1  510.07   18.19
  -3   3   1  551.18   18.21
  -3   3   1  553.84   18.38
  -3   3   1  517.49   18.24
   3   3  -1  545.27   18.38
   3   3  -1  549.19   18.35
   3   3  -1  555.71   18.71
  -3   3   1  597.66   18.30
   3   3  -1  584.45   18.47
  -1  -3   1  119.50    4.09
   1  -3  -1  117.24    4.18
   1  -3  -1  117.69    4.10
  -1  -3   1  112.50    4.10
  -1  -3   1  113.68    4.18
   1  -3  -1  125.32    4.03
   1  -3  -1  114.80    4.06
  -1  -3   1  126.43    4.08
  -1  -3   1  110.87    4.16
  -1  -3   1  122.99    4.06
  -1  -3   1  121.17    4.03
   1  -3  -1  119.45    4.08
   1  -3  -1  124.42    4.09
   1  -3  -1  107.12    4.16
  -1   3   1  113.10    4.16
  -1   3   1  120.48    4.07
  -1   3   1  119.10    4.22
  -1   3   1  117.49    4.07
   1   3  -1  116.17    4.08
  -1   3   1  117.44    4.08
   1   3  -1  119.34    4.04
   1   3  -1  124.59    4.13
   1   3  -1  108.43    4.09
   1   3  -1  119.66    4.06
   1   3  -1  118.77    4.06
  -1   3   1  119.33    4.11
   1   3  -1  118.04    4.04
   1   3  -1  118.93    4.07
   1  -3   1  426.38   14.19
   1  -3   1  426.39   13.84
  -1  -3  -1  378.54   13.74
  -1  -3  -1  380.35   13.79
   1  -3   1  418.07   13.73
  -1  -3  -1  386.23   13.82
  -1  -3  -1  383.65   13.72
   1  -3   1  429.36   13.72
   1  -3   1  419.22   13.83
   1  -3   1  375.51   13.77
  -1  -3  -1  421.76   13.74
  -1  -3  -1  425.64   13.69
   1  -3   1  417.34   13.70
  -1   3  -1  381.72   13.68
   1   3   1  442.37   13.73
  -1   3  -1  402.85   13.89
  -1   3  -1  387.58   13.96
   1   3   1  421.76   14.21
   1   3   1  421.98   13.92
   1   3   1  400.03   13.72
  -1   3  -1  404.08   13.77
   1   3   1  411.09   13.82
  -1   3  -1  443.03   13.81
  -1   3  -1  411.05   13.90
   1   3   1  399.66   13.74
  -1   3  -1  440.42   13.79
  -3  -3  -1  119.45    4.23
   3  -3   1  123.86    4.16
  -3  -3  -1  121.53    4.17
  -3  -3  -1  118.65    4.20
  -3  -3  -1  121.04    4.22
   3  -3   1  125.30    4.20
   3  -3   1  120.43    4.13
   3  -3   1  117.95    4.36
   3  -3   1  122.21    4.12
  -3  -3  -1  106.35    4.26
   3  -3   1  125.31    4.17
  -3   3  -1  120.32    4.17
  -3   3  -1  116.15    4.25
   3   3   1  127.47    4.22
  -3   3  -1  119.87    4.20
   3   3   1  127.20    4.31
   3   3   1  123.91    4.16
  -3   3  -1  113.41    4.12
  -3   3  -1  125.29    4.24
  -3   3  -1  125.04    4.14
  -3   3  -1  118.99    4.26
   3   3   1  122.78    4.20
   3   3   1  121.32    4.22
   5  -3   1  491.99   16.38
  -5  -3  -1  445.03   16.24
   5  -3   1  488.32   16.19
  -5  -3  -1  459.38   16.19
  -5  -3  -1  454.17   16.21
  -5  -3  -1  483.62   16.24
   5  -3   1  530.98   16.21
  -5  -3  -1  451.57   16.17
   5  -3   1  487.82   16.26
  -5  -3  -1  410.63   16.10
   5  -3   1  469.30   16.14
   5   3   1  492.75   16.19
  -5   3  -1  522.46   16.32
  -5   3  -1  455.77   16.14
  -5   3  -1  475.63   16.31
   5   3   1  486.00   16.21
  -5   3  -1  458.51   16.18
   5   3   1  509.17   16.27
   5   3   1  515.20   16.20
  -5   3  -1  519.05   16.17
   5   3   1  511.52   16.23
  -5   3  -1  522.67   16.11
   5   3   1  487.67   16.21
  -5   3  -1  458.46   16.19
   7  -3   1   90.76    3.14
   7  -3   1   85.46    3.14
  -7  -3  -1   87.35    3.21
  -7  -3  -1   79.61    3.23
  -7  -3  -1   87.26    3.22
   7  -3   1   86.77    3.38
   7  -3   1   90.06    3.08
   7  -3   1   90.16    3.14
   7  -3   1   89.28    3.18
  -7  -3  -1   85.63    3.19
  -7  -3  -1   87.63    3.22
  -7   3  -1   89.73    3.33
  -7   3  -1   87.10    3.18
  -7   3  -1   89.95    3.09
  -7   3  -1   93.37    3.19
   7   3   1   89.41    3.18
   7   3   1   89.28    3.20
   7   3   1   89.33    3.17
   7   3   1   90.16    3.21
   7   3   1   88.07    3.21
  -7   3  -1   87.07    3.14
   7   3   1   96.01    3.24
  -9  -3  -1  119.02    4.20
  -9  -3  -1  108.30    4.32
   9  -3   1  117.16    4.14
  -9  -3  -1  116.03    4.24
  -9  -3  -1  115.77    4.23
   9  -3   1  120.65    4.08
   9  -3   1  122.03    4.16
   9  -3   1  115.41    4.17
  -9  -3  -1  117.48    4.24
   9  -3   1  119.81    4.19
   9  -3   1  112.56    4.41
  -9   3  -1  123.62    4.17
   9   3   1  119.14    4.17
  -9   3  -1  115.61    4.19
   9   3   1  117.68    4.20
  -9   3  -1  114.01    4.14
   9   3   1  115.77    4.22
   9   3   1  121.90    4.18
   9   3   1  127.42    4.27
   9   3   1  115.26    4.20
  -9   3  -1  119.07    4.09
  -9   3  -1  121.19    4.39
 -11  -3  -1  169.38    6.04
  11  -3   1  169.02    6.03
  11  -3   1  174.58    5.92
  11  -3   1  167.54    6.29
  11  -3   1  178.48    6.01
 -11  -3  -1  161.57    6.08
  11  -3   1  167.42    5.97
 -11  -3  -1  176.12    6.18
 -11  -3  -1  171.94    6.09
  11  -3   1  166.41    6.02
 -11   3  -1  180.60    6.29
  11   3   1  170.36    6.00
  11   3   1  170.24    6.08
 -11   3  -1  173.72    6.04
 -11   3  -1  172.78    5.99
  11   3   1  192.94    6.11
  11   3   1  172.00    6.04
 -11   3  -1  175.78    5.99
  11   3   1  176.75    5.97
 -11   3  -1  163.25    5.92
  11   3   1  171.79    6.06
 -13  -3  -1   42.49    1.81
  13  -3   1   42.51    1.77
 -13  -3  -1   39.57    1.74
  13  -3   1   42.23    1.71
  13  -3   1   40.96    1.67
 -13  -3  -1   33.96    1.71
  13  -3   1   40.24    1.60
  13  -3   1   41.86    1.73
  13  -3   1   41.80    2.02
 -13  -3  -1   39.59    1.76
 -13  -3  -1   37.95    1.78
 -13   3  -1   44.06    2.00
 -13   3  -1   42.15    1.75
  13   3   1   41.01    1.68
 -13   3  -1   39.40    1.63
  13   3   1   39.29    1.71
 -13   3  -1   40.69    1.68
  13   3   1   40.83    1.81
 -13   3  -1   42.63    1.63
  13   3   1   45.54    1.78
  13   3   1   40.90    1.59
  13   3   1   40.53    1.78
 -15  -3  -1   26.07    1.28
  15  -3   1   30.80    1.41
 -15  -3  -1   30.63    1.52
  15  -3   1   30.75    1.27
  15  -3   1   29.97    1.33
 -15  -3  -1   27.81    1.48
 -15  -3  -1   28.73    1.42
 -15  -3  -1   29.53    1.78
  15  -3   1   31.71    1.72
  15  -3   1   31.26    1.50
 -15   3  -1   31.48    1.69
 -15   3  -1   26.89    1.17
 -15   3  -1   29.80    1.37
 -15   3  -1   32.76    1.46
  15   3   1   31.60    1.51
  15   3   1   30.02    1.40
  15   3   1   28.85    1.36
  15   3   1   30.25    1.20
  15   3   1   30.41    1.51
 -15   3  -1   27.76    1.34
 -15   3  -1   27.18    1.21
 -17  -3  -1   25.96    1.51
 -17  -3  -1   23.39    1.62
 -17  -3  -1   21.80    1.35
  17  -3   1   22.25    1.07
  17  -3   1   22.42    1.14
 -17  -3  -1   23.05    1.28
  17  -3   1   23.55    1.59
  17  -3   1   22.59    1.23
  17  -3   1   25.86    1.41
 -17  -3  -1   20.77    1.06
 -17   3  -1   22.82    1.30
  17   3   1   23.16    1.15
 -17   3  -1   21.14    1.23
  17   3   1   23.75    1.37
 -17   3  -1   23.11    1.21
  17   3   1   21.51    1.21
 -19  -3  -1   19.18    1.37
 -19  -3  -1   24.96    1.49
  19  -3   1   23.85    1.67
  19  -3   1   21.39    1.17
  19  -3   1   22.73    1.45
  19  -3   1   18.89    1.06
  19  -3   1   24.36    1.28
 -19  -3  -1   22.18    1.36
 -19  -3  -1   21.79    1.72
 -19   3  -1   21.53    1.25
 -19   3  -1   20.81    1.34
  19   3   1   23.27    1.45
  19   3   1   22.04    1.23
  19   3   1   21.64    1.14
  19   3   1   24.03    1.47
 -21  -3  -1    3.40    0.99
 -21  -3  -1    2.08    0.73
  21  -3   1    2.22    0.76
  21  -3   1    2.22    0.62
  21  -3   1    2.69    0.82
  21   3   1    2.64    0.76
  21   3   1    2.63    0.74
 -21   3  -1    2.39    1.07
  23  -3   1   12.45    1.50
 -23  -3  -1   12.36    1.77
  23  -3   1   11.15    1.46
  23   3   1   12.25    1.36
  23   3   1   11.20    1.42
 -24  -4   1    2.29    1.15
  24  -4  -1    2.73    0.96
  24  -4  -1    1.62    0.83
  24   4  -1    2.75    0.92
  24   4  -1    1.72    0.76
  22  -4  -1    8.85    1.27
 -22  -4   1    9.23    1.57
  22  -4  -1    8.92    1.26
  22   4  -1    7.58    1.12
  22   4  -1    8.45    1.18
  20  -4  -1   14.72    0.94
 -20  -4   1   16.06    1.23
  20  -4  -1   13.42    0.78
  20  -4  -1   17.71    1.46
 -20  -4   1   17.00    1.76
  20  -4  -1   16.63    1.27
  20  -4  -1   14.33    0.93
  20   4  -1   14.57    1.27
  20   4  -1   14.04    0.89
  20   4  -1   16.31    1.20
 -20   4   1   14.59    1.11
  20   4  -1   16.57    1.02
  18  -4  -1   37.64    1.62
 -18  -4   1   34.45    1.90
  18  -4  -1   38.89    1.82
 -18  -4   1   40.50    1.82
 -18  -4   1   36.80    1.71
  18  -4  -1   36.11    1.55
  18  -4  -1   40.53    2.08
 -18  -4   1   38.61    2.32
  18  -4  -1   36.30    1.45
  18   4  -1   37.24    1.43
  18   4  -1   37.45    1.86
  18   4  -1   36.53    1.78
 -18   4   1   37.76    1.62
 -18   4   1   36.07    1.69
  18   4  -1   34.34    1.55
  18   4  -1   35.93    1.58
 -16  -4   1    3.16    0.57
  16  -4  -1    2.64    0.63
 -16  -4   1    2.03    0.58
  16  -4  -1    3.46    0.75
 -16  -4   1    3.03    0.53
 -16  -4   1    3.00    0.88
  16  -4  -1    3.11    0.41
 -16  -4   1    3.22    0.54
  16  -4  -1    3.27    0.34
  16  -4  -1    2.37    0.40
 -16   4   1    3.14    0.48
  16   4  -1    3.25    0.42
  16   4  -1    2.94    0.37
 -16   4   1    2.97    0.34
  16   4  -1    2.64    0.52
  16   4  -1    2.91    0.66
  16   4  -1    2.52    0.38
 -16   4   1    2.95    0.44
 -16   4   1    3.80    0.98
 -14  -4   1  102.57    3.76
 -14  -4   1   96.21    3.65
  14  -4  -1  101.11    3.88
  14  -4  -1  101.00    3.66
 -14  -4   1  104.97    3.82
  14  -4  -1  104.84    4.06
  14  -4  -1   99.47    3.71
 -14  -4   1  103.24    4.30
  14  -4  -1  104.72    3.81
 -14  -4   1  101.05    3.83
  14  -4  -1  103.68    3.53
  14  -4  -1  105.61    3.73
  14   4  -1  102.35    3.81
  14   4  -1  101.99    3.85
 -14   4   1   99.91    3.67
 -14   4   1  104.47    3.74
 -14   4   1   95.57    3.61
  14   4  -1   99.99    3.66
  14   4  -1  104.75    3.66
  14   4  -1  107.08    3.78
  14   4  -1  100.20    3.69
 -14   4   1  111.77    4.27
 -12  -4   1   22.07    1.08
  12  -4  -1   21.23    1.11
  12  -4  -1   21.80    1.02
  12  -4  -1   22.73    1.02
  12  -4  -1   22.37    1.15
 -12  -4   1   21.85    1.11
 -12  -4   1   22.13    1.11
  12  -4  -1   22.26    1.31
  12  -4  -1   22.03    0.84
 -12  -4   1   21.90    1.47
  12   4  -1   20.98    1.13
  12   4  -1   22.65    0.99
 -12   4   1   22.87    1.39
 -12   4   1   20.92    1.01
  12   4  -1   22.15    1.01
  12   4  -1   22.83    1.11
 -12   4   1   22.16    1.00
 -12   4   1   21.75    1.05
  12   4  -1   22.10    1.01
  10  -4  -1   80.35    2.99
  10  -4  -1   82.41    3.10
 -10  -4   1   81.92    2.87
 -10  -4   1   83.50    3.44
 -10  -4   1   82.26    3.02
  10  -4  -1   79.95    3.23
 -10  -4   1   83.45    3.06
  10  -4  -1   82.82    3.04
  10  -4  -1   84.96    2.97
  10  -4  -1   83.52    2.95
  10  -4  -1   80.05    3.02
  10  -4  -1   83.60    2.79
 -10  -4   1   80.92    3.05
 -10   4   1   83.25    3.00
  10   4  -1   81.80    3.00
  10   4  -1   82.79    3.03
  10   4  -1   82.78    3.07
 -10   4   1   83.09    2.96
 -10   4   1   76.54    3.03
  10   4  -1   82.32    2.98
 -10   4   1   86.46    3.35
   8  -4  -1  116.40    3.95
   8  -4  -1  109.14    4.00
   8  -4  -1  114.70    4.07
   8  -4  -1  112.55    4.21
   8  -4  -1  113.42    3.96
   8  -4  -1  109.71    3.85
  -8  -4   1  109.73    4.07
  -8  -4   1  109.51    4.19
  -8  -4   1  113.02    4.01
  -8  -4   1  115.41    4.05
   8  -4  -1  112.81    4.08
  -8  -4   1  113.07    4.04
  -8  -4   1  112.32    4.38
  -8   4   1  115.16    3.96
   8   4  -1  113.77    4.00
   8   4  -1  117.89    3.96
  -8   4   1  114.42    4.00
  -8   4   1  110.79    4.10
   8   4  -1  115.42    4.04
   8   4  -1  113.32    3.97
   8   4  -1  113.84    4.04
  -8   4   1  113.10    4.26
  -6  -4   1  140.46    5.01
  -6  -4   1  151.11    5.07
   6  -4  -1  144.65    5.24
  -6  -4   1  151.63    5.11
  -6  -4   1  144.99    5.08
  -6  -4   1  141.96    5.36
  -6  -4   1  137.70    5.23
   6  -4  -1  142.07    5.17
  -6  -4   1  143.28    5.05
   6   4  -1  146.61    5.07
  -6   4   1  150.94    5.22
  -6   4   1  148.86    5.01
  -6   4   1  140.70    5.11
   6   4  -1  149.50    5.03
   6   4  -1  144.93    5.02
  -6   4   1  141.14    5.25
  -6   4   1  142.42    5.11
   6   4  -1  150.21    5.01
   6   4  -1  148.96    5.11
  -6   4   1  146.21    5.06
  -4  -4   1   31.18    1.24
   4  -4  -1   27.93    1.36
  -4  -4   1   27.92    1.40
  -4  -4   1   28.00    1.17
  -4  -4   1   31.18    1.47
  -4  -4   1   32.09    1.28
  -4  -4   1   28.12    1.33
   4  -4  -1   32.29    1.19
  -4  -4   1   31.34    1.24
   4  -4  -1   30.30    1.40
   4  -4  -1   30.91    1.27
  -4   4   1   32.65    1.10
   4   4  -1   32.34    1.14
  -4   4   1   32.97    1.28
  -4   4   1   29.98    1.41
  -4   4   1   31.97    1.24
   4   4  -1   31.39    1.28
   4   4  -1   31.86    1.22
   4   4  -1   33.57    1.33
  -4   4   1   32.81    1.24
   4   4  -1   32.41    1.24
  -4   4   1   30.65    1.22
   4   4  -1   31.56    1.21
  -4   4   1   31.87    1.31
  -4   4   1   31.33    1.22
  -2  -4   1  171.08    6.28
   2  -4  -1  175.07    6.15
   2  -4  -1  174.57    6.28
  -2  -4   1  178.58    6.10
  -2  -4   1  168.63    6.15
  -2  -4   1  172.50    6.32
   2  -4  -1  188.50    6.08
   2  -4  -1  181.36    6.14
   2  -4  -1  159.37    6.26
  -2  -4   1  180.84    6.14
  -2   4   1  189.13    6.10
  -2   4   1  187.77    6.36
  -2   4   1  183.82    6.15
  -2   4   1  179.89    6.12
   2   4  -1  193.69    6.23
   2   4  -1  176.99    6.10
  -2   4   1  176.07    6.26
   2   4  -1  180.74    6.09
  -2   4   1  182.41    6.15
   2   4  -1  176.46    6.12
   2   4  -1  181.14    6.13
   2   4  -1  181.87    6.13
   2   4  -1  180.15    6.08
   2   4  -1  178.39    6.17
   0  -4   1  348.75   11.37
   0  -4  -1  344.91   11.39
   0  -4   1  348.87   11.56
   0  -4   1  344.50   11.47
   0  -4  -1  352.43   11.34
   0  -4   1  336.90   11.48
   0  -4  -1  327.27   11.36
   0  -4  -1  328.86   11.49
   0  -4  -1  335.62   11.39
   0  -4   1  350.14   11.37
   0  -4  -1  292.50   11.50
   0  -4   1  333.88   11.32
   0  -4  -1  323.33   11.39
   0  -4   1  344.00   11.41
   0  -4   1  318.63   11.28
   0   4   1  349.23   11.59
   0   4   1  361.39   11.40
   0   4   1  336.97   11.37
   0   4   1  346.59   11.33
   0   4   1  328.93   11.39
   0   4  -1  330.81   11.35
   0   4  -1  336.06   11.40
   0   4  -1  330.05   11.36
   0   4  -1  338.71   11.37
   0   4  -1  326.03   11.33
   0   4  -1  320.86   11.36
   0   4  -1  350.48   11.37
   0   4  -1  367.57   11.47
  -2  -4  -1   31.75    1.53
   2  -4   1   36.09    1.53
  -2  -4  -1   37.00    1.43
   2  -4   1   36.98    1.40
  -2  -4  -1   37.47    1.44
  -2  -4  -1   36.72    1.45
  -2  -4  -1   37.19    1.39
  -2  -4  -1   34.40    1.48
   2  -4   1   33.44    1.57
   2  -4   1   35.94    1.31
   2  -4   1   35.51    1.42
   2  -4   1   34.69    1.41
   2  -4   1   36.18    1.34
   2   4   1   35.72    1.42
   2   4   1   36.47    1.43
   2   4   1   36.98    1.57
  -2   4  -1   38.43    1.49
  -2   4  -1   35.80    1.45
  -2   4  -1   37.06    1.41
   2   4   1   37.75    1.43
   2   4   1   36.88    1.41
   2   4   1   35.36    1.37
  -2   4  -1   35.62    1.39
   2   4   1   37.10    1.42
  -2   4  -1   35.61    1.36
  -2   4  -1   36.26    1.43
   4  -4   1  298.83   10.36
   4  -4   1  316.53   10.34
   4  -4   1  301.27   10.37
  -4  -4  -1  295.48   10.41
   4  -4   1  301.44   10.40
   4  -4   1  304.28   10.61
  -4  -4  -1  316.06   10.44
   4  -4   1  300.56   10.30
   4  -4   1  317.86   10.37
  -4  -4  -1  273.60   10.52
  -4  -4  -1  294.66   10.44
  -4  -4  -1  311.53   10.39
  -4   4  -1  293.32   10.37
  -4   4  -1  321.48   10.39
   4   4   1  320.90   10.43
   4   4   1  322.26   10.56
   4   4   1  316.59   10.37
   4   4   1  304.10   10.43
  -4   4  -1  293.30   10.51
  -4   4  -1  320.07   10.32
  -4   4  -1  333.02   10.49
   4   4   1  313.64   10.41
  -4   4  -1  296.84   10.41
   6  -4   1   74.95    3.16
  -6  -4  -1   79.95    2.98
   6  -4   1   78.52    2.79
   6  -4   1   83.43    2.93
   6  -4   1   79.48    2.91
   6  -4   1   81.17    2.96
   6  -4   1   82.48    2.85
  -6  -4  -1   81.11    3.02
   6  -4   1   84.63    2.93
  -6  -4  -1   69.02    3.05
  -6  -4  -1   79.59    2.97
  -6  -4  -1   83.17    3.02
   6   4   1   82.34    3.20
  -6   4  -1   80.13    2.97
   6   4   1   83.99    3.00
  -6   4  -1   89.51    3.05
   6   4   1   88.77    3.03
  -6   4  -1   82.32    2.86
   6   4   1   85.00    2.97
  -6   4  -1   83.74    2.95
  -6   4  -1   78.95    2.95
   6   4   1   81.07    2.95
  -6   4  -1   84.75    3.11
   6   4   1   82.33    2.99
   8  -4   1  179.54    5.99
   8  -4   1  173.20    6.03
   8  -4   1  173.16    5.89
  -8  -4  -1  172.99    6.05
  -8  -4  -1  176.72    6.10
   8  -4   1  174.04    5.99
   8  -4   1  168.73    5.99
  -8  -4  -1  148.69    6.11
  -8  -4  -1  168.88    6.05
   8  -4   1  164.67    6.28
  -8  -4  -1  172.51    6.09
   8   4   1  171.34    6.06
   8   4   1  174.82    6.02
  -8   4  -1  179.17    6.22
  -8   4  -1  191.37    6.11
   8   4   1  187.27    6.10
  -8   4  -1  167.15    6.03
  -8   4  -1  175.73    5.91
   8   4   1  174.25    6.03
   8   4   1  175.62    6.06
  -8   4  -1  171.30    5.99
 -10  -4  -1   21.04    1.24
  10  -4   1   26.79    1.14
 -10  -4  -1   26.14    1.21
  10  -4   1   25.50    1.17
 -10  -4  -1   24.91    1.25
  10  -4   1   26.35    1.46
  10  -4   1   25.06    1.18
  10  -4   1   24.69    1.14
 -10  -4  -1   24.17    1.21
 -10  -4  -1   25.59    1.20
  10   4   1   24.18    1.22
  10   4   1   24.64    1.29
  10   4   1   26.19    1.21
  10   4   1   25.69    1.18
 -10   4  -1   25.40    1.06
  10   4   1   28.38    1.24
 -10   4  -1   25.58    1.14
 -10   4  -1   27.32    1.23
  10   4   1   25.38    1.15
 -10   4  -1   25.33    1.20
 -10   4  -1   26.53    1.37
  12  -4   1  107.34    3.76
  12  -4   1  107.31    3.91
  12  -4   1  107.49    3.86
 -12  -4  -1  103.53    4.02
  12  -4   1  112.33    3.88
 -12  -4  -1  110.33    4.01
  12  -4   1  109.10    4.26
  12  -4   1  107.58    3.94
 -12  -4  -1   97.75    3.95
 -12  -4  -1  107.24    3.95
 -12   4  -1  105.32    3.86
  12   4   1  104.57    3.88
  12   4   1  106.90    3.94
 -12   4  -1  107.36    3.93
  12   4   1  106.16    3.97
 -12   4  -1  111.18    3.91
  12   4   1   98.23    3.98
  12   4   1  117.82    3.98
 -12   4  -1  100.88    3.77
 -12   4  -1  113.56    4.20
  12   4   1  107.61    3.93
 -14  -4  -1    7.37    0.74
 -14  -4  -1    8.57    0.76
 -14  -4  -1    9.49    1.13
  14  -4   1    8.97    0.58
  14  -4   1    9.87    0.95
  14  -4   1   10.12    0.84
 -14  -4  -1    8.83    0.77
  14  -4   1    8.62    0.71
  14  -4   1    9.49    0.66
  14  -4   1   10.23    1.05
 -14  -4  -1    8.72    0.81
 -14  -4  -1    9.23    0.86
 -14   4  -1    9.49    0.72
 -14   4  -1    8.55    0.64
  14   4   1    8.76    0.83
 -14   4  -1    9.52    0.97
 -14   4  -1    9.22    0.80
 -14   4  -1    9.18    0.67
  14   4   1    9.69    0.78
  14   4   1    8.67    0.70
  14   4   1    8.98    0.67
  14   4   1    8.62    0.85
  16  -4   1   45.83    2.00
 -16  -4  -1   35.82    1.82
  16  -4   1   39.97    1.77
 -16  -4  -1   42.61    2.26
 -16  -4  -1   42.22    1.95
 -16  -4  -1   33.74    1.68
  16  -4   1   42.71    2.23
  16  -4   1   40.08    1.60
  16  -4   1   40.68    1.71
 -16  -4  -1   39.39    1.83
  16   4   1   41.41    1.61
  16   4   1   43.78    2.18
 -16   4  -1   41.36    1.83
  16   4   1   39.09    1.71
  16   4   1   38.63    1.76
 -16   4  -1   40.05    1.75
 -16   4  -1   34.70    1.57
 -16   4  -1   36.54    1.68
  16   4   1   41.13    1.91
  18  -4   1   12.12    0.82
  18  -4   1   11.45    0.72
 -18  -4  -1   14.51    1.19
  18  -4   1   11.52    1.14
  18  -4   1   13.08    1.36
 -18  -4  -1   10.85    1.01
  18  -4   1   11.84    0.92
 -18  -4  -1   11.61    1.04
  18   4   1   12.16    0.83
 -18   4  -1   10.65    1.02
  18   4   1   12.28    1.11
  18   4   1   11.04    0.90
 -18   4  -1   11.43    0.94
 -18   4  -1   11.00    0.92
  18   4   1   10.66    0.65
  18   4   1   12.39    1.13
  20  -4   1    8.51    1.35
 -20  -4  -1    8.83    1.48
  20  -4   1    6.96    0.63
 -20  -4  -1    7.61    1.18
  20  -4   1    7.50    1.09
 -20   4  -1    6.58    1.01
  20   4   1    8.42    1.11
  20   4   1    8.48    0.89
  20   4   1    7.25    0.97
  22  -4   1    4.04    1.03
 -22  -4  -1    3.60    1.21
  22  -4   1    4.14    0.93
 -22   4  -1    3.29    0.91
  22   4   1    5.13    0.94
  22   4   1    3.70    0.89
  24  -4   1    4.95    1.18
 -24  -4  -1    4.60    1.42
  23  -5  -1    3.65    0.91
  23  -5  -1    2.70    0.95
 -23  -5   1    1.38    1.15
  23   5  -1    3.93    0.78
  23   5  -1    1.54    0.85
  21  -5  -1   10.97    1.37
  21  -5  -1    7.61    1.05
 -21  -5   1    9.94    1.74
  21   5  -1    8.56    1.19
  21   5  -1    8.95    1.06
  19  -5  -1   11.76    1.31
 -19  -5   1   10.09    1.07
 -19  -5   1    9.61    1.08
  19  -5  -1    8.44    0.78
  19  -5  -1    9.24    1.08
 -19  -5   1   10.91    1.62
  19  -5  -1    9.73    0.73
  19  -5  -1    9.61    0.62
  19   5  -1   11.23    1.02
  19   5  -1    7.72    1.05
 -19   5   1    9.73    0.97
  19   5  -1    9.48    0.76
  19   5  -1    8.26    0.99
  17  -5  -1    7.71    0.48
  17  -5  -1    8.74    0.93
  17  -5  -1    8.90    0.72
  17  -5  -1    8.24    1.13
 -17  -5   1   10.79    0.91
  17  -5  -1    8.20    0.65
 -17  -5   1   10.18    1.47
 -17  -5   1    9.00    0.94
  17   5  -1    9.40    0.92
 -17   5   1    9.16    0.61
  17   5  -1    9.52    0.62
  17   5  -1    7.94    0.61
  17   5  -1    8.69    0.69
 -17   5   1    8.09    0.84
  17   5  -1    8.99    0.97
 -17   5   1    8.14    0.88
  15  -5  -1   27.23    1.05
 -15  -5   1   25.36    1.42
 -15  -5   1   29.22    1.46
 -15  -5   1   27.71    1.40
 -15  -5   1   30.43    2.03
  15  -5  -1   27.60    1.31
  15  -5  -1   25.20    1.71
  15  -5  -1   29.54    1.81
 -15   5   1   26.74    1.27
  15   5  -1   27.87    1.41
 -15   5   1   26.05    1.26
  15   5  -1   28.67    1.25
 -15   5   1   28.01    1.36
  15   5  -1   25.26    1.63
  15   5  -1   27.88    1.24
  15   5  -1   29.76    1.28
  13  -5  -1   22.26    1.05
  13  -5  -1   23.88    1.45
 -13  -5   1   23.36    1.37
 -13  -5   1   22.87    1.68
  13  -5  -1   23.99    1.08
  13  -5  -1   21.73    1.10
  13  -5  -1   21.08    0.84
  13  -5  -1   21.93    1.06
 -13  -5   1   20.02    1.16
  13  -5  -1   23.05    1.19
  13  -5  -1   21.31    1.19
 -13  -5   1   23.58    1.25
 -13   5   1   20.51    1.16
 -13   5   1   23.95    1.47
  13   5  -1   21.91    1.06
  13   5  -1   23.02    1.22
  13   5  -1   23.63    1.19
  13   5  -1   23.19    1.09
 -13   5   1   22.89    1.15
 -13   5   1   21.95    1.07
 -11  -5   1   40.28    1.79
 -11  -5   1   39.39    1.59
  11  -5  -1   43.79    1.76
  11  -5  -1   41.70    1.68
 -11  -5   1   43.16    1.82
  11  -5  -1   41.96    1.81
  11  -5  -1   44.45    1.69
 -11  -5   1   42.97    2.32
  11  -5  -1   45.15    2.05
  11  -5  -1   42.68    1.82
  11  -5  -1   40.58    1.73
  11   5  -1   42.56    1.70
  11   5  -1   42.59    1.82
 -11   5   1   38.51    1.80
  11   5  -1   43.28    1.68
 -11   5   1   42.76    1.75
  11   5  -1   42.22    1.73
 -11   5   1   42.47    1.69
  11   5  -1   41.56    1.75
 -11   5   1   45.32    2.09
  -9  -5   1    4.19    0.81
   9  -5  -1    3.43    0.39
  -9  -5   1    3.41    0.60
   9  -5  -1    3.56    0.44
   9  -5  -1    3.33    0.62
  -9  -5   1    4.39    0.50
  -9  -5   1    3.33    0.40
   9  -5  -1    4.05    0.49
   9  -5  -1    4.19    0.47
  -9  -5   1    3.45    0.47
  -9  -5   1    3.62    0.52
  -9  -5   1    4.99    0.49
   9  -5  -1    4.06    0.39
   9   5  -1    4.10    0.45
   9   5  -1    4.35    0.40
  -9   5   1    3.86    0.53
   9   5  -1    3.82    0.40
   9   5  -1    3.57    0.44
  -9   5   1    3.81    0.42
  -9   5   1    3.88    0.60
  -9   5   1    3.14    0.55
   9   5  -1    3.96    0.51
  -7  -5   1  128.47    5.07
   7  -5  -1  132.21    4.87
   7  -5  -1  129.79    4.66
   7  -5  -1  137.91    4.56
   7  -5  -1  130.62    4.77
  -7  -5   1  129.70    4.65
  -7  -5   1  136.11    4.69
  -7  -5   1  124.80    4.63
  -7  -5   1  128.26    4.68
  -7  -5   1  118.82    4.87
  -7  -5   1  128.19    4.58
  -7   5   1  128.54    4.59
  -7   5   1  134.83    4.60
   7   5  -1  129.46    4.60
   7   5  -1  136.61    4.59
  -7   5   1  133.37    4.65
  -7   5   1  136.99    4.90
   7   5  -1  130.58    4.60
   7   5  -1  135.96    4.70
   7   5  -1  129.25    4.64
  -7   5   1  132.08    4.85
   5  -5  -1    2.82    0.46
  -5  -5   1    2.39    0.35
   5  -5  -1    3.37    0.54
  -5  -5   1    2.90    0.37
  -5  -5   1    2.31    0.30
  -5  -5   1    2.85    0.40
   5  -5  -1    2.50    0.44
   5  -5  -1    2.37    0.29
  -5  -5   1    2.24    0.46
  -5   5   1    2.52    0.20
   5   5  -1    2.70    0.30
  -5   5   1    2.95    0.35
   5   5  -1    2.39    0.36
  -5   5   1    2.58    0.32
  -5   5   1    2.18    0.45
   5   5  -1    2.43    0.32
  -5   5   1    2.50    0.32
  -5   5   1    2.55    0.47
  -5   5   1    2.90    0.36
   5   5  -1    2.12    0.31
  -5   5   1    2.78    0.39
   5   5  -1    2.66    0.40
  -5   5   1    2.54    0.34
   5   5  -1    2.51    0.31
  -3  -5   1  130.12    5.51
  -3  -5   1  151.69    5.57
   3  -5  -1  145.91    5.29
  -3  -5   1  157.04    5.31
  -3  -5   1  153.09    5.33
   3  -5  -1  136.36    5.47
  -3  -5   1  149.09    5.28
  -3  -5   1  153.11    5.27
   3  -5  -1  152.34    5.49
   3  -5  -1  152.33    5.30
   3   5  -1  148.31    5.28
   3   5  -1  154.00    5.24
   3   5  -1  157.48    5.29
  -3   5   1  154.11    5.31
   3   5  -1  152.65    5.11
  -3   5   1  156.94    5.35
   3   5  -1  155.14    5.34
  -3   5   1  156.39    5.56
   3   5  -1  164.32    5.42
  -3   5   1  157.61    5.27
  -3   5   1  153.60    5.29
  -3   5   1  144.61    5.43
   3   5  -1  151.72    5.22
  -3   5   1  155.65    5.25
  -3   5   1  153.12    5.30
   3   5  -1  150.71    5.29
   3   5  -1  157.84    5.26
  -1  -5   1   25.70    1.39
   1  -5  -1   28.48    1.20
   1  -5  -1   28.38    1.20
   1  -5  -1   29.57    1.27
  -1  -5   1   26.48    1.28
   1  -5  -1   30.03    1.15
  -1  -5   1   27.68    1.34
   1  -5  -1   27.20    1.32
  -1  -5   1   28.69    1.15
   1   5  -1   29.49    1.30
   1   5  -1   28.43    1.16
  -1   5   1   30.02    1.22
  -1   5   1   28.89    1.19
  -1   5   1   27.47    1.40
   1   5  -1   27.92    1.23
   1   5  -1   28.26    1.02
  -1   5   1   27.99    1.31
  -1   5   1   28.60    1.22
   1   5  -1   28.88    1.19
  -1   5   1   28.93    1.15
   1   5  -1   28.89    1.18
   1   5  -1   27.90    1.18
   1   5  -1   28.64    1.19
   1   5  -1   29.62    1.18
   1  -5   1  122.58    4.29
  -1  -5  -1  123.72    4.43
   1  -5   1  128.47    4.42
   1  -5   1  116.86    4.52
   1  -5   1  121.79    4.59
   1  -5   1  119.00    4.63
   1  -5   1  129.42    4.38
  -1  -5  -1  130.37    4.45
  -1  -5  -1  130.87    4.40
  -1  -5  -1  125.19    4.56
   1  -5   1  126.33    4.47
  -1  -5  -1  127.97    4.56
   1  -5   1  130.56    4.42
  -1   5  -1  125.12    4.38
  -1   5  -1  126.93    4.42
   1   5   1  126.41    4.45
  -1   5  -1  126.61    4.42
  -1   5  -1  120.50    4.40
   1   5   1  121.94    4.43
  -1   5  -1  136.76    4.57
   1   5   1  127.44    4.43
  -1   5  -1  128.71    4.48
  -1   5  -1  128.10    4.38
   1   5   1  123.68    4.37
   1   5   1  125.99    4.42
  -1   5  -1  125.97    4.46
   3  -5   1   11.05    0.59
  -3  -5  -1    9.55    0.58
  -3  -5  -1    9.63    0.62
   3  -5   1    9.62    0.76
   3  -5   1   10.54    0.51
   3  -5   1   10.91    0.63
   3  -5   1    9.86    0.58
  -3  -5  -1    9.75    0.62
  -3  -5  -1    8.97    0.74
   3  -5   1   10.56    0.73
  -3  -5  -1   11.58    0.81
   3  -5   1   10.13    0.58
  -3  -5  -1   11.33    0.68
  -3   5  -1   10.82    0.64
   3   5   1   10.33    0.57
  -3   5  -1   10.37    0.60
  -3   5  -1   10.00    0.60
   3   5   1   10.31    0.69
   3   5   1   10.21    0.59
  -3   5  -1   10.19    0.69
   3   5   1   10.22    0.63
   3   5   1   11.01    0.62
  -3   5  -1    9.93    0.65
  -3   5  -1   10.23    0.54
   3   5   1   10.51    0.62
   3   5   1   10.47    0.75
   5  -5   1  164.82    5.80
   5  -5   1  165.59    5.75
  -5  -5  -1  140.00    5.94
   5  -5   1  163.42    5.66
   5  -5   1  160.23    5.71
   5  -5   1  162.58    6.06
  -5  -5  -1  166.63    5.87
  -5  -5  -1  165.92    5.79
   5  -5   1  174.95    5.76
  -5  -5  -1  167.25    5.84
  -5  -5  -1  164.01    5.82
  -5   5  -1  162.68    5.82
  -5   5  -1  164.61    5.77
   5   5   1  165.81    5.81
   5   5   1  166.61    5.76
  -5   5  -1  163.73    5.70
   5   5   1  178.69    5.97
  -5   5  -1  184.12    5.94
   5   5   1  168.99    5.83
   5   5   1  179.57    5.84
  -5   5  -1  165.85    5.91
   5   5   1  168.07    5.79
  -5   5  -1  163.19    5.77
  -7  -5  -1   27.95    1.26
   7  -5   1   27.01    1.17
   7  -5   1   26.85    1.08
   7  -5   1   27.60    1.17
   7  -5   1   27.28    1.02
   7  -5   1   25.89    1.46
   7  -5   1   27.76    1.18
  -7  -5  -1   24.29    1.38
  -7  -5  -1   27.82    1.30
  -7  -5  -1   27.49    1.28
  -7  -5  -1   27.24    1.23
   7  -5   1   26.52    1.22
   7   5   1   27.20    1.25
  -7   5  -1   28.06    1.20
   7   5   1   27.15    1.21
  -7   5  -1   26.72    1.10
   7   5   1   30.99    1.29
  -7   5  -1   27.47    1.25
  -7   5  -1   26.06    1.20
   7   5   1   27.59    1.21
  -7   5  -1   27.80    1.36
   7   5   1   29.21    1.34
   7   5   1   27.52    1.25
  -7   5  -1   30.20    1.35
   9  -5   1   34.23    1.34
   9  -5   1   35.69    1.82
  -9  -5  -1   35.09    1.60
  -9  -5  -1   34.51    1.56
   9  -5   1   33.89    1.49
  -9  -5  -1   33.57    1.50
  -9  -5  -1   35.38    1.55
   9  -5   1   34.11    1.47
  -9  -5  -1   30.85    1.64
   9  -5   1   36.81    1.46
   9  -5   1   34.13    1.49
   9  -5   1   35.29    1.45
  -9   5  -1   34.85    1.36
   9   5   1   34.03    1.50
  -9   5  -1   36.72    1.60
   9   5   1   35.40    1.48
  -9   5  -1   34.45    1.47
  -9   5  -1   35.70    1.68
   9   5   1   38.10    1.55
   9   5   1   34.79    1.54
   9   5   1   34.64    1.54
   9   5   1   34.96    1.51
  -9   5  -1   35.35    1.53
  11  -5   1   61.00    2.52
  11  -5   1   62.75    2.39
 -11  -5  -1   62.80    2.45
 -11  -5  -1   52.73    2.56
  11  -5   1   65.83    2.84
  11  -5   1   61.59    2.38
  11  -5   1   63.20    2.48
  11  -5   1   62.84    2.46
 -11  -5  -1   65.89    2.57
 -11  -5  -1   61.98    2.49
  11  -5   1   58.67    2.25
  11   5   1   63.12    2.42
  11   5   1   60.80    2.52
  11   5   1   67.80    2.50
  11   5   1   65.82    2.47
 -11   5  -1   61.27    2.47
 -11   5  -1   70.26    2.55
 -11   5  -1   63.67    2.69
  11   5   1   60.42    2.45
 -11   5  -1   60.46    2.40
 -11   5  -1   61.85    2.30
  11   5   1   60.96    2.49
 -13  -5  -1   13.53    1.01
  13  -5   1   16.70    0.90
 -13  -5  -1   17.26    1.40
 -13  -5  -1   14.14    1.11
  13  -5   1   15.90    1.00
 -13  -5  -1   16.27    1.01
 -13  -5  -1   12.19    1.04
  13  -5   1   14.95    0.97
  13  -5   1   16.16    1.34
  13  -5   1   16.94    1.01
  13  -5   1   15.49    0.94
  13  -5   1   14.78    0.75
  13   5   1   15.87    1.03
 -13   5  -1   15.75    0.92
  13   5   1   16.63    0.92
  13   5   1   15.03    0.93
 -13   5  -1   15.16    0.83
  13   5   1   17.66    1.16
  13   5   1   16.81    1.08
 -13   5  -1   16.34    0.98
  13   5   1   16.70    0.91
 -13   5  -1   17.20    1.33
  15  -5   1   11.85    0.89
 -15  -5  -1   13.05    1.42
  15  -5   1   10.81    1.00
 -15  -5  -1   10.10    0.95
  15  -5   1   11.81    0.77
  15  -5   1   10.77    0.64
 -15  -5  -1   11.97    1.05
 -15  -5  -1   10.30    0.90
  15  -5   1   13.94    1.30
 -15  -5  -1   10.20    0.84
 -15   5  -1   10.35    0.74
  15   5   1   11.67    0.79
  15   5   1   11.02    0.75
 -15   5  -1   11.88    0.84
 -15   5  -1   11.72    0.84
  15   5   1   11.31    0.87
  15   5   1    9.83    0.94
  15   5   1   11.82    1.00
 -15   5  -1   10.65    0.93
 -17  -5  -1    8.84    0.88
 -17  -5  -1    9.50    0.94
  17  -5   1   10.89    0.81
  17  -5   1   10.70    0.74
  17  -5   1   11.01    1.41
 -17  -5  -1   12.42    1.14
 -17  -5  -1   11.99    1.04
  17  -5   1   13.95    1.14
  17  -5   1   11.61    1.12
 -17  -5  -1   13.76    1.55
 -17   5  -1   11.29    0.91
  17   5   1   12.10    1.13
  17   5   1   11.71    0.74
  17   5   1   11.74    1.08
  17   5   1   10.93    0.93
 -17   5  -1   12.38    1.05
 -17   5  -1   10.53    0.84
  17   5   1   11.76    0.83
  19  -5   1   13.01    1.44
  19  -5   1   10.27    1.18
  19  -5   1   10.59    0.71
 -19  -5  -1   13.81    1.66
  19  -5   1   11.87    1.00
 -19  -5  -1   11.90    1.36
  19   5   1    9.03    1.18
  19   5   1   10.33    1.14
 -19   5  -1   10.05    0.94
 -19   5  -1   11.32    1.13
 -21  -5  -1    2.69    0.89
  21  -5   1    0.00    0.70
 -21  -5  -1    1.26    1.03
  21  -5   1    1.90    0.93
  21   5   1    1.64    0.73
 -21   5  -1    0.88    0.71
  21   5   1    0.39    0.73
  23  -5   1    5.25    1.31
  23  -5   1    4.91    1.43
 -23  -5  -1    4.86    1.39
  23   5   1    7.02    1.48
 -24  -6   1    2.35    1.46
  22  -6  -1    6.17    1.06
 -22  -6   1    9.78    1.69
  22  -6  -1    8.57    1.46
  22   6  -1    6.52    1.02
  22   6  -1    6.95    1.04
  20  -6  -1   13.49    1.52
 -20  -6   1   11.11    1.86
  20  -6  -1   11.91    1.30
 -20  -6   1   10.93    1.59
 -20   6   1   10.89    1.19
  20   6  -1   11.07    1.25
  20   6  -1    9.50    1.10
  18  -6  -1   25.05    1.49
 -18  -6   1   28.67    2.24
 -18  -6   1   24.91    1.50
  18  -6  -1   26.94    2.12
  18  -6  -1   19.52    1.40
  18  -6  -1   22.80    1.29
 -18  -6   1   27.38    1.59
 -18   6   1   24.72    1.31
 -18   6   1   24.44    1.51
  18   6  -1   21.11    1.20
 -18   6   1   22.59    1.64
  18   6  -1   24.36    1.15
  18   6  -1   24.56    1.49
  18   6  -1   24.45    1.43
  18   6  -1   22.11    1.17
  16  -6  -1   10.31    0.77
 -16  -6   1   10.77    1.58
  16  -6  -1   11.34    1.03
  16  -6  -1   10.60    0.83
 -16  -6   1    9.68    0.92
 -16  -6   1   11.32    1.09
  16  -6  -1    9.49    1.23
 -16   6   1   11.41    0.93
  16   6  -1   10.81    0.77
 -16   6   1    9.96    0.81
  16   6  -1   11.28    0.95
  16   6  -1   10.71    0.75
  16   6  -1    8.85    0.90
  16   6  -1   10.66    1.02
 -16   6   1   10.55    0.82
 -14  -6   1   65.88    2.85
 -14  -6   1   75.37    2.87
  14  -6  -1   78.76    3.48
  14  -6  -1   73.10    2.74
  14  -6  -1   74.93    3.20
  14  -6  -1   70.57    2.87
  14  -6  -1   68.59    2.77
  14  -6  -1   64.73    2.67
 -14  -6   1   76.48    2.94
 -14  -6   1   77.76    4.47
  14   6  -1   71.40    2.71
  14   6  -1   71.62    2.81
 -14   6   1   67.91    2.72
  14   6  -1   69.39    2.86
  14   6  -1   73.19    2.75
 -14   6   1   68.53    2.79
 -14   6   1   62.78    2.76
  14   6  -1   68.94    2.70
  12  -6  -1   23.57    1.26
 -12  -6   1   22.42    1.23
 -12  -6   1   21.93    1.22
  12  -6  -1   23.05    1.10
  12  -6  -1   23.60    1.51
  12  -6  -1   22.80    1.10
  12  -6  -1   21.09    1.20
 -12  -6   1   24.27    1.32
 -12  -6   1   22.60    1.25
  12  -6  -1   23.39    1.19
 -12  -6   1   24.73    1.79
  12  -6  -1   23.09    1.18
  12   6  -1   24.05    1.20
 -12   6   1   23.78    1.13
  12   6  -1   24.34    1.13
  12   6  -1   23.99    1.17
  12   6  -1   23.91    1.27
  12   6  -1   23.19    1.10
 -12   6   1   21.61    1.27
 -12   6   1   24.66    1.50
 -12   6   1   24.93    1.23
 -10  -6   1   66.08    2.61
  10  -6  -1   65.47    2.59
  10  -6  -1   62.11    2.44
 -10  -6   1   65.23    2.39
  10  -6  -1   64.96    2.42
 -10  -6   1   58.24    2.77
 -10  -6   1   64.01    2.55
  10  -6  -1   66.16    2.82
 -10  -6   1   61.12    2.54
 -10  -6   1   64.75    3.09
  10  -6  -1   64.87    2.55
 -10  -6   1   62.46    2.57
 -10   6   1   64.98    2.47
  10   6  -1   64.85    2.49
  10   6  -1   64.85    2.46
  10   6  -1   66.64    2.44
  10   6  -1   66.60    2.54
 -10   6   1   64.42    2.53
 -10   6   1   68.77    2.82
  10   6  -1   64.66    2.54
 -10   6   1   61.06    2.66
  -8  -6   1   86.74    3.25
  -8  -6   1   84.28    3.31
  -8  -6   1   91.25    3.37
   8  -6  -1   91.53    3.60
  -8  -6   1   90.24    3.34
  -8  -6   1   93.43    3.89
  -8  -6   1   89.16    3.39
  -8  -6   1   76.63    3.59
   8  -6  -1   89.46    3.21
   8  -6  -1   88.29    3.32
   8  -6  -1   89.95    3.46
  -8   6   1   95.68    3.60
  -8   6   1   88.77    3.27
  -8   6   1   91.24    3.34
   8   6  -1   89.93    3.24
  -8   6   1   89.72    3.27
   8   6  -1   91.18    3.28
  -8   6   1   89.50    3.55
   8   6  -1   93.44    3.37
   8   6  -1   87.35    3.31
   8   6  -1   87.71    3.27
  -6  -6   1  107.31    4.08
  -6  -6   1  117.89    4.14
  -6  -6   1  109.05    4.09
  -6  -6   1  104.27    3.99
  -6  -6   1  114.79    4.59
   6  -6  -1  109.64    4.29
  -6  -6   1   95.23    4.38
   6  -6  -1  114.01    4.10
   6  -6  -1  113.84    4.35
  -6  -6   1  113.89    4.16
   6  -6  -1  115.83    4.00
   6   6  -1  113.28    4.06
   6   6  -1  115.79    4.09
   6   6  -1  112.97    4.04
   6   6  -1  123.48    4.20
   6   6  -1  121.78    4.18
  -6   6   1  113.93    4.12
   6   6  -1  116.12    4.04
  -6   6   1  109.92    4.04
  -6   6   1  116.79    4.14
  -6   6   1  116.86    4.07
  -6   6   1  112.82    4.37
  -6   6   1  119.47    4.05
  -6   6   1  116.18    4.09
  -6   6   1  113.08    3.86
  -6   6   1  118.21    4.33
  -4  -6   1   62.18    2.68
  -4  -6   1   72.30    2.77
   4  -6  -1   74.72    2.62
  -4  -6   1   71.33    2.71
  -4  -6   1   71.35    2.70
   4  -6  -1   70.81    2.68
  -4  -6   1   74.33    3.09
   4  -6  -1   64.38    2.90
  -4  -6   1   59.96    2.96
  -4  -6   1   73.11    2.68
   4  -6  -1   73.06    2.92
  -4   6   1   72.69    2.70
   4   6  -1   73.43    2.65
  -4   6   1   71.98    2.87
  -4   6   1   73.22    2.52
   4   6  -1   72.93    2.68
  -4   6   1   70.27    2.64
   4   6  -1   74.49    2.50
   4   6  -1   72.37    2.59
  -4   6   1   73.84    2.68
  -4   6   1   74.13    2.66
  -4   6   1   70.44    2.96
   4   6  -1   74.03    2.64
   4   6  -1   71.93    2.68
  -4   6   1   73.23    2.75
  -4   6   1   72.29    2.69
   4   6  -1   75.36    2.76
   4   6  -1   76.54    2.82
   4   6  -1   71.86    2.68
  -2  -6   1  139.88    4.77
   2  -6  -1  115.18    4.99
  -2  -6   1  136.70    5.08
   2  -6  -1  129.68    4.77
  -2  -6   1  127.22    5.17
   2  -6  -1  139.30    4.79
   2  -6  -1  138.24    4.73
  -2  -6   1  115.93    5.06
  -2  -6   1  143.39    4.81
   2  -6  -1  138.78    5.01
   2   6  -1  131.05    4.57
   2   6  -1  138.38    4.76
  -2   6   1  137.98    4.95
   2   6  -1  146.99    4.95
  -2   6   1  138.57    4.80
  -2   6   1  142.19    4.87
  -2   6   1  137.19    4.81
  -2   6   1  136.45    4.77
   2   6  -1  128.04    4.76
   2   6  -1  137.47    4.75
  -2   6   1  137.82    4.77
   2   6  -1  142.36    4.86
   2   6  -1  136.21    4.79
  -2   6   1  137.41    4.74
   2   6  -1  138.28    4.79
  -2   6   1  135.38    5.08
   0  -6   1  156.03    5.77
   0  -6   1  149.77    5.43
   0  -6   1  152.65    5.81
   0  -6  -1  166.26    5.64
   0  -6   1  170.64    5.62
   0  -6  -1  161.73    5.62
   0  -6   1  161.25    5.56
   0  -6   1  151.11    5.91
   0  -6  -1  167.31    5.58
   0  -6  -1  163.53    5.67
   0  -6  -1  160.59    5.80
   0   6  -1  161.68    5.64
   0   6  -1  171.69    5.78
   0   6  -1  164.19    5.67
   0   6  -1  155.20    5.73
   0   6  -1  158.15    5.57
   0   6  -1  155.43    5.60
   0   6  -1  158.47    5.60
   0   6   1  159.18    5.64
   0   6  -1  159.55    5.57
   0   6   1  160.00    5.56
   0   6   1  166.43    5.60
   0   6   1  164.04    5.89
   0   6   1  161.44    5.61
   2  -6   1   61.17    2.63
  -2  -6  -1   64.66    2.44
  -2  -6  -1   63.17    2.54
  -2  -6  -1   61.73    2.42
   2  -6   1   61.32    2.44
   2  -6   1   65.50    2.40
   2  -6   1   66.98    2.39
  -2  -6  -1   63.50    2.38
   2  -6   1   61.37    2.65
   2  -6   1   63.87    2.34
   2  -6   1   63.92    2.27
  -2  -6  -1   65.24    2.48
   2  -6   1   62.73    2.48
  -2   6  -1   69.26    2.58
   2   6   1   62.66    2.44
   2   6   1   62.58    2.62
   2   6   1   59.76    2.35
  -2   6  -1   63.40    2.40
   2   6   1   65.60    2.39
  -2   6  -1   63.57    2.46
  -2   6  -1   60.38    2.39
  -2   6  -1   64.50    2.41
  -2   6  -1   64.94    2.47
   2   6   1   59.56    2.40
  -2   6  -1   64.74    2.36
  -2   6  -1   65.29    2.39
   2   6   1   63.73    2.40
   4  -6   1  261.56    9.12
   4  -6   1  266.87    9.24
   4  -6   1  271.34    8.97
  -4  -6  -1  255.03    9.09
  -4  -6  -1  225.52    9.24
  -4  -6  -1  251.10    9.03
   4  -6   1  257.75    8.98
   4  -6   1  264.15    9.33
  -4  -6  -1  258.08    9.09
  -4  -6  -1  260.45    9.00
   4  -6   1  243.66    8.88
   4  -6   1  253.28    9.03
  -4  -6  -1  271.85    9.06
   4   6   1  264.59    9.07
  -4   6  -1  254.20    9.00
   4   6   1  281.73    9.25
  -4   6  -1  258.17    9.06
   4   6   1  283.23    9.03
   4   6   1  268.69    9.03
  -4   6  -1  262.44    8.90
   4   6   1  267.85    9.01
  -4   6  -1  268.09    9.12
   4   6   1  260.22    8.96
  -4   6  -1  292.14    9.21
  -4   6  -1  264.96    9.00
   4   6   1  263.56    9.04
   6  -6   1   63.89    2.80
  -6  -6  -1   57.07    2.69
   6  -6   1   63.24    2.43
   6  -6   1   65.14    2.35
  -6  -6  -1   65.23    2.58
   6  -6   1   64.01    2.33
   6  -6   1   62.91    2.39
  -6  -6  -1   63.58    2.54
  -6  -6  -1   66.40    2.53
  -6  -6  -1   63.13    2.52
   6  -6   1   63.66    2.50
  -6  -6  -1   63.94    2.48
  -6   6  -1   64.02    2.47
  -6   6  -1   64.51    2.53
   6   6   1   65.02    2.51
   6   6   1   65.80    2.63
   6   6   1   64.34    2.49
  -6   6  -1   64.72    2.34
  -6   6  -1   70.56    2.65
   6   6   1   63.30    2.44
  -6   6  -1   64.30    2.60
   6   6   1   69.89    2.52
   6   6   1   66.06    2.47
  -6   6  -1   64.14    2.46
  -8  -6  -1   73.96    3.40
  -8  -6  -1   88.93    3.32
   8  -6   1   81.62    3.20
   8  -6   1   84.05    3.12
   8  -6   1   84.41    3.14
  -8  -6  -1   86.02    3.26
  -8  -6  -1   83.35    3.22
   8  -6   1   83.93    2.94
   8  -6   1   84.71    3.14
   8  -6   1   83.39    3.93
  -8  -6  -1   85.72    3.24
   8   6   1   84.27    3.22
  -8   6  -1   97.86    3.40
   8   6   1   84.65    3.17
   8   6   1   92.46    3.25
  -8   6  -1   84.17    3.03
  -8   6  -1   86.52    3.18
  -8   6  -1   87.30    3.38
   8   6   1   84.65    3.21
  -8   6  -1   84.95    3.24
   8   6   1   88.32    3.32
   8   6   1   85.56    3.17
  -8   6  -1   84.39    3.19
  10  -6   1   42.92    2.19
 -10  -6  -1   37.85    2.01
  10  -6   1   40.82    1.59
 -10  -6  -1   42.34    1.86
  10  -6   1   41.67    1.81
 -10  -6  -1   41.49    1.97
  10  -6   1   42.20    1.74
  10  -6   1   42.62    1.74
 -10  -6  -1   43.20    1.88
  10  -6   1   41.45    1.78
 -10  -6  -1   42.01    1.78
  10  -6   1   41.67    1.79
 -10   6  -1   42.39    1.79
  10   6   1   44.48    1.83
  10   6   1   42.93    1.87
  10   6   1   41.38    1.80
  10   6   1   45.09    1.84
  10   6   1   41.55    1.84
 -10   6  -1   46.94    1.95
 -10   6  -1   42.42    1.64
  10   6   1   43.81    1.78
 -10   6  -1   41.38    1.99
 -12  -6  -1   81.35    3.16
 -12  -6  -1   85.26    3.65
 -12  -6  -1   66.87    3.24
 -12  -6  -1   86.53    3.26
  12  -6   1   76.85    3.10
  12  -6   1   75.43    3.08
  12  -6   1   79.52    2.87
 -12  -6  -1   81.36    3.43
  12  -6   1   78.76    3.03
  12  -6   1   84.59    3.58
  12  -6   1   82.60    3.11
 -12  -6  -1   75.87    3.05
 -12   6  -1   79.94    3.13
  12   6   1   82.56    3.06
  12   6   1   78.59    3.15
 -12   6  -1   79.17    3.05
 -12   6  -1   93.26    3.23
  12   6   1   82.16    3.12
  12   6   1   81.07    3.11
  12   6   1   82.15    3.13
 -12   6  -1   78.85    2.91
 -14  -6  -1    8.57    0.98
  14  -6   1   10.55    1.01
 -14  -6  -1   11.11    1.40
  14  -6   1   10.10    1.13
 -14  -6  -1   10.56    1.05
 -14  -6  -1   11.61    0.99
  14  -6   1   12.22    1.38
  14  -6   1   10.09    0.74
  14  -6   1   10.18    0.60
  14   6   1    9.81    0.84
 -14   6  -1   10.47    0.96
  14   6   1   10.08    0.94
 -14   6  -1    9.88    0.83
  14   6   1   11.08    0.97
 -14   6  -1   11.99    0.92
  14   6   1   11.40    0.79
  14   6   1   10.72    0.79
 -14   6  -1   10.66    0.71
  16  -6   1   29.03    1.39
 -16  -6  -1   31.34    2.13
  16  -6   1   31.16    2.02
 -16  -6  -1   25.84    1.57
  16  -6   1   32.01    1.64
 -16  -6  -1   24.87    1.43
  16  -6   1   28.30    1.20
 -16  -6  -1   31.25    1.70
  16  -6   1   29.58    1.50
 -16  -6  -1   30.46    1.61
 -16   6  -1   29.74    1.50
  16   6   1   27.94    1.38
  16   6   1   27.84    1.58
 -16   6  -1   29.27    1.57
 -16   6  -1   30.05    1.49
 -16   6  -1   26.73    1.31
  16   6   1   25.62    1.63
  16   6   1   28.90    1.37
  16   6   1   29.31    1.61
 -18  -6  -1   11.00    1.68
 -18  -6  -1   10.87    1.25
  18  -6   1   10.21    1.53
  18  -6   1   10.55    1.21
 -18  -6  -1    9.56    1.02
  18  -6   1   10.03    0.96
 -18   6  -1   13.25    1.31
  18   6   1   11.81    1.17
 -18   6  -1   10.10    0.87
 -18   6  -1    9.60    1.14
  18   6   1    9.99    1.10
  18   6   1   10.46    0.98
 -20  -6  -1    7.82    1.44
  20  -6   1    4.60    0.89
 -20  -6  -1    5.42    0.99
  20   6   1    4.34    0.89
 -20   6  -1    5.59    0.91
  20   6   1    6.90    0.99
  22  -6   1    3.66    1.27
  22  -6   1    4.70    1.09
 -22  -6  -1    5.59    1.49
  22   6   1    3.61    1.12
  22   6   1    3.82    1.01
 -23  -7   1    4.84    1.72
  21  -7  -1    9.54    1.18
 -21  -7   1   10.36    1.90
  21  -7  -1   12.16    1.76
  21   7  -1    9.32    1.18
  21   7  -1    7.71    1.15
 -19  -7   1   15.58    1.56
  19  -7  -1   16.28    1.36
  19  -7  -1   17.04    1.67
 -19  -7   1   18.35    2.12
  19   7  -1   15.72    1.38
  19   7  -1   15.68    1.23
 -19   7   1   15.14    1.33
  17  -7  -1   11.75    1.15
 -17  -7   1   12.68    1.42
 -17  -7   1   13.01    1.31
  17  -7  -1   10.83    0.96
  17  -7  -1   13.24    1.47
  17  -7  -1   10.93    1.00
 -17  -7   1   11.34    1.82
 -17   7   1   10.95    1.08
  17   7  -1   12.23    1.02
  17   7  -1   10.42    1.11
  17   7  -1    9.51    0.82
  17   7  -1   11.43    0.79
 -17   7   1   11.62    0.99
 -17   7   1   10.65    0.94
  15  -7  -1   24.32    1.26
 -15  -7   1   26.14    1.72
 -15  -7   1   28.38    1.51
  15  -7  -1   28.23    1.52
 -15  -7   1   27.93    2.25
  15  -7  -1   29.21    1.86
  15  -7  -1   25.55    1.40
  15   7  -1   26.35    1.27
  15   7  -1   27.92    1.50
 -15   7   1   26.21    1.36
 -15   7   1   24.50    1.45
  15   7  -1   25.78    1.31
  15   7  -1   26.38    1.43
  15   7  -1   25.76    1.29
 -13  -7   1   42.76    1.99
 -13  -7   1   41.14    1.76
  13  -7  -1   41.89    2.27
  13  -7  -1   42.19    1.91
 -13  -7   1   43.26    2.59
  13  -7  -1   37.96    1.70
 -13  -7   1   37.26    1.87
  13  -7  -1   43.93    1.86
  13  -7  -1   37.06    1.85
 -13  -7   1   39.98    1.88
 -13   7   1   39.54    1.74
  13   7  -1   38.13    1.79
  13   7  -1   41.03    1.87
  13   7  -1   40.80    1.78
 -13   7   1   36.96    1.89
  13   7  -1   40.99    1.69
  13   7  -1   40.07    1.73
 -13   7   1   39.07    1.86
  11  -7  -1   56.64    2.16
 -11  -7   1   62.70    3.06
 -11  -7   1   47.12    2.56
  11  -7  -1   57.20    2.36
 -11  -7   1   53.94    2.31
  11  -7  -1   53.96    2.28
 -11  -7   1   51.38    2.29
  11  -7  -1   58.95    2.67
 -11  -7   1   56.63    2.42
 -11   7   1   54.38    2.31
 -11   7   1   54.85    2.46
  11   7  -1   55.73    2.25
  11   7  -1   55.66    2.21
  11   7  -1   54.76    2.30
  11   7  -1   55.40    2.27
  11   7  -1   56.64    2.17
 -11   7   1   53.60    2.22
   9  -7  -1   29.37    1.53
  -9  -7   1   26.96    1.76
   9  -7  -1   29.09    1.40
  -9  -7   1   29.54    1.51
  -9  -7   1   32.74    2.02
  -9  -7   1   29.64    1.36
  -9  -7   1   28.85    1.44
   9  -7  -1   30.41    1.72
  -9  -7   1   30.24    1.46
  -9  -7   1   28.55    1.44
   9  -7  -1   29.79    1.29
  -9   7   1   31.22    1.66
   9   7  -1   30.19    1.42
  -9   7   1   29.23    1.38
   9   7  -1   30.47    1.43
   9   7  -1   30.34    1.32
   9   7  -1   29.15    1.36
  -9   7   1   30.13    1.63
  -9   7   1   32.45    1.48
  -9   7   1   29.94    1.38
   9   7  -1   29.13    1.36
  -7  -7   1  137.93    5.04
   7  -7  -1  133.61    5.50
   7  -7  -1  136.93    4.99
  -7  -7   1  139.20    5.10
  -7  -7   1  135.94    5.03
  -7  -7   1  130.88    4.89
   7  -7  -1  139.79    5.31
   7  -7  -1  146.42    4.91
  -7  -7   1  125.63    5.40
  -7  -7   1  145.23    5.64
  -7  -7   1  127.36    4.99
  -7   7   1  143.94    5.06
  -7   7   1  145.37    5.27
   7   7  -1  135.43    4.92
   7   7  -1  138.88    4.99
  -7   7   1  139.23    4.96
  -7   7   1  140.55    4.94
  -7   7   1  149.97    5.35
  -7   7   1  140.56    4.99
   7   7  -1  143.90    5.00
   7   7  -1  138.95    4.94
  -7   7   1  144.24    4.99
   7   7  -1  142.03    5.07
   7   7  -1  139.07    4.97
   7   7  -1  146.03    5.09
  -5  -7   1   29.63    1.35
  -5  -7   1   28.73    1.32
   5  -7  -1   28.53    1.58
  -5  -7   1   26.32    1.34
   5  -7  -1   27.78    1.30
  -5  -7   1   29.63    1.42
   5  -7  -1   28.34    1.57
  -5  -7   1   31.37    1.80
  -5  -7   1   28.33    1.35
   5  -7  -1   30.12    1.25
  -5  -7   1   25.36    1.66
   5   7  -1   30.68    1.42
   5   7  -1   30.45    1.13
   5   7  -1   29.01    1.27
  -5   7   1   28.80    1.29
  -5   7   1   28.68    1.32
   5   7  -1   28.49    1.33
   5   7  -1   28.25    1.33
   5   7  -1   28.01    1.30
  -5   7   1   29.39    1.29
  -5   7   1   28.24    1.31
  -5   7   1   29.73    1.41
  -5   7   1   29.14    1.61
   5   7  -1   30.46    1.42
  -5   7   1   29.14    1.13
  -5   7   1   28.58    1.49
  -5   7   1   29.88    1.40
   5   7  -1   28.57    1.27
  -3  -7   1  138.03    5.17
  -3  -7   1  124.21    4.86
   3  -7  -1  132.20    5.00
  -3  -7   1  140.17    4.78
   3  -7  -1  128.25    4.72
  -3  -7   1  133.49    4.73
   3  -7  -1  136.79    4.74
  -3  -7   1  113.24    5.11
   3  -7  -1  120.00    5.02
   3  -7  -1  138.09    4.68
  -3   7   1  133.52    4.73
   3   7  -1  125.36    4.72
  -3   7   1  134.80    4.93
  -3   7   1  133.11    4.60
   3   7  -1  139.53    4.77
  -3   7   1  136.79    4.73
   3   7  -1  133.43    4.69
  -3   7   1  148.38    5.14
   3   7  -1  130.28    4.74
  -3   7   1  137.24    4.83
  -3   7   1  136.94    4.72
  -3   7   1  114.78    4.87
   3   7  -1  138.31    4.84
   3   7  -1  143.67    4.91
   3   7  -1  136.18    4.72
  -3   7   1  134.36    4.76
   3   7  -1  129.02    4.50
   1  -7  -1  120.67    4.23
  -1  -7   1  112.22    4.43
  -1  -7   1  121.69    4.23
   1  -7  -1  122.38    4.18
   1  -7  -1  104.11    4.31
  -1  -7   1  107.87    4.60
  -1  -7   1  118.31    4.51
   1  -7  -1  115.05    4.44
   1  -7  -1   98.90    4.48
  -1  -7   1  116.82    4.18
   1   7  -1  129.18    4.40
   1   7  -1  115.75    4.33
  -1   7   1  122.44    4.33
  -1   7   1  115.48    4.21
   1   7  -1  121.80    4.24
  -1   7   1  115.48    4.17
   1   7  -1  120.48    4.22
  -1   7   1  115.03    4.25
   1   7  -1  119.50    4.23
  -1   7   1  119.67    4.24
   1   7  -1  111.60    4.20
  -1   7   1  130.42    4.58
  -1   7   1  116.69    4.18
  -1   7   1  117.78    4.36
   1   7  -1  121.33    4.19
   1   7  -1  114.07    4.18
  -1  -7  -1  167.33    5.71
  -1  -7  -1  164.06    5.65
   1  -7   1  158.15    5.98
  -1  -7  -1  159.38    5.69
   1  -7   1  151.38    5.49
   1  -7   1  166.39    5.66
   1  -7   1  154.34    6.04
   1  -7   1  161.40    5.62
  -1  -7  -1  157.51    5.85
   1  -7   1  159.74    5.84
   1   7   1  167.38    5.68
  -1   7  -1  162.62    5.62
  -1   7  -1  162.33    5.68
  -1   7  -1  175.80    5.88
   1   7   1  153.49    5.61
   1   7   1  159.38    5.70
  -1   7  -1  162.05    5.63
  -1   7  -1  165.34    5.72
  -1   7  -1  155.99    5.66
  -1   7  -1  153.38    5.65
   1   7   1  163.99    5.64
   3  -7   1   30.59    1.70
   3  -7   1   30.91    1.27
  -3  -7  -1   30.78    1.53
  -3  -7  -1   33.42    1.48
   3  -7   1   32.08    1.35
  -3  -7  -1   31.26    1.46
   3  -7   1   32.70    1.38
  -3  -7  -1   28.01    1.69
  -3  -7  -1   32.39    1.41
   3  -7   1   32.03    1.69
   3  -7   1   31.41    1.47
   3  -7   1   30.96    1.47
  -3   7  -1   31.46    1.42
   3   7   1   30.46    1.44
  -3   7  -1   32.44    1.90
   3   7   1   31.06    1.37
  -3   7  -1   33.61    1.38
   3   7   1   32.71    1.41
  -3   7  -1   31.30    1.33
   3   7   1   31.36    1.43
  -3   7  -1   33.06    1.42
  -3   7  -1   31.88    1.48
   3   7   1   33.85    1.41
  -3   7  -1   35.37    1.61
  -3   7  -1   32.72    1.43
   3   7   1   34.32    1.65
  -5  -7  -1  152.51    5.22
  -5  -7  -1  144.23    5.15
   5  -7   1  147.82    5.10
  -5  -7  -1  138.14    5.19
  -5  -7  -1  125.13    5.43
  -5  -7  -1  133.47    5.57
   5  -7   1  147.34    5.56
   5  -7   1  140.25    5.12
   5  -7   1  137.16    5.19
   5  -7   1  143.66    5.41
  -5  -7  -1  139.37    5.23
   5  -7   1  143.11    5.10
   5   7   1  150.27    5.13
  -5   7  -1  146.04    5.28
   5   7   1  146.76    5.19
  -5   7  -1  141.48    5.15
   5   7   1  153.54    5.38
   5   7   1  148.40    5.15
  -5   7  -1  165.46    5.39
  -5   7  -1  143.10    5.02
   5   7   1  156.70    5.17
  -5   7  -1  139.26    5.21
  -5   7  -1  139.66    5.15
   5   7   1  144.33    5.11
   5   7   1  143.19    5.16
  -7  -7  -1   73.76    3.36
   7  -7   1   81.58    3.01
   7  -7   1   75.64    3.13
   7  -7   1   81.76    3.49
  -7  -7  -1   86.56    3.16
  -7  -7  -1   83.90    3.21
  -7  -7  -1   78.84    3.13
   7  -7   1   79.26    3.03
   7  -7   1   80.04    2.91
  -7  -7  -1   79.57    3.08
   7  -7   1   76.50    2.97
  -7  -7  -1   79.26    3.11
   7   7   1   83.52    3.23
  -7   7  -1   94.70    3.31
  -7   7  -1   80.19    2.91
  -7   7  -1   77.72    3.06
  -7   7  -1   78.60    3.13
   7   7   1   82.23    3.05
   7   7   1   78.87    3.02
  -7   7  -1   81.52    3.24
   7   7   1   88.38    3.11
  -7   7  -1   80.64    3.07
   7   7   1   78.13    3.07
   7   7   1   78.80    3.09
   9  -7   1   57.35    2.75
  -9  -7  -1   58.74    2.44
   9  -7   1   53.75    2.20
  -9  -7  -1   55.88    2.34
  -9  -7  -1   54.98    2.30
   9  -7   1   53.94    2.05
  -9  -7  -1   49.46    2.52
  -9  -7  -1   57.82    2.28
  -9  -7  -1   55.59    2.25
   9  -7   1   53.86    2.19
   9  -7   1   52.96    2.20
  -9  -7  -1   55.30    2.34
  -9   7  -1   54.88    2.26
  -9   7  -1   57.59    2.49
  -9   7  -1   61.78    2.45
   9   7   1   56.36    2.37
  -9   7  -1   55.13    2.09
   9   7   1   59.69    2.30
   9   7   1   55.63    2.30
  -9   7  -1   54.14    2.33
   9   7   1   56.26    2.25
   9   7   1   56.08    2.23
   9   7   1   55.41    2.30
  -9   7  -1   54.59    2.27
 -11  -7  -1   55.35    2.30
  11  -7   1   51.30    2.13
 -11  -7  -1   56.26    2.18
  11  -7   1   52.77    1.96
  11  -7   1   46.29    3.14
 -11  -7  -1   51.13    2.65
  11  -7   1   56.07    2.23
  11  -7   1   51.20    2.16
 -11  -7  -1   50.17    2.14
  11  -7   1   50.13    2.21
 -11  -7  -1   57.27    2.39
  11   7   1   53.93    2.25
  11   7   1   53.71    2.15
 -11   7  -1   50.86    1.99
  11   7   1   52.03    2.29
 -11   7  -1   53.51    2.20
  11   7   1   51.80    2.21
 -11   7  -1   52.80    2.27
 -13  -7  -1   22.98    1.56
 -13  -7  -1   22.25    1.24
  13  -7   1   22.98    1.31
  13  -7   1   28.41    1.92
 -13  -7  -1   25.43    1.44
 -13  -7  -1   25.91    1.55
  13  -7   1   24.60    1.34
 -13  -7  -1   27.30    1.96
  13  -7   1   25.20    1.41
  13  -7   1   22.58    1.04
  13  -7   1   24.68    1.23
  13   7   1   26.76    1.28
  13   7   1   25.47    1.31
 -13   7  -1   29.06    1.46
  13   7   1   23.31    1.37
 -13   7  -1   22.54    1.11
 -13   7  -1   24.02    1.30
  13   7   1   24.37    1.32
  13   7   1   22.88    1.38
 -13   7  -1   25.20    1.43
 -15  -7  -1   17.14    1.72
  15  -7   1   16.70    1.22
  15  -7   1   15.38    1.10
  15  -7   1   14.68    0.76
  15  -7   1   18.17    1.75
 -15  -7  -1   11.94    1.20
 -15  -7  -1   16.29    1.26
 -15  -7  -1   16.66    1.32
  15  -7   1   15.96    0.97
 -15  -7  -1   13.92    1.11
  15   7   1   16.22    1.00
  15   7   1   15.49    1.06
 -15   7  -1   16.07    0.91
  15   7   1   14.78    0.99
 -15   7  -1   15.40    1.19
  15   7   1   16.30    1.20
 -15   7  -1   17.73    1.18
  15   7   1   15.93    1.20
 -15   7  -1   14.41    1.06
 -17  -7  -1   11.92    1.24
 -17  -7  -1   16.96    1.43
  17  -7   1   14.83    1.73
 -17  -7  -1   14.54    1.83
  17  -7   1   14.15    1.28
  17  -7   1   13.52    1.08
  17   7   1   10.53    1.16
 -17   7  -1   13.28    1.23
 -17   7  -1   14.16    0.94
 -17   7  -1   13.51    1.25
  17   7   1   12.18    1.17
  17   7   1   16.19    1.27
  17   7   1   14.66    1.09
  19  -7   1   11.44    1.36
  19  -7   1   13.30    1.78
 -19  -7  -1   12.91    1.57
 -19  -7  -1   13.17    1.54
 -19  -7  -1   12.38    1.91
  19   7   1   11.50    1.30
 -19   7  -1   10.21    1.34
  19   7   1   12.55    1.26
  21  -7   1    1.04    0.87
 -21  -7  -1    4.44    1.37
  21  -7   1    1.54    1.33
  21   7   1    2.44    0.89
  21   7   1    2.68    0.91
  22   8  -1    2.67    0.99
  20  -8  -1    4.18    0.95
  20  -8  -1    5.73    1.32
 -20  -8   1    6.33    1.69
  20   8  -1    5.76    0.86
  20   8  -1    4.37    0.92
  18  -8  -1    9.47    1.19
 -18  -8   1   11.57    1.97
  18  -8  -1    9.60    1.61
 -18  -8   1   12.62    1.85
 -18   8   1    8.32    1.25
  18   8  -1   10.10    1.11
  18   8  -1    8.72    1.21
 -16  -8   1    8.34    1.65
  16  -8  -1    6.97    1.24
 -16  -8   1    5.41    0.97
  16  -8  -1    5.88    0.86
 -16   8   1    4.77    0.78
  16   8  -1    5.22    0.72
  16   8  -1    3.70    0.57
  16   8  -1    5.54    0.83
  16   8  -1    4.65    0.71
 -16   8   1    4.41    0.73
  14  -8  -1   25.66    1.49
 -14  -8   1   26.94    1.53
 -14  -8   1   27.41    1.72
  14  -8  -1   25.30    1.38
  14  -8  -1   25.45    1.84
 -14  -8   1   28.66    2.34
 -14   8   1   23.08    1.33
  14   8  -1   23.75    1.27
  14   8  -1   22.94    1.28
  14   8  -1   22.83    1.35
 -14   8   1   23.09    1.46
 -14   8   1   24.07    1.44
  14   8  -1   23.26    1.19
  14   8  -1   23.40    1.42
  12  -8  -1    6.63    0.79
 -12  -8   1    7.44    0.65
 -12  -8   1    6.09    0.87
 -12  -8   1    8.60    1.43
  12  -8  -1    7.62    0.85
 -12  -8   1    8.18    1.05
  12  -8  -1    7.41    1.13
  12   8  -1    7.52    0.64
  12   8  -1    6.62    0.83
  12   8  -1    7.59    0.71
  12   8  -1    5.16    0.73
 -12   8   1    6.12    0.87
 -12   8   1    5.81    0.73
 -12   8   1    5.80    0.94
  12   8  -1    6.86    0.73
  10  -8  -1   17.91    1.46
 -10  -8   1   20.26    1.74
  10  -8  -1   16.29    0.80
  10  -8  -1   15.21    0.89
 -10  -8   1   13.34    1.05
 -10  -8   1   16.22    1.36
 -10  -8   1   15.29    1.10
 -10  -8   1   17.06    0.99
 -10  -8   1   15.31    1.47
  10  -8  -1   15.71    0.99
  10  -8  -1   16.44    1.15
  10   8  -1   16.08    0.98
 -10   8   1   17.94    1.29
  10   8  -1   16.54    0.99
 -10   8   1   15.53    1.03
  10   8  -1   16.44    1.01
 -10   8   1   16.43    1.09
  10   8  -1   15.95    0.97
 -10   8   1   16.88    1.02
  10   8  -1   16.72    1.10
 -10   8   1   17.17    0.94
  10   8  -1   14.98    1.12
   8  -8  -1   29.24    1.73
   8  -8  -1   27.67    1.28
   8  -8  -1   27.81    1.35
  -8  -8   1   26.83    1.43
  -8  -8   1   26.88    1.44
  -8  -8   1   30.01    2.03
  -8  -8   1   27.26    1.85
  -8  -8   1   26.53    1.40
  -8  -8   1   24.90    1.23
   8  -8  -1   26.58    1.25
   8  -8  -1   26.30    1.55
  -8   8   1   27.20    1.35
   8   8  -1   28.15    1.33
   8   8  -1   30.44    1.49
  -8   8   1   30.31    1.49
  -8   8   1   27.19    1.08
   8   8  -1   29.86    1.40
   8   8  -1   28.47    1.42
   8   8  -1   28.43    1.35
  -8   8   1   26.88    1.36
   8   8  -1   28.31    1.41
   8   8  -1   27.72    1.30
  -8   8   1   29.82    1.33
  -8   8   1   31.91    1.71
  -6  -8   1   33.93    2.02
   6  -8  -1   30.31    1.72
   6  -8  -1   29.98    1.40
  -6  -8   1   29.16    1.44
  -6  -8   1   31.19    1.46
   6  -8  -1   28.47    1.31
  -6  -8   1   30.07    1.43
  -6  -8   1   28.92    1.46
   6  -8  -1   29.97    1.68
  -6  -8   1   25.94    1.84
   6   8  -1   28.93    1.39
  -6   8   1   30.47    1.51
  -6   8   1   31.52    1.43
  -6   8   1   30.62    1.42
  -6   8   1   29.89    1.19
  -6   8   1   31.52    1.38
   6   8  -1   31.63    1.50
   6   8  -1   29.92    1.43
  -6   8   1   31.07    1.62
   6   8  -1   29.81    1.43
   6   8  -1   30.87    1.52
  -6   8   1   35.74    1.80
   6   8  -1   31.13    1.20
   6   8  -1   29.89    1.36
  -6   8   1   30.17    1.41
   6   8  -1   29.39    1.35
  -6   8   1   29.98    1.42
  -4  -8   1   19.45    1.42
   4  -8  -1   18.32    1.29
  -4  -8   1   16.52    1.42
  -4  -8   1   16.87    1.11
   4  -8  -1   18.30    0.91
  -4  -8   1   18.77    1.00
   4  -8  -1   18.72    0.97
   4  -8  -1   16.61    0.95
   4  -8  -1   17.03    1.26
  -4  -8   1   17.33    1.01
  -4   8   1   16.55    0.98
  -4   8   1   18.26    1.15
   4   8  -1   18.16    1.09
  -4   8   1   17.69    0.82
   4   8  -1   18.25    0.74
   4   8  -1   17.41    0.98
  -4   8   1   19.75    1.00
   4   8  -1   18.31    0.94
  -4   8   1   17.16    1.00
  -4   8   1   17.67    0.96
   4   8  -1   16.87    1.01
  -4   8   1   17.94    1.02
   4   8  -1   17.17    1.01
  -4   8   1   20.95    1.34
  -4   8   1   18.29    1.10
   2  -8  -1   31.19    1.85
  -2  -8   1   37.18    1.55
  -2  -8   1   36.29    1.92
  -2  -8   1   36.13    1.56
   2  -8  -1   34.91    1.54
  -2  -8   1   30.73    1.93
   2  -8  -1   33.75    1.80
  -2  -8   1   32.39    1.74
   2  -8  -1   34.05    1.48
   2  -8  -1   33.35    1.50
  -2   8   1   34.24    1.52
  -2   8   1   35.61    1.58
  -2   8   1   35.03    1.50
   2   8  -1   35.97    1.64
   2   8  -1   32.76    1.53
  -2   8   1   34.21    1.64
   2   8  -1   34.97    1.28
   2   8  -1   33.84    1.54
  -2   8   1   34.90    1.67
   2   8  -1   36.35    1.57
  -2   8   1   41.66    1.92
   2   8  -1   33.41    1.53
  -2   8   1   34.88    1.57
   2   8  -1   35.45    1.51
  -2   8   1   37.20    1.55
   2   8  -1   36.68    1.68
   2   8  -1   35.71    1.53
   0  -8   1   31.62    1.41
   0  -8  -1   32.87    1.48
   0  -8  -1   32.57    1.43
   0  -8  -1   27.24    1.75
   0  -8  -1   33.20    1.71
   0  -8   1   34.21    1.46
   0  -8   1   32.33    1.75
   0  -8   1   32.48    1.69
   0  -8   1   31.71    1.90
   0   8   1   34.31    1.60
   0   8  -1   32.32    1.47
   0   8  -1   33.07    1.43
   0   8   1   32.47    1.49
   0   8   1   35.48    1.77
   0   8  -1   30.60    1.59
   0   8  -1   32.57    1.42
   0   8  -1   35.11    1.62
   0   8   1   31.78    1.43
   0   8  -1   31.77    1.55
   0   8  -1   33.01    1.48
   0   8   1   34.28    1.52
   0   8   1   33.13    1.46
   0   8  -1   25.49    1.84
   0   8   1   33.80    1.41
  -2  -8  -1   15.73    0.91
  -2  -8  -1   15.80    0.99
   2  -8   1   15.76    0.87
  -2  -8  -1   15.03    1.09
  -2  -8  -1   17.06    0.98
   2  -8   1   15.99    1.05
  -2  -8  -1   14.83    1.25
   2  -8   1   15.64    1.24
  -2  -8  -1   16.26    1.06
   2  -8   1   17.09    1.28
   2  -8   1   15.32    0.76
  -2   8  -1   17.63    0.91
  -2   8  -1   16.68    0.98
  -2   8  -1   17.50    1.08
  -2   8  -1   16.54    0.94
   2   8   1   16.03    0.96
   2   8   1   16.99    0.93
  -2   8  -1   15.05    0.87
   2   8   1   16.73    1.14
  -2   8  -1   16.35    1.04
  -2   8  -1   15.52    0.95
  -2   8  -1   15.88    0.95
   2   8   1   16.80    0.87
   2   8   1   15.15    0.89
   4  -8   1   80.20    3.01
   4  -8   1   81.34    3.19
  -4  -8  -1   83.40    3.21
  -4  -8  -1   81.15    3.15
  -4  -8  -1   75.19    3.50
   4  -8   1   82.61    3.51
   4  -8   1   85.45    3.64
  -4  -8  -1   81.18    3.22
  -4  -8  -1   80.40    3.30
   4  -8   1   81.24    3.07
   4  -8   1   82.43    3.10
   4   8   1   80.76    3.14
  -4   8  -1   93.07    3.39
   4   8   1   81.06    3.17
  -4   8  -1   80.90    3.16
  -4   8  -1   83.41    3.17
  -4   8  -1   86.65    3.28
   4   8   1   87.41    3.12
  -4   8  -1   83.53    3.11
   4   8   1   83.10    3.12
  -4   8  -1   86.62    3.27
  -4   8  -1   82.33    3.04
  -4   8  -1   82.61    3.15
   4   8   1   82.56    3.20
   4   8   1   85.89    3.13
   4   8   1   87.46    3.40
  -6  -8  -1   17.55    1.12
  -6  -8  -1   18.94    1.11
   6  -8   1   17.88    1.01
   6  -8   1   18.11    0.94
   6  -8   1   20.59    1.50
   6  -8   1   18.00    1.09
  -6  -8  -1   17.55    1.10
  -6  -8  -1   18.19    1.13
   6  -8   1   19.31    0.97
  -6  -8  -1   16.42    1.17
   6  -8   1   18.09    0.98
  -6  -8  -1   17.97    1.41
   6   8   1   18.27    1.03
  -6   8  -1   18.87    1.17
  -6   8  -1   18.18    0.92
  -6   8  -1   18.81    1.09
   6   8   1   19.28    1.01
   6   8   1   18.16    1.06
   6   8   1   20.26    1.05
  -6   8  -1   22.08    1.24
   6   8   1   18.89    1.20
  -6   8  -1   18.10    1.14
   6   8   1   19.54    1.10
  -6   8  -1   17.81    1.08
   6   8   1   18.44    1.04
  -8  -8  -1   19.15    1.12
  -8  -8  -1   19.32    1.20
   8  -8   1   19.00    0.90
  -8  -8  -1   19.38    1.20
   8  -8   1   17.10    1.01
  -8  -8  -1   18.02    1.09
   8  -8   1   20.12    1.61
   8  -8   1   18.25    1.13
   8  -8   1   18.48    0.98
  -8  -8  -1   19.12    1.28
  -8  -8  -1   17.57    1.42
   8   8   1   19.11    1.05
   8   8   1   19.47    1.09
  -8   8  -1   17.43    1.11
  -8   8  -1   17.75    0.92
  -8   8  -1   18.45    1.20
  -8   8  -1   17.59    1.10
   8   8   1   19.00    1.10
  -8   8  -1   22.12    1.25
   8   8   1   19.77    1.05
  -8   8  -1   20.06    1.42
   8   8   1   18.26    1.12
   8   8   1   18.27    1.17
   8   8   1   17.84    1.09
 -10  -8  -1   18.60    1.30
 -10  -8  -1   15.90    1.37
 -10  -8  -1   17.95    1.51
  10  -8   1   18.51    1.14
  10  -8   1   16.67    0.99
  10  -8   1   17.50    1.73
 -10  -8  -1   16.38    1.17
  10  -8   1   15.90    1.08
  10  -8   1   15.45    0.97
 -10  -8  -1   20.24    1.63
  10   8   1   16.24    1.07
 -10   8  -1   20.73    1.24
 -10   8  -1   17.10    1.11
 -10   8  -1   15.84    0.87
  10   8   1   16.38    1.00
  10   8   1   17.02    1.11
 -10   8  -1   16.24    1.12
  10   8   1   16.28    1.08
 -10   8  -1   16.07    1.14
  10   8   1   15.20    1.15
  12  -8   1   28.75    1.51
  12  -8   1   31.04    2.10
 -12  -8  -1   31.41    1.44
 -12  -8  -1   29.66    1.71
 -12  -8  -1   33.74    2.18
  12  -8   1   28.42    1.40
 -12  -8  -1   25.99    1.39
 -12  -8  -1   27.72    1.61
 -12  -8  -1   28.94    1.82
  12  -8   1   27.84    1.43
  12  -8   1   27.20    1.18
  12  -8   1   29.21    1.71
  12   8   1   29.42    1.53
 -12   8  -1   27.24    1.51
  12   8   1   29.24    1.41
 -12   8  -1   32.47    1.63
  12   8   1   26.85    1.53
  12   8   1   28.34    1.50
 -12   8  -1   26.79    1.55
  12   8   1   28.00    1.47
 -12   8  -1   27.92    1.26
  14  -8   1    3.95    0.69
  14  -8   1    4.25    0.53
 -14  -8  -1    4.72    0.88
 -14  -8  -1    4.78    0.99
 -14  -8  -1    4.41    0.78
  14  -8   1    3.57    0.54
  14  -8   1    4.94    0.78
 -14  -8  -1    6.70    1.32
 -14  -8  -1    5.91    0.89
 -14  -8  -1    5.16    0.78
  14  -8   1    6.55    1.23
  14   8   1    4.42    0.62
 -14   8  -1    4.34    0.73
  14   8   1    5.05    0.77
 -14   8  -1    4.91    0.70
 -14   8  -1    4.73    0.61
  14   8   1    6.02    0.80
  14   8   1    3.90    0.72
  14   8   1    5.25    0.68
 -14   8  -1    5.15    0.80
 -16  -8  -1    9.56    1.34
 -16  -8  -1   11.14    1.31
  16  -8   1   12.01    1.71
  16  -8   1   11.20    1.20
 -16  -8  -1   15.64    1.85
  16  -8   1   10.77    1.05
 -16   8  -1   10.84    1.48
 -16   8  -1   12.21    1.20
  16   8   1   12.04    1.16
  16   8   1   12.56    0.99
  16   8   1   11.82    0.92
 -16   8  -1   10.55    0.86
  16   8   1   10.45    1.18
 -18  -8  -1    6.11    1.06
  18  -8   1    6.20    1.40
 -18  -8  -1    6.59    1.53
  18  -8   1    4.94    0.90
 -18  -8  -1    5.21    1.04
  18   8   1    8.45    1.18
  18   8   1    4.37    0.85
 -18   8  -1    4.61    0.96
 -20  -8  -1    5.06    1.52
  20  -8   1    2.23    0.99
  20   8   1    0.89    0.80
  20   8   1    2.59    0.89
  19  -9  -1    6.29    1.44
 -19  -9   1    8.54    1.91
  19  -9  -1    6.46    1.08
  19   9  -1    7.76    1.08
  19   9  -1    7.31    1.13
  17  -9  -1    7.57    1.43
 -17  -9   1    8.52    1.75
  17  -9  -1    6.75    0.99
 -17  -9   1    8.94    1.25
 -17   9   1    4.87    0.95
  17   9  -1    7.84    1.01
  17   9  -1    6.66    0.88
 -15  -9   1   14.43    1.50
  15  -9  -1   16.43    1.76
  15  -9  -1   14.74    1.31
 -15   9   1   10.96    1.53
 -15   9   1   14.36    1.30
  15   9  -1   13.76    1.10
  15   9  -1   15.43    1.22
  13  -9  -1   21.01    1.39
 -13  -9   1   20.96    1.12
 -13  -9   1   19.55    1.43
 -13  -9   1   20.29    1.56
  13  -9  -1   20.82    1.77
 -13  -9   1   24.74    2.26
  13   9  -1   20.09    1.24
 -13   9   1   21.02    2.02
  13   9  -1   19.07    1.37
  13   9  -1   18.98    1.09
 -13   9   1   17.31    1.31
 -13   9   1   17.63    1.25
  13   9  -1   20.49    1.30
 -13   9   1   20.75    1.15
  11  -9  -1   25.35    1.52
  11  -9  -1   23.79    1.06
 -11  -9   1   28.66    2.18
 -11  -9   1   25.05    1.62
  11  -9  -1   27.95    1.86
  11  -9  -1   23.80    1.36
 -11  -9   1   23.79    1.51
 -11  -9   1   20.03    2.28
 -11  -9   1   24.42    1.31
  11   9  -1   24.77    1.24
 -11   9   1   28.64    1.99
 -11   9   1   23.99    1.26
  11   9  -1   25.96    1.39
 -11   9   1   24.62    1.48
  11   9  -1   23.71    1.45
 -11   9   1   24.23    1.37
  11   9  -1   24.41    1.39
   9  -9  -1   16.73    1.07
  -9  -9   1   14.41    2.62
   9  -9  -1   19.93    1.60
  -9  -9   1   19.57    1.25
   9  -9  -1   18.20    1.34
   9  -9  -1   18.04    0.96
  -9  -9   1   21.66    1.86
  -9  -9   1   16.79    1.24
  -9  -9   1   18.68    1.34
   9   9  -1   17.51    1.02
   9   9  -1   18.98    1.24
   9   9  -1   18.20    1.08
   9   9  -1   18.49    1.13
  -9   9   1   18.12    0.81
  -9   9   1   17.08    1.14
   9   9  -1   18.52    1.19
  -9   9   1   20.51    1.08
  -9   9   1   20.10    1.26
   9   9  -1   18.01    0.88
  -9   9   1   19.94    1.77
  -7  -9   1   45.80    2.81
  -7  -9   1   50.96    2.28
  -7  -9   1   52.26    2.40
   7  -9  -1   48.58    2.07
  -7  -9   1   53.53    2.25
  -7  -9   1   58.47    3.06
   7  -9  -1   51.36    2.51
   7  -9  -1   49.16    2.15
  -7  -9   1   48.53    2.25
   7  -9  -1   52.24    2.19
   7   9  -1   48.88    2.21
  -7   9   1   53.01    2.31
  -7   9   1   49.52    2.19
   7   9  -1   57.01    2.36
   7   9  -1   50.14    2.21
   7   9  -1   50.95    2.12
  -7   9   1   61.98    2.87
  -7   9   1   55.65    2.17
   7   9  -1   52.30    1.93
   7   9  -1   56.05    2.23
   7   9  -1   52.79    2.15
  -7   9   1   52.50    2.20
   5  -9  -1   20.62    1.45
  -5  -9   1   22.35    1.17
  -5  -9   1   22.81    1.72
  -5  -9   1   19.29    1.25
   5  -9  -1   18.76    1.06
   5  -9  -1   21.22    1.53
  -5  -9   1   19.36    1.69
   5  -9  -1   21.67    1.23
   5  -9  -1   20.19    1.13
   5  -9  -1   19.45    1.01
   5   9  -1   17.72    0.92
  -5   9   1   20.96    1.15
   5   9  -1   20.15    1.13
  -5   9   1   20.98    1.09
   5   9  -1   18.86    1.22
  -5   9   1   20.08    1.14
   5   9  -1   21.17    1.19
   5   9  -1   19.03    1.15
  -5   9   1   20.39    1.17
  -5   9   1   20.93    1.27
  -5   9   1   21.40    1.32
   5   9  -1   20.99    1.08
  -5   9   1   22.73    1.66
  -5   9   1   18.79    0.92
  -5   9   1   21.82    1.11
   3  -9  -1   54.55    2.27
   3  -9  -1   54.05    2.66
   3  -9  -1   53.67    2.23
   3  -9  -1   55.39    2.63
  -3  -9   1   52.09    2.85
  -3  -9   1   56.50    2.29
  -3  -9   1   58.39    2.38
   3  -9  -1   54.65    2.20
  -3  -9   1   59.53    2.80
  -3  -9   1   53.25    2.51
   3   9  -1   51.45    2.27
  -3   9   1   57.03    2.27
  -3   9   1   56.52    2.32
   3   9  -1   54.44    2.28
   3   9  -1   57.37    2.40
  -3   9   1   59.13    2.42
   3   9  -1   58.16    2.32
   3   9  -1   56.20    2.30
   3   9  -1   56.26    2.23
   3   9  -1   57.62    1.98
  -3   9   1   57.27    2.23
  -3   9   1   56.94    2.29
  -3   9   1   54.62    2.12
   3   9  -1   52.92    2.22
  -3   9   1   56.84    2.32
  -3   9   1   55.88    2.43
  -1  -9   1   47.60    2.05
  -1  -9   1   49.70    2.04
   1  -9  -1   46.15    2.03
  -1  -9   1   45.97    2.35
  -1  -9   1   45.83    2.58
   1  -9  -1   46.71    1.98
  -1  -9   1   50.84    2.79
   1  -9  -1   48.70    2.36
   1  -9  -1   40.71    2.39
  -1   9   1   47.21    2.02
   1   9  -1   47.72    2.00
   1   9  -1   48.53    2.16
   1   9  -1   46.92    2.05
   1   9  -1   52.29    2.08
  -1   9   1   57.81    2.72
  -1   9   1   49.76    2.04
  -1   9   1   50.39    1.97
  -1   9   1   51.01    2.20
  -1   9   1   51.09    2.11
  -1   9   1   49.44    2.09
   1   9  -1   49.94    2.06
   1   9  -1   49.63    2.08
   1   9  -1   48.06    2.02
  -1  -9  -1   53.45    2.19
  -1  -9  -1   50.90    2.25
  -1  -9  -1   54.04    2.47
   1  -9   1   55.51    2.64
  -1  -9  -1   48.36    2.60
   1  -9   1   54.60    2.17
   1  -9   1   57.47    2.50
   1  -9   1   52.09    2.72
  -1   9  -1   55.97    2.19
  -1   9  -1   51.82    2.22
  -1   9  -1   54.03    2.26
   1   9   1   56.38    2.15
   1   9   1   56.80    2.38
   1   9   1   48.54    2.44
   1   9   1   54.13    2.26
  -1   9  -1   58.28    2.38
  -1   9  -1   55.02    2.24
  -1   9  -1   54.77    2.27
   1   9   1   52.00    2.19
   1   9   1   53.51    2.26
  -1   9  -1   54.88    2.17
  -3  -9  -1   23.39    1.69
   3  -9   1   23.85    1.10
   3  -9   1   24.58    1.68
  -3  -9  -1   23.95    1.48
  -3  -9  -1   25.52    1.35
  -3  -9  -1   20.55    1.54
   3  -9   1   26.65    1.76
  -3  -9  -1   24.45    1.26
   3  -9   1   23.85    1.21
   3  -9   1   25.45    1.40
  -3  -9  -1   24.96    1.45
   3   9   1   26.64    1.45
   3   9   1   25.29    1.28
   3   9   1   24.54    1.27
  -3   9  -1   25.31    1.20
  -3   9  -1   25.07    1.32
  -3   9  -1   26.37    1.30
  -3   9  -1   27.93    1.84
  -3   9  -1   26.79    1.43
  -3   9  -1   25.86    1.33
   3   9   1   26.62    1.21
  -3   9  -1   26.67    1.35
  -3   9  -1   26.26    1.34
   3   9   1   23.82    1.30
  -5  -9  -1   60.50    2.67
   5  -9   1   63.97    2.55
   5  -9   1   62.18    2.45
  -5  -9  -1   55.53    3.00
  -5  -9  -1   61.75    2.52
   5  -9   1   60.27    2.37
  -5  -9  -1   61.34    2.63
  -5  -9  -1   63.51    2.71
   5  -9   1   62.10    2.91
   5  -9   1   66.13    3.10
   5   9   1   61.82    2.56
   5   9   1   63.27    2.55
  -5   9  -1   57.33    2.62
   5   9   1   64.64    2.49
  -5   9  -1   62.00    2.63
  -5   9  -1   61.19    2.38
   5   9   1   63.40    2.52
   5   9   1   63.30    2.45
  -5   9  -1   62.18    2.64
  -5   9  -1   64.24    2.53
  -5   9  -1   68.04    2.51
   5   9   1   64.04    2.51
   7  -9   1   28.14    1.36
  -7  -9  -1   33.32    2.00
   7  -9   1   31.69    1.39
   7  -9   1   30.56    3.02
  -7  -9  -1   30.88    1.58
  -7  -9  -1   29.84    1.67
  -7  -9  -1   27.02    1.60
  -7   9  -1   31.19    1.62
   7   9   1   31.50    1.53
   7   9   1   31.29    1.43
   7   9   1   29.08    1.77
   7   9   1   31.07    1.47
  -7   9  -1   28.16    1.31
   7   9   1   29.58    1.56
  -7   9  -1   30.61    1.62
   9  -9   1   23.91    1.26
   9  -9   1   24.53    1.31
   9  -9   1   28.80    2.00
   9  -9   1   23.40    1.41
  -9  -9  -1   26.81    1.54
  -9  -9  -1   25.47    1.39
   9  -9   1   25.53    1.12
  -9  -9  -1   28.03    1.89
  -9  -9  -1   26.65    1.59
   9   9   1   27.10    1.41
   9   9   1   23.73    1.37
  -9   9  -1   26.62    1.44
   9   9   1   26.12    1.42
   9   9   1   24.84    1.31
  -9   9  -1   25.04    1.17
  -9   9  -1   24.47    1.48
   9   9   1   25.83    1.31
  -9   9  -1   27.16    1.53
  11  -9   1   33.97    2.26
 -11  -9  -1   35.04    2.20
  11  -9   1   26.08    1.41
  11  -9   1   28.79    1.46
  11  -9   1   31.22    1.63
 -11  -9  -1   32.19    1.81
 -11  -9  -1   28.73    1.49
 -11  -9  -1   27.69    1.91
 -11  -9  -1   28.54    1.27
 -11  -9  -1   31.64    1.74
  11  -9   1   27.84    1.56
 -11   9  -1   27.17    1.28
 -11   9  -1   28.29    1.64
  11   9   1   28.94    1.56
 -11   9  -1   28.17    1.65
  11   9   1   29.17    1.53
  11   9   1   28.53    1.52
  11   9   1   28.73    1.45
 -11   9  -1   24.72    1.51
 -13  -9  -1   13.07    1.38
  13  -9   1   16.28    1.80
 -13  -9  -1   14.28    1.00
  13  -9   1   13.68    1.09
  13  -9   1   12.65    0.96
 -13  -9  -1   12.69    1.44
 -13  -9  -1   14.56    1.37
  13  -9   1   14.40    1.24
  13   9   1   12.97    1.02
  13   9   1   12.01    0.95
 -13   9  -1   13.81    1.22
 -13   9  -1   12.83    1.30
 -13   9  -1   13.68    0.84
  13   9   1   12.98    1.11
  13   9   1   11.36    1.10
  15  -9   1   10.02    1.84
  15  -9   1   12.25    1.51
 -15  -9  -1    8.18    1.14
  15  -9   1    8.42    1.18
 -15  -9  -1    7.41    1.15
  15   9   1    7.66    0.98
  15   9   1   10.28    0.96
  15   9   1    8.29    1.05
 -15   9  -1    8.63    1.26
 -15   9  -1    8.03    1.14
  17  -9   1    9.50    1.31
 -17  -9  -1    8.11    1.24
 -17  -9  -1   11.59    1.80
  17  -9   1    9.38    1.60
 -17  -9  -1    8.30    1.27
 -17   9  -1    8.12    1.16
  17   9   1    8.48    1.20
  17   9   1    8.94    1.20
  19  -9   1    5.16    1.08
 -19  -9  -1    6.17    2.05
  19   9   1    5.02    1.04
  19   9   1    4.82    1.59
  18 -10  -1    7.85    1.42
  18  10  -1    7.69    1.08
  16 -10  -1    7.39    1.10
 -16 -10   1    9.64    1.86
 -16 -10   1    9.39    1.35
  16 -10  -1    8.17    1.52
  16  10  -1    7.50    0.90
 -16  10   1    7.03    1.12
  16  10  -1    8.46    1.15
 -14 -10   1   27.78    2.56
 -14 -10   1   24.06    1.87
  14 -10  -1   22.33    1.55
  14 -10  -1   26.83    2.17
  14 -10  -1   25.33    1.67
  14  10  -1   23.60    1.37
 -14  10   1   22.46    1.67
  14  10  -1   21.02    1.31
  14  10  -1   22.59    1.52
  12 -10  -1   21.98    1.88
 -12 -10   1   20.33    1.63
  12 -10  -1   18.40    1.48
 -12 -10   1   20.22    1.67
 -12 -10   1   25.96    2.27
 -12 -10   1   21.21    1.27
 -12  10   1   18.86    1.37
  12  10  -1   19.80    1.26
 -12  10   1   21.09    1.47
  12  10  -1   19.06    1.00
  12  10  -1   19.76    1.23
 -12  10   1   20.87    1.37
  12  10  -1   18.63    1.35
  10 -10  -1   25.31    1.66
 -10 -10   1   25.76    1.48
 -10 -10   1   26.45    1.71
 -10 -10   1   22.33    1.58
  10 -10  -1   26.52    1.96
 -10 -10   1   22.93    2.09
  10 -10  -1   24.50    1.17
  10 -10  -1   22.26    1.38
 -10 -10   1   30.78    2.32
  10  10  -1   27.46    1.40
 -10  10   1   27.56    1.35
  10  10  -1   24.07    1.45
  10  10  -1   23.84    1.56
  10  10  -1   25.30    1.30
 -10  10   1   26.22    1.49
  10  10  -1   23.93    1.10
  10  10  -1   24.22    1.42
  10  10  -1   26.71    1.39
 -10  10   1   23.87    1.44
 -10  10   1   25.15    1.50
  -8 -10   1   43.93    2.18
   8 -10  -1   44.37    2.45
   8 -10  -1   43.68    1.90
  -8 -10   1   47.05    2.75
   8 -10  -1   39.11    1.88
   8 -10  -1   41.95    2.29
  -8 -10   1   39.42    2.00
  -8 -10   1   42.08    2.63
  -8  10   1   41.03    1.98
   8  10  -1   43.26    1.95
  -8  10   1   41.36    1.63
   8  10  -1   45.61    2.13
  -8  10   1   43.41    2.08
   8  10  -1   43.49    1.63
  -8  10   1   41.48    1.98
   8  10  -1   42.08    1.99
   8  10  -1   43.96    2.01
  -8  10   1   47.91    1.93
   8  10  -1   42.53    1.87
  -6 -10   1   49.60    2.75
   6 -10  -1   41.92    1.97
   6 -10  -1   47.20    2.52
  -6 -10   1   41.99    2.66
   6 -10  -1   43.29    2.39
   6 -10  -1   46.20    2.09
  -6 -10   1   45.15    2.07
  -6 -10   1   44.87    2.12
   6  10  -1   44.69    2.07
   6  10  -1   46.57    2.06
   6  10  -1   43.86    2.00
  -6  10   1   50.71    2.01
  -6  10   1   44.42    1.75
   6  10  -1   46.05    1.96
  -6  10   1   46.39    2.16
   6  10  -1   49.85    2.22
  -6  10   1   44.34    2.05
  -6  10   1   45.19    2.06
   4 -10  -1   32.99    2.00
  -4 -10   1   30.62    1.57
   4 -10  -1   30.10    1.50
  -4 -10   1   34.92    2.27
  -4 -10   1   32.49    1.82
   4 -10  -1   33.08    2.11
   4 -10  -1   32.45    2.00
  -4 -10   1   28.38    2.18
   4  10  -1   30.23    1.58
  -4  10   1   32.33    1.38
   4  10  -1   31.30    1.57
   4  10  -1   32.20    1.62
  -4  10   1   30.39    1.59
  -4  10   1   31.89    1.62
  -4  10   1   32.09    1.70
  -4  10   1   33.63    1.60
   4  10  -1   33.34    1.70
  -4  10   1   33.28    1.54
   4  10  -1   32.74    1.60
  -4  10   1   31.33    1.47
   4  10  -1   31.32    1.50
   2 -10  -1   50.83    2.81
   2 -10  -1   58.58    2.70
  -2 -10   1   57.25    2.77
   2 -10  -1   59.70    2.81
  -2 -10   1   52.76    3.02
  -2 -10   1   54.57    2.39
  -2 -10   1   65.31    2.99
   2  10  -1   56.36    2.41
   2  10  -1   59.85    2.43
  -2  10   1   58.40    2.43
   2  10  -1   58.50    2.45
   2  10  -1   55.90    2.43
  -2  10   1   56.05    2.27
  -2  10   1   59.18    2.32
  -2  10   1   63.42    2.89
   2  10  -1   62.17    2.58
   2  10  -1   59.51    2.39
  -2  10   1   59.93    2.48
  -2  10   1   61.34    2.42
  -2  10   1   60.07    2.46
   2  10  -1   59.93    2.38
   0 -10   1   65.31    3.16
   0 -10   1   73.07    3.15
   0 -10  -1   59.19    3.12
   0 -10  -1   72.85    3.11
   0 -10   1   65.27    3.35
   0 -10   1   64.49    2.69
   0 -10  -1   67.50    3.06
   0  10   1   70.94    2.91
   0  10  -1   65.36    2.73
   0  10  -1   65.66    2.74
   0  10   1   64.52    2.69
   0  10  -1   70.36    2.70
   0  10   1   67.61    2.77
   0  10   1   71.29    2.81
   0  10   1   67.91    2.72
   0  10  -1   69.53    2.87
   0  10  -1   71.96    2.78
   0  10   1   68.58    2.62
   0  10  -1   68.51    2.69
   0  10  -1   69.22    2.76
   2 -10   1   33.55    1.63
  -2 -10  -1   33.77    2.15
   2 -10   1   35.37    2.24
   2 -10   1   38.97    2.28
  -2 -10  -1   34.55    1.95
  -2 -10  -1   37.75    2.41
   2 -10   1   38.57    1.98
   2  10   1   37.74    1.80
  -2  10  -1   36.42    1.75
  -2  10  -1   36.76    1.64
  -2  10  -1   38.02    1.87
   2  10   1   34.75    1.73
   2  10   1   39.33    1.73
   2  10   1   36.50    1.59
   2  10   1   38.94    1.89
  -2  10  -1   39.71    1.70
  -2  10  -1   38.98    1.74
   2  10   1   36.56    1.71
  -2  10  -1   36.64    1.75
  -2  10  -1   35.56    1.75
  -4 -10  -1   55.83    2.56
   4 -10   1   60.00    2.59
  -4 -10  -1   57.70    2.66
  -4 -10  -1   55.63    2.91
   4 -10   1   54.25    2.38
  -4 -10  -1   65.14    3.00
  -4 -10  -1   56.10    2.64
   4 -10   1   62.35    3.11
   4 -10   1   53.14    2.26
   4 -10   1   62.65    3.02
   4  10   1   63.85    2.44
   4  10   1   56.63    2.49
   4  10   1   62.85    2.66
   4  10   1   62.40    2.37
   4  10   1   60.78    2.54
  -4  10  -1   56.70    2.48
   4  10   1   57.57    2.50
  -4  10  -1   57.25    2.34
  -4  10  -1   59.92    2.48
  -4  10  -1   68.59    2.95
  -4  10  -1   57.73    2.51
  -4  10  -1   62.79    2.64
  -4  10  -1   64.13    2.44
  -6 -10  -1   42.27    2.07
  -6 -10  -1   42.22    2.06
   6 -10   1   40.26    1.76
  -6 -10  -1   40.49    2.38
  -6 -10  -1   40.06    2.12
   6 -10   1   43.54    2.63
   6 -10   1   41.64    1.89
  -6 -10  -1   50.82    2.57
   6  10   1   42.56    1.99
  -6  10  -1   42.95    1.94
  -6  10  -1   40.14    1.98
  -6  10  -1   43.03    1.98
   6  10   1   43.06    1.97
   6  10   1   43.82    1.95
   6  10   1   43.08    1.82
  -6  10  -1   40.00    1.75
   6  10   1   43.46    1.94
  -6  10  -1   44.04    2.09
  -6  10  -1   42.56    1.88
  -8 -10  -1   33.24    1.76
   8 -10   1   32.66    1.57
   8 -10   1   37.22    2.45
  -8 -10  -1   35.79    2.19
  -8 -10  -1   41.97    2.36
  -8 -10  -1   34.86    1.92
   8 -10   1   35.37    1.55
  -8 -10  -1   35.52    1.99
  -8  10  -1   36.62    1.72
  -8  10  -1   31.83    1.83
   8  10   1   33.62    1.67
   8  10   1   37.74    1.62
  -8  10  -1   32.98    1.50
  -8  10  -1   33.55    1.75
   8  10   1   34.50    1.74
  -8  10  -1   34.10    1.89
   8  10   1   33.51    1.70
   8  10   1   34.61    1.71
  -8  10  -1   36.33    1.66
 -10 -10  -1   22.86    1.60
  10 -10   1   20.20    1.23
  10 -10   1   21.96    1.00
 -10 -10  -1   26.54    1.68
 -10 -10  -1   21.77    1.33
 -10 -10  -1   25.19    1.80
  10 -10   1   26.44    2.19
 -10 -10  -1   27.67    2.05
 -10  10  -1   22.16    1.49
 -10  10  -1   22.70    1.45
  10  10   1   22.55    1.38
 -10  10  -1   21.87    1.18
  10  10   1   24.14    1.29
  10  10   1   23.51    1.41
  10  10   1   23.01    1.29
 -10  10  -1   19.57    1.51
  10  10   1   20.76    1.32
 -12 -10  -1   25.18    1.81
  12 -10   1   27.30    2.26
  12 -10   1   20.80    1.35
 -12 -10  -1   24.63    1.89
  12 -10   1   23.99    1.55
  12 -10   1   21.96    1.43
 -12 -10  -1   25.48    1.80
 -12 -10  -1   28.52    2.25
  12  10   1   24.68    1.48
  12  10   1   21.35    1.43
 -12  10  -1   23.85    1.20
 -12  10  -1   22.14    1.67
 -12  10  -1   22.21    1.60
  12  10   1   23.80    1.40
  12  10   1   24.73    1.36
  14 -10   1   10.98    1.07
  14 -10   1    8.96    1.25
 -14 -10  -1    8.56    1.25
  14 -10   1   10.63    1.84
 -14 -10  -1    9.96    1.51
  14  10   1   10.30    1.13
  14  10   1   10.41    1.10
  14  10   1    8.30    0.98
 -14  10  -1    7.09    1.12
 -16 -10  -1   12.60    1.88
  16 -10   1    7.54    1.65
  16 -10   1   10.56    1.43
  16  10   1    8.64    1.20
  16  10   1    7.86    1.20
  18 -10   1    4.60    1.14
  17  11  -1    3.59    0.78
  15 -11  -1    8.03    1.16
  15 -11  -1    8.71    1.63
 -15 -11   1    8.23    2.04
 -15 -11   1    6.80    1.96
 -15  11   1    6.74    1.20
  15  11  -1    6.90    1.05
  15  11  -1    8.07    1.04
 -13 -11   1    9.46    1.72
  13 -11  -1    7.95    1.15
  13 -11  -1    8.21    1.46
 -13 -11   1    6.49    1.24
 -13  11   1    8.02    1.12
  13  11  -1    7.38    0.98
  13  11  -1    7.92    1.11
  11 -11  -1   11.89    1.66
  11 -11  -1    9.13    1.22
 -11 -11   1    6.79    1.15
 -11 -11   1    9.43    1.17
 -11 -11   1    8.85    1.63
 -11  11   1   10.44    1.10
  11  11  -1    7.85    1.05
 -11  11   1    6.98    0.99
  11  11  -1    9.03    0.95
  11  11  -1    9.82    0.96
   9 -11  -1    8.68    1.55
  -9 -11   1   11.58    1.75
  -9 -11   1   10.46    1.78
   9 -11  -1    6.28    1.02
   9 -11  -1    8.13    1.22
   9 -11  -1    9.31    0.78
   9  11  -1    7.36    0.89
   9  11  -1    7.29    1.02
  -9  11   1   10.60    0.90
   9  11  -1    9.21    1.20
  -9  11   1    7.29    1.13
   9  11  -1    9.01    0.91
  -9  11   1    9.91    1.07
  -9  11   1    7.75    1.20
  -7 -11   1   16.27    1.25
  -7 -11   1   15.06    1.89
   7 -11  -1   15.46    1.08
   7 -11  -1   18.64    1.71
  -7 -11   1   21.21    1.94
   7 -11  -1   15.69    1.48
   7 -11  -1   16.52    1.14
   7  11  -1   17.26    1.07
  -7  11   1   17.99    1.12
  -7  11   1   16.77    1.24
  -7  11   1   15.70    0.86
   7  11  -1   16.88    1.22
   7  11  -1   15.72    1.12
   7  11  -1   15.62    1.22
  -7  11   1   15.26    1.32
  -7  11   1   16.34    1.23
  -5 -11   1   10.41    1.21
   5 -11  -1    9.79    1.01
   5 -11  -1    9.10    0.87
   5 -11  -1    9.76    1.25
   5 -11  -1   13.39    1.51
  -5 -11   1   10.32    1.53
  -5 -11   1    9.32    1.63
  -5  11   1    9.13    0.72
   5  11  -1   10.68    1.01
   5  11  -1   10.34    0.88
   5  11  -1    9.04    0.86
   5  11  -1   10.83    1.03
  -5  11   1   10.97    1.13
  -5  11   1   10.64    0.87
  -5  11   1    9.76    0.90
  -5  11   1   10.61    1.03
   5  11  -1   10.74    1.12
  -5  11   1   11.15    1.03
   5  11  -1   11.84    1.08
  -3 -11   1   18.42    1.90
   3 -11  -1   20.96    1.71
   3 -11  -1   21.08    1.43
  -3 -11   1   22.07    2.16
  -3 -11   1   20.99    1.64
   3 -11  -1   15.44    1.55
   3  11  -1   19.04    1.27
  -3  11   1   20.35    1.16
   3  11  -1   20.09    1.20
   3  11  -1   18.78    1.25
   3  11  -1   20.02    1.26
  -3  11   1   20.11    1.40
  -3  11   1   18.72    1.24
  -3  11   1   20.19    1.08
  -3  11   1   18.67    1.05
  -3  11   1   18.75    1.27
   3  11  -1   20.61    1.38
   3  11  -1   19.11    1.14
  -3  11   1   19.20    1.20
  -1 -11   1   15.50    1.49
  -1 -11   1   16.01    1.57
  -1 -11   1   14.54    1.72
   1 -11  -1   16.44    1.52
   1 -11  -1   12.93    1.47
  -1  11   1   13.81    1.06
   1  11  -1   15.98    1.13
   1  11  -1   15.57    1.24
  -1  11   1   12.88    1.07
  -1  11   1   15.48    0.90
   1  11  -1   14.30    1.09
  -1  11   1   14.74    0.96
  -1  11   1   15.15    1.01
   1  11  -1   14.41    0.98
  -1  11   1   14.32    1.13
   1  11  -1   16.24    1.05
   1  11  -1   15.61    1.10
   1  11  -1   15.02    1.01
  -1  11   1   16.13    1.29
  -1 -11  -1   16.18    1.44
  -1 -11  -1   14.66    1.51
  -1 -11  -1   18.17    1.44
   1 -11   1   14.59    1.66
   1 -11   1   14.62    2.02
   1 -11   1   16.67    1.39
   1  11   1   14.59    1.05
   1  11   1   17.34    1.01
  -1  11  -1   14.76    1.26
  -1  11  -1   15.98    1.15
  -1  11  -1   16.03    1.04
   1  11   1   16.35    1.29
   1  11   1   13.69    1.09
  -1  11  -1   14.84    1.05
  -1  11  -1   12.84    1.02
  -1  11  -1   15.69    1.13
   1  11   1   14.43    1.06
   1  11   1   16.26    1.19
  -1  11  -1   15.95    1.08
   1  11   1   15.76    0.90
   3 -11   1   15.81    2.70
  -3 -11  -1   14.80    1.56
   3 -11   1   13.71    1.15
  -3 -11  -1   14.24    1.31
  -3 -11  -1   16.14    1.48
  -3  11  -1   13.84    1.11
   3  11   1   13.21    1.01
   3  11   1   15.14    1.31
  -3  11  -1   14.41    0.98
   3  11   1   14.23    1.11
   3  11   1   15.67    1.14
  -3  11  -1   13.58    1.03
   3  11   1   15.69    1.08
   3  11   1   15.19    0.88
  -3  11  -1   14.47    1.29
  -3  11  -1   16.23    1.05
  -3  11  -1   13.43    1.11
   5 -11   1   28.18    2.20
   5 -11   1   21.83    1.48
   5 -11   1   20.84    1.16
  -5 -11  -1   24.89    1.81
  -5 -11  -1   22.08    1.59
  -5 -11  -1   22.28    1.50
  -5 -11  -1   24.06    1.85
  -5 -11  -1   23.69    1.56
   5  11   1   24.58    1.36
  -5  11  -1   23.70    1.36
   5  11   1   23.20    1.38
  -5  11  -1   21.94    1.20
   5  11   1   23.95    1.18
  -5  11  -1   24.59    1.43
  -5  11  -1   24.85    1.34
   5  11   1   23.20    1.39
   5  11   1   22.40    1.63
  -5  11  -1   21.87    1.54
  -5  11  -1   22.91    1.44
   5  11   1   23.31    1.44
   7 -11   1   11.54    1.80
  -7 -11  -1    8.62    1.33
  -7 -11  -1   12.32    1.55
  -7 -11  -1    9.80    1.09
   7 -11   1    9.05    0.82
  -7 -11  -1   11.29    1.47
  -7 -11  -1    8.94    1.08
  -7  11  -1    9.76    1.23
   7  11   1    9.89    0.75
   7  11   1    9.07    0.94
   7  11   1    9.31    0.92
  -7  11  -1    7.93    0.77
  -7  11  -1    8.57    1.10
   7  11   1    8.27    1.13
  -7  11  -1    8.94    0.88
  -7  11  -1    8.14    1.20
  -7  11  -1    7.98    1.04
   7  11   1    9.37    1.02
  -9 -11  -1    9.94    1.07
  -9 -11  -1   11.51    1.50
  -9 -11  -1   13.08    1.63
  -9 -11  -1   10.24    1.20
   9 -11   1   10.30    1.61
   9 -11   1   10.94    1.06
  -9 -11  -1    8.98    1.23
  -9  11  -1    9.62    1.19
  -9  11  -1    8.72    0.81
   9  11   1   10.73    1.04
  -9  11  -1    8.63    1.06
   9  11   1    8.08    0.91
  -9  11  -1    9.62    0.91
   9  11   1    9.35    0.96
   9  11   1    8.49    0.81
  -9  11  -1    9.93    1.34
   9  11   1   11.21    1.08
  11 -11   1   14.77    1.98
 -11 -11  -1   13.35    2.18
 -11 -11  -1   17.01    2.26
 -11 -11  -1   13.87    1.68
  11 -11   1   12.53    1.30
  11  11   1   13.67    1.21
  11  11   1   13.16    0.98
  11  11   1   14.81    1.25
 -11  11  -1   15.48    1.32
 -11  11  -1   12.47    1.44
  11  11   1   12.10    1.11
  13 -11   1    5.18    0.99
  13 -11   1    8.02    1.70
  13  11   1    5.00    0.85
  13  11   1    5.21    0.85
  13  11   1    7.46    0.96
  13  11   1    3.88    0.65
 -15 -11  -1    4.24    1.19
  15 -11   1    5.08    1.05
  15  11   1    5.50    0.94
  14  12  -1    8.46    1.08
  12 -12  -1    7.58    1.56
  12 -12  -1    6.32    1.00
 -12 -12   1    6.77    1.69
  12  12  -1    6.32    0.82
  12  12  -1    4.18    0.92
 -10 -12   1   10.39    1.44
  10 -12  -1   10.53    1.97
 -10 -12   1   10.64    2.41
  10 -12  -1    9.34    1.34
 -10  12   1    9.65    1.25
  10  12  -1    8.85    1.18
  10  12  -1    7.59    0.94
  10  12  -1    7.25    0.97
   8 -12  -1   13.39    1.72
   8 -12  -1   12.32    1.01
  -8 -12   1   16.74    1.98
   8 -12  -1   11.44    1.45
   8  12  -1   11.72    1.19
  -8  12   1   13.17    1.20
  -8  12   1   12.11    1.95
   8  12  -1   11.36    1.03
   6 -12  -1   13.47    1.43
  -6 -12   1   10.70    1.33
   6 -12  -1   11.72    1.09
   6 -12  -1   12.08    1.69
  -6 -12   1    9.17    1.54
  -6  12   1   10.33    1.12
  -6  12   1   10.97    0.97
   6  12  -1   11.19    0.99
   6  12  -1   12.09    1.23
  -6  12   1   11.43    0.81
   6  12  -1   11.15    1.09
  -6  12   1    9.22    1.38
  -6  12   1   12.66    1.23
  -4 -12   1    9.92    1.50
   4 -12  -1    9.17    1.49
  -4 -12   1    9.02    1.38
   4 -12  -1    9.34    1.36
  -4 -12   1   10.38    1.70
  -4  12   1    7.53    1.13
   4  12  -1    7.29    0.86
  -4  12   1   10.08    0.80
   4  12  -1    8.94    1.13
   4  12  -1    9.40    0.93
  -4  12   1    8.18    1.07
  -4  12   1   10.15    0.90
  -4  12   1    8.61    1.03
   4  12  -1    9.20    1.10
   4  12  -1    8.11    1.04
  -2 -12   1   17.82    1.69
   2 -12  -1   16.05    1.67
   2 -12  -1   15.89    1.42
   2 -12  -1   12.80    1.62
  -2 -12   1   14.98    1.92
  -2 -12   1   15.84    1.69
   2  12  -1   15.76    1.11
   2  12  -1   16.24    1.24
   2  12  -1   16.42    1.30
  -2  12   1   20.35    1.55
   2  12  -1   15.13    1.21
  -2  12   1   15.06    1.19
  -2  12   1   14.42    1.24
  -2  12   1   17.18    1.07
  -2  12   1   18.13    1.12
  -2  12   1   15.48    0.95
   0 -12   1   15.75    1.93
   0 -12  -1   18.75    1.71
   0 -12   1   18.69    1.93
   0 -12  -1   18.31    1.69
   0 -12   1   18.62    1.71
   0 -12  -1   16.02    1.73
   0  12   1   16.74    1.14
   0  12   1   18.16    1.24
   0  12   1   16.09    0.96
   0  12  -1   18.31    1.26
   0  12   1   19.12    1.14
   0  12  -1   16.03    1.26
   0  12  -1   15.46    1.28
   0  12  -1   15.91    1.12
   0  12   1   17.06    1.13
   0  12   1   21.14    1.91
   0  12  -1   17.40    1.14
   0  12   1   17.81    1.34
  -2 -12  -1   12.67    1.55
  -2 -12  -1    9.80    1.41
   2 -12   1    9.78    1.25
  -2 -12  -1   10.33    1.35
   2 -12   1   10.28    1.82
   2  12   1   11.86    0.97
   2  12   1    8.29    0.71
   2  12   1    9.68    0.98
  -2  12  -1    9.53    0.95
  -2  12  -1    9.42    0.88
  -2  12  -1    8.38    1.04
  -2  12  -1   10.37    1.16
  -2  12  -1    9.71    0.97
   2  12   1    9.93    1.03
   2  12   1    8.81    1.14
   4 -12   1   15.85    1.27
  -4 -12  -1   15.73    1.68
  -4 -12  -1   17.04    1.76
  -4 -12  -1   18.98    1.65
   4 -12   1   17.14    2.04
  -4  12  -1   14.86    1.24
  -4  12  -1   15.28    1.32
   4  12   1   15.23    1.12
   4  12   1   13.11    1.20
  -4  12  -1   15.30    1.10
  -4  12  -1   14.41    1.07
   4  12   1   15.91    1.36
   4  12   1   15.92    0.92
   4  12   1   14.14    1.17
  -6 -12  -1   10.60    1.30
   6 -12   1   13.61    1.06
   6 -12   1   14.98    1.98
  -6 -12  -1   14.06    1.64
  -6  12  -1   11.41    1.16
  -6  12  -1   15.08    1.05
   6  12   1   10.20    1.04
   6  12   1   12.08    1.31
   6  12   1   12.81    0.84
  -6  12  -1   13.00    0.96
  -6  12  -1    9.63    1.27
   6  12   1   10.40    1.11
   6  12   1    8.99    1.04
   8 -12   1   10.43    1.72
  -8 -12  -1   13.96    1.79
  -8 -12  -1   14.13    1.72
  -8 -12  -1   10.55    1.50
  -8  12  -1   11.49    1.06
  -8  12  -1    9.55    1.17
   8  12   1    8.97    1.10
  -8  12  -1   10.81    1.37
   8  12   1   10.91    1.17
  -8  12  -1   10.06    0.91
 -10 -12  -1   11.62    1.72
  10 -12   1    7.73    1.64
  10  12   1    7.00    0.94
  10  12   1    7.76    1.02
 -10  12  -1    7.16    1.05
  10  12   1    6.76    0.94
  12 -12   1    7.87    1.13
 -12 -12  -1    8.45    1.41
  12 -12   1    5.53    1.70
  12  12   1    8.25    1.17
  12  12   1    7.41    1.03
 -14 -12  -1    3.13    1.34
  11 -13  -1   10.13    1.63
 -11  13   1    7.90    1.14
  -9 -13   1   14.51    2.28
   9 -13  -1   12.13    2.21
   9 -13  -1   13.65    1.74
   9  13  -1   12.03    1.42
  -9  13   1   11.56    1.45
   7 -13  -1   20.00    2.19
  -7 -13   1   21.08    2.21
   7 -13  -1   18.83    1.96
   7  13  -1   18.38    1.27
   7  13  -1   16.84    1.45
  -7  13   1   17.18    1.46
   7  13  -1   20.37    1.54
  -5 -13   1   16.84    1.93
   5 -13  -1   15.13    1.37
   5 -13  -1   14.43    1.89
   5 -13  -1   12.89    1.75
   5  13  -1   14.14    1.36
   5  13  -1   15.16    1.23
   5  13  -1   15.65    1.82
  -5  13   1   14.91    1.34
  -3 -13   1   22.69    1.98
  -3 -13   1   19.50    1.92
   3 -13  -1   19.26    1.57
   3 -13  -1   19.81    1.93
   3 -13  -1   18.47    1.94
   3  13  -1   16.33    1.40
  -3  13   1   19.33    1.24
   3  13  -1   20.40    1.44
  -3  13   1   19.25    1.19
  -3  13   1   15.69    1.35
  -3  13   1   20.03    1.52
   1 -13  -1   23.12    2.12
  -1 -13   1   25.86    1.97
   1 -13  -1   26.61    1.86
   1 -13  -1   20.95    1.95
  -1 -13   1   23.50    2.41
  -1  13   1   22.51    1.51
   1  13  -1   23.82    1.86
  -1  13   1   23.47    1.39
   1  13  -1   25.18    1.59
  -1  13   1   24.40    1.64
   1  13  -1   26.65    1.62
  -1 -13  -1   17.57    1.97
   1 -13   1   23.26    2.25
  -1 -13  -1   18.67    1.83
  -1 -13  -1   22.98    1.82
   1 -13   1   22.26    1.75
  -1  13  -1   19.48    1.35
  -1  13  -1   20.71    1.26
  -1  13  -1   19.23    1.46
   1  13   1   19.73    1.31
   1  13   1   21.11    1.38
   1  13   1   18.91    1.58
   1  13   1   18.14    1.40
  -1  13  -1   19.02    1.80
   3 -13   1   16.55    2.17
  -3 -13  -1   19.29    1.80
  -3 -13  -1   17.41    1.73
   3 -13   1   17.55    1.50
  -3 -13  -1   16.58    1.93
  -3  13  -1   16.70    1.28
  -3  13  -1   13.61    1.38
  -3  13  -1   14.99    1.25
   3  13   1   17.50    1.22
  -3  13  -1   16.15    1.58
   3  13   1   17.55    1.34
   5 -13   1   24.88    2.45
  -5 -13  -1   26.28    2.12
  -5 -13  -1   21.17    2.12
  -5  13  -1   19.02    1.32
  -5  13  -1   20.11    2.05
  -5  13  -1   19.09    1.69
  -5  13  -1   19.14    1.72
   5  13   1   23.10    1.50
   7 -13   1   15.13    2.26
  -7 -13  -1   16.45    2.08
  -7  13  -1   18.10    2.20
   7  13   1   13.91    1.34
  -7  13  -1   13.10    1.47
  -9 -13  -1   10.39    1.69
   9 -13   1   11.70    1.97
   9  13   1   13.59    1.38
  -6 -14   1    9.27    1.86
   6 -14  -1    4.35    1.49
   6  14  -1    5.45    1.02
  -6  14   1    4.77    0.98
   4 -14  -1    7.27    1.33
   4 -14  -1    6.45    1.52
  -4 -14   1    7.65    1.54
   4  14  -1    6.87    0.99
  -4  14   1    4.36    0.94
  -2 -14   1    8.97    1.70
   2 -14  -1    7.16    1.38
   2 -14  -1    8.84    1.56
   2  14  -1    9.60    1.38
   2  14  -1    6.00    1.18
  -2  14   1    8.89    1.26
   0 -14   1    9.89    1.46
   0 -14   1    7.95    1.94
   0 -14  -1    7.68    1.46
   0 -14  -1    5.59    1.36
   0  14  -1   10.43    1.23
   0  14   1    9.22    1.09
   0  14  -1    5.55    1.14
   0  14   1    8.62    1.18
   2 -14   1    7.61    1.27
   2 -14   1    6.78    1.59
  -2 -14  -1    8.97    1.48
  -2  14  -1    6.04    1.34
  -2  14  -1    6.49    1.09
   2  14   1    7.79    0.98
   2  14   1    9.27    1.24
   4 -14   1   10.17    1.89
  -4 -14  -1   10.24    1.85
   4  14   1    9.59    1.32
   4  14   1   13.94    1.39
  24   0  -2    6.12    0.91
  24   0  -2    5.98    0.99
 -24   0   2    4.30    1.09
  24   0  -2    4.88    0.82
 -22   0   2   14.23    1.77
 -22   0   2   16.56    1.29
  22   0  -2   17.56    1.34
  22   0  -2   15.45    1.13
  22   0  -2   15.99    1.27
  20   0  -2   28.49    1.26
  20   0  -2   24.36    1.16
 -20   0   2   27.54    1.32
  20   0  -2   28.82    1.51
  20   0  -2   26.07    1.42
 -20   0   2   26.02    1.24
  20   0  -2   27.35    1.12
 -20   0   2   24.60    1.89
 -20   0   2   28.34    1.55
  20   0  -2   28.95    1.24
  18   0  -2   38.20    1.54
 -18   0   2   33.25    2.03
  18   0  -2   35.23    1.39
 -18   0   2   34.47    1.47
  18   0  -2   38.25    1.51
 -18   0   2   35.90    1.54
  18   0  -2   36.05    1.66
 -18   0   2   37.50    1.76
  18   0  -2   33.67    1.47
 -16   0   2   28.91    1.23
  16   0  -2   29.41    1.26
 -16   0   2   28.01    1.34
 -16   0   2   28.69    1.19
  16   0  -2   27.89    1.13
  16   0  -2   29.94    1.24
  16   0  -2   27.61    1.34
 -16   0   2   27.85    1.43
  16   0  -2   30.28    1.39
  16   0  -2   27.51    1.44
 -16   0   2   25.39    1.63
  16   0  -2   29.24    1.12
  14   0  -2  189.21    6.89
 -14   0   2  202.65    6.82
  14   0  -2  198.67    6.73
  14   0  -2  200.74    6.94
  14   0  -2  198.20    6.94
 -14   0   2  202.60    6.95
 -14   0   2  199.25    6.79
 -14   0   2  202.40    7.03
  14   0  -2  206.27    6.89
  14   0  -2  200.75    6.73
  14   0  -2  211.51    6.86
  14   0  -2  197.28    7.07
 -14   0   2  181.94    7.19
 -12   0   2   32.42    1.21
  12   0  -2   31.84    1.32
  12   0  -2   33.06    1.36
  12   0  -2   32.36    1.16
 -12   0   2   32.08    1.23
 -12   0   2   32.05    1.35
  12   0  -2   30.85    1.43
  12   0  -2   32.17    1.16
 -12   0   2   32.50    1.43
 -12   0   2   26.29    1.62
  12   0  -2   32.03    1.16
  12   0  -2   32.29    1.34
 -10   0   2  342.71   11.58
  10   0  -2  334.12   11.48
  10   0  -2  351.48   11.36
 -10   0   2  344.15   11.49
  10   0  -2  344.45   11.34
  10   0  -2  332.83   11.38
  10   0  -2  324.86   11.49
  10   0  -2  349.39   11.60
 -10   0   2  333.56   11.36
  10   0  -2  344.35   11.50
   8   0  -2   33.63    1.38
   8   0  -2   35.79    1.30
   8   0  -2   34.20    1.35
  -8   0   2   31.18    1.41
   8   0  -2   33.19    1.26
   8   0  -2   32.78    1.33
   8   0  -2   33.50    1.33
  -8   0   2   34.64    1.18
  -8   0   2   32.61    1.38
   6   0  -2  483.97   15.94
  -6   0   2  488.61   16.05
  -6   0   2  460.60   15.77
   6   0  -2  468.93   15.82
   6   0  -2  482.58   16.20
  -6   0   2  507.24   15.83
   6   0  -2  472.73   15.99
   6   0  -2  450.77   16.01
   6   0  -2  418.74   15.78
   4   0  -2   88.28    3.06
  -4   0   2   86.17    3.07
   4   0  -2   86.95    2.98
  -4   0   2   89.47    3.07
   4   0  -2   78.25    3.10
   4   0  -2   90.06    2.99
   4   0  -2   86.74    3.07
  -4   0   2   87.95    3.09
   4   0  -2   87.54    3.07
  -2   0   2  566.74   19.81
   2   0  -2  674.75   19.98
  -2   0   2  584.41   19.85
   2   0  -2  553.82   19.77
   2   0  -2  514.02   20.07
   2   0  -2  616.91   19.91
   2   0  -2  634.19   20.33
  -2   0   2  579.08   20.27
   0   0  -2   58.56    2.07
   0   0  -2   57.96    2.03
   0   0  -2   55.87    2.17
   0   0   2   58.41    1.97
   0   0   2   59.06    2.02
   0   0   2   59.13    2.03
   0   0  -2   57.83    2.01
   0   0  -2   58.08    1.99
   0   0   2   55.38    1.99
   0   0  -2   57.39    1.96
   0   0   2   57.43    2.02
   2   0   2  254.22    8.62
   2   0   2  272.84    8.65
  -2   0  -2  249.21    8.67
  -2   0  -2  258.43    8.78
  -2   0  -2  271.42    8.65
  -2   0  -2  247.53    8.65
  -2   0  -2  254.20    8.67
   2   0   2  253.77    8.68
  -2   0  -2  258.44    8.70
  -2   0  -2  255.23    8.63
  -4   0  -2  146.63    5.14
  -4   0  -2  154.12    5.11
   4   0   2  152.47    5.12
  -4   0  -2  149.62    5.15
   4   0   2  143.42    5.20
  -4   0  -2  149.41    5.26
   4   0   2  150.00    5.16
   4   0   2  149.65    5.13
  -4   0  -2  144.43    5.12
   4   0   2  156.12    5.44
   4   0   2  151.60    5.13
   6   0   2  258.80    8.67
   6   0   2  259.84    8.60
  -6   0  -2  254.74    8.66
  -6   0  -2  250.27    8.63
   6   0   2  255.71    8.64
  -6   0  -2  248.47    8.60
   6   0   2  260.37    8.83
  -6   0  -2  254.72    8.65
   6   0   2  255.03    8.64
   6   0   2  239.47    8.70
  -6   0  -2  260.07    8.63
  -6   0  -2  255.87    8.78
   8   0   2  223.54    7.82
  -8   0  -2  220.62    7.59
  -8   0  -2  217.98    7.52
   8   0   2  223.99    7.62
   8   0   2  224.08    7.58
  -8   0  -2  217.32    7.56
   8   0   2  226.83    7.64
  -8   0  -2  222.71    7.63
  -8   0  -2  220.12    7.76
   8   0   2  216.38    7.52
  -8   0  -2  225.93    7.60
   8   0   2  222.62    7.59
 -10   0  -2   73.29    2.89
  10   0   2   72.18    2.75
 -10   0  -2   75.31    2.76
 -10   0  -2   69.26    2.67
 -10   0  -2   73.00    2.60
  10   0   2   72.58    2.74
 -10   0  -2   73.69    2.72
  10   0   2   73.44    2.93
 -10   0  -2   73.65    2.70
  10   0   2   72.11    2.69
  10   0   2   71.77    2.70
  12   0   2   82.37    3.09
  12   0   2   83.28    3.05
  12   0   2   82.91    3.12
  12   0   2   83.40    3.04
 -12   0  -2   83.63    3.10
 -12   0  -2   82.38    3.26
 -12   0  -2   82.30    3.05
 -12   0  -2   76.11    3.02
  12   0   2   82.71    3.30
 -12   0  -2   79.85    2.89
 -12   0  -2   83.00    3.07
 -14   0  -2   20.19    1.25
  14   0   2   22.17    1.22
 -14   0  -2   20.51    1.09
  14   0   2   20.66    1.04
 -14   0  -2   21.41    1.16
 -14   0  -2   19.72    1.09
 -14   0  -2   20.41    1.08
  14   0   2   20.42    1.35
  14   0   2   21.04    1.06
  14   0   2   19.38    1.08
 -16   0  -2   72.69    2.81
  16   0   2   71.95    2.62
 -16   0  -2   72.34    2.89
 -16   0  -2   68.11    2.86
 -16   0  -2   68.44    2.83
  16   0   2   72.03    2.85
  16   0   2   73.60    3.00
  16   0   2   77.52    3.15
  16   0   2   70.08    2.77
 -16   0  -2   72.38    3.07
  16   0   2   71.50    2.80
 -18   0  -2    7.47    0.82
  18   0   2    7.54    0.52
  18   0   2    6.14    1.08
  18   0   2    6.60    0.68
  18   0   2    7.07    1.08
  18   0   2    9.30    1.05
 -18   0  -2    7.12    0.91
 -18   0  -2    7.13    0.88
 -20   0  -2   13.82    1.18
 -20   0  -2   11.99    1.09
  20   0   2   14.26    0.72
 -20   0  -2   13.34    1.28
  20   0   2   15.89    1.32
  20   0   2   13.80    1.06
  20   0   2   13.96    1.33
  22   0   2    5.94    1.01
 -22   0  -2    5.09    0.91
  22   0   2    4.69    0.97
  24   0   2    3.33    0.95
  25  -1  -2    8.96    1.32
  25  -1  -2    8.30    1.09
  25   1  -2    7.59    1.12
  25   1  -2    8.94    1.30
 -23  -1   2    2.83    0.88
  23  -1  -2    2.08    0.82
  23  -1  -2    2.16    0.74
  23   1  -2    3.26    0.75
  23   1  -2    2.21    0.72
  23   1  -2    1.90    0.54
 -23   1   2    2.35    0.70
 -21  -1   2   29.16    1.40
  21  -1  -2   31.61    1.67
 -21  -1   2   30.20    1.98
  21  -1  -2   34.34    1.44
 -21  -1   2   29.89    1.81
  21  -1  -2   25.45    1.37
 -21  -1   2   30.30    1.51
  21  -1  -2   29.12    1.32
  21  -1  -2   30.49    1.26
  21  -1  -2   33.80    1.69
 -21   1   2   27.80    2.18
  21   1  -2   27.75    1.26
  21   1  -2   33.03    1.74
 -21   1   2   29.29    1.37
 -21   1   2   30.83    1.56
  21   1  -2   32.45    1.31
  21   1  -2   29.28    1.25
  21   1  -2   31.27    1.51
 -21   1   2   30.81    1.48
  21   1  -2   32.27    1.68
 -19  -1   2    4.89    0.65
  19  -1  -2    4.38    0.68
  19  -1  -2    5.84    0.75
 -19  -1   2    5.45    0.93
  19  -1  -2    4.06    0.40
 -19  -1   2    5.08    0.83
  19  -1  -2    3.56    0.47
 -19  -1   2    4.07    0.48
  19  -1  -2    5.77    0.60
 -19   1   2    4.85    0.73
  19   1  -2    5.43    0.78
  19   1  -2    6.07    0.75
 -19   1   2    4.81    0.62
  19   1  -2    3.78    0.58
 -19   1   2    4.30    0.99
  19   1  -2    4.23    0.40
  19   1  -2    4.66    0.62
 -19   1   2    4.81    0.51
  19   1  -2    4.72    0.51
  19   1  -2    4.57    0.54
  17  -1  -2   52.48    2.13
 -17  -1   2   46.63    2.34
  17  -1  -2   52.50    1.93
  17  -1  -2   50.15    1.85
  17  -1  -2   52.86    2.04
 -17  -1   2   49.40    1.93
 -17  -1   2   50.64    1.99
 -17  -1   2   49.93    2.28
 -17  -1   2   50.26    2.12
  17  -1  -2   53.18    2.17
  17   1  -2   45.19    2.18
  17   1  -2   45.81    1.98
 -17   1   2   50.30    2.08
  17   1  -2   52.44    1.93
 -17   1   2   41.77    2.43
 -17   1   2   49.66    1.95
  17   1  -2   52.30    1.99
  17   1  -2   50.77    2.18
  17   1  -2   49.93    2.03
  17   1  -2   50.10    1.84
  17   1  -2   51.98    2.12
 -17   1   2   49.39    1.91
  15  -1  -2   29.36    1.17
  15  -1  -2   28.58    1.34
 -15  -1   2   26.86    1.50
 -15  -1   2   29.93    1.24
  15  -1  -2   25.69    1.24
 -15  -1   2   28.64    1.33
  15  -1  -2   30.27    1.29
  15  -1  -2   29.39    1.11
 -15  -1   2   28.34    1.49
 -15  -1   2   28.34    1.18
  15  -1  -2   27.97    1.36
  15  -1  -2   28.45    1.43
  15  -1  -2   23.23    1.32
 -15   1   2   23.62    1.61
  15   1  -2   27.11    1.40
  15   1  -2   28.33    1.10
 -15   1   2   27.71    1.15
  15   1  -2   27.70    1.25
  15   1  -2   27.82    1.29
  15   1  -2   31.51    1.25
  15   1  -2   29.17    1.12
  15   1  -2   29.77    1.35
 -15   1   2   28.86    1.21
 -15   1   2   29.06    1.33
  15   1  -2   28.58    1.39
 -13  -1   2   86.79    3.57
  13  -1  -2   89.37    3.20
  13  -1  -2   96.88    3.58
  13  -1  -2   98.84    3.32
  13  -1  -2   94.73    3.38
 -13  -1   2   94.66    3.44
 -13  -1   2   93.80    3.60
  13  -1  -2   93.54    3.43
  13  -1  -2   94.30    3.43
  13  -1  -2   94.22    3.26
 -13  -1   2   93.75    3.44
  13  -1  -2   97.93    3.51
 -13  -1   2   92.41    3.30
  13  -1  -2   97.98    3.25
 -13   1   2   84.66    3.71
 -13   1   2   95.27    3.31
 -13   1   2   95.51    3.28
  13   1  -2   98.36    3.37
  13   1  -2   95.88    3.44
  13   1  -2   95.37    3.22
 -13   1   2   94.71    3.44
  13   1  -2   93.71    3.23
  13   1  -2   93.11    3.54
  13   1  -2   94.78    3.38
  13   1  -2   88.64    3.43
  13   1  -2   94.42    3.49
  13   1  -2   95.68    3.25
  13   1  -2   96.33    3.24
 -11  -1   2   17.49    0.95
  11  -1  -2   18.23    0.85
  11  -1  -2   18.76    0.91
 -11  -1   2   18.37    0.77
 -11  -1   2   17.29    1.00
  11  -1  -2   19.17    0.76
  11  -1  -2   19.11    0.96
  11  -1  -2   19.79    0.79
  11  -1  -2   19.39    0.72
  11  -1  -2   19.05    0.98
 -11  -1   2   18.98    0.80
 -11  -1   2   18.36    0.88
  11  -1  -2   18.99    0.90
  11  -1  -2   18.50    0.74
 -11   1   2   19.53    0.78
  11   1  -2   18.73    0.74
  11   1  -2   19.42    0.84
  11   1  -2   18.37    0.78
  11   1  -2   19.63    0.72
  11   1  -2   18.06    0.94
 -11   1   2   16.63    1.08
  11   1  -2   18.55    0.72
 -11   1   2   20.60    0.76
  11   1  -2   19.05    0.89
  11   1  -2   18.69    0.94
  11   1  -2   18.66    0.84
  11   1  -2   16.69    0.89
   9  -1  -2  216.64    7.09
  -9  -1   2  208.61    7.14
  -9  -1   2  193.93    7.19
   9  -1  -2  215.78    7.26
   9  -1  -2  211.54    7.20
  -9  -1   2  206.93    7.03
   9  -1  -2  209.14    7.13
  -9  -1   2  213.37    7.30
  -9  -1   2  206.26    7.15
   9  -1  -2  214.10    7.00
   9  -1  -2  208.96    7.24
   9  -1  -2  209.95    7.14
   9   1  -2  215.09    6.99
  -9   1   2  216.77    7.19
   9   1  -2  208.59    7.13
   9   1  -2  211.66    7.19
  -9   1   2  214.84    7.02
  -9   1   2  181.29    7.31
   9   1  -2  217.62    6.99
   9   1  -2  196.99    7.17
   9   1  -2  216.61    7.14
   9   1  -2  212.17    7.11
  -7  -1   2  146.01    4.88
   7  -1  -2  135.00    5.03
   7  -1  -2  149.43    5.06
   7  -1  -2  144.66    5.12
   7  -1  -2  152.53    5.09
  -7  -1   2  144.60    4.96
  -7  -1   2  143.89    5.14
   7  -1  -2  145.05    4.97
   7  -1  -2  148.38    5.01
  -7  -1   2  146.49    5.02
   7   1  -2  143.38    5.04
  -7   1   2  149.66    5.03
   7   1  -2  150.15    5.00
   7   1  -2  144.96    5.03
   7   1  -2  145.33    4.97
  -7   1   2  149.89    4.87
  -7   1   2  132.58    5.14
   7   1  -2  147.17    4.96
   7   1  -2  140.48    5.10
  -7   1   2  145.75    5.07
  -7   1   2  146.53    4.97
  -5  -1   2    3.33    0.21
   5  -1  -2    2.86    0.28
  -5  -1   2    2.72    0.17
  -5  -1   2    3.38    0.17
  -5  -1   2    3.21    0.26
   5  -1  -2    3.14    0.19
   5  -1  -2    3.60    0.28
  -5  -1   2    3.59    0.18
  -5  -1   2    2.96    0.32
  -5  -1   2    3.18    0.27
   5  -1  -2    3.08    0.33
  -5  -1   2    3.08    0.30
   5   1  -2    3.29    0.27
   5   1  -2    3.35    0.27
   5   1  -2    3.45    0.30
  -5   1   2    2.96    0.30
   5   1  -2    3.32    0.22
  -5   1   2    3.51    0.27
   5   1  -2    3.11    0.26
   5   1  -2    4.04    0.26
  -5   1   2    3.70    0.18
   3  -1  -2  281.80    9.91
  -3  -1   2  315.47    9.74
  -3  -1   2  312.11    9.75
  -3  -1   2  287.51    9.90
  -3  -1   2  291.16    9.71
   3  -1  -2  267.04    9.73
   3  -1  -2  273.66    9.79
   3  -1  -2  296.43    9.78
  -3  -1   2  272.96    9.78
  -3  -1   2  314.32    9.80
  -3  -1   2  320.85    9.97
   3  -1  -2  276.88    9.76
   3  -1  -2  291.84    9.80
  -3   1   2  290.63    9.79
  -3   1   2  308.29    9.82
   3   1  -2  279.78    9.77
  -3   1   2  277.16    9.69
   3   1  -2  278.90    9.74
   3   1  -2  309.14    9.74
  -3   1   2  260.65    9.75
   3   1  -2  297.21    9.71
   3   1  -2  290.78    9.77
  -3   1   2  300.45    9.82
   3   1  -2  292.52    9.76
   3   1  -2  265.06    9.73
   3   1  -2  300.75    9.80
  -3   1   2  289.16    9.78
   3   1  -2  284.70    9.73
  -1  -1   2   20.98    0.78
  -1  -1   2   22.79    0.83
   1  -1  -2   20.44    0.85
   1  -1  -2   20.51    0.77
  -1  -1   2   20.67    0.80
   1  -1  -2   20.19    0.87
  -1  -1   2   21.26    0.77
   1  -1  -2   20.40    0.78
  -1  -1   2   20.63    0.88
   1  -1  -2   21.23    0.87
   1  -1  -2   20.48    0.79
  -1  -1   2   20.35    0.87
  -1  -1   2   21.55    0.79
   1  -1  -2   21.81    0.80
   1   1  -2   19.89    0.84
  -1   1   2   20.01    0.80
  -1   1   2   20.44    0.79
   1   1  -2   19.90    0.85
  -1   1   2   19.97    0.87
  -1   1   2   21.93    0.78
  -1   1   2   19.78    0.86
   1   1  -2   20.88    0.77
   1   1  -2   20.31    0.87
   1   1  -2   21.12    0.78
   1   1  -2   21.11    0.81
   1   1  -2   21.21    0.78
  -1  -1  -2  183.55    6.35
  -1  -1  -2  202.24    6.32
  -1  -1  -2  182.61    6.33
  -1  -1  -2  182.33    6.35
   1  -1   2  197.18    6.34
   1  -1   2  188.01    6.29
  -1  -1  -2  194.51    6.40
   1  -1   2  201.04    6.49
  -1  -1  -2  181.23    6.32
   1  -1   2  196.28    6.32
   1  -1   2  193.36    6.27
   1  -1   2  169.40    6.31
   1  -1   2  195.64    6.40
  -1   1  -2  192.18    6.32
  -1   1  -2  185.54    6.30
  -1   1  -2  190.30    6.29
  -1   1  -2  180.06    6.36
   1   1   2  177.65    6.33
   1   1   2  174.90    6.34
   1   1   2  178.14    6.35
  -1   1  -2  192.04    6.44
  -1   1  -2  192.85    6.34
   1   1   2  186.28    6.39
   1   1   2  184.17    6.40
   1   1   2  187.81    6.32
  -1   1  -2  178.00    6.32
   3  -1   2   69.09    2.39
   3  -1   2   67.37    2.41
  -3  -1  -2   70.78    2.58
  -3  -1  -2   66.50    2.44
   3  -1   2   69.71    2.42
   3  -1   2   68.66    2.61
   3  -1   2   65.87    2.48
  -3  -1  -2   69.97    2.45
  -3  -1  -2   68.09    2.47
  -3  -1  -2   68.56    2.42
   3  -1   2   70.13    2.43
  -3  -1  -2   68.25    2.42
  -3  -1  -2   67.51    2.47
   3   1   2   67.22    2.47
   3   1   2   68.65    2.45
  -3   1  -2   69.46    2.39
   3   1   2   69.35    2.49
  -3   1  -2   71.99    2.46
   3   1   2   67.75    2.45
  -3   1  -2   68.42    2.43
  -3   1  -2   70.09    2.56
   3   1   2   69.05    2.42
  -3   1  -2   68.41    2.42
   3   1   2   70.02    2.43
   5  -1   2  362.02   11.85
   5  -1   2  352.19   11.58
  -5  -1  -2  325.36   11.65
   5  -1   2  344.35   11.65
   5  -1   2  351.85   11.61
  -5  -1  -2  347.30   11.77
   5  -1   2  345.77   11.62
  -5  -1  -2  348.92   11.61
  -5  -1  -2  348.11   11.64
  -5  -1  -2  344.19   11.63
  -5  -1  -2  316.12   11.62
   5  -1   2  356.16   11.61
  -5   1  -2  354.91   11.78
   5   1   2  352.73   11.63
  -5   1  -2  356.92   11.60
   5   1   2  336.03   11.66
  -5   1  -2  339.10   11.61
   5   1   2  357.20   11.57
   5   1   2  359.78   11.66
   5   1   2  327.71   11.63
  -5   1  -2  349.56   11.59
  -5   1  -2  348.03   11.65
   5   1   2  321.57   11.63
   7  -1   2   19.95    0.84
  -7  -1  -2   20.15    0.86
  -7  -1  -2   18.02    1.10
  -7  -1  -2   19.40    0.89
   7  -1   2   18.62    0.90
  -7  -1  -2   19.86    0.92
   7  -1   2   20.11    0.85
   7  -1   2   18.82    0.88
  -7  -1  -2   19.76    0.89
  -7  -1  -2   18.05    0.85
   7  -1   2   18.93    1.07
  -7   1  -2   19.79    0.84
  -7   1  -2   18.54    0.84
   7   1   2   19.27    0.79
   7   1   2   18.15    0.90
  -7   1  -2   20.24    0.91
   7   1   2   18.75    0.91
  -7   1  -2   20.19    1.03
  -7   1  -2   19.59    0.87
   7   1   2   19.59    0.85
   7   1   2   20.41    1.04
   7   1   2   19.04    0.88
  -9  -1  -2  220.39    7.55
   9  -1   2  222.21    7.57
  -9  -1  -2  220.04    7.70
   9  -1   2  218.67    7.52
  -9  -1  -2  219.86    7.53
   9  -1   2  217.42    7.78
  -9  -1  -2  220.56    7.57
  -9  -1  -2  217.06    7.45
   9  -1   2  226.75    7.50
  -9  -1  -2  203.12    7.50
   9  -1   2  224.19    7.55
  -9   1  -2  229.01    7.74
  -9   1  -2  217.06    7.51
  -9   1  -2  209.84    7.47
   9   1   2  216.49    7.39
   9   1   2  228.47    7.55
   9   1   2  216.55    7.57
   9   1   2  211.68    7.45
  -9   1  -2  213.43    7.44
   9   1   2  222.12    7.53
  -9   1  -2  214.12    7.51
   9   1   2  223.77    7.72
   9   1   2  220.38    7.58
  -9   1  -2  225.81    7.56
  11  -1   2   44.11    1.85
  11  -1   2   45.87    2.08
  11  -1   2   45.57    1.87
 -11  -1  -2   41.12    1.80
 -11  -1  -2   47.47    1.89
 -11  -1  -2   46.19    1.83
 -11  -1  -2   45.74    1.99
 -11  -1  -2   43.99    1.71
  11  -1   2   46.69    1.79
 -11  -1  -2   45.79    1.85
  11  -1   2   45.79    1.80
 -11   1  -2   46.18    1.69
  11   1   2   44.89    1.81
  11   1   2   47.74    1.84
 -11   1  -2   44.61    1.81
  11   1   2   43.99    1.99
 -11   1  -2   46.32    1.86
  11   1   2   44.66    1.89
 -11   1  -2   45.61    2.01
 -11   1  -2   42.65    1.78
  11   1   2   46.09    1.86
 -11   1  -2   43.67    1.81
  13  -1   2   42.19    1.81
  13  -1   2   44.34    1.86
  13  -1   2   40.89    1.72
  13  -1   2   44.25    2.08
 -13  -1  -2   43.17    1.80
  13  -1   2   42.40    1.75
 -13  -1  -2   39.68    1.61
 -13  -1  -2   41.78    1.95
 -13  -1  -2   40.74    1.79
 -13  -1  -2   44.72    1.86
 -13  -1  -2   40.95    1.77
 -13   1  -2   40.05    1.74
 -13   1  -2   42.08    1.77
  13   1   2   42.74    1.76
  13   1   2   43.32    1.98
  13   1   2   41.33    1.81
 -13   1  -2   41.72    1.59
 -13   1  -2   41.75    1.77
  13   1   2   46.04    1.80
  13   1   2   42.85    1.59
 -13   1  -2   44.08    2.00
  13   1   2   43.12    1.87
 -13   1  -2   43.83    1.84
 -15  -1  -2   15.90    1.04
  15  -1   2   15.49    0.88
  15  -1   2   16.46    0.90
 -15  -1  -2   15.58    1.11
  15  -1   2   17.29    1.28
 -15  -1  -2   15.16    0.97
  15  -1   2   17.83    1.13
 -15  -1  -2   16.15    0.80
  15  -1   2   15.81    0.96
 -15  -1  -2   14.59    0.99
 -15   1  -2   15.80    0.97
 -15   1  -2   16.98    0.99
  15   1   2   14.92    0.94
  15   1   2   16.52    1.11
 -15   1  -2   15.91    1.02
  15   1   2   16.64    0.72
 -15   1  -2   14.68    0.96
  15   1   2   14.45    0.94
 -15   1  -2   16.78    0.73
  15   1   2   16.87    1.16
  15   1   2   16.09    0.91
 -15   1  -2   16.58    1.19
 -15   1  -2   13.81    0.74
 -17  -1  -2   27.54    1.60
  17  -1   2   28.34    1.36
  17  -1   2   30.11    1.61
  17  -1   2   30.95    1.85
 -17  -1  -2   27.10    1.43
  17  -1   2   28.21    1.50
 -17  -1  -2   28.22    1.63
 -17  -1  -2   30.10    1.53
  17  -1   2   27.55    1.38
  17   1   2   27.15    1.44
  17   1   2   29.04    1.37
 -17   1  -2   28.33    1.38
  17   1   2   29.56    1.67
 -17   1  -2   28.73    1.51
 -17   1  -2   27.60    1.42
  17   1   2   31.06    1.62
 -17   1  -2   26.78    1.48
  19  -1   2    4.59    0.93
  19  -1   2    2.24    0.49
 -19  -1  -2    4.05    0.70
  19  -1   2    2.93    0.60
  19  -1   2    5.94    0.89
 -19  -1  -2    2.84    0.59
 -19  -1  -2    2.96    0.77
  19   1   2    4.29    0.91
  19   1   2    3.65    0.53
 -19   1  -2    3.54    0.64
 -19   1  -2    3.96    0.70
 -19   1  -2    3.89    0.70
  19   1   2    3.33    0.58
  19   1   2    3.92    0.76
  21  -1   2    7.18    0.64
 -21  -1  -2    6.21    1.12
 -21  -1  -2    7.64    1.14
  21  -1   2    8.35    1.25
  21  -1   2    7.59    0.92
  21  -1   2    8.30    1.27
  21   1   2    7.25    1.36
  21   1   2    6.81    0.90
 -21   1  -2    6.65    0.90
  21   1   2    8.21    1.25
  23  -1   2    7.76    1.19
  23  -1   2    6.71    1.14
  23   1   2    5.95    1.02
  23   1   2    5.42    1.00
  26  -2  -2    3.97    0.86
  24  -2  -2    3.55    0.87
 -24  -2   2    6.09    1.20
  24  -2  -2    3.52    0.78
  24   2  -2    4.18    0.80
  24   2  -2    3.35    0.81
  22  -2  -2   10.62    0.84
 -22  -2   2    8.11    1.38
  22  -2  -2   10.66    1.13
  22  -2  -2   10.72    1.15
  22   2  -2    8.15    1.16
  22   2  -2    9.51    1.05
  22   2  -2   10.89    0.84
  20  -2  -2   10.75    0.64
  20  -2  -2   10.62    1.09
  20  -2  -2   11.87    0.69
 -20  -2   2   11.81    1.23
 -20  -2   2   10.54    0.82
  20  -2  -2   13.22    0.88
  20  -2  -2   11.05    0.75
 -20  -2   2   11.29    0.93
 -20  -2   2   12.24    1.32
  20  -2  -2   11.75    1.09
 -20   2   2   12.55    0.87
 -20   2   2   12.28    0.76
  20   2  -2   13.20    1.07
 -20   2   2   11.92    0.87
  20   2  -2   11.36    1.11
  20   2  -2   11.80    0.65
  20   2  -2   12.91    0.83
  20   2  -2   12.16    0.65
  18  -2  -2   16.74    0.88
 -18  -2   2   17.71    1.03
 -18  -2   2   17.72    0.96
  18  -2  -2   16.59    0.81
  18  -2  -2   17.65    0.85
  18  -2  -2   18.39    1.20
  18  -2  -2   18.28    1.15
 -18  -2   2   17.32    1.24
  18  -2  -2   18.83    1.04
 -18  -2   2   18.78    1.40
 -18   2   2   15.40    1.54
  18   2  -2   19.31    0.97
 -18   2   2   18.12    0.97
  18   2  -2   17.44    1.01
  18   2  -2   17.96    0.84
  18   2  -2   19.06    0.97
  18   2  -2   18.80    1.20
 -18   2   2   17.58    0.89
 -18   2   2   18.29    1.31
  18   2  -2   18.82    0.82
  16  -2  -2   19.64    1.20
  16  -2  -2   21.01    1.22
  16  -2  -2   20.48    0.90
 -16  -2   2   20.55    1.39
  16  -2  -2   22.23    1.12
  16  -2  -2   20.70    1.14
 -16  -2   2   19.55    1.03
 -16  -2   2   21.33    1.00
 -16  -2   2   20.35    1.22
  16  -2  -2   20.58    0.88
  16  -2  -2   19.93    0.93
 -16  -2   2   19.37    1.09
 -16   2   2   21.10    1.03
 -16   2   2   20.96    0.93
  16   2  -2   20.49    1.19
  16   2  -2   22.25    1.16
 -16   2   2   21.42    1.00
  16   2  -2   20.26    0.87
  16   2  -2   21.64    1.03
  16   2  -2   22.23    1.00
 -16   2   2   18.79    1.47
  16   2  -2   19.45    1.01
  16   2  -2   21.51    0.92
  16   2  -2   18.68    1.17
 -14  -2   2  115.74    4.18
  14  -2  -2  116.44    3.97
  14  -2  -2  114.71    3.92
  14  -2  -2  121.88    4.21
  14  -2  -2  115.46    4.29
  14  -2  -2  116.48    4.18
  14  -2  -2  113.83    3.96
  14  -2  -2  117.03    4.28
  14  -2  -2  111.94    4.03
 -14  -2   2  114.99    4.04
 -14  -2   2  116.46    4.44
 -14  -2   2  110.04    4.20
  14  -2  -2  113.18    4.00
 -14  -2   2  117.75    4.08
  14   2  -2  115.96    4.23
 -14   2   2  100.43    4.49
  14   2  -2  118.41    4.17
  14   2  -2  114.56    4.04
  14   2  -2  116.47    3.97
  14   2  -2  110.64    4.26
 -14   2   2  115.18    4.03
  14   2  -2  114.23    3.96
 -14   2   2  116.97    4.00
  14   2  -2  117.87    4.02
 -12  -2   2    1.41    0.32
 -12  -2   2    2.30    0.37
  12  -2  -2    1.53    0.39
 -12  -2   2    2.17    0.31
 -12  -2   2    0.95    0.43
  12  -2  -2    1.81    0.21
  12  -2  -2    2.52    0.43
 -12  -2   2    1.73    0.28
  12  -2  -2    1.48    0.20
  12  -2  -2    1.81    0.35
  12  -2  -2    1.27    0.26
  12  -2  -2    1.77    0.28
  12  -2  -2    1.41    0.24
  12   2  -2    1.20    0.29
 -12   2   2    1.32    0.23
  12   2  -2    1.61    0.37
 -12   2   2    1.80    0.23
 -12   2   2    1.56    0.31
  12   2  -2    1.69    0.20
  12   2  -2    1.73    0.27
 -12   2   2    1.13    0.46
 -12   2   2    1.11    0.23
  12   2  -2    1.43    0.23
  12   2  -2    1.47    0.35
  12   2  -2    1.43    0.28
  12   2  -2    1.53    0.34
 -10  -2   2  183.31    6.55
 -10  -2   2  193.01    6.50
 -10  -2   2  195.06    6.59
  10  -2  -2  191.87    6.53
  10  -2  -2  192.50    6.73
  10  -2  -2  193.34    6.44
 -10  -2   2  187.37    6.55
  10  -2  -2  191.87    6.46
  10  -2  -2  202.06    6.72
 -10  -2   2  190.90    6.52
  10  -2  -2  193.44    6.53
 -10  -2   2  193.46    6.81
  10  -2  -2  188.65    6.58
  10   2  -2  185.68    6.45
  10   2  -2  192.43    6.58
  10   2  -2  185.22    6.64
 -10   2   2  192.63    6.51
  10   2  -2  193.57    6.66
  10   2  -2  198.00    6.51
  10   2  -2  197.21    6.45
  10   2  -2  188.93    6.46
 -10   2   2  162.85    6.82
 -10   2   2  195.51    6.47
  10   2  -2  193.94    6.64
  10   2  -2  204.40    6.54
   8  -2  -2    9.53    0.64
  -8  -2   2    9.27    0.44
  -8  -2   2    8.85    0.67
  -8  -2   2    8.33    0.51
   8  -2  -2    9.48    0.59
  -8  -2   2    8.38    0.49
  -8  -2   2    8.60    0.46
   8  -2  -2    9.48    0.52
   8  -2  -2    8.59    0.48
   8  -2  -2    8.62    0.38
   8   2  -2    9.46    0.43
  -8   2   2    8.69    0.44
   8   2  -2    8.88    0.40
   8   2  -2    7.96    0.54
  -8   2   2    8.76    0.48
   8   2  -2    9.56    0.53
   8   2  -2    8.90    0.48
   8   2  -2    8.76    0.54
   8   2  -2    8.69    0.40
   8   2  -2    8.93    0.40
   8   2  -2    8.69    0.57
  -8   2   2    9.37    0.42
  -6  -2   2  198.49    6.60
  -6  -2   2  183.37    6.49
  -6  -2   2  188.43    6.51
   6  -2  -2  196.04    6.57
  -6  -2   2  201.19    6.61
   6  -2  -2  199.72    6.67
  -6  -2   2  190.11    6.72
   6  -2  -2  200.17    6.60
   6  -2  -2  180.60    6.70
  -6  -2   2  191.75    6.52
  -6   2   2  194.50    6.66
   6   2  -2  192.48    6.52
  -6   2   2  196.89    6.52
   6   2  -2  197.12    6.47
   6   2  -2  203.80    6.47
  -6   2   2  179.43    6.75
  -6   2   2  202.60    6.49
   6   2  -2  199.33    6.47
   6   2  -2  194.88    6.56
   6   2  -2  190.24    6.48
   6   2  -2  195.27    6.59
   6   2  -2  195.02    6.56
  -6   2   2  189.02    6.58
   6   2  -2  168.75    6.49
   6   2  -2  191.83    6.64
   4  -2  -2    3.41    0.17
   4  -2  -2    3.20    0.31
   4  -2  -2    3.07    0.19
  -4  -2   2    3.32    0.23
   4  -2  -2    3.27    0.32
  -4  -2   2    3.10    0.40
  -4  -2   2    2.87    0.27
  -4  -2   2    3.32    0.21
  -4  -2   2    3.29    0.31
  -4  -2   2    3.15    0.22
   4  -2  -2    3.83    0.33
   4  -2  -2    3.15    0.37
  -4  -2   2    3.08    0.21
   4   2  -2    3.91    0.25
   4   2  -2    3.14    0.20
   4   2  -2    3.78    0.21
   4   2  -2    3.36    0.21
   4   2  -2    3.24    0.23
  -4   2   2    3.05    0.22
   4   2  -2    2.74    0.27
   4   2  -2    3.11    0.21
  -4   2   2    2.95    0.17
  -4   2   2    3.05    0.23
  -4   2   2    3.00    0.29
   4   2  -2    3.32    0.29
   4   2  -2    2.91    0.20
  -4   2   2    3.26    0.37
   4   2  -2    2.98    0.31
   4   2  -2    3.02    0.27
  -2  -2   2  340.15   10.91
  -2  -2   2  339.65   10.81
   2  -2  -2  336.02   10.81
  -2  -2   2  319.48   10.79
  -2  -2   2  348.58   10.92
   2  -2  -2  301.64   10.76
   2  -2  -2  323.91   10.91
   2  -2  -2  331.73   10.88
   2  -2  -2  325.02   10.89
   2  -2  -2  340.24   10.79
  -2  -2   2  284.56   10.83
   2  -2  -2  328.77   10.88
   2  -2  -2  302.73   10.88
  -2  -2   2  354.51   10.77
  -2  -2   2  296.82   10.91
  -2  -2   2  285.60   10.78
  -2   2   2  295.22   10.78
   2   2  -2  324.08   10.86
  -2   2   2  297.01   10.72
   2   2  -2  335.66   10.90
   2   2  -2  325.16   10.81
   2   2  -2  321.56   10.75
   2   2  -2  328.52   10.78
   2   2  -2  341.31   10.81
   2   2  -2  329.38   10.81
  -2   2   2  310.40   10.79
  -2   2   2  317.73   10.88
   2   2  -2  345.18   10.84
  -2   2   2  295.77   10.77
  -2   2   2  329.71   10.89
   0  -2   2   13.56    0.65
   0  -2   2   13.45    0.67
   0  -2  -2   14.39    0.68
   0  -2  -2   14.96    0.65
   0  -2   2   14.09    0.59
   0  -2   2   13.19    0.59
   0  -2   2   13.63    0.72
   0  -2  -2   13.55    0.61
   0  -2   2   14.29    0.67
   0  -2   2   13.90    0.50
   0  -2  -2   12.75    0.60
   0  -2  -2   14.03    0.52
   0  -2  -2   13.74    0.60
   0  -2   2   13.48    0.57
   0   2   2   13.73    0.62
   0   2   2   13.74    0.61
   0   2  -2   13.10    0.57
   0   2  -2   13.34    0.60
   0   2   2   13.65    0.68
   0   2   2   13.24    0.62
   0   2  -2   13.75    0.59
   0   2   2   13.72    0.57
   0   2  -2   14.04    0.60
   0   2   2   13.18    0.51
   0   2  -2   13.98    0.64
   0   2  -2   13.96    0.66
   2  -2   2  129.17    4.29
   2  -2   2  127.37    4.24
   2  -2   2  129.67    4.32
  -2  -2  -2  124.17    4.37
   2  -2   2  125.98    4.49
  -2  -2  -2  124.21    4.30
  -2  -2  -2  118.83    4.33
  -2  -2  -2  126.16    4.29
   2  -2   2  123.01    4.28
  -2  -2  -2  125.57    4.33
   2  -2   2  128.41    4.28
  -2  -2  -2  123.11    4.32
  -2   2  -2  126.57    4.32
   2   2   2  116.08    4.34
   2   2   2  126.33    4.30
  -2   2  -2  125.00    4.29
   2   2   2  126.11    4.39
  -2   2  -2  126.51    4.41
  -2   2  -2  125.96    4.29
  -2   2  -2  127.18    4.28
   2   2   2  127.30    4.34
  -2   2  -2  127.47    4.32
   2   2   2  128.36    4.25
   2   2   2  117.71    4.33
  -4  -2  -2   91.41    3.35
  -4  -2  -2   93.27    3.41
  -4  -2  -2   96.29    3.51
  -4  -2  -2   96.73    3.32
   4  -2   2   99.61    3.34
   4  -2   2  102.40    3.37
  -4  -2  -2   99.25    3.41
   4  -2   2   97.57    3.39
  -4  -2  -2   96.08    3.41
  -4  -2  -2   91.77    3.38
   4  -2   2   93.43    3.58
   4  -2   2   98.33    3.34
   4  -2   2   97.97    3.33
  -4   2  -2   92.24    3.33
  -4   2  -2   96.94    3.51
   4   2   2   94.20    3.30
   4   2   2   97.52    3.41
   4   2   2   98.92    3.44
   4   2   2   93.57    3.41
   4   2   2   95.50    3.33
  -4   2  -2   93.75    3.36
  -4   2  -2   99.16    3.36
  -4   2  -2   95.85    3.31
  -4   2  -2   93.26    3.33
   4   2   2   96.47    3.38
  -4   2  -2   99.48    3.40
   4   2   2   93.46    3.38
   6  -2   2   63.13    2.33
   6  -2   2   57.51    2.51
  -6  -2  -2   57.24    2.29
  -6  -2  -2   62.12    2.20
  -6  -2  -2   62.08    2.34
   6  -2   2   62.82    2.29
  -6  -2  -2   62.26    2.33
   6  -2   2   66.46    2.27
  -6  -2  -2   62.73    2.34
  -6  -2  -2   61.80    2.36
  -6  -2  -2   63.06    2.44
   6  -2   2   61.84    2.28
   6  -2   2   62.32    2.27
   6   2   2   63.96    2.19
  -6   2  -2   63.02    2.33
   6   2   2   64.82    2.32
  -6   2  -2   61.22    2.23
   6   2   2   60.48    2.34
   6   2   2   63.15    2.34
  -6   2  -2   63.43    2.30
  -6   2  -2   64.62    2.27
   6   2   2   64.24    2.35
   6   2   2   65.65    2.34
  -6   2  -2   63.88    2.26
  -6   2  -2   67.48    2.49
  -8  -2  -2   66.79    2.68
  -8  -2  -2   65.47    2.55
   8  -2   2   68.50    2.51
   8  -2   2   71.15    2.54
  -8  -2  -2   67.09    2.60
   8  -2   2   68.09    2.79
   8  -2   2   69.47    2.48
   8  -2   2   69.71    2.50
  -8  -2  -2   66.27    2.56
  -8  -2  -2   63.02    2.52
   8  -2   2   67.45    2.55
   8   2   2   69.81    2.36
  -8   2  -2   70.11    2.71
  -8   2  -2   67.16    2.49
   8   2   2   71.69    2.57
  -8   2  -2   69.64    2.52
   8   2   2   68.61    2.54
  -8   2  -2   72.15    2.73
  -8   2  -2   67.74    2.48
   8   2   2   69.90    2.53
   8   2   2   69.70    2.59
   8   2   2   65.52    2.56
 -10  -2  -2   51.04    2.04
 -10  -2  -2   54.37    2.09
  10  -2   2   51.17    2.04
 -10  -2  -2   50.53    2.14
 -10  -2  -2   46.93    2.00
  10  -2   2   49.43    2.26
  10  -2   2   49.64    1.97
  10  -2   2   52.10    1.97
  10  -2   2   50.59    2.02
 -10  -2  -2   49.63    2.01
  10  -2   2   52.60    1.95
 -10   2  -2   53.30    2.04
 -10   2  -2   50.94    1.97
 -10   2  -2   50.32    1.98
  10   2   2   51.58    1.94
  10   2   2   50.41    1.99
  10   2   2   55.87    2.06
  10   2   2   49.72    2.04
  10   2   2   49.54    2.06
 -10   2  -2   49.72    1.94
 -10   2  -2   51.11    2.19
  12  -2   2   51.30    2.06
  12  -2   2   53.69    2.14
  12  -2   2   56.74    2.09
  12  -2   2   52.35    2.13
 -12  -2  -2   48.73    2.18
  12  -2   2   54.07    2.41
 -12  -2  -2   55.40    2.19
  12  -2   2   50.39    2.01
 -12  -2  -2   50.38    2.23
 -12  -2  -2   53.40    2.12
 -12   2  -2   55.39    2.34
  12   2   2   50.54    2.07
  12   2   2   51.54    1.98
 -12   2  -2   55.16    1.98
  12   2   2   56.69    2.15
 -12   2  -2   50.52    2.04
  12   2   2   50.52    2.24
 -12   2  -2   54.70    2.14
  12   2   2   50.89    2.12
 -12   2  -2   51.54    2.07
  12   2   2   50.40    2.16
 -12   2  -2   51.82    2.07
 -12   2  -2   51.66    1.95
  14  -2   2    4.38    0.53
  14  -2   2    4.00    0.47
  14  -2   2    4.37    0.62
 -14  -2  -2    5.75    0.58
  14  -2   2    4.48    0.61
  14  -2   2    3.99    0.50
  14  -2   2    4.52    0.85
 -14  -2  -2    5.36    0.64
 -14  -2  -2    4.50    0.68
 -14  -2  -2    3.98    0.61
 -14   2  -2    4.36    0.58
 -14   2  -2    5.05    0.42
 -14   2  -2    4.69    0.58
  14   2   2    5.76    0.72
  14   2   2    4.43    0.60
 -14   2  -2    4.85    0.43
 -14   2  -2    4.82    0.84
  14   2   2    4.92    0.73
  14   2   2    5.43    0.63
 -14   2  -2    4.86    0.57
  14   2   2    4.19    0.53
 -14   2  -2    4.46    0.71
  16  -2   2   43.10    1.87
 -16  -2  -2   45.81    1.98
  16  -2   2   48.77    2.39
 -16  -2  -2   44.29    2.11
  16  -2   2   46.14    1.99
 -16  -2  -2   47.82    2.08
  16  -2   2   43.41    1.84
  16  -2   2   48.11    2.08
 -16  -2  -2   38.53    1.75
 -16   2  -2   44.05    1.68
 -16   2  -2   45.98    1.94
  16   2   2   44.81    1.90
  16   2   2   43.93    1.97
 -16   2  -2   44.71    1.77
  16   2   2   43.75    2.12
  16   2   2   47.09    2.09
 -16   2  -2   45.99    2.02
 -16   2  -2   42.68    1.92
  18  -2   2    4.68    0.67
  18  -2   2    4.26    0.64
 -18  -2  -2    4.64    0.90
 -18  -2  -2    4.51    0.76
  18  -2   2    6.38    1.24
 -18  -2  -2    4.75    0.69
 -18  -2  -2    4.66    0.72
  18  -2   2    4.09    0.73
 -18   2  -2    5.23    0.68
  18   2   2    5.20    0.81
 -18   2  -2    5.34    0.73
 -18   2  -2    3.82    0.55
  18   2   2    5.63    1.11
  18   2   2    4.72    0.64
  18   2   2    4.28    0.62
 -18   2  -2    4.32    0.69
  18   2   2    5.27    0.80
  20  -2   2   10.35    1.17
  20  -2   2    7.85    0.93
 -20  -2  -2    7.88    1.28
 -20  -2  -2    9.43    1.11
 -20   2  -2    7.13    1.04
  20   2   2    8.56    0.89
  20   2   2    9.70    1.13
 -20   2  -2    8.35    1.04
  20   2   2    8.30    1.14
  22  -2   2    3.47    0.95
  22  -2   2    4.12    0.98
 -22  -2  -2    2.28    1.25
 -22  -2  -2    2.40    0.86
  22   2   2    2.97    0.86
  22   2   2    3.34    0.88
 -22   2  -2    3.63    0.84
  24  -2   2    3.64    1.10
  25  -3  -2    6.14    1.02
 -25  -3   2   10.06    2.44
  25   3  -2    5.86    0.93
  23  -3  -2    2.27    0.83
  23  -3  -2    2.35    0.83
 -23  -3   2    3.36    1.12
  23   3  -2    2.25    0.68
  23   3  -2    2.75    0.81
 -21  -3   2   35.51    2.29
  21  -3  -2   30.71    1.42
 -21  -3   2   35.26    1.75
  21  -3  -2   35.05    1.84
  21  -3  -2   35.97    1.97
  21   3  -2   36.68    1.86
  21   3  -2   36.84    1.80
 -21   3   2   35.78    1.65
  21   3  -2   35.13    1.51
  21   3  -2   33.60    1.41
 -19  -3   2   15.12    0.94
  19  -3  -2   14.48    0.75
 -19  -3   2   15.57    1.53
 -19  -3   2   15.60    1.04
  19  -3  -2   15.06    0.74
  19  -3  -2   15.82    1.00
  19  -3  -2   14.04    1.46
  19  -3  -2   15.61    1.16
  19  -3  -2   13.20    1.01
 -19   3   2   14.69    0.85
  19   3  -2   14.16    0.79
  19   3  -2   16.61    1.17
  19   3  -2   14.54    0.67
 -19   3   2   14.65    1.15
  19   3  -2   16.01    1.12
  19   3  -2   15.33    0.82
  19   3  -2   14.91    0.74
 -17  -3   2   46.54    1.88
  17  -3  -2   44.39    1.95
  17  -3  -2   42.45    1.67
 -17  -3   2   43.32    2.30
  17  -3  -2   46.20    2.11
 -17  -3   2   40.94    1.85
 -17  -3   2   43.09    1.94
 -17  -3   2   43.85    1.80
  17  -3  -2   41.04    1.72
  17   3  -2   42.12    1.68
  17   3  -2   44.39    1.83
 -17   3   2   41.94    2.40
 -17   3   2   43.06    1.78
  17   3  -2   43.63    1.61
  17   3  -2   44.83    1.93
 -17   3   2   43.48    1.72
  17   3  -2   45.36    2.00
  17   3  -2   43.28    1.61
  17   3  -2   43.99    1.66
  17   3  -2   42.59    1.97
  15  -3  -2   31.66    1.22
  15  -3  -2   33.78    1.66
 -15  -3   2   31.05    1.47
 -15  -3   2   34.15    1.45
 -15  -3   2   32.70    1.90
  15  -3  -2   31.31    1.33
  15  -3  -2   30.87    1.27
  15  -3  -2   33.13    1.50
 -15  -3   2   31.95    1.38
 -15  -3   2   31.03    1.39
  15  -3  -2   31.06    1.56
  15  -3  -2   32.42    1.29
 -15   3   2   32.50    1.37
  15   3  -2   32.21    1.28
 -15   3   2   32.73    1.91
  15   3  -2   32.94    1.56
 -15   3   2   32.99    1.32
  15   3  -2   33.24    1.29
 -15   3   2   32.81    1.24
  15   3  -2   33.06    1.26
  15   3  -2   31.56    1.29
  15   3  -2   32.90    1.29
  15   3  -2   32.99    1.49
  13  -3  -2  151.40    5.13
 -13  -3   2  148.22    5.29
  13  -3  -2  155.96    5.42
 -13  -3   2  152.31    5.20
 -13  -3   2  150.86    5.24
  13  -3  -2  152.75    5.47
  13  -3  -2  145.47    5.03
 -13  -3   2  141.00    5.14
  13  -3  -2  146.97    5.15
  13  -3  -2  147.05    5.11
  13  -3  -2  148.92    5.27
  13  -3  -2  147.02    5.17
 -13  -3   2  148.31    5.63
  13   3  -2  148.78    5.10
  13   3  -2  151.51    5.27
 -13   3   2  152.19    5.17
 -13   3   2  146.51    5.12
  13   3  -2  150.04    5.36
  13   3  -2  150.54    5.16
 -13   3   2  150.84    5.13
  13   3  -2  147.60    5.10
 -13   3   2  135.94    5.64
  13   3  -2  158.09    5.24
  13   3  -2  145.87    5.11
  11  -3  -2   63.53    2.29
  11  -3  -2   65.66    2.18
 -11  -3   2   64.45    2.35
  11  -3  -2   65.24    2.52
  11  -3  -2   61.03    2.35
 -11  -3   2   63.43    2.42
 -11  -3   2   63.06    2.71
  11  -3  -2   66.52    2.35
  11  -3  -2   64.67    2.29
 -11  -3   2   62.91    2.34
  11  -3  -2   65.48    2.60
  11  -3  -2   62.25    2.40
 -11  -3   2   67.12    2.39
 -11   3   2   56.30    2.70
 -11   3   2   63.49    2.33
  11   3  -2   63.93    2.27
 -11   3   2   63.74    2.32
  11   3  -2   65.00    2.47
  11   3  -2   65.78    2.34
  11   3  -2   63.11    2.39
  11   3  -2   58.12    2.45
  11   3  -2   63.81    2.29
  11   3  -2   63.44    2.28
 -11   3   2   65.45    2.29
  11   3  -2   65.03    2.20
   9  -3  -2  201.65    7.06
  -9  -3   2  203.49    7.25
   9  -3  -2  201.36    7.15
   9  -3  -2  210.23    6.89
   9  -3  -2  200.14    6.89
  -9  -3   2  205.79    6.93
  -9  -3   2  211.78    7.04
  -9  -3   2  206.11    6.94
   9  -3  -2  198.80    6.97
  -9  -3   2  198.06    6.90
   9   3  -2  199.41    6.88
   9   3  -2  203.53    6.98
  -9   3   2  205.93    6.90
  -9   3   2  206.14    6.86
   9   3  -2  189.92    7.02
  -9   3   2  200.29    7.08
   9   3  -2  208.07    6.90
   9   3  -2  201.99    6.85
  -9   3   2  191.88    6.93
   9   3  -2  205.46    6.84
  -9   3   2  182.76    7.22
   9   3  -2  209.38    6.92
   9   3  -2  208.91    7.01
   9   3  -2  210.55    6.94
   7  -3  -2  193.74    6.49
   7  -3  -2  189.15    6.54
  -7  -3   2  185.65    6.54
   7  -3  -2  201.96    6.76
  -7  -3   2  184.74    6.79
  -7  -3   2  183.76    6.51
   7  -3  -2  180.29    6.74
  -7  -3   2  198.17    6.63
  -7  -3   2  190.88    6.54
   7  -3  -2  195.43    6.67
  -7  -3   2  193.04    6.58
   7   3  -2  182.06    6.64
  -7   3   2  192.28    6.68
   7   3  -2  187.34    6.53
  -7   3   2  197.61    6.51
   7   3  -2  212.48    6.57
   7   3  -2  193.10    6.52
  -7   3   2  196.17    6.54
   7   3  -2  198.40    6.61
   7   3  -2  193.64    6.49
  -7   3   2  168.76    6.79
   7   3  -2  191.01    6.52
   7   3  -2  203.08    6.58
  -7   3   2  192.95    6.61
   7   3  -2  190.61    6.50
  -5  -3   2   55.33    1.92
  -5  -3   2   50.15    1.95
  -5  -3   2   51.33    1.87
   5  -3  -2   53.43    1.84
  -5  -3   2   50.15    1.96
   5  -3  -2   54.13    2.02
   5  -3  -2   49.03    2.08
  -5  -3   2   49.26    2.08
   5   3  -2   52.25    1.94
   5   3  -2   50.82    1.88
  -5   3   2   51.91    1.87
   5   3  -2   54.39    1.95
   5   3  -2   52.48    1.87
  -5   3   2   53.40    2.01
   5   3  -2   51.85    1.86
  -5   3   2   56.71    1.91
   5   3  -2   51.40    1.85
   5   3  -2   50.17    1.79
  -5   3   2   51.87    2.02
   5   3  -2   51.07    1.84
   3  -3  -2  366.54   11.73
   3  -3  -2  356.52   11.74
   3  -3  -2  325.34   11.91
  -3  -3   2  331.14   11.82
   3  -3  -2  352.47   11.89
  -3  -3   2  374.58   11.72
  -3  -3   2  347.16   11.76
  -3  -3   2  311.42   11.74
  -3  -3   2  324.57   11.66
   3  -3  -2  346.66   11.84
  -3  -3   2  368.01   11.75
  -3  -3   2  356.85   11.90
   3  -3  -2  354.73   11.72
   3  -3  -2  355.14   11.73
  -3   3   2  340.31   11.73
   3   3  -2  363.53   11.71
   3   3  -2  349.98   11.79
  -3   3   2  364.52   11.86
   3   3  -2  352.89   11.82
   3   3  -2  335.01   11.71
   3   3  -2  364.53   11.71
  -3   3   2  360.35   11.80
  -3   3   2  356.02   11.88
   3   3  -2  354.39   11.87
   3   3  -2  358.15   11.78
  -3   3   2  347.61   11.75
   3   3  -2  370.56   11.74
  -3   3   2  306.96   11.66
   3   3  -2  347.88   11.75
   1  -3  -2  149.66    5.32
  -1  -3   2  156.65    5.28
  -1  -3   2  163.16    5.38
  -1  -3   2  160.90    5.39
  -1  -3   2  152.72    5.27
   1  -3  -2  161.81    5.41
  -1  -3   2  159.59    5.35
  -1  -3   2  161.02    5.38
   1  -3  -2  156.28    5.37
  -1  -3   2  159.75    5.49
   1  -3  -2  158.18    5.30
   1  -3  -2  154.57    5.49
  -1  -3   2  158.31    5.48
   1  -3  -2  152.94    5.39
   1  -3  -2  156.26    5.47
   1   3  -2  160.06    5.40
  -1   3   2  153.12    5.40
  -1   3   2  150.07    5.38
   1   3  -2  161.00    5.35
  -1   3   2  161.24    5.32
   1   3  -2  149.72    5.41
   1   3  -2  154.31    5.42
   1   3  -2  160.70    5.38
  -1   3   2  161.25    5.30
  -1   3   2  160.13    5.52
  -1  -3  -2  299.79   10.04
   1  -3   2  297.55   10.19
   1  -3   2  303.86   10.02
  -1  -3  -2  272.39   10.03
  -1  -3  -2  289.09    9.94
  -1  -3  -2  278.32   10.01
   1  -3   2  310.53   10.06
   1  -3   2  300.46   10.00
   1  -3   2  312.44    9.99
  -1  -3  -2  295.02    9.98
   1  -3   2  288.78    9.98
  -1  -3  -2  290.87   10.03
  -1  -3  -2  284.72   10.10
  -1   3  -2  296.61   10.02
   1   3   2  289.64   10.03
  -1   3  -2  301.66    9.99
  -1   3  -2  302.80   10.08
  -1   3  -2  318.89   10.24
  -1   3  -2  300.33   10.02
  -1   3  -2  305.57   10.02
   1   3   2  285.28   10.02
   1   3   2  309.44   10.00
   1   3   2  301.00    9.93
   1   3   2  307.89   10.16
   1   3   2  278.55   10.04
   3  -3   2   52.30    2.26
  -3  -3  -2   54.75    2.09
  -3  -3  -2   54.20    2.14
   3  -3   2   56.37    1.99
  -3  -3  -2   56.39    2.12
   3  -3   2   57.64    2.03
  -3  -3  -2   55.80    2.02
  -3  -3  -2   49.96    2.11
   3  -3   2   58.37    2.09
   3  -3   2   59.10    2.05
  -3  -3  -2   53.17    2.05
  -3  -3  -2   55.33    2.04
   3  -3   2   55.13    2.06
   3  -3   2   58.11    2.05
   3   3   2   56.71    2.08
  -3   3  -2   54.10    2.08
  -3   3  -2   57.56    2.04
  -3   3  -2   57.41    2.05
  -3   3  -2   56.36    2.04
   3   3   2   59.14    2.02
   3   3   2   58.11    2.09
  -3   3  -2   57.88    2.18
   3   3   2   57.57    2.12
   3   3   2   57.86    2.19
  -5  -3  -2  363.82   12.05
   5  -3   2  371.95   11.98
   5  -3   2  349.19   11.93
  -5  -3  -2  337.76   11.90
   5  -3   2  369.19   12.02
   5  -3   2  337.60   12.24
  -5  -3  -2  337.72   12.04
  -5  -3  -2  351.72   12.00
  -5  -3  -2  338.66   12.01
  -5  -3  -2  348.50   12.05
   5  -3   2  368.18   11.97
   5   3   2  369.85   12.05
  -5   3  -2  366.45   11.95
   5   3   2  353.26   11.97
   5   3   2  345.37   12.04
  -5   3  -2  354.51   12.02
   5   3   2  364.16   12.09
  -5   3  -2  354.65   11.98
   5   3   2  367.32   12.04
  -5   3  -2  358.86   11.97
  -5   3  -2  348.66   11.96
  -5   3  -2  372.53   12.16
   5   3   2  347.35   12.01
  -7  -3  -2   21.11    1.09
   7  -3   2   22.20    0.95
  -7  -3  -2   20.39    0.81
   7  -3   2   23.35    0.92
  -7  -3  -2   19.42    0.99
   7  -3   2   20.47    1.20
   7  -3   2   21.10    0.95
   7  -3   2   22.49    1.00
  -7  -3  -2   19.09    0.97
  -7  -3  -2   21.03    1.01
  -7  -3  -2   21.13    1.02
  -7  -3  -2   21.58    1.06
   7  -3   2   21.26    0.95
  -7   3  -2   21.83    1.12
   7   3   2   20.95    1.01
   7   3   2   20.26    0.96
   7   3   2   23.32    1.04
  -7   3  -2   21.66    0.96
  -7   3  -2   21.44    0.92
  -7   3  -2   22.29    1.01
   7   3   2   21.37    0.99
   7   3   2   20.47    1.02
  -7   3  -2   21.28    0.85
   7   3   2   22.64    1.03
  -9  -3  -2  233.28    8.09
  -9  -3  -2  235.86    8.03
   9  -3   2  241.56    7.92
   9  -3   2  227.23    7.97
   9  -3   2  241.74    7.88
  -9  -3  -2  232.20    8.01
   9  -3   2  229.21    7.92
  -9  -3  -2  218.83    8.11
   9  -3   2  230.47    8.27
  -9  -3  -2  214.92    7.95
   9  -3   2  233.16    7.93
  -9  -3  -2  225.85    7.97
  -9   3  -2  238.16    8.17
   9   3   2  225.16    7.97
  -9   3  -2  230.84    7.97
   9   3   2  254.19    8.03
   9   3   2  230.71    7.95
  -9   3  -2  226.64    7.87
   9   3   2  233.66    7.95
   9   3   2  227.11    7.99
  -9   3  -2  225.78    7.92
  -9   3  -2  213.71    7.75
   9   3   2  232.62    8.01
  -9   3  -2  239.60    7.92
  11  -3   2   40.97    1.61
 -11  -3  -2   39.08    1.73
  11  -3   2   36.88    1.63
 -11  -3  -2   35.53    1.58
 -11  -3  -2   37.41    1.74
  11  -3   2   39.25    1.59
  11  -3   2   36.65    1.63
  11  -3   2   39.52    1.53
 -11  -3  -2   38.16    1.66
 -11  -3  -2   38.93    1.66
  11   3   2   38.96    1.73
 -11   3  -2   38.21    1.60
 -11   3  -2   40.30    1.56
 -11   3  -2   39.83    1.84
 -11   3  -2   38.24    1.39
  11   3   2   37.00    1.60
  11   3   2   37.89    1.65
  11   3   2   39.87    1.67
  11   3   2   37.81    1.65
  11   3   2   33.87    1.84
 -11   3  -2   37.77    1.55
 -11   3  -2   38.26    1.65
  13  -3   2   54.50    2.21
  13  -3   2   56.99    2.62
  13  -3   2   54.90    2.28
  13  -3   2   58.66    2.31
 -13  -3  -2   53.72    2.20
 -13  -3  -2   55.14    2.28
 -13  -3  -2   53.81    2.37
 -13  -3  -2   56.53    2.31
  13  -3   2   56.95    2.22
  13  -3   2   59.25    2.18
  13   3   2   60.79    2.33
  13   3   2   56.36    2.29
  13   3   2   56.39    2.23
 -13   3  -2   54.47    2.20
 -13   3  -2   57.04    2.50
  13   3   2   55.02    2.30
 -13   3  -2   55.95    2.23
 -13   3  -2   60.47    2.16
 -13   3  -2   49.52    2.54
  13   3   2   54.48    2.27
  13   3   2   56.27    2.34
 -15  -3  -2   28.24    1.38
  15  -3   2   34.89    2.11
 -15  -3  -2   28.54    1.58
  15  -3   2   31.92    1.36
 -15  -3  -2   32.49    1.63
  15  -3   2   29.34    1.50
  15  -3   2   32.21    1.59
  15  -3   2   30.34    1.42
 -15  -3  -2   30.32    1.51
 -15   3  -2   28.98    1.42
 -15   3  -2   32.22    1.54
  15   3   2   31.11    1.60
 -15   3  -2   30.61    1.46
  15   3   2   30.27    1.43
 -15   3  -2   32.15    1.34
  15   3   2   31.20    1.57
  15   3   2   30.49    1.30
 -15   3  -2   31.19    1.37
  15   3   2   30.50    1.51
 -17  -3  -2   23.38    1.32
 -17  -3  -2   29.53    1.83
 -17  -3  -2   27.87    1.61
  17  -3   2   28.22    1.32
  17  -3   2   27.74    1.47
 -17  -3  -2   29.02    1.51
  17  -3   2   32.16    1.63
  17  -3   2   27.10    1.36
 -17  -3  -2   29.98    1.63
  17  -3   2   32.57    1.94
  17   3   2   30.03    1.60
 -17   3  -2   29.33    1.20
  17   3   2   28.29    1.39
 -17   3  -2   27.38    1.16
 -17   3  -2   29.29    1.45
 -17   3  -2   26.38    1.41
  17   3   2   28.74    1.59
 -17   3  -2   30.64    1.56
  17   3   2   27.25    1.46
  19  -3   2    5.29    0.72
 -19  -3  -2    4.27    0.62
 -19  -3  -2    5.85    0.80
  19  -3   2    4.91    0.83
 -19  -3  -2    4.58    0.83
 -19  -3  -2    5.81    1.42
 -19  -3  -2    6.10    0.86
  19  -3   2    4.86    1.00
  19  -3   2    5.05    0.64
 -19   3  -2    4.65    1.32
  19   3   2    4.84    0.68
 -19   3  -2    7.14    0.96
 -19   3  -2    7.16    0.92
  19   3   2    5.34    0.74
  19   3   2    4.32    0.75
  19   3   2    5.08    0.81
  21  -3   2    7.12    1.00
  21  -3   2    7.96    1.12
  21  -3   2    9.72    1.48
 -21  -3  -2    8.34    1.50
 -21  -3  -2    8.94    1.10
 -21   3  -2    7.39    1.16
  21   3   2   10.19    1.27
  21   3   2    5.49    0.91
 -23  -3  -2    5.97    1.30
  23  -3   2    9.23    1.61
  23  -3   2    6.13    1.21
  23   3   2    4.99    1.07
  24  -4  -2    5.40    1.04
  24  -4  -2    4.74    0.96
 -24  -4   2    4.84    1.38
  24   4  -2    2.28    0.91
  24   4  -2    4.02    0.75
  22  -4  -2   10.97    1.24
  22  -4  -2    9.43    1.28
 -22  -4   2   12.31    1.73
  22   4  -2   10.58    1.28
  22   4  -2   10.88    1.07
  20  -4  -2   10.34    0.76
 -20  -4   2   10.23    1.04
  20  -4  -2   10.46    0.68
  20  -4  -2   12.25    1.24
 -20  -4   2   11.42    1.08
  20  -4  -2   11.21    1.07
 -20  -4   2   12.22    1.57
 -20   4   2   10.42    0.91
 -20   4   2   11.11    0.90
  20   4  -2   10.10    0.75
  20   4  -2   10.34    0.98
  20   4  -2    9.03    1.11
  20   4  -2    9.80    0.68
  18  -4  -2   19.87    0.93
  18  -4  -2   19.77    1.26
  18  -4  -2   19.48    0.82
 -18  -4   2   19.74    1.10
  18  -4  -2   22.81    1.48
  18  -4  -2   17.19    0.99
 -18  -4   2   19.62    1.96
 -18  -4   2   20.48    1.20
  18   4  -2   17.87    0.92
 -18   4   2   19.69    1.08
  18   4  -2   18.17    1.28
  18   4  -2   19.36    0.88
  18   4  -2   20.65    1.22
 -18   4   2   20.03    1.01
  18   4  -2   19.65    0.91
  16  -4  -2   35.97    1.74
  16  -4  -2   35.93    1.58
 -16  -4   2   38.46    1.67
 -16  -4   2   34.87    1.66
  16  -4  -2   37.87    1.42
  16  -4  -2   40.07    1.94
  16  -4  -2   35.66    1.32
  16  -4  -2   35.19    1.46
 -16  -4   2   39.04    2.21
  16  -4  -2   32.08    1.50
 -16  -4   2   36.56    1.60
 -16   4   2   36.40    1.56
 -16   4   2   35.82    1.49
  16   4  -2   37.48    1.48
  16   4  -2   30.02    1.89
 -16   4   2   39.29    2.21
  16   4  -2   36.00    1.66
 -16   4   2   35.64    1.42
  16   4  -2   35.32    1.46
  16   4  -2   36.70    1.44
  14  -4  -2  106.01    3.65
 -14  -4   2  103.40    3.72
 -14  -4   2  106.89    4.31
  14  -4  -2  106.03    3.79
  14  -4  -2  105.55    3.69
  14  -4  -2  102.56    3.89
  14  -4  -2   97.78    3.51
  14  -4  -2   96.79    3.66
  14  -4  -2   99.88    3.77
  14  -4  -2  106.47    4.01
 -14  -4   2  100.69    3.79
 -14  -4   2  107.19    3.78
  14   4  -2  101.59    3.60
 -14   4   2  103.54    3.62
  14   4  -2   86.74    3.80
  14   4  -2  101.10    3.65
  14   4  -2   96.80    3.83
 -14   4   2  102.04    3.67
  14   4  -2  102.32    3.82
 -14   4   2   99.34    3.62
 -14   4   2  105.80    4.26
  12  -4  -2    5.05    0.36
 -12  -4   2    4.82    0.56
  12  -4  -2    4.52    0.52
  12  -4  -2    5.16    0.58
  12  -4  -2    5.38    0.58
  12  -4  -2    5.82    0.73
  12  -4  -2    4.35    0.48
 -12  -4   2    5.74    0.94
 -12  -4   2    4.73    0.53
 -12  -4   2    5.36    0.57
  12  -4  -2    5.38    0.45
 -12  -4   2    4.63    0.46
 -12   4   2    5.10    0.79
  12   4  -2    4.76    0.53
 -12   4   2    5.13    0.47
  12   4  -2    5.99    0.63
  12   4  -2    4.74    0.46
  12   4  -2    5.02    0.39
 -12   4   2    4.21    0.42
  12   4  -2    4.63    0.39
 -12   4   2    5.13    0.49
  10  -4  -2  187.10    6.42
  10  -4  -2  175.98    6.17
 -10  -4   2  181.17    6.27
 -10  -4   2  191.68    6.40
  10  -4  -2  172.48    6.33
 -10  -4   2  186.28    6.32
  10  -4  -2  179.77    6.53
 -10  -4   2  176.88    6.70
 -10  -4   2  178.52    6.24
 -10  -4   2  178.14    6.30
  10  -4  -2  189.38    6.22
  10   4  -2  186.27    6.28
  10   4  -2  179.18    6.20
  10   4  -2  184.75    6.35
 -10   4   2  182.34    6.25
  10   4  -2  187.90    6.28
 -10   4   2  169.19    6.62
 -10   4   2  175.67    6.30
  -8  -4   2   42.01    2.01
   8  -4  -2   44.19    1.95
  -8  -4   2   45.18    1.78
   8  -4  -2   45.99    1.82
  -8  -4   2   42.27    1.72
  -8  -4   2   43.56    1.72
   8  -4  -2   40.40    1.90
   8  -4  -2   44.89    1.63
   8   4  -2   45.43    1.72
   8   4  -2   43.37    1.66
   8   4  -2   41.65    1.79
  -8   4   2   43.37    1.82
  -8   4   2   45.24    1.70
  -8   4   2   43.69    1.82
   8   4  -2   44.80    1.65
   8   4  -2   43.51    1.75
   8   4  -2   45.09    1.63
   8   4  -2   43.83    1.70
   8   4  -2   45.00    1.67
  -8   4   2   39.19    1.95
  -6  -4   2  184.47    6.91
  -6  -4   2  190.25    6.81
   6  -4  -2  188.93    6.95
  -6  -4   2  201.29    6.87
  -6  -4   2  197.95    7.14
  -6  -4   2  201.37    6.90
   6  -4  -2  199.33    7.09
   6  -4  -2  204.33    6.96
   6  -4  -2  205.62    6.77
   6   4  -2  204.75    6.81
  -6   4   2  203.37    6.81
   6   4  -2  205.01    6.89
   6   4  -2  207.87    6.89
  -6   4   2  189.65    7.10
   6   4  -2  204.60    6.79
   6   4  -2  201.58    6.79
  -6   4   2  200.60    6.87
   6   4  -2  196.21    6.75
  -6   4   2  208.09    6.83
  -6   4   2  201.01    6.97
   6   4  -2  187.52    6.92
   6   4  -2  204.69    6.85
   6   4  -2  208.32    6.82
  -6   4   2  201.81    6.84
  -4  -4   2   44.40    1.69
  -4  -4   2   44.73    1.67
   4  -4  -2   42.36    1.84
   4  -4  -2   49.50    1.65
  -4  -4   2   43.66    1.92
   4  -4  -2   46.44    1.94
  -4  -4   2   44.81    1.76
  -4  -4   2   43.39    1.80
  -4   4   2   45.15    1.94
   4   4  -2   46.57    1.73
   4   4  -2   46.97    1.71
   4   4  -2   46.14    1.70
  -4   4   2   45.86    1.71
   4   4  -2   44.32    1.74
   4   4  -2   44.95    1.61
  -4   4   2   45.72    1.57
   4   4  -2   42.89    1.79
   4   4  -2   46.42    1.78
  -4   4   2   45.56    1.82
   4   4  -2   46.65    1.65
  -4   4   2   46.44    1.66
   4   4  -2   47.50    1.69
   4   4  -2   44.64    1.77
  -4   4   2   46.08    1.74
   2  -4  -2  276.99    9.95
  -2  -4   2  283.33    9.79
  -2  -4   2  282.86    9.68
   2  -4  -2  301.23    9.72
   2  -4  -2  290.45    9.85
  -2  -4   2  287.55    9.91
  -2  -4   2  287.38    9.77
  -2  -4   2  289.63    9.84
  -2  -4   2  300.77    9.74
   2  -4  -2  291.45    9.78
   2  -4  -2  277.19    9.74
   2  -4  -2  294.64    9.79
   2  -4  -2  282.54    9.91
   2   4  -2  280.33    9.71
   2   4  -2  276.56    9.80
  -2   4   2  279.99    9.98
   2   4  -2  282.02    9.76
   2   4  -2  297.84    9.73
  -2   4   2  290.26    9.67
  -2   4   2  275.75    9.78
  -2   4   2  285.85    9.76
   2   4  -2  299.50    9.74
  -2   4   2  295.36    9.85
  -2   4   2  308.82    9.70
   2   4  -2  280.36    9.78
   2   4  -2  310.61    9.85
   2   4  -2  271.47    9.73
   2   4  -2  299.35    9.78
   0  -4   2    4.89    0.39
   0  -4   2    4.74    0.30
   0  -4  -2    5.51    0.43
   0  -4  -2    4.91    0.41
   0  -4  -2    5.26    0.39
   0  -4  -2    5.33    0.48
   0  -4   2    4.91    0.49
   0  -4   2    4.45    0.48
   0  -4   2    5.74    0.38
   0  -4  -2    5.20    0.38
   0  -4   2    4.93    0.40
   0  -4   2    5.18    0.35
   0   4   2    5.02    0.41
   0   4  -2    5.12    0.38
   0   4  -2    5.00    0.37
   0   4  -2    5.08    0.39
   0   4   2    4.83    0.38
   0   4  -2    5.59    0.39
   0   4   2    4.72    0.33
   0   4  -2    5.56    0.45
   0   4   2    5.30    0.45
   0   4   2    4.69    0.40
   0   4   2    5.45    0.36
   0   4   2    4.70    0.49
   0   4  -2    4.70    0.37
   2  -4   2  190.63    6.27
  -2  -4  -2  188.07    6.32
  -2  -4  -2  175.38    6.28
  -2  -4  -2  180.46    6.22
   2  -4   2  185.26    6.30
   2  -4   2  171.12    6.48
  -2  -4  -2  170.20    6.39
  -2  -4  -2  175.52    6.29
   2  -4   2  186.06    6.29
   2  -4   2  192.40    6.26
   2  -4   2  180.43    6.23
  -2  -4  -2  177.13    6.33
   2   4   2  195.02    6.46
  -2   4  -2  188.96    6.36
   2   4   2  190.44    6.47
   2   4   2  188.03    6.30
  -2   4  -2  182.20    6.27
  -2   4  -2  179.48    6.25
   2   4   2  181.36    6.31
  -2   4  -2  173.52    6.25
  -2   4  -2  194.87    6.36
  -2   4  -2  181.96    6.26
  -2   4  -2  182.35    6.30
   2   4   2  185.94    6.30
   2   4   2  177.43    6.20
   2   4   2  178.67    6.32
  -4  -4  -2  150.95    5.53
  -4  -4  -2  147.82    5.37
   4  -4   2  159.20    5.45
  -4  -4  -2  158.03    5.48
   4  -4   2  156.23    5.40
  -4  -4  -2  158.61    5.51
   4  -4   2  164.60    5.41
   4  -4   2  146.73    5.37
   4  -4   2  156.96    5.49
   4  -4   2  146.83    5.68
  -4  -4  -2  149.91    5.39
  -4  -4  -2  150.76    5.45
  -4   4  -2  166.88    5.50
  -4   4  -2  158.54    5.38
   4   4   2  167.63    5.49
  -4   4  -2  157.44    5.45
  -4   4  -2  158.31    5.41
   4   4   2  159.46    5.38
   4   4   2  152.24    5.47
   4   4   2  159.44    5.45
   4   4   2  155.91    5.47
  -4   4  -2  164.27    5.57
   4   4   2  160.51    5.59
  -4   4  -2  148.09    5.35
  -6  -4  -2   69.65    2.63
  -6  -4  -2   67.94    2.61
   6  -4   2   72.25    2.53
   6  -4   2   71.24    2.47
   6  -4   2   68.09    2.57
   6  -4   2   65.67    2.48
  -6  -4  -2   66.45    2.43
  -6  -4  -2   65.25    2.63
   6  -4   2   70.84    2.53
   6  -4   2   62.24    2.81
  -6  -4  -2   67.09    2.59
   6   4   2   67.85    2.60
   6   4   2   67.13    2.60
   6   4   2   70.83    2.67
  -6   4  -2   70.76    2.54
   6   4   2   71.95    2.62
  -6   4  -2   70.41    2.71
  -6   4  -2   67.42    2.53
   6   4   2   68.26    2.51
  -6   4  -2   73.20    2.60
  -6   4  -2   65.00    2.41
  -6   4  -2   68.56    2.48
  -6   4  -2   69.88    2.58
   6   4   2   70.42    2.57
   8  -4   2   67.07    2.42
   8  -4   2   64.65    2.48
  -8  -4  -2   66.73    2.55
   8  -4   2   65.11    2.36
  -8  -4  -2   64.11    2.51
   8  -4   2   65.57    2.47
   8  -4   2   62.11    2.76
  -8  -4  -2   59.96    2.49
   8  -4   2   65.38    2.42
  -8  -4  -2   62.24    2.49
  -8  -4  -2   64.10    2.57
   8   4   2   63.40    2.43
  -8   4  -2   63.39    2.42
  -8   4  -2   61.06    2.25
  -8   4  -2   68.29    2.64
  -8   4  -2   65.07    2.49
  -8   4  -2   63.57    2.37
   8   4   2   68.93    2.55
   8   4   2   61.24    2.49
   8   4   2   64.27    2.51
  -8   4  -2   68.56    2.48
   8   4   2   66.62    2.47
 -10  -4  -2   76.89    3.05
  10  -4   2   78.74    2.83
  10  -4   2   79.80    2.91
  10  -4   2   79.90    2.90
 -10  -4  -2   75.79    2.98
 -10  -4  -2   74.65    2.99
  10  -4   2   78.50    3.31
 -10  -4  -2   72.50    2.95
  10  -4   2   77.40    2.92
  10  -4   2   74.62    2.95
 -10  -4  -2   78.37    3.04
 -10   4  -2   83.43    2.94
  10   4   2   82.00    3.01
  10   4   2   75.66    3.00
  10   4   2   81.25    2.98
 -10   4  -2   76.16    2.85
 -10   4  -2   78.09    2.91
  10   4   2   78.79    2.95
  10   4   2   76.12    2.93
  10   4   2   78.93    2.99
 -10   4  -2   77.60    2.97
 -10   4  -2   83.46    3.17
 -12  -4  -2   58.20    2.39
  12  -4   2   62.18    2.78
  12  -4   2   59.43    2.24
  12  -4   2   56.47    2.31
 -12  -4  -2   55.96    2.45
 -12  -4  -2   59.60    2.58
  12  -4   2   58.20    2.39
  12  -4   2   59.92    2.38
 -12  -4  -2   57.02    2.41
  12  -4   2   61.21    2.33
 -12  -4  -2   58.50    2.41
  12   4   2   59.93    2.40
 -12   4  -2   62.16    2.33
  12   4   2   60.07    2.39
 -12   4  -2   59.43    2.41
  12   4   2   59.83    2.33
 -12   4  -2   62.89    2.61
  12   4   2   59.40    2.36
 -12   4  -2   57.25    2.26
  12   4   2   58.19    2.44
  12   4   2   64.37    2.44
 -12   4  -2   56.62    2.33
 -14  -4  -2    7.80    0.80
  14  -4   2    7.63    0.85
 -14  -4  -2    7.51    0.74
  14  -4   2    6.85    0.63
 -14  -4  -2    7.68    0.80
 -14  -4  -2    7.62    0.91
  14  -4   2    7.44    0.58
 -14   4  -2    8.01    0.69
 -14   4  -2    7.08    0.71
  14   4   2    7.32    0.75
  14   4   2    6.84    0.84
  14   4   2    7.91    0.68
  14   4   2    7.55    0.92
  14   4   2    8.30    0.63
 -14   4  -2    7.16    0.78
 -14   4  -2    7.77    0.79
 -16  -4  -2   41.31    1.96
  16  -4   2   41.11    2.29
 -16  -4  -2   32.94    1.71
 -16  -4  -2   37.40    1.87
  16  -4   2   38.67    1.88
 -16  -4  -2   40.84    1.87
  16  -4   2   38.60    1.80
  16  -4   2   37.36    1.69
  16  -4   2   39.35    1.62
 -16   4  -2   36.55    1.69
 -16   4  -2   38.38    1.79
  16   4   2   37.16    1.71
 -16   4  -2   39.51    1.85
 -16   4  -2   40.60    1.66
  16   4   2   37.50    1.90
  16   4   2   40.29    1.88
  16   4   2   37.89    1.60
  16   4   2   36.99    1.78
  18  -4   2    6.96    0.74
 -18  -4  -2    7.83    1.38
  18  -4   2    6.43    0.64
  18  -4   2    8.38    0.87
 -18  -4  -2    6.30    1.01
  18  -4   2    6.64    1.23
  18  -4   2    7.72    1.12
 -18  -4  -2    6.58    0.87
 -18  -4  -2    5.55    0.74
 -18  -4  -2    8.48    1.08
  18   4   2    7.02    1.04
  18   4   2    7.62    0.86
 -18   4  -2    6.96    0.56
  18   4   2    9.06    0.78
 -18   4  -2    6.53    0.86
 -18   4  -2    6.95    0.94
  18   4   2    6.82    0.88
 -18   4  -2    7.54    0.91
  20  -4   2    9.25    1.26
 -20  -4  -2    8.53    1.30
 -20  -4  -2    9.58    1.51
  20  -4   2    7.00    0.94
  20  -4   2    9.64    1.44
 -20   4  -2    7.29    1.07
  20   4   2    8.76    0.98
  20   4   2    8.50    1.20
  20   4   2    8.59    1.16
 -20   4  -2    9.28    1.17
  22  -4   2    2.65    1.05
  22  -4   2    3.03    0.96
 -22  -4  -2    2.26    1.09
 -22  -4  -2    4.46    1.29
 -22   4  -2    2.12    0.93
  22   4   2    2.93    0.85
  22   4   2    2.91    0.86
 -25  -5   2    5.23    1.63
  25  -5  -2    4.49    1.14
 -23  -5   2    0.69    1.21
  23  -5  -2    1.66    0.80
  23  -5  -2    1.06    0.83
  23   5  -2    1.25    0.82
  23   5  -2    1.53    0.66
  21  -5  -2   18.26    1.41
  21  -5  -2   18.24    1.57
 -21  -5   2   17.53    1.94
  21   5  -2   16.67    1.42
  21   5  -2   16.91    1.25
 -19  -5   2    6.57    0.98
  19  -5  -2    4.67    0.54
  19  -5  -2    7.01    0.98
  19  -5  -2    6.52    1.14
 -19  -5   2    6.39    1.25
 -19  -5   2    5.89    0.80
  19   5  -2    5.85    0.87
 -19   5   2    5.06    0.67
  19   5  -2    7.50    0.90
 -19   5   2    4.58    0.65
  19   5  -2    5.61    0.62
  19   5  -2    5.87    0.53
  19   5  -2    5.88    0.53
 -17  -5   2   16.87    1.17
  17  -5  -2   18.37    0.86
  17  -5  -2   18.36    1.40
 -17  -5   2   17.51    1.78
  17  -5  -2   17.04    1.18
  17  -5  -2   16.20    0.93
 -17  -5   2   19.42    1.13
  17   5  -2   17.14    0.89
 -17   5   2   17.29    0.91
 -17   5   2   18.29    1.07
  17   5  -2   16.93    1.20
  17   5  -2   18.31    0.92
  17   5  -2   17.96    0.86
  15  -5  -2   13.95    1.23
 -15  -5   2   14.93    1.54
 -15  -5   2   16.01    1.02
  15  -5  -2   13.38    0.77
 -15  -5   2   13.69    0.94
  15  -5  -2   13.79    0.78
  15  -5  -2   13.02    0.82
  15  -5  -2   13.90    1.00
 -15  -5   2   13.82    0.97
  15   5  -2   15.06    0.77
  15   5  -2   14.21    0.95
  15   5  -2   13.58    0.73
 -15   5   2   13.55    0.82
  15   5  -2   15.45    1.18
  15   5  -2   13.49    0.79
 -15   5   2   14.08    0.88
  13  -5  -2   55.04    2.40
  13  -5  -2   52.09    2.13
 -13  -5   2   49.45    2.11
  13  -5  -2   52.72    2.07
  13  -5  -2   50.76    1.84
 -13  -5   2   49.17    1.95
  13  -5  -2   49.90    2.19
 -13  -5   2   51.35    2.68
  13  -5  -2   53.65    2.01
 -13  -5   2   53.15    2.15
  13   5  -2   50.06    1.97
  13   5  -2   52.59    2.17
  13   5  -2   51.36    2.08
 -13   5   2   50.44    2.06
  13   5  -2   46.19    2.03
 -13   5   2   52.33    2.06
 -13   5   2   52.96    2.53
  13   5  -2   51.82    2.04
 -11  -5   2   15.80    1.32
 -11  -5   2   14.94    0.88
 -11  -5   2   15.45    0.93
 -11  -5   2   15.04    0.93
 -11  -5   2   14.46    0.92
  11  -5  -2   14.94    0.92
  11  -5  -2   15.32    0.70
  11  -5  -2   16.34    0.78
  11  -5  -2   14.98    0.90
 -11   5   2   15.67    0.81
  11   5  -2   15.67    0.94
 -11   5   2   15.58    0.90
  11   5  -2   15.77    0.85
  11   5  -2   15.76    0.77
  11   5  -2   13.87    0.83
  11   5  -2   16.25    0.76
 -11   5   2   14.93    0.84
 -11   5   2   16.79    1.19
  -9  -5   2   71.67    2.73
  -9  -5   2   73.63    2.80
   9  -5  -2   75.77    2.66
  -9  -5   2   72.53    2.82
  -9  -5   2   70.50    2.75
   9  -5  -2   72.83    2.83
   9  -5  -2   69.28    2.84
   9  -5  -2   72.55    3.01
  -9  -5   2   72.47    3.20
  -9  -5   2   70.57    2.75
   9   5  -2   76.45    2.78
   9   5  -2   74.88    2.71
   9   5  -2   77.82    2.70
   9   5  -2   75.98    2.67
  -9   5   2   72.23    3.07
  -9   5   2   76.77    2.71
   9   5  -2   73.26    2.79
   9   5  -2   74.71    2.77
  -9   5   2   74.20    2.88
   9   5  -2   72.53    2.70
  -9   5   2   72.86    2.87
  -9   5   2   75.58    2.76
  -7  -5   2   52.05    2.05
   7  -5  -2   52.72    2.09
   7  -5  -2   46.52    2.10
  -7  -5   2   53.64    2.06
   7  -5  -2   50.46    2.23
  -7  -5   2   51.27    2.04
  -7  -5   2   50.03    1.99
  -7  -5   2   47.32    2.32
   7  -5  -2   54.45    1.91
  -7   5   2   52.50    2.29
  -7   5   2   53.28    1.96
   7   5  -2   46.21    2.05
  -7   5   2   55.53    2.11
   7   5  -2   51.59    1.95
   7   5  -2   55.06    1.98
   7   5  -2   54.77    2.03
  -7   5   2   52.11    1.94
   7   5  -2   53.36    2.04
  -7   5   2   51.54    2.10
   7   5  -2   53.60    1.94
  -7   5   2   46.61    2.15
   7   5  -2   48.52    1.86
   7   5  -2   52.82    2.03
   7   5  -2   52.46    1.94
  -7   5   2   52.73    2.03
  -7   5   2   51.45    1.99
  -5  -5   2    5.87    0.49
   5  -5  -2    5.40    0.62
   5  -5  -2    5.57    0.38
  -5  -5   2    5.36    0.52
   5  -5  -2    6.17    0.52
  -5  -5   2    4.52    0.63
  -5  -5   2    5.46    0.39
   5  -5  -2    4.41    0.52
  -5  -5   2    5.30    0.41
  -5   5   2    5.18    0.59
  -5   5   2    6.44    0.46
  -5   5   2    5.66    0.44
   5   5  -2    5.47    0.46
   5   5  -2    5.61    0.43
   5   5  -2    6.07    0.32
   5   5  -2    5.59    0.48
   5   5  -2    5.12    0.50
  -5   5   2    5.70    0.53
  -5   5   2    5.21    0.45
   5   5  -2    6.22    0.43
   5   5  -2    5.11    0.47
   5   5  -2    5.27    0.44
  -5   5   2    5.78    0.51
  -5   5   2    5.93    0.61
   5   5  -2    5.37    0.40
  -5   5   2    5.17    0.42
   3  -5  -2  108.24    4.02
  -3  -5   2  102.93    3.83
   3  -5  -2  113.48    3.82
  -3  -5   2  111.90    3.82
  -3  -5   2  104.43    3.71
  -3  -5   2  102.28    4.00
   3  -5  -2   90.46    3.89
   3  -5  -2  110.92    3.70
   3  -5  -2  104.76    3.85
  -3   5   2  107.85    3.81
   3   5  -2  107.39    3.76
   3   5  -2  104.05    3.81
  -3   5   2  110.15    3.72
   3   5  -2  107.71    3.79
   3   5  -2  110.27    3.81
   3   5  -2  106.50    3.73
   3   5  -2  103.72    3.68
  -3   5   2  111.28    4.05
  -3   5   2  101.80    3.66
  -3   5   2  108.91    3.86
   3   5  -2  112.39    3.85
   3   5  -2  109.67    3.77
   3   5  -2   97.33    3.82
  -3   5   2  105.28    3.77
   3   5  -2  103.65    3.69
  -1  -5   2   25.01    1.25
   1  -5  -2   27.25    1.18
   1  -5  -2   27.52    1.14
  -1  -5   2   26.34    1.16
   1  -5  -2   27.03    1.07
  -1  -5   2   26.59    1.15
  -1  -5   2   26.14    1.05
   1  -5  -2   25.15    1.22
   1  -5  -2   26.06    1.32
   1  -5  -2   25.05    1.27
  -1  -5   2   27.17    1.12
   1  -5  -2   25.85    1.16
   1   5  -2   26.83    1.17
  -1   5   2   26.63    1.36
  -1   5   2   28.31    1.21
   1   5  -2   27.24    1.09
  -1   5   2   28.23    1.19
   1   5  -2   26.21    1.14
  -1   5   2   24.83    1.15
   1   5  -2   27.23    1.15
   1   5  -2   26.29    1.12
   1   5  -2   28.54    1.22
   1   5  -2   26.56    1.12
   1   5  -2   25.49    1.16
   1   5  -2   26.49    1.11
  -1   5   2   26.14    1.09
  -1   5   2   26.94    1.15
   1  -5   2   70.90    2.58
  -1  -5  -2   61.58    2.72
  -1  -5  -2   69.14    2.66
  -1  -5  -2   73.79    2.55
  -1  -5  -2   69.84    2.64
   1  -5   2   68.65    2.67
  -1  -5  -2   69.08    2.77
   1  -5   2   74.55    2.61
  -1  -5  -2   70.20    2.63
   1  -5   2   69.51    2.43
   1  -5   2   69.20    2.62
   1  -5   2   63.51    2.80
   1   5   2   71.16    2.66
   1   5   2   74.81    2.86
   1   5   2   73.22    2.68
   1   5   2   71.71    2.64
  -1   5  -2   66.99    2.59
  -1   5  -2   76.60    2.70
   1   5   2   74.69    2.62
  -1   5  -2   72.26    2.65
  -1   5  -2   70.91    2.59
  -1   5  -2   69.48    2.60
  -1   5  -2   70.77    2.60
   1   5   2   69.51    2.53
   1   5   2   75.23    2.63
  -3  -5  -2   15.42    0.84
   3  -5   2   15.80    0.81
  -3  -5  -2   14.29    0.90
   3  -5   2   15.38    0.78
   3  -5   2   13.00    1.00
   3  -5   2   16.28    0.78
  -3  -5  -2   16.23    0.84
   3  -5   2   15.51    0.89
  -3  -5  -2   16.63    0.88
  -3  -5  -2   16.03    0.78
   3  -5   2   15.11    0.73
  -3   5  -2   17.21    0.85
   3   5   2   16.06    0.97
  -3   5  -2   15.86    0.81
   3   5   2   16.14    0.76
  -3   5  -2   16.14    0.86
  -3   5  -2   15.94    0.79
  -3   5  -2   16.23    0.86
   3   5   2   16.36    0.84
  -3   5  -2   16.20    0.77
  -3   5  -2   14.47    0.74
   3   5   2   16.55    0.86
   3   5   2   15.38    0.84
   3   5   2   15.73    0.81
   3   5   2   15.04    0.86
  -5  -5  -2  111.02    4.55
   5  -5   2  131.51    4.44
  -5  -5  -2  125.49    4.50
  -5  -5  -2  122.62    4.44
  -5  -5  -2  131.01    4.56
   5  -5   2  119.19    4.37
   5  -5   2  126.03    4.37
  -5  -5  -2  119.42    4.38
   5  -5   2  126.52    4.48
   5  -5   2  121.41    4.38
   5  -5   2  124.98    4.81
   5  -5   2  127.57    4.43
  -5  -5  -2  129.29    4.53
  -5   5  -2  126.52    4.45
  -5   5  -2  124.12    4.44
   5   5   2  129.69    4.64
  -5   5  -2  127.05    4.39
   5   5   2  126.24    4.40
   5   5   2  137.71    4.54
   5   5   2  131.51    4.49
   5   5   2  123.51    4.51
  -5   5  -2  124.58    4.49
  -5   5  -2  132.44    4.53
   5   5   2  127.90    4.51
  -5   5  -2  114.62    4.34
  -5   5  -2  126.93    4.57
   7  -5   2    1.77    0.26
   7  -5   2    2.26    0.40
  -7  -5  -2    1.49    0.34
  -7  -5  -2    2.32    0.29
   7  -5   2    1.76    0.55
   7  -5   2    1.63    0.31
   7  -5   2    1.95    0.38
  -7  -5  -2    2.24    0.44
  -7  -5  -2    1.86    0.40
  -7  -5  -2    2.27    0.42
   7  -5   2    2.16    0.33
  -7   5  -2    2.05    0.39
   7   5   2    2.00    0.36
  -7   5  -2    1.71    0.42
   7   5   2    1.52    0.35
  -7   5  -2    2.89    0.41
   7   5   2    2.08    0.41
  -7   5  -2    1.51    0.26
  -7   5  -2    1.42    0.32
  -7   5  -2    1.26    0.35
   7   5   2    2.07    0.43
   7   5   2    2.06    0.36
   7   5   2    1.57    0.38
  -7   5  -2    1.84    0.32
   9  -5   2   89.34    3.37
   9  -5   2   88.03    3.22
  -9  -5  -2   86.55    3.46
  -9  -5  -2   89.14    3.46
   9  -5   2   90.13    3.32
  -9  -5  -2   90.40    3.44
   9  -5   2   88.00    3.31
  -9  -5  -2   85.42    3.63
  -9  -5  -2   89.24    3.41
   9  -5   2   93.09    3.31
   9  -5   2   89.75    3.77
  -9   5  -2   97.80    3.41
   9   5   2   92.99    3.45
  -9   5  -2   86.76    3.32
   9   5   2  100.62    3.47
  -9   5  -2   87.30    3.24
   9   5   2   87.78    3.39
   9   5   2   91.03    3.34
  -9   5  -2   95.00    3.57
   9   5   2   89.07    3.41
   9   5   2   91.14    3.37
 -11  -5  -2   16.71    1.08
  11  -5   2   16.92    1.34
  11  -5   2   16.09    0.91
  11  -5   2   17.34    1.07
  11  -5   2   18.13    0.94
 -11  -5  -2   17.06    1.06
  11  -5   2   17.14    0.82
 -11  -5  -2   17.74    1.12
 -11  -5  -2   14.81    0.98
  11  -5   2   16.05    1.07
 -11  -5  -2   15.83    1.05
  11   5   2   17.69    1.00
 -11   5  -2   16.70    1.14
  11   5   2   16.12    1.00
  11   5   2   16.38    1.02
  11   5   2   18.17    1.04
 -11   5  -2   17.00    0.89
 -11   5  -2   18.66    1.01
  11   5   2   16.86    1.06
 -11   5  -2   16.74    0.96
  11   5   2   17.14    0.97
 -11   5  -2   17.38    1.05
 -13  -5  -2   18.83    1.17
  13  -5   2   19.39    0.94
 -13  -5  -2   19.61    1.26
  13  -5   2   21.30    1.18
  13  -5   2   18.70    1.13
 -13  -5  -2   20.63    1.23
  13  -5   2   19.33    1.82
  13  -5   2   18.92    1.04
 -13  -5  -2   18.59    1.18
  13   5   2   21.02    1.42
 -13   5  -2   21.35    1.14
 -13   5  -2   20.39    1.12
  13   5   2   20.43    1.09
 -13   5  -2   18.41    1.16
  13   5   2   20.33    1.09
  13   5   2   20.92    1.20
 -13   5  -2   19.66    1.02
  13   5   2   19.74    1.14
  15  -5   2   13.96    1.48
 -15  -5  -2   14.15    1.18
  15  -5   2   12.88    0.76
  15  -5   2   13.80    0.88
  15  -5   2   14.23    1.09
 -15  -5  -2   13.82    1.09
 -15  -5  -2   14.21    1.08
  15  -5   2   14.30    1.00
 -15  -5  -2   11.77    1.01
  15   5   2   11.85    1.06
 -15   5  -2   13.32    0.92
 -15   5  -2   12.38    0.97
  15   5   2   12.84    0.85
  15   5   2   13.91    0.93
  15   5   2   12.15    0.98
  15   5   2   13.37    1.12
 -15   5  -2   14.72    0.97
 -15   5  -2   14.04    1.09
  17  -5   2   14.89    1.07
  17  -5   2   19.32    1.67
 -17  -5  -2   15.55    1.65
  17  -5   2   13.27    0.95
 -17  -5  -2   15.64    1.27
  17  -5   2   13.84    0.83
 -17  -5  -2   13.62    1.14
 -17  -5  -2   15.79    1.25
 -17  -5  -2   14.29    1.12
  17  -5   2   16.66    1.29
  17   5   2   13.08    1.22
 -17   5  -2   16.16    1.06
  17   5   2   15.54    1.22
  17   5   2   16.41    1.10
 -17   5  -2   15.59    1.13
  17   5   2   13.23    0.89
 -17   5  -2   15.50    1.18
 -17   5  -2   14.37    1.01
  17   5   2   15.38    1.01
  19  -5   2    2.68    0.61
 -19  -5  -2    3.26    1.03
 -19  -5  -2    2.22    0.76
  19  -5   2    2.26    0.94
 -19  -5  -2    1.76    0.91
  19  -5   2    2.50    0.91
  19   5   2    0.93    0.53
 -19   5  -2    1.70    0.60
  19   5   2    2.27    0.73
 -19   5  -2    2.37    0.70
  19   5   2    2.48    0.93
 -21  -5  -2    3.65    1.00
  21  -5   2    4.95    1.21
  21  -5   2    4.52    0.95
 -21  -5  -2    5.97    1.32
  21   5   2    3.60    0.89
 -21   5  -2    3.73    0.80
 -21   5  -2    3.64    0.90
  21   5   2    5.47    0.98
 -23  -5  -2    3.92    1.50
  24  -6  -2    3.81    1.27
 -24  -6   2    1.00    1.53
  24   6  -2    2.95    0.80
  22  -6  -2    9.50    1.59
 -22  -6   2    7.79    1.66
  22  -6  -2    5.94    0.98
  22   6  -2    9.64    1.32
  22   6  -2    9.64    1.09
 -20  -6   2   13.60    1.94
  20  -6  -2   13.58    1.31
  20  -6  -2   14.32    1.51
  20   6  -2   15.36    1.18
  20   6  -2   15.09    1.32
  18  -6  -2   17.57    1.25
 -18  -6   2   16.69    1.96
 -18  -6   2   17.56    1.33
  18  -6  -2   19.09    1.55
 -18   6   2   16.80    1.15
  18   6  -2   18.43    1.19
 -18   6   2   13.93    1.06
  18   6  -2   15.61    0.88
 -18   6   2   16.50    1.00
  18   6  -2   15.71    0.91
  18   6  -2   16.75    0.93
  18   6  -2   16.98    1.27
  16  -6  -2   24.39    1.15
 -16  -6   2   23.23    2.06
  16  -6  -2   23.95    1.36
  16  -6  -2   24.42    1.63
 -16  -6   2   25.48    1.55
  16   6  -2   20.85    1.09
 -16   6   2   22.04    1.17
  16   6  -2   20.37    1.72
  16   6  -2   23.39    1.09
  16   6  -2   20.87    1.34
 -16   6   2   22.24    1.24
 -16   6   2   21.47    1.17
  16   6  -2   23.36    1.14
 -14  -6   2   78.15    2.96
  14  -6  -2   72.73    2.89
 -14  -6   2   65.65    2.84
  14  -6  -2   76.28    3.21
 -14  -6   2   72.01    2.94
  14  -6  -2   71.37    2.71
  14  -6  -2   75.05    2.81
 -14  -6   2   72.60    2.73
 -14   6   2   67.75    2.81
 -14   6   2   70.22    2.81
  14   6  -2   72.72    2.76
  14   6  -2   73.57    2.90
 -14   6   2   69.12    2.72
  14   6  -2   71.15    2.68
  14   6  -2   70.39    2.70
  14   6  -2   73.34    2.81
  12  -6  -2   20.10    1.16
 -12  -6   2   19.02    1.12
 -12  -6   2   19.86    1.14
 -12  -6   2   21.28    1.02
  12  -6  -2   21.61    1.16
  12  -6  -2   21.47    0.88
 -12  -6   2   21.98    1.78
  12  -6  -2   21.84    1.41
 -12  -6   2   19.14    1.19
  12  -6  -2   20.11    0.98
 -12  -6   2   19.88    1.21
 -12   6   2   21.08    1.47
 -12   6   2   20.83    1.12
  12   6  -2   20.67    1.00
  12   6  -2   21.32    1.12
  12   6  -2   21.85    1.19
 -12   6   2   20.30    1.18
  12   6  -2   22.32    1.09
 -12   6   2   22.68    1.20
  12   6  -2   20.93    1.07
  12   6  -2   20.33    0.98
  10  -6  -2  119.23    4.10
  10  -6  -2  121.09    4.55
 -10  -6   2  114.72    4.17
  10  -6  -2  114.77    4.28
 -10  -6   2  112.93    4.22
 -10  -6   2  116.13    4.28
 -10  -6   2  114.80    4.82
  10  -6  -2  112.46    4.32
 -10  -6   2  115.51    4.29
 -10  -6   2  109.57    4.20
  10   6  -2  118.54    4.14
  10   6  -2  118.23    4.23
 -10   6   2  115.23    4.21
  10   6  -2  118.33    4.17
  10   6  -2  109.28    4.28
  10   6  -2  119.47    4.24
 -10   6   2  116.19    4.57
  10   6  -2  118.59    4.25
 -10   6   2  118.81    4.15
  10   6  -2  116.90    4.15
 -10   6   2  120.99    4.14
 -10   6   2  104.25    4.33
  -8  -6   2   46.48    2.43
  -8  -6   2   49.55    2.01
  -8  -6   2   47.14    2.01
  -8  -6   2   46.51    1.93
  -8  -6   2   47.46    1.95
   8  -6  -2   43.06    2.07
   8  -6  -2   46.99    2.28
   8  -6  -2   47.80    1.83
  -8  -6   2   48.30    1.99
   8  -6  -2   48.02    2.00
   8   6  -2   46.83    1.88
  -8   6   2   47.79    2.16
   8   6  -2   48.49    1.99
   8   6  -2   49.37    1.92
   8   6  -2   47.60    1.97
  -8   6   2   49.14    1.91
   8   6  -2   49.88    1.99
   8   6  -2   49.07    1.88
  -8   6   2   49.96    1.94
  -8   6   2   48.82    2.25
  -8   6   2   51.44    1.91
  -8   6   2   49.56    2.05
  -8   6   2   48.68    1.89
  -8   6   2   49.66    1.98
   8   6  -2   47.45    1.85
   6  -6  -2  134.87    4.88
   6  -6  -2  136.78    5.11
  -6  -6   2  138.56    4.80
  -6  -6   2  137.30    4.88
  -6  -6   2  134.97    5.25
  -6  -6   2  127.96    4.67
  -6  -6   2  131.02    4.89
  -6  -6   2  137.48    4.87
   6  -6  -2  120.17    4.97
   6  -6  -2  137.46    4.71
   6   6  -2  138.97    4.74
  -6   6   2  134.68    4.89
  -6   6   2  142.35    5.13
  -6   6   2  132.72    5.09
   6   6  -2  137.47    4.84
   6   6  -2  139.87    4.79
  -6   6   2  140.40    4.87
  -6   6   2  133.45    4.97
   6   6  -2  132.94    4.61
  -6   6   2  138.56    4.80
  -6   6   2  139.66    4.82
  -6   6   2  137.60    4.78
   6   6  -2  142.55    4.89
   6   6  -2  125.84    4.93
   6   6  -2  136.45    4.75
   6   6  -2  137.87    4.90
   4  -6  -2   50.51    2.22
   4  -6  -2   50.97    2.02
   4  -6  -2   52.45    1.99
  -4  -6   2   44.84    1.97
  -4  -6   2   45.67    2.23
   4  -6  -2   41.52    2.09
   4  -6  -2   50.17    1.86
  -4  -6   2   49.48    1.99
  -4  -6   2   49.21    1.91
   4   6  -2   51.51    1.84
  -4   6   2   47.55    2.16
  -4   6   2   49.79    1.95
  -4   6   2   49.35    1.98
   4   6  -2   50.26    1.93
   4   6  -2   50.85    2.03
  -4   6   2   50.46    2.02
   4   6  -2   49.05    1.99
  -4   6   2   50.76    2.02
  -4   6   2   52.02    2.26
  -4   6   2   50.18    1.89
  -4   6   2   51.19    1.95
   4   6  -2   50.10    1.90
   4   6  -2   47.44    1.95
   4   6  -2   49.84    1.86
   4   6  -2   50.52    1.99
  -4   6   2   51.94    1.81
   4   6  -2   50.01    1.94
   2  -6  -2  216.96    7.26
   2  -6  -2  218.36    7.19
   2  -6  -2  220.06    7.31
  -2  -6   2  218.52    7.30
   2  -6  -2  207.61    7.33
   2  -6  -2  206.98    7.50
  -2  -6   2  212.32    7.20
  -2  -6   2  193.06    7.41
   2  -6  -2  183.84    7.44
  -2  -6   2  206.93    7.51
  -2   6   2  213.56    7.27
   2   6  -2  205.91    7.25
  -2   6   2  209.87    7.31
  -2   6   2  208.92    7.19
   2   6  -2  225.52    7.37
   2   6  -2  215.39    7.27
   2   6  -2  208.41    7.21
   2   6  -2  199.64    7.25
  -2   6   2  219.33    7.20
  -2   6   2  224.97    7.62
  -2   6   2  211.79    7.32
   2   6  -2  207.47    7.28
   2   6  -2  205.86    7.20
   2   6  -2  209.35    7.31
   0  -6  -2   38.26    1.80
   0  -6   2   38.41    1.51
   0  -6  -2   39.25    1.63
   0  -6  -2   40.29    1.66
   0  -6   2   39.71    1.60
   0  -6   2   40.03    1.58
   0  -6   2   40.22    1.64
   0  -6   2   37.90    1.72
   0  -6  -2   37.72    1.52
   0  -6   2   34.39    1.79
   0  -6  -2   39.38    1.61
   0   6   2   39.43    1.65
   0   6   2   39.86    1.60
   0   6  -2   39.29    1.54
   0   6  -2   38.32    1.58
   0   6  -2   38.20    1.59
   0   6   2   38.00    1.52
   0   6  -2   38.47    1.64
   0   6   2   40.06    1.86
   0   6  -2   41.12    1.68
   0   6  -2   37.38    1.57
   0   6   2   39.24    1.60
   0   6  -2   38.79    1.59
   0   6   2   39.19    1.64
   2  -6   2  109.98    4.05
   2  -6   2  109.90    3.96
  -2  -6  -2  104.92    4.05
  -2  -6  -2  108.63    4.17
  -2  -6  -2   98.27    4.15
   2  -6   2  112.97    3.97
  -2  -6  -2  108.81    4.03
   2  -6   2  110.41    4.01
  -2  -6  -2  109.75    3.93
   2  -6   2  108.30    3.80
   2  -6   2  102.22    4.30
  -2  -6  -2  109.60    4.02
  -2   6  -2  115.27    4.05
   2   6   2  109.15    3.91
  -2   6  -2  112.41    3.99
   2   6   2  116.88    4.07
   2   6   2  110.83    4.02
   2   6   2  117.61    4.03
  -2   6  -2  110.49    3.98
  -2   6  -2  121.78    4.11
   2   6   2  111.79    4.04
  -2   6  -2  108.18    3.98
   2   6   2  118.77    4.28
  -2   6  -2  112.31    4.03
   2   6   2  114.42    4.01
  -4  -6  -2   82.51    3.50
   4  -6   2   88.21    3.23
   4  -6   2   89.88    3.19
   4  -6   2   91.45    3.30
   4  -6   2   84.94    3.68
  -4  -6  -2   91.37    3.50
  -4  -6  -2   92.81    3.44
   4  -6   2   89.78    3.31
   4  -6   2   88.58    3.35
  -4  -6  -2   91.60    3.39
  -4  -6  -2   88.84    3.30
  -4  -6  -2   93.01    3.40
   4  -6   2   93.53    3.30
  -4   6  -2   98.15    3.45
  -4   6  -2   90.15    3.33
   4   6   2   90.08    3.37
   4   6   2   96.15    3.40
   4   6   2   88.73    3.38
  -4   6  -2   87.29    3.42
  -4   6  -2   87.77    3.32
   4   6   2   94.28    3.41
  -4   6  -2   92.08    3.28
   4   6   2   91.79    3.35
  -4   6  -2   89.77    3.41
   4   6   2   94.83    3.58
   4   6   2   89.01    3.28
  -6  -6  -2   78.60    3.01
   6  -6   2   78.66    2.97
  -6  -6  -2   73.09    3.30
  -6  -6  -2   77.45    2.92
   6  -6   2   79.37    2.90
  -6  -6  -2   73.37    3.17
  -6  -6  -2   80.51    3.08
   6  -6   2   80.71    3.45
   6  -6   2   82.26    2.93
  -6  -6  -2   82.89    3.09
   6  -6   2   81.32    2.98
   6  -6   2   81.35    3.05
   6  -6   2   81.65    2.99
  -6   6  -2   88.74    3.14
  -6   6  -2   81.05    3.10
  -6   6  -2   78.48    3.01
   6   6   2   82.12    3.04
   6   6   2   82.01    3.09
  -6   6  -2   80.38    2.94
   6   6   2   86.70    3.11
   6   6   2   79.71    2.96
   6   6   2   79.60    3.06
  -6   6  -2   81.48    3.15
   6   6   2   84.20    3.22
  -6   6  -2   80.67    3.02
  -8  -6  -2   69.49    2.55
   8  -6   2   68.79    2.68
   8  -6   2   71.27    2.59
  -8  -6  -2   73.66    2.82
  -8  -6  -2   73.68    2.83
   8  -6   2   69.54    2.68
  -8  -6  -2   73.22    2.87
  -8  -6  -2   66.61    2.90
   8  -6   2   72.09    3.21
   8  -6   2   72.41    2.68
   8  -6   2   71.25    2.69
  -8   6  -2   73.04    2.91
  -8   6  -2   71.12    2.73
   8   6   2   68.29    2.69
  -8   6  -2   70.05    2.80
   8   6   2   73.90    2.88
   8   6   2   71.13    2.80
  -8   6  -2   67.45    2.62
   8   6   2   78.81    2.83
  -8   6  -2   76.76    2.84
   8   6   2   70.70    2.74
   8   6   2   65.35    2.95
  -8   6  -2   68.43    2.72
 -10  -6  -2   50.79    2.16
 -10  -6  -2   48.08    2.23
  10  -6   2   50.52    2.55
 -10  -6  -2   51.33    2.15
  10  -6   2   50.18    2.05
  10  -6   2   49.92    1.90
  10  -6   2   49.02    2.01
 -10  -6  -2   51.61    2.21
  10  -6   2   47.19    2.01
 -10  -6  -2   46.81    2.14
  10  -6   2   47.84    2.07
  10   6   2   50.88    2.14
  10   6   2   50.19    2.14
  10   6   2   49.28    2.06
  10   6   2   51.56    2.07
  10   6   2   48.28    2.13
 -10   6  -2   48.71    1.94
 -10   6  -2   48.69    2.25
  10   6   2   49.10    2.11
 -10   6  -2   54.74    2.17
 -10   6  -2   49.90    2.13
 -10   6  -2   48.09    2.04
  12  -6   2   35.84    1.48
 -12  -6  -2   38.25    1.84
  12  -6   2   37.24    1.69
 -12  -6  -2   37.51    1.89
  12  -6   2   40.10    2.23
  12  -6   2   33.96    1.69
 -12  -6  -2   34.62    1.74
 -12  -6  -2   38.59    1.79
  12  -6   2   37.08    1.62
  12   6   2   34.74    1.67
 -12   6  -2   39.72    1.74
  12   6   2   34.83    1.70
 -12   6  -2   36.73    1.67
 -12   6  -2   34.80    1.72
  12   6   2   37.88    1.67
 -12   6  -2   35.31    1.55
  12   6   2   36.30    1.77
  12   6   2   37.13    1.70
 -14  -6  -2   12.95    1.12
  14  -6   2   14.19    0.76
  14  -6   2   12.90    1.01
 -14  -6  -2   15.86    1.21
 -14  -6  -2   14.23    1.19
 -14  -6  -2   12.77    1.05
  14  -6   2   13.32    0.91
  14  -6   2   14.55    1.10
  14  -6   2   16.15    1.55
 -14   6  -2   14.05    1.06
  14   6   2   13.15    1.11
 -14   6  -2   13.82    0.90
  14   6   2   13.78    0.95
  14   6   2   13.98    0.93
  14   6   2   14.42    1.03
 -14   6  -2   14.84    1.03
  14   6   2   13.73    1.11
 -14   6  -2   13.42    1.02
  16  -6   2   25.89    1.24
 -16  -6  -2   27.56    1.55
 -16  -6  -2   28.01    1.66
  16  -6   2   26.02    1.51
 -16  -6  -2   31.01    1.75
  16  -6   2   26.09    1.41
  16  -6   2   30.61    2.18
  16  -6   2   29.80    1.63
 -16  -6  -2   29.02    1.66
 -16  -6  -2   34.28    2.19
  16   6   2   30.35    1.62
  16   6   2   29.35    1.46
  16   6   2   28.30    1.38
 -16   6  -2   27.04    1.39
 -16   6  -2   27.35    1.59
  16   6   2   28.67    1.67
 -16   6  -2   30.68    1.51
  16   6   2   28.62    1.52
 -16   6  -2   26.68    1.51
  18  -6   2    4.86    0.72
 -18  -6  -2    8.16    1.39
 -18  -6  -2    5.74    0.96
  18  -6   2    7.14    0.97
 -18  -6  -2    6.27    0.99
  18  -6   2    8.31    1.55
  18   6   2    6.17    0.89
  18   6   2    6.51    0.92
 -18   6  -2    6.85    0.92
 -18   6  -2    6.45    0.87
  18   6   2    5.80    0.92
 -20  -6  -2    6.67    1.40
 -20  -6  -2    5.74    1.11
  20  -6   2    6.82    1.39
  20  -6   2    5.77    1.02
  20   6   2    5.11    1.02
 -20   6  -2    6.20    0.99
  20   6   2    7.15    0.99
 -22  -6  -2    4.97    1.54
 -23  -7   2    4.47    1.73
  23   7  -2    3.81    0.81
  21  -7  -2   11.80    1.39
 -21  -7   2   13.61    2.15
  21  -7  -2   14.84    1.75
  21   7  -2   10.19    1.30
  21   7  -2    8.97    1.09
  19  -7  -2    6.62    0.93
 -19  -7   2    7.33    1.60
  19  -7  -2    7.57    1.42
 -19   7   2    8.05    1.47
  19   7  -2    8.20    0.94
  19   7  -2    7.81    1.04
  19   7  -2    8.00    0.94
  17  -7  -2   27.02    1.83
 -17  -7   2   24.80    1.63
 -17  -7   2   23.61    2.24
  17  -7  -2   24.40    1.49
  17  -7  -2   24.08    1.23
  17   7  -2   23.46    1.35
 -17   7   2   22.50    1.30
  17   7  -2   26.12    1.35
  17   7  -2   23.15    1.22
  17   7  -2   22.95    1.46
 -17   7   2   22.68    1.40
  17   7  -2   24.05    1.19
  17   7  -2   21.14    1.18
 -15  -7   2   29.70    1.53
 -15  -7   2   31.45    1.73
 -15  -7   2   30.76    1.62
  15  -7  -2   33.23    1.96
 -15  -7   2   35.51    2.48
  15  -7  -2   31.06    1.49
  15  -7  -2   31.94    1.65
  15   7  -2   31.21    1.63
 -15   7   2   26.88    1.53
  15   7  -2   31.40    1.41
  15   7  -2   31.60    1.36
  15   7  -2   29.72    1.43
 -15   7   2   28.55    1.54
  15   7  -2   31.58    1.52
 -15   7   2   29.55    1.45
  15   7  -2   29.18    1.54
 -13  -7   2   44.90    2.74
  13  -7  -2   40.13    1.74
 -13  -7   2   43.12    2.07
 -13  -7   2   39.18    1.90
  13  -7  -2   43.33    1.92
 -13  -7   2   42.34    2.01
 -13  -7   2   41.74    1.85
  13  -7  -2   46.76    2.29
  13  -7  -2   42.11    1.55
  13   7  -2   46.43    1.93
  13   7  -2   42.45    1.76
 -13   7   2   42.74    1.90
 -13   7   2   40.76    1.79
  13   7  -2   41.94    1.82
  13   7  -2   41.85    1.83
  13   7  -2   44.42    1.94
 -13   7   2   36.59    1.94
  13   7  -2   41.25    1.79
 -11  -7   2   27.70    1.46
  11  -7  -2   28.71    1.28
 -11  -7   2   28.83    1.45
  11  -7  -2   29.46    1.47
 -11  -7   2   31.54    1.41
  11  -7  -2   30.09    1.56
  11  -7  -2   27.73    1.76
 -11  -7   2   30.52    1.55
 -11  -7   2   30.42    2.18
  11   7  -2   29.54    1.32
 -11   7   2   30.21    1.48
  11   7  -2   32.51    1.41
  11   7  -2   32.99    1.48
  11   7  -2   30.58    1.42
 -11   7   2   28.71    1.60
  11   7  -2   27.87    1.48
 -11   7   2   29.62    1.38
 -11   7   2   30.08    1.35
  11   7  -2   30.47    1.38
  11   7  -2   28.37    1.33
   9  -7  -2  102.19    4.00
  -9  -7   2  101.50    3.86
  -9  -7   2  100.68    3.88
  -9  -7   2  100.95    4.46
  -9  -7   2  103.40    3.82
   9  -7  -2  103.23    3.66
   9  -7  -2  105.04    4.14
  -9  -7   2   96.69    3.77
  -9  -7   2   94.81    3.78
   9  -7  -2   95.58    3.82
   9   7  -2  100.15    3.72
  -9   7   2  103.32    3.83
   9   7  -2  103.49    3.70
  -9   7   2  103.54    3.77
   9   7  -2  110.64    4.08
   9   7  -2  100.73    3.75
  -9   7   2  102.66    3.74
  -9   7   2  106.44    3.73
   9   7  -2  102.49    3.81
   9   7  -2   99.75    3.68
  -9   7   2  101.73    4.06
   9   7  -2  105.26    3.84
  -9   7   2  102.10    3.90
  -9   7   2  103.26    4.13
  -7  -7   2   82.45    3.11
   7  -7  -2   85.50    3.00
  -7  -7   2   83.41    3.21
  -7  -7   2   83.11    3.69
  -7  -7   2   74.75    2.90
  -7  -7   2   80.51    3.19
  -7  -7   2   83.18    3.17
   7  -7  -2   80.05    3.15
   7  -7  -2   81.90    3.44
   7  -7  -2   74.74    3.31
  -7   7   2   83.16    3.20
  -7   7   2   82.63    3.41
   7   7  -2   83.13    3.07
   7   7  -2   83.39    3.18
   7   7  -2   84.37    3.17
  -7   7   2   83.20    3.07
   7   7  -2   86.43    3.11
  -7   7   2   84.38    3.17
   7   7  -2   82.54    3.13
   7   7  -2   80.57    3.03
   7   7  -2   84.52    2.84
   7   7  -2   83.61    3.03
  -7   7   2   83.65    3.44
  -7   7   2   86.52    3.08
  -7   7   2   84.53    3.13
  -7   7   2   80.60    3.08
   5  -7  -2   41.85    1.61
   5  -7  -2   34.13    1.90
   5  -7  -2   40.27    2.00
  -5  -7   2   39.90    1.68
   5  -7  -2   39.84    1.75
  -5  -7   2   39.24    2.12
  -5  -7   2   35.18    1.69
  -5  -7   2   43.27    1.77
   5  -7  -2   41.22    1.72
  -5   7   2   41.67    1.78
   5   7  -2   41.10    1.77
   5   7  -2   41.69    1.62
   5   7  -2   41.23    1.65
  -5   7   2   42.01    1.72
  -5   7   2   41.36    1.80
   5   7  -2   41.36    1.71
   5   7  -2   43.16    1.81
  -5   7   2   41.53    1.74
  -5   7   2   40.74    1.94
  -5   7   2   40.98    1.50
  -5   7   2   42.42    1.53
  -5   7   2   41.45    1.70
  -5   7   2   39.45    1.66
  -5   7   2   41.49    2.05
   5   7  -2   39.91    1.68
   5   7  -2   40.64    1.73
   5   7  -2   41.70    1.56
   3  -7  -2  138.26    4.71
   3  -7  -2  112.68    4.99
   3  -7  -2  139.77    4.83
  -3  -7   2  139.81    4.84
   3  -7  -2  133.14    5.08
  -3  -7   2  132.41    5.15
  -3  -7   2  136.33    4.75
   3  -7  -2  130.20    4.83
  -3  -7   2  123.76    4.92
  -3   7   2  142.09    5.21
   3   7  -2  132.32    4.70
  -3   7   2  136.00    4.69
   3   7  -2  128.50    4.78
   3   7  -2  133.07    4.77
  -3   7   2  135.12    4.74
  -3   7   2  138.88    4.89
   3   7  -2  135.56    4.86
   3   7  -2  133.32    4.73
   3   7  -2  142.06    4.92
  -3   7   2  134.67    4.84
   3   7  -2  138.25    4.80
  -3   7   2  136.95    4.81
   3   7  -2  133.94    4.82
  -3   7   2  131.40    4.83
  -3   7   2  137.07    4.80
  -1  -7   2   51.38    2.48
  -1  -7   2   57.06    2.49
   1  -7  -2   57.52    2.26
   1  -7  -2   57.85    2.28
   1  -7  -2   57.05    2.50
   1  -7  -2   58.53    2.19
  -1  -7   2   57.39    2.18
  -1  -7   2   59.88    2.27
   1  -7  -2   59.57    2.32
   1  -7  -2   49.37    2.46
   1  -7  -2   55.98    2.29
   1   7  -2   55.30    2.37
   1   7  -2   53.96    2.25
   1   7  -2   57.60    2.25
  -1   7   2   58.20    2.35
   1   7  -2   59.96    2.20
  -1   7   2   59.49    2.60
   1   7  -2   59.83    2.25
   1   7  -2   61.18    2.38
   1   7  -2   57.98    2.22
  -1   7   2   57.55    2.19
  -1   7   2   59.43    2.30
  -1   7   2   58.78    2.26
  -1   7   2   56.33    2.29
   1   7  -2   57.59    2.32
   1  -7   2   85.66    3.36
  -1  -7  -2   86.75    3.26
  -1  -7  -2   88.90    3.18
   1  -7   2   91.09    3.23
   1  -7   2   85.60    3.28
   1  -7   2   82.58    2.98
  -1  -7  -2   84.95    3.30
  -1  -7  -2   90.94    3.30
   1  -7   2   86.15    3.21
  -1  -7  -2   72.42    3.44
   1  -7   2   77.63    3.54
  -1  -7  -2   86.91    3.47
   1  -7   2   86.96    3.13
   1   7   2   91.62    3.24
  -1   7  -2   88.17    3.20
  -1   7  -2   85.97    3.30
   1   7   2   84.07    3.14
  -1   7  -2   86.89    3.21
  -1   7  -2   84.05    3.23
   1   7   2   88.75    3.27
  -1   7  -2   89.92    3.18
   1   7   2   92.53    3.57
   1   7   2   87.63    3.29
   1   7   2   88.91    3.25
  -1   7  -2   84.56    3.22
  -1   7  -2   89.87    3.25
  -1   7  -2   92.60    3.37
   3  -7   2   78.92    3.57
   3  -7   2   87.47    3.16
   3  -7   2   87.50    3.16
  -3  -7  -2   84.10    3.38
   3  -7   2   82.40    3.21
  -3  -7  -2   86.68    3.24
  -3  -7  -2   82.30    3.22
  -3  -7  -2   83.66    3.13
   3  -7   2   84.20    3.23
   3  -7   2   81.87    2.98
  -3  -7  -2   76.27    3.41
   3   7   2   88.25    3.47
  -3   7  -2   83.64    3.18
  -3   7  -2   84.53    3.12
   3   7   2   84.07    3.21
  -3   7  -2   85.16    3.23
  -3   7  -2   85.63    3.19
   3   7   2   89.18    3.24
  -3   7  -2   82.95    3.24
   3   7   2   82.08    3.10
  -3   7  -2   94.99    3.35
   3   7   2   89.30    3.21
   3   7   2   85.03    3.24
   3   7   2   89.83    3.22
   5  -7   2  121.50    4.44
   5  -7   2  118.44    4.33
   5  -7   2  118.96    4.52
  -5  -7  -2  129.34    4.68
  -5  -7  -2  128.57    4.63
  -5  -7  -2  125.22    4.56
  -5  -7  -2  126.68    4.56
   5  -7   2  120.58    4.96
   5  -7   2  120.61    4.45
  -5  -7  -2  120.67    4.46
  -5  -7  -2  117.12    4.79
   5  -7   2  126.82    4.45
  -5   7  -2  134.96    4.65
   5   7   2  125.70    4.54
  -5   7  -2  124.72    4.59
   5   7   2  120.97    4.54
   5   7   2  123.03    4.53
   5   7   2  123.83    4.50
   5   7   2  131.06    4.75
   5   7   2  120.96    4.41
  -5   7  -2  120.06    4.48
  -5   7  -2  124.10    4.57
   5   7   2  133.10    4.56
  -5   7  -2  124.83    4.50
  -5   7  -2  119.73    4.39
  -7  -7  -2   10.12    0.89
  -7  -7  -2    8.81    0.79
   7  -7   2    7.90    0.73
   7  -7   2    9.66    0.69
  -7  -7  -2   10.89    0.88
   7  -7   2   10.26    0.75
   7  -7   2   10.23    1.18
   7  -7   2    9.14    0.58
   7  -7   2    7.75    0.66
   7  -7   2    8.33    0.61
  -7  -7  -2    9.03    0.64
   7  -7   2    9.03    0.58
  -7  -7  -2    8.82    0.95
  -7  -7  -2    9.34    0.90
  -7  -7  -2    8.36    0.69
  -7   7  -2    9.83    0.78
   7   7   2    9.12    0.85
  -7   7  -2   10.31    0.86
   7   7   2   10.19    0.74
  -7   7  -2    9.45    0.78
  -7   7  -2    8.79    0.80
   7   7   2   10.96    0.79
   7   7   2    8.76    0.75
  -7   7  -2    9.65    0.81
  -7   7  -2    9.17    0.66
   7   7   2    9.13    0.80
   7   7   2    8.88    0.70
  -9  -7  -2   79.61    2.92
   9  -7   2   77.12    2.95
  -9  -7  -2   82.71    3.23
  -9  -7  -2   84.09    3.44
   9  -7   2   78.92    3.16
   9  -7   2   79.93    3.09
   9  -7   2   80.72    3.10
  -9  -7  -2   85.41    3.31
   9  -7   2   83.48    3.72
   9  -7   2   75.79    3.04
  -9  -7  -2   83.48    3.24
   9   7   2   87.98    3.23
   9   7   2   82.60    3.14
  -9   7  -2   85.57    3.17
   9   7   2   81.00    3.09
   9   7   2   84.91    3.22
  -9   7  -2   79.55    3.21
   9   7   2   80.55    3.19
  -9   7  -2   79.26    3.14
   9   7   2   78.00    3.39
  -9   7  -2   80.24    3.00
  -9   7  -2   87.49    3.29
  11  -7   2   41.54    1.88
  11  -7   2   42.97    1.87
 -11  -7  -2   39.49    1.91
  11  -7   2   38.51    1.78
 -11  -7  -2   45.63    2.05
  11  -7   2   38.78    1.78
  11  -7   2   43.06    2.43
  11  -7   2   39.41    1.63
 -11  -7  -2   43.36    1.98
 -11  -7  -2   43.64    2.13
  11   7   2   41.50    1.95
 -11   7  -2   40.38    1.93
  11   7   2   40.71    1.88
  11   7   2   40.24    1.82
  11   7   2   40.86    1.91
  11   7   2   41.53    1.85
 -11   7  -2   39.98    1.71
 -11   7  -2   45.78    1.98
 -11   7  -2   43.05    1.87
  13  -7   2   17.86    1.20
 -13  -7  -2   24.45    1.54
 -13  -7  -2   20.39    1.29
  13  -7   2   20.24    1.25
  13  -7   2   21.61    1.33
 -13  -7  -2   20.81    1.41
  13  -7   2   19.29    0.97
  13  -7   2   21.37    1.16
  13  -7   2   23.69    1.87
 -13  -7  -2   23.29    1.47
  13   7   2   21.05    1.22
 -13   7  -2   19.60    1.25
  13   7   2   22.15    1.30
 -13   7  -2   24.79    1.35
  13   7   2   21.69    1.36
  13   7   2   21.88    1.26
 -13   7  -2   21.53    1.36
 -13   7  -2   18.94    1.08
  13   7   2   22.27    1.22
 -15  -7  -2   16.02    1.35
  15  -7   2   14.74    1.08
  15  -7   2   16.48    1.75
 -15  -7  -2   11.44    1.10
  15  -7   2   15.48    1.00
 -15  -7  -2   15.82    1.38
  15  -7   2   13.57    0.78
  15  -7   2   16.49    1.24
 -15  -7  -2   14.57    1.34
 -15   7  -2   13.84    1.12
 -15   7  -2   13.68    0.96
  15   7   2   15.70    1.02
  15   7   2   16.20    1.24
  15   7   2   12.65    1.07
 -15   7  -2   14.25    1.16
 -15   7  -2   15.18    1.24
  15   7   2   12.92    0.97
  15   7   2   14.99    1.19
  17  -7   2   17.60    1.38
  17  -7   2   18.66    2.03
 -17  -7  -2   15.43    1.39
  17  -7   2   15.29    1.27
 -17  -7  -2   17.85    1.53
  17   7   2   14.92    1.31
 -17   7  -2   14.64    1.09
  17   7   2   16.53    1.18
 -17   7  -2   18.25    1.44
  17   7   2   16.61    1.39
 -19  -7  -2    5.67    1.37
  19  -7   2    3.34    0.84
 -19  -7  -2    4.42    1.05
  19  -7   2    3.97    1.39
  19   7   2    4.78    0.93
 -19   7  -2    2.75    0.93
 -19   7  -2    4.08    0.77
  19   7   2    4.13    0.87
 -21  -7  -2    4.14    1.59
  21  -7   2    2.17    1.12
  21   7   2    3.37    1.08
 -20  -8   2    7.10    1.88
  20  -8  -2    5.29    1.01
  20  -8  -2    6.80    1.32
  20   8  -2    5.44    0.78
  20   8  -2    5.65    0.97
  18  -8  -2    7.28    1.03
 -18  -8   2    6.03    1.56
  18  -8  -2    7.73    1.40
  18   8  -2    6.00    0.86
 -18   8   2    6.23    1.07
  18   8  -2    6.58    0.93
 -16  -8   2   10.94    1.86
 -16  -8   2    8.01    0.77
  16  -8  -2    8.23    0.84
 -16  -8   2    9.08    1.13
  16  -8  -2    9.25    1.40
  16  -8  -2    8.20    1.11
  16   8  -2    7.68    0.89
  16   8  -2    8.25    1.06
 -16   8   2    8.35    1.06
  16   8  -2    9.12    0.76
 -16   8   2    8.12    1.00
  16   8  -2    9.31    0.99
  16   8  -2    8.03    0.77
 -14  -8   2   24.80    1.66
 -14  -8   2   24.86    1.63
  14  -8  -2   25.85    1.40
 -14  -8   2   24.75    1.22
 -14  -8   2   29.77    2.45
  14  -8  -2   27.90    1.83
  14   8  -2   27.71    1.44
  14   8  -2   24.22    1.26
  14   8  -2   24.45    1.24
 -14   8   2   25.04    1.27
  14   8  -2   25.52    1.35
 -14   8   2   25.42    1.47
 -14   8   2   24.07    1.34
 -14   8   2   21.90    1.48
  14   8  -2   22.25    1.27
  14   8  -2   25.25    1.44
 -12  -8   2    9.49    1.07
  12  -8  -2    8.40    0.55
 -12  -8   2    9.80    1.67
 -12  -8   2    9.05    0.92
  12  -8  -2    9.29    1.23
  12  -8  -2   10.08    0.94
 -12  -8   2    9.17    0.81
 -12  -8   2    8.89    0.89
  12   8  -2    8.31    0.79
  12   8  -2    8.19    0.88
  12   8  -2    8.24    0.76
 -12   8   2    8.71    0.69
  12   8  -2    8.43    0.71
  12   8  -2    8.23    0.66
 -12   8   2    7.38    1.00
 -12   8   2    8.09    1.12
  12   8  -2    8.66    0.86
 -12   8   2    7.61    0.78
  12   8  -2    7.94    0.74
  10  -8  -2   32.09    1.41
 -10  -8   2   34.71    1.62
  10  -8  -2   31.44    1.57
 -10  -8   2   34.48    2.38
  10  -8  -2   35.65    1.79
 -10  -8   2   30.37    1.60
 -10  -8   2   31.57    1.57
 -10  -8   2   32.07    1.72
  10  -8  -2   35.15    1.97
  10   8  -2   33.09    1.50
  10   8  -2   31.74    1.43
 -10   8   2   35.23    1.51
 -10   8   2   31.31    1.52
  10   8  -2   31.84    1.59
 -10   8   2   31.97    1.83
  10   8  -2   33.34    1.50
  10   8  -2   32.10    1.55
  10   8  -2   35.51    1.62
  10   8  -2   33.50    1.56
 -10   8   2   31.98    1.67
  -8  -8   2   15.15    1.54
   8  -8  -2   14.03    0.77
  -8  -8   2   13.24    0.92
  -8  -8   2   13.19    1.04
   8  -8  -2   13.47    1.27
  -8  -8   2   13.32    1.03
   8  -8  -2   14.53    0.93
   8  -8  -2   12.83    1.12
   8   8  -2   14.02    0.80
   8   8  -2   12.70    0.58
   8   8  -2   13.17    0.93
  -8   8   2   12.99    0.87
  -8   8   2   12.25    0.89
  -8   8   2   12.82    0.98
  -8   8   2   11.08    1.13
   8   8  -2   12.72    0.85
   8   8  -2   13.83    0.82
   8   8  -2   14.84    0.97
  -8   8   2   13.74    0.95
  -8   8   2   14.74    0.85
   8   8  -2   12.90    0.89
   8   8  -2   13.26    0.91
  -6  -8   2   29.43    1.51
  -6  -8   2   32.17    1.48
  -6  -8   2   29.25    1.44
   6  -8  -2   28.12    1.72
   6  -8  -2   32.99    1.82
   6  -8  -2   31.73    1.36
   6  -8  -2   32.49    1.48
   6  -8  -2   30.52    1.49
  -6  -8   2   34.75    2.09
   6   8  -2   32.04    1.47
   6   8  -2   33.86    1.47
  -6   8   2   34.61    1.48
  -6   8   2   32.97    1.26
  -6   8   2   32.32    1.46
   6   8  -2   33.41    1.57
  -6   8   2   32.85    1.72
  -6   8   2   32.16    1.63
  -6   8   2   32.32    1.83
   6   8  -2   32.21    1.54
   6   8  -2   32.07    1.40
  -6   8   2   31.91    1.52
   6   8  -2   33.91    1.58
  -6   8   2   32.39    1.50
  -6   8   2   31.96    1.22
   6   8  -2   32.57    1.39
  -6   8   2   32.76    1.48
   4  -8  -2   15.64    0.89
   4  -8  -2   15.45    1.21
   4  -8  -2   14.99    0.79
  -4  -8   2   13.23    0.90
  -4  -8   2   13.93    1.22
   4  -8  -2   12.78    1.11
  -4  -8   2   14.38    0.88
  -4  -8   2   12.62    1.01
   4  -8  -2   13.85    0.89
   4   8  -2   14.53    0.87
  -4   8   2   15.17    0.77
   4   8  -2   14.36    0.96
  -4   8   2   13.86    0.86
  -4   8   2   14.61    0.90
  -4   8   2   13.91    0.90
   4   8  -2   13.88    0.76
   4   8  -2   13.77    0.88
  -4   8   2   14.01    0.86
  -4   8   2   13.82    1.21
  -4   8   2   13.19    1.03
   4   8  -2   13.67    0.90
   4   8  -2   14.54    0.94
   4   8  -2   14.01    0.81
  -4   8   2   15.82    0.92
   4   8  -2   15.13    0.97
   2  -8  -2   58.21    2.31
   2  -8  -2   56.35    2.59
   2  -8  -2   55.93    2.31
  -2  -8   2   55.17    2.23
   2  -8  -2   56.95    2.20
   2  -8  -2   50.24    2.56
  -2  -8   2   53.66    2.56
  -2  -8   2   58.69    2.31
  -2  -8   2   56.49    2.63
   2   8  -2   58.54    2.37
  -2   8   2   58.38    2.29
  -2   8   2   56.75    2.66
   2   8  -2   58.03    2.31
  -2   8   2   59.29    2.32
  -2   8   2   56.76    2.30
   2   8  -2   60.24    2.32
   2   8  -2   57.30    2.22
   2   8  -2   56.14    2.27
   2   8  -2   59.67    2.42
   2   8  -2   55.40    2.29
  -2   8   2   55.88    2.23
  -2   8   2   59.09    2.23
   2   8  -2   57.30    2.23
  -2   8   2   56.47    2.48
  -2   8   2   58.33    2.34
   0  -8  -2   11.25    0.99
   0  -8   2   10.69    0.68
   0  -8  -2   11.01    0.81
   0  -8   2    7.83    1.02
   0  -8   2    9.26    0.90
   0  -8  -2    9.95    0.68
   0  -8  -2    9.49    1.02
   0  -8  -2   10.48    0.83
   0  -8  -2   10.10    0.75
   0  -8   2    9.58    0.70
   0   8   2    9.00    0.95
   0   8   2    9.42    0.70
   0   8  -2   10.04    0.71
   0   8  -2   10.35    0.76
   0   8   2    9.87    0.73
   0   8  -2    9.58    0.88
   0   8  -2   10.18    0.76
   0   8  -2   11.70    0.70
   0   8  -2   10.84    0.85
   0   8   2   11.37    0.77
   0   8  -2    9.70    0.76
   0   8  -2    9.70    0.82
   0   8   2    9.79    0.77
   2  -8   2   23.83    1.26
   2  -8   2   26.80    1.38
   2  -8   2   25.07    1.21
  -2  -8  -2   24.15    1.36
   2  -8   2   23.32    1.68
  -2  -8  -2   25.66    1.21
  -2  -8  -2   23.46    1.55
   2  -8   2   23.97    1.01
   2  -8   2   24.44    1.30
  -2  -8  -2   22.96    1.34
  -2  -8  -2   27.81    1.32
  -2  -8  -2   24.14    1.46
   2  -8   2   25.16    1.15
  -2   8  -2   26.85    1.29
  -2   8  -2   25.63    1.21
  -2   8  -2   26.41    1.21
  -2   8  -2   25.78    1.34
   2   8   2   24.51    1.19
  -2   8  -2   26.82    1.30
  -2   8  -2   27.50    1.40
   2   8   2   25.78    1.27
  -2   8  -2   24.34    1.26
   2   8   2   26.17    1.52
   2   8   2   26.88    1.26
   2   8   2   27.09    1.27
   2   8   2   25.53    1.30
  -2   8  -2   26.41    1.26
   4  -8   2   21.65    1.67
   4  -8   2   21.28    1.12
  -4  -8  -2   22.51    1.51
   4  -8   2   22.55    1.37
  -4  -8  -2   23.39    1.15
  -4  -8  -2   21.75    1.29
  -4  -8  -2   22.43    1.22
  -4  -8  -2   19.84    1.79
   4  -8   2   22.73    0.99
  -4  -8  -2   23.60    1.40
   4  -8   2   22.62    1.15
   4  -8   2   21.46    1.23
  -4   8  -2   22.38    1.23
   4   8   2   23.07    1.24
   4   8   2   21.52    1.37
  -4   8  -2   26.07    1.35
  -4   8  -2   22.03    1.11
  -4   8  -2   22.71    1.23
   4   8   2   24.13    1.25
  -4   8  -2   22.83    1.27
  -4   8  -2   21.39    1.21
   4   8   2   23.49    1.19
   4   8   2   22.17    1.19
   4   8   2   23.74    1.21
   4   8   2   23.78    1.14
   6  -8   2   24.73    1.33
  -6  -8  -2   26.97    1.46
  -6  -8  -2   25.17    1.41
  -6  -8  -2   25.30    1.62
   6  -8   2   24.95    1.14
   6  -8   2   26.39    1.84
  -6  -8  -2   26.40    1.28
   6  -8   2   26.79    1.22
  -6  -8  -2   26.16    1.48
  -6   8  -2   23.68    1.38
   6   8   2   25.00    1.36
   6   8   2   26.25    1.32
   6   8   2   25.53    1.25
   6   8   2   26.16    1.32
   6   8   2   25.67    1.34
   6   8   2   24.31    1.27
  -6   8  -2   28.29    1.46
  -6   8  -2   24.21    1.19
  -6   8  -2   24.47    1.32
   6   8   2   25.41    1.48
  -6   8  -2   22.92    1.52
  -6   8  -2   25.02    1.38
  -8  -8  -2   26.41    1.49
  -8  -8  -2   26.16    1.45
   8  -8   2   23.81    1.13
   8  -8   2   24.46    1.29
  -8  -8  -2   26.12    1.46
   8  -8   2   23.22    1.15
  -8  -8  -2   26.14    1.63
  -8  -8  -2   25.03    1.29
   8  -8   2   23.86    1.23
   8  -8   2   22.45    1.28
   8  -8   2   27.13    2.64
  -8   8  -2   22.97    1.31
   8   8   2   23.56    1.35
  -8   8  -2   22.97    1.37
   8   8   2   24.53    1.33
   8   8   2   23.85    1.43
  -8   8  -2   23.15    1.16
   8   8   2   25.65    1.29
  -8   8  -2   22.16    1.76
   8   8   2   24.20    1.35
   8   8   2   24.59    1.27
  -8   8  -2   25.62    1.42
  10  -8   2   19.52    1.95
 -10  -8  -2   20.78    1.36
  10  -8   2   15.08    0.84
  10  -8   2   16.66    1.12
 -10  -8  -2   17.73    1.20
  10  -8   2   16.15    1.00
 -10  -8  -2   18.07    1.27
 -10  -8  -2   17.99    0.86
  10  -8   2   15.33    1.10
 -10  -8  -2   16.83    1.24
 -10  -8  -2   19.06    1.45
  10  -8   2   16.22    0.95
 -10   8  -2   16.43    1.11
 -10   8  -2   16.06    0.96
 -10   8  -2   16.68    1.20
  10   8   2   16.98    1.04
 -10   8  -2   16.89    1.21
  10   8   2   16.19    1.08
 -10   8  -2   14.27    1.43
  10   8   2   19.12    1.54
  10   8   2   17.49    1.11
  10   8   2   17.51    1.30
  12  -8   2    9.70    0.87
 -12  -8  -2   12.33    1.21
  12  -8   2   12.27    1.08
  12  -8   2   11.24    0.68
 -12  -8  -2   11.19    1.04
  12  -8   2   10.75    0.95
  12  -8   2   12.03    1.62
 -12  -8  -2    9.89    1.19
 -12  -8  -2   12.23    1.06
  12  -8   2    9.12    0.83
  12   8   2   11.82    1.07
  12   8   2   10.81    0.89
  12   8   2   10.68    0.98
 -12   8  -2   10.11    1.00
 -12   8  -2   10.71    0.82
 -12   8  -2   12.81    1.09
  12   8   2   12.34    1.00
 -12   8  -2   10.12    1.09
  14  -8   2    6.28    0.78
 -14  -8  -2    8.80    1.20
  14  -8   2    7.09    1.02
  14  -8   2    6.22    0.56
 -14  -8  -2    8.24    1.30
  14  -8   2    6.69    0.91
  14  -8   2    8.62    1.46
  14   8   2    6.88    0.85
 -14   8  -2    7.91    1.10
  14   8   2    7.94    0.99
 -14   8  -2    5.99    1.05
  14   8   2    6.54    0.85
 -14   8  -2    8.19    0.99
  14   8   2    5.51    0.83
 -14   8  -2    6.07    0.98
  16  -8   2   12.61    1.90
 -16  -8  -2   11.76    2.23
  16  -8   2   11.65    1.29
  16  -8   2   11.46    1.08
 -16  -8  -2   11.87    1.45
  16   8   2   12.57    1.28
  16   8   2   11.34    1.17
  16   8   2   11.56    1.03
 -16   8  -2   10.80    1.28
 -16   8  -2   10.88    0.96
  18  -8   2    3.42    0.79
 -18  -8  -2    6.69    1.47
 -18  -8  -2    2.34    1.15
  18  -8   2    2.66    0.86
  18  -8   2    2.51    1.34
  18   8   2    2.88    0.85
  18   8   2    4.18    0.84
 -20  -8  -2    4.97    1.87
  20  -8   2    2.29    0.99
  20   8   2    0.84    0.98
  19  -9  -2    7.02    1.46
  19  -9  -2    5.93    1.09
 -19  -9   2    6.61    1.91
  19   9  -2    4.34    0.92
  19   9  -2    5.39    0.81
  17  -9  -2   12.99    1.34
  17  -9  -2   11.94    1.64
 -17  -9   2   13.15    2.26
  17  -9  -2   10.21    0.99
  17   9  -2   11.54    1.25
 -17   9   2   11.87    1.73
  17   9  -2   10.09    1.04
 -15  -9   2   20.23    2.34
 -15  -9   2   15.83    1.57
  15  -9  -2   14.53    1.20
 -15  -9   2   16.17    1.52
  15  -9  -2   18.94    1.71
  15  -9  -2   15.62    1.38
  15   9  -2   13.48    1.05
 -15   9   2   14.50    1.34
  15   9  -2   21.17    2.06
  15   9  -2   15.05    1.27
 -13  -9   2   24.30    1.30
 -13  -9   2   20.86    1.49
  13  -9  -2   21.42    0.99
  13  -9  -2   22.11    1.53
  13  -9  -2   22.29    1.75
 -13  -9   2   29.09    2.44
 -13  -9   2   22.25    1.64
  13   9  -2   24.89    1.47
 -13   9   2   22.56    1.32
 -13   9   2   22.43    1.35
  13   9  -2   24.41    1.25
 -13   9   2   20.89    1.44
  13   9  -2   21.74    1.15
 -13   9   2   25.64    1.29
  13   9  -2   20.84    1.24
  13   9  -2   22.73    1.43
  13   9  -2   30.22    2.09
 -11  -9   2   21.69    2.10
 -11  -9   2   15.76    1.23
 -11  -9   2   17.95    1.19
  11  -9  -2   18.47    1.62
  11  -9  -2   18.31    1.75
 -11  -9   2   17.40    1.40
 -11  -9   2   17.06    1.23
  11   9  -2   17.05    1.05
  11   9  -2   18.08    1.00
 -11   9   2   17.88    1.27
 -11   9   2   16.17    1.13
  11   9  -2   17.58    1.21
  11   9  -2   19.45    1.17
  11   9  -2   19.13    1.23
  11   9  -2   18.16    1.08
 -11   9   2   18.68    1.05
   9  -9  -2   40.79    2.21
  -9  -9   2   47.72    2.79
   9  -9  -2   40.29    1.76
   9  -9  -2   39.08    1.90
   9  -9  -2   48.00    2.67
  -9  -9   2   45.38    2.06
  -9  -9   2   37.77    1.92
   9   9  -2   40.33    1.77
  -9   9   2   46.44    1.87
   9   9  -2   41.75    1.94
   9   9  -2   41.94    1.89
   9   9  -2   45.04    1.99
  -9   9   2   42.13    1.91
  -9   9   2   41.23    1.88
   9   9  -2   39.96    1.83
   9   9  -2   42.20    1.82
  -9   9   2   41.64    1.99
  -7  -9   2   38.29    2.44
  -7  -9   2   32.80    1.60
   7  -9  -2   35.11    1.69
  -7  -9   2   36.80    1.71
   7  -9  -2   35.99    1.56
   7  -9  -2   37.07    2.18
   7  -9  -2   34.01    2.05
  -7   9   2   39.53    1.82
   7   9  -2   37.48    1.67
   7   9  -2   37.22    1.62
  -7   9   2   38.07    1.70
  -7   9   2   36.75    1.47
   7   9  -2   38.41    1.62
   7   9  -2   37.38    1.70
  -7   9   2   37.08    1.70
   7   9  -2   40.18    1.82
  -7   9   2   37.59    1.75
  -7   9   2   40.14    1.69
  -7   9   2   37.04    1.41
   7   9  -2   35.06    1.75
  -5  -9   2   20.97    1.15
  -5  -9   2   21.64    1.72
   5  -9  -2   19.42    1.13
   5  -9  -2   20.51    1.52
   5  -9  -2   19.78    1.53
  -5  -9   2   17.99    1.24
   5  -9  -2   21.27    1.03
   5   9  -2   19.87    1.22
   5   9  -2   20.19    1.04
   5   9  -2   22.19    1.24
   5   9  -2   20.20    1.06
  -5   9   2   20.34    1.13
  -5   9   2   20.50    1.15
   5   9  -2   21.91    1.17
  -5   9   2   20.20    1.41
  -5   9   2   22.74    1.31
  -5   9   2   19.76    1.16
   5   9  -2   19.19    1.26
  -5   9   2   20.00    0.90
  -5   9   2   19.61    1.11
  -5   9   2   20.60    1.00
   5   9  -2   21.79    1.26
  -3  -9   2   51.35    2.12
   3  -9  -2   49.36    2.16
   3  -9  -2   53.02    2.54
  -3  -9   2   47.36    2.42
   3  -9  -2   53.95    2.06
   3  -9  -2   47.56    2.59
  -3  -9   2   55.18    2.66
  -3   9   2   51.44    2.19
  -3   9   2   52.01    2.12
   3   9  -2   52.35    2.09
  -3   9   2   54.47    2.18
  -3   9   2   51.98    2.05
  -3   9   2   50.12    2.14
   3   9  -2   51.31    2.17
   3   9  -2   51.17    2.19
  -3   9   2   53.62    2.30
   3   9  -2   44.08    2.67
   3   9  -2   53.00    2.07
   3   9  -2   50.40    2.14
   3   9  -2   52.39    2.26
  -3   9   2   54.44    2.20
  -1  -9   2   32.16    1.98
  -1  -9   2   36.11    1.93
   1  -9  -2   29.65    2.18
  -1  -9   2   34.98    1.57
   1  -9  -2   36.53    1.96
   1  -9  -2   36.41    1.54
   1   9  -2   36.09    1.71
   1   9  -2   35.06    1.55
  -1   9   2   38.11    1.58
   1   9  -2   34.41    1.56
   1   9  -2   35.62    1.60
   1   9  -2   35.08    1.63
  -1   9   2   36.04    1.66
  -1   9   2   34.19    1.60
   1   9  -2   32.06    1.68
   1   9  -2   36.17    1.63
  -1   9   2   33.59    1.63
  -1   9   2   34.72    1.66
  -1   9   2   35.28    1.74
  -1   9   2   34.76    1.59
   1  -9   2   34.17    2.13
  -1  -9  -2   37.11    1.72
   1  -9   2   35.24    1.56
  -1  -9  -2   37.11    1.61
  -1  -9  -2   35.97    1.77
  -1  -9  -2   35.01    1.92
   1  -9   2   35.91    1.85
  -1   9  -2   37.19    1.65
   1   9   2   38.29    1.65
   1   9   2   34.61    1.61
  -1   9  -2   38.76    1.66
  -1   9  -2   36.87    1.60
  -1   9  -2   36.82    1.65
  -1   9  -2   29.95    2.11
  -1   9  -2   35.79    1.76
   1   9   2   36.52    1.71
   1   9   2   37.75    1.65
   1   9   2   36.10    1.66
  -1   9  -2   35.74    1.68
  -3  -9  -2   32.01    2.48
   3  -9   2   36.11    1.73
  -3  -9  -2   34.35    1.87
  -3  -9  -2   35.47    1.59
  -3  -9  -2   32.87    1.76
   3  -9   2   34.50    2.17
   3  -9   2   32.89    1.35
   3  -9   2   34.14    1.50
  -3  -9  -2   33.48    1.70
  -3   9  -2   35.96    1.68
   3   9   2   35.13    1.61
   3   9   2   35.54    1.69
  -3   9  -2   36.11    1.62
  -3   9  -2   36.80    1.68
  -3   9  -2   35.97    1.58
  -3   9  -2   31.47    1.65
   3   9   2   33.35    1.56
  -3   9  -2   34.78    1.75
   3   9   2   36.52    1.63
  -3   9  -2   34.18    1.56
   3   9   2   37.59    1.66
   5  -9   2   45.96    1.91
   5  -9   2   45.56    2.10
  -5  -9  -2   46.63    2.25
   5  -9   2   47.68    2.02
  -5  -9  -2   46.10    2.19
  -5  -9  -2   45.98    2.01
   5  -9   2   49.36    2.06
  -5  -9  -2   44.01    2.12
  -5  -9  -2   49.19    2.49
   5  -9   2   49.22    2.71
   5   9   2   46.50    2.09
  -5   9  -2   46.94    2.13
   5   9   2   40.12    2.25
  -5   9  -2   46.81    2.15
   5   9   2   51.77    2.07
   5   9   2   48.35    2.11
  -5   9  -2   45.88    1.94
  -5   9  -2   45.03    2.06
   5   9   2   49.18    2.01
  -5   9  -2   48.36    2.10
   5   9   2   49.11    2.07
  -7  -9  -2   10.54    0.90
   7  -9   2   12.62    1.58
   7  -9   2   11.52    0.75
   7  -9   2   11.00    0.94
  -7  -9  -2   12.25    1.09
  -7  -9  -2   12.95    1.35
  -7  -9  -2    9.97    1.05
  -7  -9  -2   12.27    1.14
   7  -9   2   12.45    0.89
   7  -9   2   10.01    0.74
  -7   9  -2   10.75    1.00
  -7   9  -2   10.53    1.03
   7   9   2    9.53    0.88
   7   9   2   12.12    0.94
  -7   9  -2   11.12    0.95
   7   9   2   11.53    1.18
  -7   9  -2   10.09    0.79
   7   9   2   10.79    1.01
   7   9   2   11.82    0.94
  -9  -9  -2   33.64    1.53
  -9  -9  -2   39.34    2.17
   9  -9   2   39.61    2.52
  -9  -9  -2   38.26    1.85
   9  -9   2   32.72    1.71
  -9  -9  -2   35.46    1.85
   9  -9   2   35.13    1.74
   9  -9   2   31.81    1.54
   9  -9   2   32.16    1.42
  -9  -9  -2   36.51    1.94
  -9   9  -2   33.39    1.53
  -9   9  -2   33.27    1.75
   9   9   2   36.66    1.75
   9   9   2   33.82    1.70
  -9   9  -2   36.19    1.76
   9   9   2   34.12    1.69
  -9   9  -2   35.57    1.84
   9   9   2   36.13    1.69
   9   9   2   33.88    1.78
 -11  -9  -2   19.81    1.37
  11  -9   2   19.10    1.33
  11  -9   2   18.12    1.26
  11  -9   2   18.02    1.11
 -11  -9  -2   20.94    1.36
 -11  -9  -2   21.40    1.55
  11  -9   2   19.88    1.99
 -11  -9  -2   20.85    1.49
 -11  -9  -2   23.01    1.77
  11   9   2   18.88    1.25
  11   9   2   18.41    1.29
  11   9   2   19.45    1.28
  11   9   2   19.22    1.19
 -11   9  -2   16.74    1.39
 -11   9  -2   20.04    1.39
 -11   9  -2   17.32    1.06
  11   9   2   19.52    1.18
 -11   9  -2   17.31    1.29
 -13  -9  -2   13.89    1.23
 -13  -9  -2   12.87    1.45
  13  -9   2    9.37    1.02
  13  -9   2   12.30    1.87
 -13  -9  -2   13.99    1.50
  13  -9   2   11.69    1.19
  13  -9   2   11.64    1.08
 -13  -9  -2   11.96    1.46
  13   9   2   10.36    1.00
  13   9   2   11.46    0.98
  13   9   2    9.69    1.03
  13   9   2   11.34    1.11
 -13   9  -2   11.68    1.18
 -13   9  -2   11.00    1.54
 -13   9  -2   11.49    1.33
  15  -9   2   10.08    1.05
  15  -9   2   10.54    1.26
 -15  -9  -2   12.39    1.51
 -15  -9  -2   13.35    1.90
 -15  -9  -2   12.91    1.60
  15  -9   2   13.17    1.98
  15   9   2    9.65    1.22
 -15   9  -2   10.05    0.93
  15   9   2    8.24    0.97
  15   9   2    8.99    1.12
  17  -9   2    7.32    1.13
  17  -9   2    7.08    0.92
 -17  -9  -2   11.75    2.09
  17  -9   2   11.51    2.78
 -17  -9  -2    8.23    1.21
  17   9   2    6.61    0.96
  17   9   2    6.39    1.01
  19  -9   2    1.66    1.07
  18  10  -2    6.65    0.86
 -16 -10   2   19.89    3.19
  16 -10  -2   13.48    1.89
  16 -10  -2   15.91    1.54
  16 -10  -2   15.54    1.28
  16  10  -2   15.22    1.43
  16  10  -2   14.77    1.10
  14 -10  -2   24.98    1.58
 -14 -10   2   20.87    1.86
 -14 -10   2   30.00    2.76
  14 -10  -2   26.52    2.08
 -14  10   2   22.85    1.64
  14  10  -2   23.22    1.34
  14  10  -2   24.92    1.59
  12 -10  -2   17.00    1.68
 -12 -10   2   18.86    2.29
  12 -10  -2   13.90    0.82
 -12 -10   2   14.52    1.67
  12 -10  -2   14.04    1.25
 -12 -10   2   15.77    1.23
  12  10  -2   15.50    1.21
  12  10  -2   14.61    1.05
  12  10  -2   13.53    1.09
 -12  10   2   14.06    1.24
  10 -10  -2   36.77    1.69
  10 -10  -2   40.21    2.34
 -10 -10   2   39.50    1.98
  10 -10  -2   39.64    2.13
 -10 -10   2   45.82    3.03
  10  10  -2   36.10    1.88
  10  10  -2   37.89    1.93
  10  10  -2   36.25    1.85
 -10  10   2   37.20    1.83
 -10  10   2   37.92    1.76
  10  10  -2   37.47    1.69
  10  10  -2   39.61    1.79
  10  10  -2   36.16    1.81
 -10  10   2   37.54    1.87
 -10  10   2   39.20    1.96
   8 -10  -2   31.72    1.68
   8 -10  -2   36.65    2.19
  -8 -10   2   38.66    1.96
  -8 -10   2   41.73    2.65
   8 -10  -2   33.25    2.02
  -8 -10   2   35.93    1.79
  -8  10   2   35.00    1.84
   8  10  -2   34.44    1.60
  -8  10   2   34.02    1.73
   8  10  -2   34.76    1.72
  -8  10   2   37.68    1.69
   8  10  -2   34.63    1.62
  -8  10   2   35.88    1.76
   8  10  -2   36.01    1.79
   8  10  -2   35.57    1.70
  -8  10   2   33.65    1.76
   8  10  -2   36.55    1.85
   6 -10  -2   39.06    1.86
  -6 -10   2   36.94    1.90
   6 -10  -2   38.35    2.24
  -6 -10   2   41.34    1.89
   6 -10  -2   42.53    2.36
  -6 -10   2   44.01    2.62
  -6  10   2   40.83    1.90
   6  10  -2   40.86    1.93
   6  10  -2   41.10    1.98
  -6  10   2   39.53    1.57
  -6  10   2   42.36    1.89
  -6  10   2   42.64    1.85
  -6  10   2   43.69    1.67
   6  10  -2   42.78    1.99
  -6  10   2   41.53    2.01
   6  10  -2   43.51    1.92
   6  10  -2   41.03    1.79
   6  10  -2   41.48    1.87
   4 -10  -2   37.62    1.80
  -4 -10   2   38.32    1.81
   4 -10  -2   43.43    2.32
  -4 -10   2   42.06    2.43
   4 -10  -2   36.72    2.54
  -4 -10   2   38.66    2.10
   4 -10  -2   37.24    1.69
  -4  10   2   40.61    1.81
   4  10  -2   40.09    1.75
  -4  10   2   41.43    1.82
   4  10  -2   39.74    1.84
  -4  10   2   42.31    1.70
  -4  10   2   37.14    1.58
   4  10  -2   38.74    1.94
  -4  10   2   43.20    2.02
  -4  10   2   41.43    1.83
   4  10  -2   41.93    1.96
  -4  10   2   42.17    1.87
   4  10  -2   40.40    1.70
   4  10  -2   38.40    1.79
   4  10  -2   37.98    1.85
  -2 -10   2   59.79    2.50
   2 -10  -2   56.00    2.98
   2 -10  -2   62.62    2.95
  -2 -10   2   68.41    3.11
   2 -10  -2   64.20    2.49
  -2 -10   2   62.24    3.01
  -2  10   2   62.60    2.53
  -2  10   2   67.60    2.49
   2  10  -2   63.13    2.59
   2  10  -2   60.67    2.48
  -2  10   2   62.40    2.60
   2  10  -2   60.56    2.58
   2  10  -2   60.59    2.54
   2  10  -2   62.19    2.49
   2  10  -2   62.42    2.70
  -2  10   2   62.89    2.64
   2  10  -2   62.36    2.59
  -2  10   2   61.55    2.53
  -2  10   2   64.27    2.57
  -2  10   2   63.77    2.71
   0 -10   2   30.41    1.75
   0 -10   2   26.32    1.35
   0 -10  -2   26.87    1.76
   0 -10  -2   27.77    1.85
   0 -10  -2   25.74    1.34
   0 -10   2   25.64    1.94
   0  10   2   26.28    1.35
   0  10  -2   26.87    1.42
   0  10   2   29.31    1.51
   0  10   2   27.06    1.44
   0  10  -2   24.46    1.43
   0  10  -2   28.09    1.56
   0  10   2   30.12    1.39
   0  10  -2   27.76    1.37
   0  10   2   27.63    1.41
   0  10  -2   26.28    1.43
   0  10   2   27.52    1.58
   0  10   2   24.43    1.36
   0  10  -2   28.95    1.37
   0  10  -2   27.83    1.40
   2 -10   2   47.86    2.26
   2 -10   2   45.08    1.96
   2 -10   2   47.41    2.72
  -2 -10  -2   43.97    2.12
  -2 -10  -2   47.40    2.38
  -2 -10  -2   46.09    2.41
  -2 -10  -2   46.44    2.54
  -2 -10  -2   45.25    2.02
  -2  10  -2   45.58    2.04
   2  10   2   46.37    2.11
  -2  10  -2   49.53    2.22
  -2  10  -2   48.66    2.14
   2  10   2   50.77    2.05
   2  10   2   46.27    2.03
   2  10   2   49.48    2.09
  -2  10  -2   47.99    2.02
   2  10   2   47.72    2.03
  -2  10  -2   46.55    2.10
  -2  10  -2   46.24    2.06
   4 -10   2   48.22    2.02
   4 -10   2   49.58    2.93
  -4 -10  -2   46.28    2.23
   4 -10   2   50.52    2.22
   4 -10   2   44.81    1.85
  -4 -10  -2   54.51    2.67
  -4 -10  -2   46.39    2.32
  -4 -10  -2   49.38    2.41
  -4  10  -2   47.77    2.05
  -4  10  -2   51.66    2.10
  -4  10  -2   46.30    2.10
   4  10   2   49.61    2.14
  -4  10  -2   50.23    2.22
  -4  10  -2   49.94    2.31
   4  10   2   48.43    2.09
   4  10   2   51.70    2.13
   4  10   2   49.00    2.19
  -4  10  -2   45.37    2.14
   4  10   2   49.56    2.16
   6 -10   2   31.21    1.49
  -6 -10  -2   27.94    1.77
  -6 -10  -2   30.89    1.75
  -6 -10  -2   30.60    1.97
   6 -10   2   27.93    1.31
  -6 -10  -2   29.04    1.69
   6 -10   2   26.54    1.41
   6 -10   2   29.13    2.32
  -6  10  -2   27.64    1.84
   6  10   2   29.20    1.53
  -6  10  -2   32.07    1.98
   6  10   2   29.80    1.67
   6  10   2   28.62    1.56
   6  10   2   30.33    1.49
  -6  10  -2   26.71    1.39
   6  10   2   30.45    1.53
  -6  10  -2   30.61    1.48
  -6  10  -2   28.19    1.66
  -6  10  -2   30.59    1.61
   8 -10   2   28.25    2.34
  -8 -10  -2   25.93    1.59
   8 -10   2   22.78    1.21
   8 -10   2   24.02    1.36
  -8 -10  -2   26.21    1.35
  -8 -10  -2   26.90    1.95
  -8 -10  -2   26.64    1.72
   8 -10   2   24.41    1.18
   8 -10   2   22.28    1.43
  -8 -10  -2   25.03    1.59
  -8  10  -2   22.48    1.24
   8  10   2   24.74    1.43
  -8  10  -2   23.76    1.55
  -8  10  -2   22.24    1.46
   8  10   2   24.87    1.37
  -8  10  -2   24.70    1.50
   8  10   2   24.23    1.37
   8  10   2   24.73    1.40
   8  10   2   23.77    1.65
 -10 -10  -2   30.54    1.93
  10 -10   2   27.27    1.56
  10 -10   2   29.00    1.64
  10 -10   2   27.78    1.48
  10 -10   2   24.42    1.38
 -10 -10  -2   29.89    1.67
 -10 -10  -2   34.51    2.10
  10 -10   2   31.66    2.47
 -10 -10  -2   30.13    1.80
 -10  10  -2   26.22    1.58
 -10  10  -2   25.54    1.77
 -10  10  -2   25.15    1.75
  10  10   2   27.47    1.63
  10  10   2   26.34    1.52
  10  10   2   28.28    1.53
 -10  10  -2   26.59    1.35
  10  10   2   28.37    1.55
  10  10   2   24.32    1.52
  12 -10   2   14.31    1.19
 -12 -10  -2   16.62    1.59
  12 -10   2   15.24    1.36
 -12 -10  -2   19.43    1.60
 -12 -10  -2   15.24    2.22
  12 -10   2   16.17    1.27
  12 -10   2   18.92    2.12
  12  10   2   13.70    1.13
 -12  10  -2   15.88    1.08
  12  10   2   16.79    1.21
  12  10   2   14.86    1.23
 -12  10  -2   15.52    1.39
  12  10   2   17.11    1.31
 -14 -10  -2   11.79    1.59
  14 -10   2    9.43    1.26
 -14 -10  -2   12.15    2.00
  14 -10   2   10.93    1.12
  14 -10   2    9.09    1.75
  14  10   2    8.26    1.19
  14  10   2    8.75    1.13
  14  10   2    7.65    1.01
  14  10   2    7.70    1.06
  16 -10   2   11.09    1.43
 -16 -10  -2   12.04    1.69
  16  10   2    8.98    1.26
  16  10   2    8.72    1.36
  17  11  -2    3.50    0.70
  15 -11  -2    6.51    1.53
 -15 -11   2    8.44    2.15
  15 -11  -2    7.55    1.19
  15  11  -2    6.42    0.80
  15  11  -2    5.41    0.93
 -13 -11   2   15.48    2.48
  13 -11  -2   11.68    1.27
  13 -11  -2   10.41    1.69
  13  11  -2    9.09    1.17
 -13  11   2    9.73    1.35
  13  11  -2   12.50    1.04
  11 -11  -2   11.12    1.23
 -11 -11   2   14.86    2.17
  11 -11  -2    9.75    1.51
 -11 -11   2   10.87    1.29
  11  11  -2   10.33    1.19
  11  11  -2    6.70    1.05
  11  11  -2    8.12    0.87
 -11  11   2    8.07    1.25
   9 -11  -2   13.39    0.97
  -9 -11   2   15.86    1.44
   9 -11  -2   13.13    1.35
   9 -11  -2   13.16    1.59
  -9 -11   2   14.04    1.99
  -9  11   2   14.40    1.21
   9  11  -2   13.37    1.21
  -9  11   2   12.21    1.20
  -9  11   2   14.38    1.27
   9  11  -2   13.74    1.03
  -7 -11   2   12.06    1.08
   7 -11  -2   12.96    1.04
  -7 -11   2   17.09    1.94
   7 -11  -2   13.26    1.41
   7 -11  -2   13.90    1.57
   7  11  -2   12.07    1.19
  -7  11   2   12.86    1.13
  -7  11   2   14.26    1.00
   7  11  -2   12.82    0.92
   7  11  -2   12.86    0.99
  -7  11   2   13.06    1.04
  -7  11   2   13.06    0.71
  -7  11   2   14.59    1.23
   7  11  -2   12.29    1.31
   7  11  -2   12.11    1.11
  -7  11   2   11.02    1.11
   5 -11  -2    8.18    1.40
   5 -11  -2    7.10    0.88
  -5 -11   2   10.40    1.18
  -5 -11   2    9.69    1.52
   5 -11  -2    9.63    1.46
  -5 -11   2    8.35    1.14
  -5  11   2    8.22    0.83
  -5  11   2    8.95    0.97
   5  11  -2    9.34    1.08
  -5  11   2    9.05    0.83
   5  11  -2    9.08    0.99
   5  11  -2    6.79    0.92
   5  11  -2    8.31    0.79
  -5  11   2    8.19    1.10
  -5  11   2    9.21    0.94
  -5  11   2   10.01    0.90
  -5  11   2    8.96    0.65
  -5  11   2    8.30    1.01
   5  11  -2    8.35    0.85
  -3 -11   2   17.89    1.73
  -3 -11   2   17.91    1.61
   3 -11  -2   18.67    1.85
  -3 -11   2   15.41    1.15
   3 -11  -2   16.34    1.57
  -3  11   2   18.23    1.25
  -3  11   2   17.75    1.12
   3  11  -2   15.02    1.17
   3  11  -2   17.26    1.37
  -3  11   2   17.33    1.20
   3  11  -2   16.33    1.10
  -3  11   2   16.93    0.96
   3  11  -2   18.84    1.03
  -3  11   2   20.15    1.09
   3  11  -2   17.40    1.23
  -3  11   2   18.02    1.09
   3  11  -2   17.95    1.25
  -3  11   2   19.25    1.37
  -3  11   2   18.01    1.19
   3  11  -2   17.59    1.07
   1 -11  -2   16.12    1.60
   1 -11  -2   16.58    1.55
  -1 -11   2   16.59    1.73
  -1 -11   2   15.99    1.49
  -1 -11   2   15.03    1.08
  -1  11   2   16.50    1.07
  -1  11   2   14.82    1.12
  -1  11   2   14.54    1.10
   1  11  -2   14.31    1.26
   1  11  -2   14.25    1.14
   1  11  -2   15.89    1.02
  -1  11   2   15.64    1.02
   1  11  -2   14.79    1.04
   1  11  -2   14.95    0.98
   1  11  -2   15.23    1.18
  -1  11   2   15.94    1.28
  -1  11   2   17.11    1.05
  -1  11   2   14.29    1.21
   1  11  -2   15.45    1.15
  -1 -11  -2   14.74    1.43
  -1 -11  -2   13.14    1.48
   1 -11   2   11.59    1.78
   1 -11   2   12.70    0.99
   1 -11   2   12.02    1.26
  -1  11  -2   13.87    0.99
   1  11   2   12.27    1.02
  -1  11  -2   12.87    1.21
  -1  11  -2   13.64    1.12
  -1  11  -2   13.08    1.00
   1  11   2   16.32    1.01
  -1  11  -2   13.78    0.97
   1  11   2   12.46    1.26
  -1  11  -2   12.63    1.09
   1  11   2   14.10    1.03
   1  11   2   12.02    1.13
   1  11   2   11.54    1.01
  -1  11  -2   12.42    1.16
   1  11   2   12.71    0.93
  -3 -11  -2   11.36    1.31
  -3 -11  -2   10.01    1.08
   3 -11   2   10.77    1.09
   3 -11   2   12.71    1.92
  -3 -11  -2   13.75    1.56
  -3  11  -2   13.29    0.96
   3  11   2   10.60    0.98
   3  11   2   10.89    0.87
   3  11   2   10.18    1.21
   3  11   2   11.21    1.09
   3  11   2   12.06    1.02
   3  11   2    9.66    0.98
  -3  11  -2   11.97    0.96
  -3  11  -2   11.04    1.21
  -3  11  -2   11.19    0.98
  -3  11  -2   12.55    1.09
  -3  11  -2   10.19    1.07
  -5 -11  -2   17.38    1.47
   5 -11   2   18.69    2.14
  -5 -11  -2   18.82    1.73
  -5 -11  -2   16.63    1.50
  -5 -11  -2   15.65    1.39
   5  11   2   16.56    1.14
  -5  11  -2   14.52    1.25
  -5  11  -2   16.61    1.07
  -5  11  -2   16.43    2.18
   5  11   2   16.68    1.20
  -5  11  -2   16.30    1.08
   5  11   2   16.49    1.05
   5  11   2   16.01    1.16
  -5  11  -2   15.01    1.11
  -5  11  -2   15.71    1.22
   7 -11   2    9.87    1.65
   7 -11   2    7.83    0.80
  -7 -11  -2    8.29    1.08
  -7 -11  -2    9.63    1.22
  -7  11  -2    9.64    0.90
   7  11   2    7.85    1.06
  -7  11  -2    7.47    0.95
   7  11   2    8.57    0.85
  -7  11  -2    7.69    0.85
   7  11   2    8.32    1.02
   7  11   2    9.64    0.94
  -7  11  -2    8.31    1.09
   7  11   2    7.54    0.93
   9 -11   2   13.35    1.29
  -9 -11  -2   12.43    1.47
  -9 -11  -2   15.77    1.67
  -9 -11  -2   13.96    1.33
   9 -11   2   16.14    2.19
   9  11   2   15.12    1.17
  -9  11  -2   11.85    0.98
   9  11   2   12.01    1.16
  -9  11  -2   10.74    1.23
   9  11   2   13.04    1.12
  -9  11  -2   12.42    1.01
   9  11   2   11.77    1.10
   9  11   2   12.01    1.02
  -9  11  -2   13.06    1.38
  11 -11   2    7.81    1.66
 -11 -11  -2   11.97    1.83
 -11 -11  -2    7.59    1.21
  11 -11   2    7.55    1.01
 -11  11  -2    7.22    1.04
  11  11   2    7.90    0.99
  11  11   2    7.33    0.93
  11  11   2    7.75    1.15
 -11  11  -2    6.64    1.06
 -11  11  -2    6.51    0.90
  11  11   2    6.31    0.95
  13 -11   2    6.97    1.74
 -13 -11  -2    5.92    1.13
 -13 -11  -2    7.63    1.67
  13 -11   2    5.73    0.99
  13  11   2    4.83    0.78
  13  11   2    4.97    0.89
  13  11   2    3.63    0.88
 -15 -11  -2    6.10    1.30
  15 -11   2    6.37    1.13
  15  11   2    4.86    0.81
  15  11   2    6.62    1.00
  14 -12  -2    9.75    1.36
  14  12  -2    7.47    0.98
  12 -12  -2    4.69    1.31
  12 -12  -2    4.95    1.00
 -12 -12   2    5.79    1.78
 -12  12   2    5.45    1.37
  12  12  -2    7.26    0.93
  12  12  -2    5.19    0.96
 -10 -12   2   12.26    1.73
  10 -12  -2   10.78    1.77
 -10 -12   2   12.85    2.23
  10 -12  -2    8.43    1.32
  10  12  -2   10.28    1.40
 -10  12   2   11.07    1.21
 -10  12   2    8.73    1.24
  10  12  -2    9.89    1.26
   8 -12  -2   10.28    1.02
   8 -12  -2   10.41    1.37
   8 -12  -2   12.23    1.71
  -8 -12   2   12.87    1.56
   8  12  -2   11.57    1.31
   8  12  -2   11.62    1.02
  -8  12   2    9.42    1.34
   8  12  -2   11.86    1.16
  -8  12   2   10.17    1.17
   6 -12  -2   10.90    1.50
   6 -12  -2    9.99    1.30
  -6 -12   2   13.09    1.80
   6 -12  -2   10.39    1.60
   6  12  -2   10.28    0.95
  -6  12   2   11.10    1.15
  -6  12   2   10.48    1.23
   6  12  -2   10.25    1.20
   6  12  -2   10.57    1.11
  -6  12   2   11.99    1.34
  -4 -12   2   11.77    1.49
   4 -12  -2   12.02    1.19
   4 -12  -2    7.97    1.24
  -4 -12   2    9.87    1.60
   4 -12  -2   11.89    1.56
  -4  12   2   12.34    1.10
  -4  12   2    9.25    1.19
  -4  12   2   11.62    0.96
   4  12  -2   10.76    1.11
  -4  12   2   11.16    0.84
  -4  12   2   11.20    0.92
   4  12  -2   10.90    1.17
   4  12  -2   11.32    0.99
  -4  12   2   10.15    1.35
   2 -12  -2   15.59    1.69
   2 -12  -2   18.31    1.43
   2 -12  -2   16.25    1.63
  -2 -12   2   17.13    1.66
  -2 -12   2   15.87    1.85
  -2  12   2   15.75    1.09
   2  12  -2   15.85    1.29
   2  12  -2   14.43    1.19
   2  12  -2   15.93    1.08
  -2  12   2   15.79    1.39
  -2  12   2   17.04    1.32
  -2  12   2   15.11    1.60
   2  12  -2   11.27    1.28
  -2  12   2   15.68    1.01
  -2  12   2   12.87    1.14
   2  12  -2   13.41    1.06
   0 -12  -2    8.14    1.42
   0 -12   2   10.67    1.84
   0 -12  -2    6.74    1.18
   0 -12   2    8.44    1.29
   0 -12  -2    7.99    1.17
   0  12   2    7.98    0.91
   0  12   2    7.81    0.98
   0  12  -2    9.12    0.86
   0  12  -2    7.10    0.83
   0  12   2    9.01    0.98
   0  12  -2    7.27    1.02
   0  12  -2    8.25    1.01
   0  12   2    8.24    0.84
   0  12   2    7.93    1.16
   0  12  -2    6.17    0.91
   2 -12   2   12.68    1.30
  -2 -12  -2   16.08    1.47
   2 -12   2   14.88    2.10
  -2 -12  -2   13.17    1.64
  -2 -12  -2   13.05    1.49
   2  12   2   12.01    1.10
  -2  12  -2   12.11    1.04
  -2  12  -2   12.71    1.31
   2  12   2   12.04    0.93
  -2  12  -2   12.36    1.17
   2  12   2   12.68    1.23
   2  12   2   13.26    1.07
  -2  12  -2   14.62    1.05
  -2  12  -2   13.05    1.07
  -4 -12  -2   11.79    1.57
   4 -12   2   14.06    1.20
  -4 -12  -2   17.74    1.62
  -4 -12  -2   17.43    1.82
   4 -12   2   17.71    2.21
  -4  12  -2   16.83    1.12
  -4  12  -2   12.97    1.23
  -4  12  -2   12.19    1.35
  -4  12  -2   13.34    1.10
   4  12   2   13.27    0.98
   4  12   2   13.49    1.10
   4  12   2   14.04    1.34
   4  12   2   14.76    1.21
   6 -12   2   10.17    1.76
  -6 -12  -2   12.74    1.58
  -6 -12  -2   11.06    1.40
   6 -12   2    9.83    0.99
  -6 -12  -2   11.90    1.64
  -6 -12  -2    6.10    1.05
  -6  12  -2    8.52    1.08
  -6  12  -2   10.82    1.59
   6  12   2    9.49    0.99
  -6  12  -2   10.17    0.95
   6  12   2    7.91    1.09
   6  12   2    7.68    1.06
  -6  12  -2    8.48    1.32
   6  12   2    8.36    0.88
  -8 -12  -2    8.36    1.40
   8 -12   2   11.59    2.20
  -8 -12  -2   11.84    1.86
  -8 -12  -2    6.96    1.17
  -8  12  -2    7.79    1.04
  -8  12  -2    9.56    0.95
  -8  12  -2    7.16    0.99
   8  12   2    7.33    0.94
  -8  12  -2    8.58    1.54
   8  12   2    6.78    0.89
 -10 -12  -2   12.75    1.79
  10 -12   2    9.76    1.82
  10 -12   2    8.62    1.13
 -10 -12  -2   12.03    1.97
  10  12   2    8.00    1.07
  10  12   2    8.31    1.32
 -10  12  -2    7.41    1.08
  10  12   2    9.45    1.21
  12 -12   2    6.04    1.07
 -12 -12  -2    7.02    1.35
  12  12   2    4.12    0.87
  11 -13  -2    9.96    1.68
   9 -13  -2   15.34    1.77
   9 -13  -2   13.39    2.12
  -9 -13   2   16.17    2.53
  -9 -13   2   19.06    2.02
   9  13  -2   17.57    1.66
  -9  13   2   14.92    1.48
  -7 -13   2   14.20    2.21
   7 -13  -2   16.67    1.98
   7 -13  -2   14.27    1.34
   7 -13  -2   15.52    1.78
   7  13  -2   16.02    1.53
   7  13  -2   17.75    1.41
   7  13  -2   16.88    1.51
  -7  13   2   14.90    1.34
   5 -13  -2   16.04    1.34
  -5 -13   2   15.51    1.97
   5 -13  -2   12.94    1.76
   5 -13  -2   14.63    1.84
   5  13  -2   12.11    1.10
   5  13  -2   14.41    1.39
   5  13  -2   15.02    1.37
  -5  13   2   13.45    1.27
  -3 -13   2   21.83    2.02
   3 -13  -2   20.70    1.97
   3 -13  -2   22.49    1.99
   3 -13  -2   21.07    1.84
  -3  13   2   18.37    1.40
  -3  13   2   19.53    1.24
   3  13  -2   21.92    1.56
   3  13  -2   21.08    1.33
   3  13  -2   19.30    1.49
   1 -13  -2   19.59    1.88
  -1 -13   2   20.40    2.22
   1 -13  -2   18.83    1.99
   1 -13  -2   17.95    1.55
  -1 -13   2   17.55    1.77
  -1  13   2   17.70    1.27
  -1  13   2   18.87    1.33
   1  13  -2   17.11    1.43
  -1  13   2   20.43    1.45
  -1  13   2   19.45    1.56
  -1  13   2   20.01    1.41
   1  13  -2   16.17    1.37
  -1 -13  -2   18.33    1.95
   1 -13   2   15.17    1.59
  -1 -13  -2   14.68    1.76
  -1 -13  -2   19.90    1.64
   1 -13   2   17.01    2.29
   1  13   2   13.95    1.62
  -1  13  -2   13.89    1.24
   1  13   2   18.44    1.22
   1  13   2   15.21    1.47
   1  13   2   16.31    1.26
  -1  13  -2   12.85    1.34
  -3 -13  -2   22.53    1.80
  -3 -13  -2   21.57    2.12
   3 -13   2   20.92    2.50
   3 -13   2   22.32    2.42
  -3 -13  -2   17.18    1.84
   3  13   2   19.22    1.68
  -3  13  -2   14.15    1.39
  -3  13  -2   17.33    1.33
   3  13   2   18.65    1.33
   3  13   2   19.28    1.30
  -5 -13  -2   19.95    2.08
  -5 -13  -2   19.87    1.85
   5 -13   2   17.26    2.48
  -5 -13  -2   14.18    1.91
   5  13   2   15.96    1.35
  -5  13  -2   17.67    1.30
  -5  13  -2   14.50    1.49
  -5  13  -2   18.41    1.48
  -7 -13  -2    9.98    1.56
   7 -13   2   10.01    2.02
  -7 -13  -2   13.21    1.98
   7  13   2    9.63    1.24
   9 -13   2    9.90    2.13
   9 -13   2   11.88    1.59
   9  13   2   11.63    1.36
  -4 -14   2    8.98    1.76
   4 -14  -2    9.16    1.39
   4 -14  -2    5.54    1.42
  -4  14   2    7.17    1.01
   4  14  -2    7.42    1.06
   2 -14  -2   10.36    1.88
   2 -14  -2   10.09    1.47
  -2 -14   2   12.61    2.35
   2  14  -2    8.02    1.04
  -2  14   2    6.77    1.02
   0 -14   2    8.21    1.33
   0 -14  -2    7.28    1.42
   0 -14  -2    6.02    1.86
   0  14  -2    5.56    0.90
   0  14   2    7.37    1.00
  -2 -14  -2    9.53    1.68
   2 -14   2    7.02    1.22
  -2 -14  -2    7.73    1.50
   2 -14   2    8.87    1.80
  -2  14  -2    6.29    0.96
   2  14   2    5.86    0.93
   2  14   2    6.78    0.96
  26   0  -3    0.83    1.10
  24   0  -3   14.89    1.41
  24   0  -3   13.43    1.24
 -24   0   3   16.28    1.51
  22   0  -3    9.59    1.11
  22   0  -3    8.54    0.67
  22   0  -3    8.48    0.84
 -22   0   3    7.40    1.14
 -22   0   3    9.02    1.50
  22   0  -3    8.04    1.00
  20   0  -3   32.16    1.63
  20   0  -3   27.94    1.43
 -20   0   3   26.98    1.32
 -20   0   3   28.58    1.63
  20   0  -3   28.45    1.34
 -20   0   3   26.69    1.89
  20   0  -3   29.02    1.27
 -20   0   3   26.87    1.23
  20   0  -3   30.09    1.51
  18   0  -3   13.29    0.89
 -18   0   3   14.11    1.25
  18   0  -3   13.93    0.75
  18   0  -3   13.46    1.08
 -18   0   3   12.49    0.70
  18   0  -3   11.64    0.80
  18   0  -3   13.48    0.82
 -18   0   3   13.19    1.06
  18   0  -3   12.25    1.26
 -16   0   3  109.88    3.84
  16   0  -3  110.29    3.79
  16   0  -3  113.08    4.06
  16   0  -3  109.48    4.21
  16   0  -3  105.46    4.01
  16   0  -3  114.29    4.03
  16   0  -3  113.01    3.93
 -16   0   3  101.75    4.34
 -16   0   3  112.62    3.88
  16   0  -3  111.63    4.05
  16   0  -3  112.74    4.13
 -16   0   3  112.72    4.21
 -14   0   3   47.49    2.25
  14   0  -3   49.30    2.01
  14   0  -3   52.50    2.05
 -14   0   3   51.83    1.84
 -14   0   3   51.97    2.19
  14   0  -3   51.48    1.88
  14   0  -3   52.91    2.05
  14   0  -3   51.16    2.18
  14   0  -3   51.55    2.09
  14   0  -3   51.93    2.03
  12   0  -3   85.68    3.07
  12   0  -3   84.20    3.10
  12   0  -3   82.50    3.21
 -12   0   3   85.91    3.23
 -12   0   3   88.01    2.92
  12   0  -3   85.27    3.12
  12   0  -3   86.10    3.12
  12   0  -3   82.49    3.11
  12   0  -3   82.87    3.00
 -12   0   3   80.88    3.29
 -12   0   3   84.73    2.89
  10   0  -3  275.39    9.36
  10   0  -3  273.28    9.38
  10   0  -3  279.20    9.44
 -10   0   3  266.60    9.13
  10   0  -3  283.46    9.38
 -10   0   3  281.17    9.47
  10   0  -3  272.39    9.33
  10   0  -3  267.70    9.29
  10   0  -3  267.26    9.27
   8   0  -3  177.91    6.15
   8   0  -3  173.71    6.06
   8   0  -3  174.58    5.99
  -8   0   3  173.03    6.12
  -8   0   3  178.68    6.18
   8   0  -3  173.40    6.03
   8   0  -3  177.80    6.01
  -8   0   3  179.24    6.12
   6   0  -3  261.92    8.96
   6   0  -3  246.52    8.95
   6   0  -3  266.22    8.81
  -6   0   3  264.66    8.96
   6   0  -3  273.73    8.84
   6   0  -3  266.15    8.84
   6   0  -3  268.39    8.96
   6   0  -3  259.04    8.97
  -6   0   3  265.97    9.01
   6   0  -3  261.85    8.96
  -6   0   3  253.48    8.96
  -4   0   3   98.23    3.61
   4   0  -3  104.85    3.63
   4   0  -3   99.49    3.40
  -4   0   3  100.46    3.43
   4   0  -3  101.03    3.49
  -4   0   3  104.82    3.50
  -4   0   3  100.48    3.45
   4   0  -3  105.17    3.61
   4   0  -3   97.68    3.59
  -4   0   3  101.56    3.61
   4   0  -3  100.98    3.45
  -4   0   3  100.28    3.42
  -2   0   3  549.53   18.52
   2   0  -3  601.86   18.86
  -2   0   3  550.66   18.68
   2   0  -3  570.55   18.52
  -2   0   3  514.97   18.86
   2   0  -3  513.50   18.55
   2   0  -3  579.18   18.63
   2   0  -3  517.17   18.67
   2   0  -3  553.98   18.50
  -2   0   3  534.38   18.48
   2   0  -3  591.87   18.57
  -2   0   3  549.66   18.64
   0   0   3   29.85    1.14
   0   0  -3   29.68    1.21
   0   0  -3   31.29    1.28
   0   0   3   29.36    1.16
   0   0  -3   29.91    1.05
   0   0  -3   28.72    1.13
   0   0  -3   29.29    1.09
   0   0   3   29.54    1.11
   0   0   3   28.47    1.14
   0   0   3   30.91    1.07
   0   0  -3   29.11    1.15
   0   0   3   29.31    1.26
  -2   0  -3  480.37   16.22
  -2   0  -3  452.77   16.15
  -2   0  -3  493.09   16.32
   2   0   3  535.24   16.16
   2   0   3  478.48   16.21
   2   0   3  470.20   16.17
  -2   0  -3  464.16   16.24
  -2   0  -3  501.18   16.36
  -2   0  -3  478.96   16.19
  -2   0  -3  489.84   16.21
   2   0   3  480.61   16.16
   2   0   3  471.26   16.20
  -4   0  -3   45.55    1.77
   4   0   3   46.77    1.73
  -4   0  -3   44.06    1.69
  -4   0  -3   46.42    1.71
   4   0   3   43.42    1.76
  -4   0  -3   46.57    1.91
   4   0   3   43.97    1.94
  -4   0  -3   47.94    1.77
   4   0   3   45.89    1.74
   4   0   3   46.83    1.65
  -4   0  -3   44.08    1.73
   6   0   3  150.46    5.06
   6   0   3  144.18    5.32
   6   0   3  146.36    5.07
  -6   0  -3  141.47    5.06
  -6   0  -3  140.60    5.02
   6   0   3  148.37    5.12
   6   0   3  145.54    5.08
  -6   0  -3  150.50    5.11
  -6   0  -3  139.91    5.11
  -6   0  -3  150.48    5.27
  -6   0  -3  139.79    5.07
   6   0   3  144.00    5.06
   8   0   3   33.55    1.40
   8   0   3   33.25    1.45
  -8   0  -3   33.65    1.38
  -8   0  -3   33.17    1.40
   8   0   3   33.30    1.38
  -8   0  -3   33.65    1.38
  -8   0  -3   33.49    1.45
   8   0   3   31.54    1.41
   8   0   3   32.41    1.35
  -8   0  -3   32.51    1.36
   8   0   3   32.24    1.64
  -8   0  -3   34.43    1.59
 -10   0  -3  191.33    6.70
  10   0   3  189.78    6.62
 -10   0  -3  194.58    6.69
 -10   0  -3  186.45    6.62
 -10   0  -3  196.56    6.93
 -10   0  -3  185.73    6.66
  10   0   3  193.35    7.01
 -10   0  -3  198.83    6.77
  10   0   3  193.00    6.71
  10   0   3  195.29    6.69
  10   0   3  190.67    6.75
  10   0   3  191.34    6.74
 -12   0  -3   20.71    1.15
 -12   0  -3   19.43    1.12
  12   0   3   20.99    1.16
 -12   0  -3   19.52    1.05
  12   0   3   22.01    1.06
  12   0   3   21.02    1.34
 -12   0  -3   20.28    0.97
 -12   0  -3   20.75    1.06
 -12   0  -3   22.21    1.28
  12   0   3   20.43    1.06
  12   0   3   19.77    1.11
  12   0   3   20.55    0.96
 -14   0  -3   28.61    1.29
  14   0   3   31.14    1.51
 -14   0  -3   32.04    1.49
 -14   0  -3   31.94    1.47
  14   0   3   30.27    1.45
 -14   0  -3   29.48    1.45
  14   0   3   30.07    1.44
 -14   0  -3   30.33    1.66
 -14   0  -3   31.14    1.55
  14   0   3   33.38    1.69
  14   0   3   31.15    1.76
  14   0   3   31.60    1.31
 -16   0  -3   25.26    1.39
  16   0   3   26.95    1.16
 -16   0  -3   27.75    1.46
 -16   0  -3   23.79    1.36
  16   0   3   28.70    1.54
  16   0   3   26.39    1.33
 -16   0  -3   24.37    1.20
  16   0   3   25.03    1.90
  16   0   3   26.40    1.41
 -18   0  -3    6.63    0.90
 -18   0  -3   10.01    0.96
  18   0   3    7.95    1.18
  18   0   3    7.92    0.78
  18   0   3    7.43    0.56
  18   0   3   10.05    1.06
 -18   0  -3    7.19    0.66
  18   0   3    7.24    0.89
 -18   0  -3    6.33    0.87
 -20   0  -3   10.34    1.22
  20   0   3   11.05    1.26
  20   0   3   11.45    1.37
 -20   0  -3    9.53    1.13
  20   0   3   11.00    1.01
  22   0   3    5.29    1.02
  22   0   3    4.86    1.03
 -22   0  -3    3.61    0.98
 -25  -1   3    4.33    1.18
  25  -1  -3    2.45    0.68
  25  -1  -3    2.91    0.80
  25  -1  -3    2.22    0.89
  25   1  -3    2.24    0.78
  25   1  -3    3.17    0.90
  23  -1  -3    5.43    0.91
 -23  -1   3    4.92    1.04
  23  -1  -3    5.89    0.85
  23  -1  -3    5.71    0.91
  23   1  -3    7.12    1.01
 -23   1   3    5.83    1.02
  23   1  -3    5.85    0.75
  23   1  -3    8.01    1.12
 -21  -1   3   21.86    1.59
 -21  -1   3   19.75    1.10
  21  -1  -3   23.39    1.18
  21  -1  -3   21.88    1.02
 -21  -1   3   20.75    1.61
 -21  -1   3   21.73    1.20
  21  -1  -3   21.00    1.31
  21  -1  -3   22.39    1.37
  21   1  -3   21.86    1.19
 -21   1   3   21.62    1.07
 -21   1   3   20.20    1.94
 -21   1   3   22.13    1.17
  21   1  -3   23.51    1.47
  21   1  -3   23.92    1.36
 -21   1   3   22.77    1.38
  21   1  -3   22.89    1.09
 -19  -1   3    3.30    0.43
  19  -1  -3    4.56    0.61
  19  -1  -3    3.77    0.34
  19  -1  -3    5.42    0.73
  19  -1  -3    4.24    0.47
 -19  -1   3    3.84    0.49
  19  -1  -3    4.03    0.64
 -19  -1   3    4.86    0.86
 -19  -1   3    5.01    0.83
  19   1  -3    4.38    0.57
 -19   1   3    3.68    0.54
  19   1  -3    5.13    0.52
  19   1  -3    3.64    0.66
 -19   1   3    4.21    0.76
  19   1  -3    5.71    0.73
 -19   1   3    3.19    0.40
 -19   1   3    3.03    0.87
  19   1  -3    3.94    0.53
  17  -1  -3   62.40    2.42
  17  -1  -3   56.43    2.29
  17  -1  -3   60.81    2.44
 -17  -1   3   58.38    2.62
 -17  -1   3   56.62    2.19
  17  -1  -3   63.04    2.22
 -17  -1   3   55.93    2.56
 -17  -1   3   59.96    2.24
  17  -1  -3   62.25    2.39
 -17  -1   3   56.60    2.38
 -17   1   3   58.70    2.16
  17   1  -3   56.86    2.08
  17   1  -3   61.81    2.48
  17   1  -3   54.51    2.34
  17   1  -3   62.86    2.41
  17   1  -3   58.65    2.29
  17   1  -3   56.22    2.52
 -17   1   3   61.12    2.46
  17   1  -3   61.59    2.30
 -17   1   3   55.18    2.80
  17   1  -3   60.48    2.27
 -17   1   3   60.14    2.25
  15  -1  -3   14.00    0.77
  15  -1  -3   14.07    0.90
  15  -1  -3   12.31    0.91
  15  -1  -3   13.80    0.83
 -15  -1   3   14.94    0.85
 -15  -1   3   14.50    0.68
  15  -1  -3   13.90    0.85
 -15  -1   3   14.39    1.06
 -15  -1   3   13.40    0.99
  15  -1  -3   14.86    0.71
  15  -1  -3   14.31    0.85
 -15  -1   3   12.59    0.77
 -15   1   3   13.24    0.92
  15   1  -3   13.90    0.79
 -15   1   3   14.06    0.69
  15   1  -3   14.11    0.63
  15   1  -3   13.65    0.91
  15   1  -3   14.06    0.67
  15   1  -3   13.48    0.86
 -15   1   3   14.23    0.65
  15   1  -3   14.26    0.94
 -15   1   3   13.20    1.14
  15   1  -3   14.40    0.77
  15   1  -3   13.28    0.82
 -13  -1   3  118.87    4.21
  13  -1  -3  120.98    4.32
 -13  -1   3  115.85    4.42
  13  -1  -3  117.95    4.20
  13  -1  -3  114.91    4.19
  13  -1  -3  119.44    4.10
 -13  -1   3  117.24    4.04
  13  -1  -3  120.12    4.28
  13  -1  -3  121.08    4.38
  13   1  -3  121.46    4.21
 -13   1   3  118.96    4.30
  13   1  -3  119.22    4.35
 -13   1   3  120.29    4.02
  13   1  -3  117.41    4.16
  13   1  -3  116.85    4.12
 -13   1   3  110.57    4.53
  13   1  -3  111.04    4.22
  13   1  -3  116.46    4.27
  13   1  -3  119.12    4.20
 -11  -1   3   12.43    0.74
  11  -1  -3   12.87    0.69
 -11  -1   3   11.51    0.83
 -11  -1   3   12.66    0.53
 -11  -1   3   12.17    0.67
 -11  -1   3   12.29    0.55
  11  -1  -3   12.23    0.64
  11  -1  -3   12.35    0.69
  11  -1  -3   12.42    0.79
  11  -1  -3   12.74    0.74
  11  -1  -3   12.40    0.78
 -11   1   3   12.60    0.53
  11   1  -3   12.70    0.67
  11   1  -3   12.21    0.65
  11   1  -3   13.23    0.74
  11   1  -3   12.22    0.73
  11   1  -3   12.24    0.74
  11   1  -3   13.24    0.70
  11   1  -3   12.14    0.76
 -11   1   3   12.55    0.51
 -11   1   3   12.53    0.78
 -11   1   3   11.33    0.88
   9  -1  -3  306.28   10.36
  -9  -1   3  307.23   10.42
   9  -1  -3  309.02   10.13
  -9  -1   3  296.10   10.29
   9  -1  -3  302.83   10.23
   9  -1  -3  311.67   10.28
   9  -1  -3  311.52   10.33
   9  -1  -3  285.94   10.33
  -9  -1   3  292.24   10.06
   9  -1  -3  298.19   10.19
   9   1  -3  304.23   10.30
   9   1  -3  302.12   10.23
  -9   1   3  308.63   10.06
   9   1  -3  314.98   10.25
  -9   1   3  300.30   10.34
  -9   1   3  302.47   10.32
   9   1  -3  293.40   10.17
   9   1  -3  271.71   10.37
  -9   1   3  317.52   10.04
   7  -1  -3    3.64    0.37
   7  -1  -3    3.69    0.41
   7  -1  -3    3.81    0.39
   7  -1  -3    4.04    0.43
  -7  -1   3    3.75    0.40
   7  -1  -3    3.73    0.27
  -7  -1   3    3.72    0.20
   7  -1  -3    4.27    0.43
  -7  -1   3    3.95    0.45
  -7  -1   3    4.34    0.37
  -7   1   3    4.66    0.37
  -7   1   3    3.97    0.21
   7   1  -3    4.92    0.30
  -7   1   3    4.11    0.20
  -7   1   3    3.30    0.39
   7   1  -3    4.18    0.34
  -7   1   3    3.96    0.22
   7   1  -3    3.68    0.35
   7   1  -3    3.60    0.36
  -7   1   3    3.87    0.43
   7   1  -3    3.60    0.37
   7   1  -3    4.01    0.38
   7   1  -3    3.45    0.38
   5  -1  -3  371.04   13.40
   5  -1  -3  403.87   13.40
  -5  -1   3  407.02   13.34
  -5  -1   3  414.40   13.30
  -5  -1   3  424.79   13.48
   5  -1  -3  392.59   13.38
   5  -1  -3  400.19   13.30
  -5  -1   3  399.84   13.28
  -5  -1   3  416.59   13.24
  -5  -1   3  377.73   13.39
   5  -1  -3  405.58   13.24
   5   1  -3  384.71   13.32
  -5   1   3  383.98   13.37
   5   1  -3  414.00   13.41
   5   1  -3  394.06   13.37
   5   1  -3  354.56   13.33
   5   1  -3  409.71   13.27
   5   1  -3  414.69   13.41
  -5   1   3  389.76   13.41
  -5   1   3  382.24   13.39
  -5   1   3  418.54   13.25
  -5   1   3  377.82   13.23
  -5   1   3  383.68   13.24
  -3  -1   3   89.62    3.14
  -3  -1   3   93.68    3.12
   3  -1  -3   91.88    3.30
   3  -1  -3   93.31    3.29
   3  -1  -3   89.21    3.06
   3  -1  -3   89.15    3.30
  -3  -1   3   95.76    3.19
  -3  -1   3   91.99    3.10
   3  -1  -3   88.79    3.11
  -3  -1   3   88.88    3.31
   3  -1  -3   92.64    3.14
  -3  -1   3   89.87    3.29
   3  -1  -3   87.21    3.12
  -3  -1   3   91.58    3.23
   3   1  -3   90.60    3.11
   3   1  -3   92.30    3.29
  -3   1   3   95.63    3.30
  -3   1   3   88.72    3.14
   3   1  -3   89.64    3.10
  -3   1   3   89.53    3.30
  -3   1   3   90.16    3.27
   3   1  -3   91.54    3.22
   3   1  -3   95.40    3.27
  -3   1   3   89.61    3.13
  -3   1   3   94.78    3.15
  -1  -1   3   78.27    2.71
  -1  -1   3   75.70    2.83
  -1  -1   3   76.63    2.79
   1  -1  -3   78.40    2.84
   1  -1  -3   77.07    2.70
   1  -1  -3   77.32    2.70
   1  -1  -3   77.79    2.72
   1  -1  -3   77.77    2.70
   1  -1  -3   77.37    2.81
  -1  -1   3   78.63    2.68
  -1  -1   3   78.19    2.69
  -1  -1   3   81.01    2.74
   1   1  -3   77.72    2.67
  -1   1   3   76.16    2.84
  -1   1   3   78.61    2.72
   1   1  -3   77.37    2.80
   1   1  -3   78.63    2.82
  -1   1   3   75.61    2.73
   1   1  -3   77.43    2.61
   1   1  -3   79.79    2.71
   1   1  -3   76.64    2.69
  -1   1   3   76.09    2.71
   1   1  -3   77.50    2.86
  -1   1   3   78.26    2.71
  -1   1   3   76.47    2.87
   1   1  -3   75.34    2.74
  -1  -1  -3   63.67    2.33
  -1  -1  -3   63.27    2.31
  -1  -1  -3   65.88    2.37
   1  -1   3   65.54    2.30
   1  -1   3   65.16    2.33
  -1  -1  -3   63.61    2.30
  -1  -1  -3   65.66    2.31
  -1  -1  -3   63.88    2.40
   1  -1   3   65.91    2.31
   1  -1   3   67.28    2.26
   1  -1   3   63.24    2.40
   1  -1   3   65.46    2.24
  -1   1  -3   64.25    2.24
  -1   1  -3   63.56    2.30
  -1   1  -3   65.23    2.31
   1   1   3   65.06    2.37
  -1   1  -3   62.98    2.36
  -1   1  -3   62.12    2.38
   1   1   3   64.30    2.34
   1   1   3   61.52    2.31
   1   1   3   64.14    2.31
  -1   1  -3   65.31    2.46
  -1   1  -3   64.21    2.22
  -1   1  -3   65.61    2.33
   1   1   3   65.59    2.31
   1   1   3   66.66    2.43
   1   1   3   64.43    2.19
   3  -1   3  146.29    5.17
  -3  -1  -3  139.26    4.91
  -3  -1  -3  141.34    4.92
   3  -1   3  149.11    4.85
  -3  -1  -3  141.77    4.98
  -3  -1  -3  143.50    4.90
  -3  -1  -3  139.18    4.94
   3  -1   3  146.86    4.91
  -3  -1  -3  141.63    4.88
   3  -1   3  143.31    4.87
   3  -1   3  142.92    4.94
   3  -1   3  130.11    4.96
   3  -1   3  145.96    4.99
   3   1   3  143.04    5.00
  -3   1  -3  142.66    4.89
  -3   1  -3  139.99    4.84
  -3   1  -3  145.68    4.94
   3   1   3  141.99    4.92
  -3   1  -3  132.99    5.20
   3   1   3  139.69    4.95
  -3   1  -3  144.31    4.90
   3   1   3  144.49    4.93
  -5  -1  -3   68.15    2.56
   5  -1   3   71.08    2.50
  -5  -1  -3   67.84    2.53
  -5  -1  -3   65.92    2.48
   5  -1   3   67.32    2.56
  -5  -1  -3   69.73    2.56
   5  -1   3   68.98    2.78
   5  -1   3   71.91    2.51
   5  -1   3   68.30    2.51
  -5  -1  -3   66.13    2.47
   5  -1   3   68.94    2.45
  -5   1  -3   69.22    2.55
  -5   1  -3   71.32    2.70
  -5   1  -3   68.71    2.49
  -5   1  -3   66.78    2.50
   5   1   3   68.34    2.57
  -5   1  -3   68.80    2.46
  -5   1  -3   67.25    2.54
   5   1   3   70.06    2.54
   5   1   3   70.52    2.52
   5   1   3   66.71    2.56
   5   1   3   70.18    2.49
   5   1   3   68.96    2.53
   7  -1   3   33.18    1.45
  -7  -1  -3   34.90    1.47
   7  -1   3   34.10    1.41
   7  -1   3   34.17    1.69
   7  -1   3   32.80    1.45
  -7  -1  -3   34.87    1.60
   7  -1   3   33.97    1.42
   7  -1   3   33.88    1.36
  -7  -1  -3   36.39    1.40
  -7  -1  -3   34.29    1.43
  -7  -1  -3   31.81    1.41
  -7  -1  -3   33.49    1.41
   7  -1   3   34.19    1.39
   7   1   3   34.34    1.43
  -7   1  -3   34.76    1.59
  -7   1  -3   32.32    1.37
   7   1   3   35.43    1.45
   7   1   3   33.91    1.45
   7   1   3   35.11    1.47
  -7   1  -3   34.77    1.42
   7   1   3   35.23    1.43
   7   1   3   34.89    1.35
  -7   1  -3   35.10    1.46
  -7   1  -3   34.44    1.37
  -9  -1  -3  122.54    4.39
   9  -1   3  122.23    4.38
   9  -1   3  123.64    4.27
   9  -1   3  120.50    4.32
   9  -1   3  119.85    4.34
  -9  -1  -3  120.55    4.53
   9  -1   3  116.22    4.31
  -9  -1  -3  119.81    4.33
  -9  -1  -3  119.45    4.33
  -9  -1  -3  118.61    4.28
  -9  -1  -3  115.44    4.29
   9  -1   3  122.30    4.65
   9  -1   3  123.60    4.30
   9   1   3  119.76    4.38
  -9   1  -3  119.62    4.28
  -9   1  -3  125.73    4.55
  -9   1  -3  122.87    4.29
  -9   1  -3  122.08    4.32
  -9   1  -3  119.09    4.28
   9   1   3  124.79    4.34
   9   1   3  120.09    4.58
   9   1   3  119.93    4.37
   9   1   3  121.21    4.21
   9   1   3  116.99    4.33
  -9   1  -3  126.55    4.41
 -11  -1  -3    1.04    0.32
 -11  -1  -3    0.84    0.40
  11  -1   3    1.47    0.32
 -11  -1  -3    0.89    0.34
  11  -1   3    1.10    0.31
  11  -1   3    1.35    0.36
 -11  -1  -3    1.53    0.32
  11  -1   3    1.11    0.53
  11  -1   3    1.00    0.32
  11  -1   3    1.83    0.36
 -11  -1  -3    1.50    0.65
 -11  -1  -3    2.00    0.37
  11  -1   3    1.55    0.40
  11   1   3    1.13    0.50
 -11   1  -3    1.31    0.30
  11   1   3    1.02    0.39
 -11   1  -3    0.87    0.43
 -11   1  -3    1.00    0.40
  11   1   3    1.34    0.26
 -11   1  -3    1.42    0.34
  11   1   3    1.29    0.32
  11   1   3    1.38    0.36
  11   1   3    1.20    0.30
 -11   1  -3    1.10    0.31
 -11   1  -3    1.15    0.35
 -13  -1  -3   49.74    2.13
  13  -1   3   51.34    2.13
 -13  -1  -3   52.36    2.03
  13  -1   3   51.93    2.31
 -13  -1  -3   51.89    2.35
 -13  -1  -3   53.68    2.18
  13  -1   3   51.98    2.10
 -13  -1  -3   54.76    2.25
 -13  -1  -3   52.93    2.16
  13  -1   3   51.52    2.11
  13  -1   3   49.63    2.24
  13  -1   3   55.54    2.24
  13  -1   3   56.97    2.56
 -13   1  -3   53.53    2.13
  13   1   3   53.24    2.24
 -13   1  -3   52.70    2.15
 -13   1  -3   51.42    2.12
  13   1   3   48.11    2.27
  13   1   3   54.44    2.18
  13   1   3   54.07    1.99
 -13   1  -3   50.79    2.00
 -13   1  -3   51.44    2.36
  13   1   3   52.50    2.14
  13   1   3   53.26    2.44
 -13   1  -3   53.02    2.21
 -15  -1  -3   17.99    0.95
  15  -1   3   18.49    1.03
 -15  -1  -3   14.57    1.25
  15  -1   3   18.09    0.95
  15  -1   3   19.44    1.48
 -15  -1  -3   17.71    1.20
 -15  -1  -3   16.74    1.26
  15  -1   3   15.74    1.15
  15  -1   3   17.28    1.11
 -15  -1  -3   17.36    1.11
  15   1   3   18.24    1.05
 -15   1  -3   19.06    1.18
 -15   1  -3   16.45    1.13
  15   1   3   18.21    0.84
 -15   1  -3   17.16    1.07
  15   1   3   17.59    1.10
  15   1   3   19.70    1.41
 -15   1  -3   18.12    0.89
  15   1   3   18.76    1.24
 -17  -1  -3   17.67    1.23
 -17  -1  -3   14.90    1.13
  17  -1   3   15.59    0.90
  17  -1   3   17.83    1.67
  17  -1   3   16.15    1.13
  17  -1   3   14.46    0.99
 -17  -1  -3   16.35    1.01
  17  -1   3   17.90    1.31
 -17  -1  -3   16.08    1.20
 -17   1  -3   16.74    1.14
  17   1   3   16.79    1.28
  17   1   3   15.96    1.12
 -17   1  -3   15.72    0.84
 -17   1  -3   14.64    1.13
  17   1   3   15.90    0.74
  17   1   3   15.07    1.00
 -17   1  -3   15.47    1.13
 -19  -1  -3    2.04    0.66
  19  -1   3    1.99    0.75
  19  -1   3    1.60    0.57
  19  -1   3    2.67    0.65
  19  -1   3    3.18    0.88
 -19  -1  -3    1.73    0.75
  19  -1   3    2.24    0.39
 -19  -1  -3    2.40    0.64
  19   1   3    2.24    0.76
 -19   1  -3    1.87    0.60
  19   1   3    2.18    0.71
 -19   1  -3    1.76    0.59
  19   1   3    1.65    0.56
 -19   1  -3    1.96    0.62
  19   1   3    3.52    0.78
 -19   1  -3    2.45    0.67
  21  -1   3   11.89    1.39
 -21  -1  -3   11.32    1.38
  21  -1   3   11.35    1.38
 -21  -1  -3    7.84    1.10
  21  -1   3    9.79    1.05
  21   1   3    9.49    1.01
  21   1   3   11.93    1.39
  21   1   3    9.87    1.33
 -21   1  -3   11.51    1.40
  23  -1   3    1.50    0.96
  26  -2  -3    1.29    0.68
  26   2  -3    1.58    0.89
 -24  -2   3   10.05    1.62
  24  -2  -3   10.76    1.26
  24  -2  -3    9.52    1.15
  24   2  -3    9.82    1.28
  24   2  -3   10.30    1.11
 -22  -2   3    5.03    1.11
  22  -2  -3    4.65    0.79
  22  -2  -3    4.52    0.78
  22   2  -3    3.96    0.37
  22   2  -3    4.80    0.74
  22   2  -3    5.23    0.64
  22   2  -3    4.61    0.77
  20  -2  -3   21.16    1.15
  20  -2  -3   20.38    1.32
 -20  -2   3   20.47    1.14
 -20  -2   3   18.70    1.04
 -20  -2   3   20.35    1.35
  20  -2  -3   18.95    0.91
  20  -2  -3   18.55    1.34
 -20  -2   3   21.69    1.61
 -20   2   3   18.43    0.97
  20   2  -3   20.58    1.03
  20   2  -3   20.41    0.97
 -20   2   3   20.16    1.13
  20   2  -3   19.63    0.84
  20   2  -3   19.37    1.33
  20   2  -3   20.42    1.40
 -18  -2   3    4.38    0.58
  18  -2  -3    4.44    0.76
  18  -2  -3    4.40    0.41
  18  -2  -3    4.67    0.62
 -18  -2   3    6.25    1.03
 -18  -2   3    4.11    0.52
  18  -2  -3    4.46    0.49
  18  -2  -3    5.70    0.63
  18   2  -3    4.54    0.49
  18   2  -3    5.16    0.74
  18   2  -3    3.79    0.52
 -18   2   3    3.20    0.86
  18   2  -3    4.17    0.49
  18   2  -3    3.64    0.66
 -18   2   3    4.22    0.50
  18   2  -3    4.07    0.31
  18   2  -3    4.32    0.31
 -18   2   3    4.05    0.45
  16  -2  -3   49.37    2.28
 -16  -2   3   48.72    2.34
  16  -2  -3   48.22    2.38
 -16  -2   3   47.61    2.01
  16  -2  -3   47.21    1.90
 -16  -2   3   47.67    1.91
  16  -2  -3   51.47    2.05
  16  -2  -3   46.64    1.79
  16  -2  -3   51.65    2.08
 -16  -2   3   49.62    1.87
  16   2  -3   50.26    1.90
  16   2  -3   47.04    1.82
  16   2  -3   47.70    2.12
  16   2  -3   48.13    1.86
  16   2  -3   49.19    1.79
  16   2  -3   51.87    2.04
  16   2  -3   48.60    1.71
 -16   2   3   48.43    1.80
  16   2  -3   49.45    2.10
 -16   2   3   46.90    1.96
 -16   2   3   45.08    2.44
  16   2  -3   45.99    2.01
  14  -2  -3   23.84    1.16
 -14  -2   3   24.10    1.15
  14  -2  -3   23.79    1.20
 -14  -2   3   23.81    1.02
 -14  -2   3   25.37    1.07
  14  -2  -3   24.79    1.09
  14  -2  -3   23.50    1.02
 -14  -2   3   23.36    1.43
  14  -2  -3   24.98    1.30
  14  -2  -3   25.58    1.30
  14  -2  -3   24.60    0.97
  14   2  -3   23.23    1.16
  14   2  -3   24.16    0.88
  14   2  -3   24.31    1.08
  14   2  -3   24.08    1.22
  14   2  -3   23.92    1.03
  14   2  -3   24.30    1.00
 -14   2   3   24.22    1.00
 -14   2   3   23.63    0.96
  14   2  -3   23.76    1.23
  14   2  -3   24.47    1.15
 -14   2   3   20.99    1.48
  12  -2  -3   53.29    2.17
 -12  -2   3   51.49    2.09
 -12  -2   3   50.96    2.32
  12  -2  -3   53.83    2.07
  12  -2  -3   54.45    1.91
  12  -2  -3   57.42    2.24
 -12  -2   3   53.52    1.94
  12  -2  -3   54.69    2.12
  12  -2  -3   54.93    2.24
 -12  -2   3   50.82    2.05
  12  -2  -3   52.39    1.91
  12   2  -3   55.50    2.14
  12   2  -3   54.27    2.05
  12   2  -3   52.81    1.95
  12   2  -3   51.75    2.12
  12   2  -3   52.96    2.15
  12   2  -3   56.15    2.06
 -12   2   3   53.03    1.93
 -12   2   3   53.98    1.89
 -12   2   3   53.32    2.00
 -12   2   3   50.54    2.40
  10  -2  -3  122.44    4.30
  10  -2  -3  123.79    4.27
 -10  -2   3  117.47    4.15
  10  -2  -3  121.78    4.43
  10  -2  -3  121.07    4.46
  10  -2  -3  123.09    4.30
 -10  -2   3  120.82    4.53
 -10  -2   3  124.02    4.34
  10  -2  -3  123.08    4.40
  10   2  -3  112.83    4.26
  10   2  -3  122.81    4.24
 -10   2   3  124.80    4.12
  10   2  -3  118.96    4.34
  10   2  -3  121.07    4.36
 -10   2   3  113.51    4.57
 -10   2   3  125.62    4.28
  10   2  -3  126.56    4.33
   8  -2  -3   35.42    1.53
  -8  -2   3   36.00    1.30
   8  -2  -3   35.17    1.45
   8  -2  -3   35.59    1.45
   8  -2  -3   36.09    1.55
  -8  -2   3   34.74    1.35
   8  -2  -3   36.92    1.28
  -8  -2   3   36.36    1.50
  -8  -2   3   34.44    1.61
  -8  -2   3   36.11    1.46
   8  -2  -3   36.27    1.60
   8   2  -3   38.33    1.42
   8   2  -3   35.16    1.46
   8   2  -3   35.20    1.45
   8   2  -3   36.25    1.50
   8   2  -3   37.32    1.46
  -8   2   3   35.43    1.54
  -8   2   3   36.68    1.30
  -8   2   3   36.05    1.45
   8   2  -3   37.77    1.37
   8   2  -3   35.39    1.44
  -8   2   3   34.19    1.30
   6  -2  -3  139.27    5.05
  -6  -2   3  138.99    4.77
  -6  -2   3  139.43    4.95
   6  -2  -3  142.63    4.94
   6  -2  -3  145.07    5.00
  -6  -2   3  143.71    4.76
  -6  -2   3  140.47    4.77
   6  -2  -3  139.37    4.74
  -6  -2   3  144.18    4.85
  -6  -2   3  141.02    5.06
   6  -2  -3  141.38    4.99
  -6  -2   3  143.90    4.88
   6  -2  -3  145.11    5.01
  -6   2   3  137.28    4.79
   6   2  -3  141.98    4.87
  -6   2   3  131.09    4.77
   6   2  -3  131.92    4.86
   6   2  -3  141.29    4.72
   6   2  -3  141.36    4.73
   6   2  -3  142.08    4.97
  -6   2   3  141.94    4.76
   6   2  -3  141.78    4.72
   6   2  -3  142.06    4.91
   6   2  -3  140.07    4.77
   6   2  -3  143.40    4.72
  -6   2   3  140.11    5.00
  -6   2   3  140.95    4.94
   6   2  -3  140.20    4.89
  -4  -2   3   36.54    1.40
  -4  -2   3   33.74    1.44
  -4  -2   3   35.67    1.53
  -4  -2   3   35.92    1.29
   4  -2  -3   35.72    1.29
   4  -2  -3   35.81    1.30
  -4  -2   3   35.28    1.48
  -4  -2   3   34.03    1.36
  -4  -2   3   37.27    1.31
   4  -2  -3   36.72    1.24
   4  -2  -3   34.46    1.46
   4  -2  -3   37.07    1.31
   4   2  -3   35.67    1.40
   4   2  -3   36.88    1.25
   4   2  -3   35.76    1.29
   4   2  -3   36.07    1.43
  -4   2   3   35.11    1.33
  -4   2   3   36.64    1.48
  -4   2   3   35.59    1.29
   4   2  -3   36.92    1.29
   4   2  -3   35.17    1.36
   4   2  -3   36.45    1.37
   4   2  -3   36.92    1.42
  -4   2   3   35.03    1.35
  -4   2   3   35.59    1.50
   4   2  -3   37.14    1.30
  -2  -2   3  294.10   10.00
  -2  -2   3  313.12    9.81
   2  -2  -3  295.02    9.80
   2  -2  -3  301.74    9.87
  -2  -2   3  309.11    9.88
  -2  -2   3  288.02    9.84
  -2  -2   3  309.96    9.83
   2  -2  -3  272.66    9.83
   2  -2  -3  291.40    9.97
   2  -2  -3  281.56    9.82
  -2  -2   3  270.36    9.88
   2  -2  -3  297.53    9.97
   2  -2  -3  284.66    9.98
  -2   2   3  288.81    9.99
   2   2  -3  287.73    9.92
  -2   2   3  286.07    9.80
  -2   2   3  293.53    9.94
   2   2  -3  294.01    9.88
   2   2  -3  302.25    9.83
   2   2  -3  297.98    9.80
  -2   2   3  293.72    9.85
  -2   2   3  297.19    9.99
   2   2  -3  300.48    9.97
   2   2  -3  282.78    9.93
  -2   2   3  285.39    9.86
   2   2  -3  290.19    9.83
   0  -2   3    2.69    0.26
   0  -2   3    2.73    0.53
   0  -2   3    2.16    0.31
   0  -2  -3    2.29    0.34
   0  -2  -3    2.20    0.28
   0  -2   3    2.36    0.26
   0  -2  -3    3.30    0.30
   0  -2   3    1.51    0.28
   0  -2   3    2.47    0.16
   0  -2   3    2.37    0.23
   0  -2  -3    2.38    0.23
   0  -2  -3    2.27    0.30
   0  -2  -3    2.71    0.27
   0  -2   3    2.05    0.26
   0   2   3    2.27    0.14
   0   2   3    1.63    0.29
   0   2  -3    2.02    0.27
   0   2   3    2.26    0.34
   0   2  -3    2.54    0.26
   0   2  -3    2.13    0.26
   0   2  -3    2.05    0.23
   0   2  -3    2.76    0.36
   0   2  -3    2.35    0.31
   0   2   3    2.40    0.25
   0   2   3    2.18    0.36
   0   2   3    2.96    0.27
  -2  -2  -3  241.31    8.46
  -2  -2  -3  257.96    8.46
   2  -2   3  261.91    8.43
   2  -2   3  256.88    8.36
  -2  -2  -3  262.70    8.55
  -2  -2  -3  238.91    8.45
  -2  -2  -3  255.71    8.41
   2  -2   3  254.42    8.57
   2  -2   3  254.87    8.41
   2  -2   3  210.32    8.48
   2  -2   3  262.42    8.72
   2  -2   3  256.45    8.46
  -2  -2  -3  241.36    8.47
   2   2   3  250.68    8.47
   2   2   3  241.59    8.45
   2   2   3  239.84    8.69
   2   2   3  260.35    8.44
  -2   2  -3  255.90    9.06
  -2   2  -3  242.88    8.48
  -2   2  -3  238.73    8.43
  -2   2  -3  258.04    8.46
   2   2   3  235.99    8.48
  -2   2  -3  246.51    8.32
   2   2   3  242.15    8.45
  -2   2  -3  255.92    8.43
   2   2   3  247.48    8.33
  -4  -2  -3    1.89    0.28
  -4  -2  -3    1.71    0.28
  -4  -2  -3    2.29    0.35
   4  -2   3    1.81    0.28
  -4  -2  -3    2.37    0.33
   4  -2   3    1.93    0.28
  -4  -2  -3    1.93    0.28
   4  -2   3    2.04    0.42
   4  -2   3    2.39    0.29
   4  -2   3    1.96    0.27
  -4  -2  -3    1.51    0.33
   4  -2   3    2.23    0.37
   4  -2   3    2.18    0.29
  -4  -2  -3    1.69    0.29
  -4   2  -3    2.33    0.30
  -4   2  -3    2.10    0.38
   4   2   3    2.72    0.36
  -4   2  -3    2.16    0.30
   4   2   3    1.88    0.28
  -4   2  -3    1.58    0.23
   4   2   3    2.15    0.29
   4   2   3    2.41    0.32
   4   2   3    2.24    0.33
  -4   2  -3    1.89    0.22
  -4   2  -3    2.18    0.29
  -4   2  -3    1.73    0.28
  -6  -2  -3   85.25    3.14
  -6  -2  -3   90.43    3.25
   6  -2   3   91.92    3.17
   6  -2   3   90.89    3.20
   6  -2   3   88.70    3.54
  -6  -2  -3   90.12    3.29
  -6  -2  -3   90.51    3.26
  -6  -2  -3   86.20    3.20
   6  -2   3   88.46    3.23
  -6  -2  -3   88.30    3.25
   6  -2   3   89.54    3.22
   6  -2   3   90.81    3.27
  -6  -2  -3   88.00    3.41
   6   2   3   87.81    3.23
   6   2   3   90.91    3.15
  -6   2  -3   89.04    3.19
   6   2   3   87.91    3.24
   6   2   3   89.58    3.27
   6   2   3   90.16    3.29
  -6   2  -3   88.05    3.20
  -6   2  -3   92.26    3.22
  -6   2  -3   94.74    3.27
   6   2   3   85.39    3.27
  -6   2  -3   87.57    3.14
  -8  -2  -3   15.40    0.97
   8  -2   3   14.66    1.10
   8  -2   3   14.24    0.82
   8  -2   3   15.25    0.85
  -8  -2  -3   15.99    0.89
  -8  -2  -3   14.17    0.79
   8  -2   3   16.00    0.77
  -8  -2  -3   15.34    0.83
   8  -2   3   16.17    0.79
  -8  -2  -3   15.01    0.85
   8  -2   3   14.68    0.80
   8   2   3   15.17    0.88
   8   2   3   15.80    0.70
  -8   2  -3   14.60    0.78
   8   2   3   16.35    0.84
   8   2   3   14.81    0.85
  -8   2  -3   15.08    0.86
   8   2   3   15.19    0.82
   8   2   3   14.81    0.83
  -8   2  -3   15.44    0.82
  -8   2  -3   15.20    0.75
  10  -2   3   84.85    3.20
 -10  -2  -3   78.27    3.13
  10  -2   3   83.59    3.13
 -10  -2  -3   83.27    3.10
  10  -2   3   87.40    3.16
  10  -2   3   89.28    3.10
 -10  -2  -3   81.65    3.51
  10  -2   3   87.88    3.10
 -10  -2  -3   84.69    3.17
 -10  -2  -3   83.45    3.33
 -10  -2  -3   81.85    3.16
  10  -2   3   84.10    3.65
 -10   2  -3   86.02    3.10
 -10   2  -3   83.82    3.13
  10   2   3   83.01    3.11
  10   2   3   80.27    3.19
 -10   2  -3   84.63    3.09
  10   2   3   85.81    2.96
 -10   2  -3   90.41    3.38
  10   2   3   85.23    3.16
 -10   2  -3   80.79    3.08
  10   2   3   82.59    3.21
  12  -2   3    5.34    0.90
 -12  -2  -3    6.31    0.59
 -12  -2  -3    4.88    0.60
 -12  -2  -3    5.14    0.71
 -12  -2  -3    5.08    0.53
 -12  -2  -3    5.17    0.65
  12  -2   3    4.86    0.55
  12  -2   3    6.20    0.56
  12  -2   3    5.87    0.52
 -12  -2  -3    5.29    0.72
  12  -2   3    5.77    0.69
  12   2   3    5.99    0.60
 -12   2  -3    5.52    0.54
 -12   2  -3    4.82    0.52
  12   2   3    4.39    0.60
 -12   2  -3    6.00    0.71
 -12   2  -3    5.93    0.75
  12   2   3    5.06    0.57
 -12   2  -3    5.67    0.61
 -12   2  -3    5.48    0.63
 -14  -2  -3   23.89    1.18
  14  -2   3   27.19    1.75
  14  -2   3   25.14    1.36
 -14  -2  -3   23.54    1.81
  14  -2   3   26.98    1.28
  14  -2   3   27.46    1.44
  14  -2   3   24.59    1.21
 -14  -2  -3   26.34    1.42
 -14  -2  -3   23.44    1.43
 -14  -2  -3   25.21    1.35
  14   2   3   26.00    1.28
 -14   2  -3   25.58    1.31
 -14   2  -3   24.68    1.28
  14   2   3   24.30    1.34
 -14   2  -3   25.60    1.25
 -14   2  -3   24.87    1.13
 -14   2  -3   25.92    1.38
 -16  -2  -3   15.93    1.16
  16  -2   3   15.67    1.03
  16  -2   3   18.77    1.58
  16  -2   3   19.11    1.28
 -16  -2  -3   17.47    1.17
  16  -2   3   15.66    1.11
 -16  -2  -3   16.67    0.94
 -16  -2  -3   16.17    1.14
 -16  -2  -3   16.19    1.25
  16   2   3   16.14    1.03
 -16   2  -3   17.45    1.12
 -16   2  -3   18.52    0.91
  16   2   3   16.83    1.25
  16   2   3   16.68    1.10
 -16   2  -3   16.09    0.85
 -16   2  -3   17.77    1.17
 -16   2  -3   14.86    1.24
  18  -2   3    3.79    0.92
  18  -2   3    3.80    0.66
  18  -2   3    4.92    0.82
  18  -2   3    3.29    0.53
  18  -2   3    4.07    0.57
 -18  -2  -3    3.09    0.69
 -18  -2  -3    3.76    0.72
 -18  -2  -3    4.27    0.64
 -18   2  -3    3.58    0.87
 -18   2  -3    3.01    0.64
  18   2   3    4.33    0.61
 -18   2  -3    3.72    0.51
 -18   2  -3    2.69    0.63
  18   2   3    2.40    0.67
  18   2   3    3.64    0.64
 -18   2  -3    3.39    0.66
  20  -2   3    8.06    0.98
  20  -2   3    7.05    0.77
 -20  -2  -3    8.24    1.20
  20  -2   3    8.06    1.05
  20  -2   3    8.45    1.39
  20   2   3    7.71    1.02
  20   2   3    8.25    0.93
  20   2   3    5.65    0.87
 -20   2  -3    7.64    0.94
 -20   2  -3    6.41    0.92
  22  -2   3    2.89    0.96
 -22  -2  -3    3.73    1.12
 -22  -2  -3    2.97    1.63
  22  -2   3    5.27    1.08
  22   2   3    2.81    0.96
  22   2   3    2.88    0.91
 -25  -3   3    2.95    1.35
  25  -3  -3    4.98    1.42
  25  -3  -3    2.99    0.83
  25   3  -3    3.50    0.78
  23  -3  -3    6.07    1.11
  23  -3  -3    7.44    0.95
 -23  -3   3    7.87    1.40
  23   3  -3    9.35    1.20
  23   3  -3    8.93    1.06
  21  -3  -3   23.27    1.43
  21  -3  -3   23.27    1.53
 -21  -3   3   23.12    1.90
  21   3  -3   20.47    1.03
  21   3  -3   21.52    1.43
  21   3  -3   23.13    1.36
 -19  -3   3    5.89    0.73
  19  -3  -3    5.67    1.04
  19  -3  -3    7.07    0.78
  19  -3  -3    4.50    0.44
 -19  -3   3    5.48    0.64
 -19  -3   3    7.86    1.32
  19  -3  -3    5.80    0.86
  19   3  -3    6.39    0.40
  19   3  -3    5.57    0.40
 -19   3   3    5.55    0.63
  19   3  -3    5.35    0.79
 -19   3   3    5.53    0.54
  19   3  -3    6.98    0.81
  19   3  -3    5.88    0.43
  19   3  -3    5.32    0.51
  17  -3  -3   84.31    3.30
 -17  -3   3   77.85    3.11
 -17  -3   3   81.71    3.03
  17  -3  -3   80.85    2.99
 -17  -3   3   80.79    2.98
  17  -3  -3   78.28    2.80
  17  -3  -3   86.66    3.21
 -17  -3   3   83.75    3.58
  17  -3  -3   78.94    2.98
  17  -3  -3   82.86    3.13
  17   3  -3   81.56    2.91
  17   3  -3   79.36    2.80
  17   3  -3   81.30    2.88
 -17   3   3   80.07    2.89
 -17   3   3   67.41    3.58
  17   3  -3   77.33    3.19
 -17   3   3   77.92    2.93
  17   3  -3   87.57    3.12
  17   3  -3   72.04    3.18
  17   3  -3   82.84    2.89
 -15  -3   3   37.23    2.04
 -15  -3   3   36.90    1.52
  15  -3  -3   39.96    1.85
  15  -3  -3   39.61    1.75
  15  -3  -3   36.38    1.36
 -15  -3   3   36.46    1.63
  15  -3  -3   38.48    1.67
 -15  -3   3   38.63    1.58
  15   3  -3   38.56    1.49
  15   3  -3   38.42    1.63
 -15   3   3   37.24    1.44
 -15   3   3   36.77    1.47
  15   3  -3   35.15    1.70
  15   3  -3   36.97    1.35
 -15   3   3   34.92    2.07
  15   3  -3   34.41    1.64
  15   3  -3   38.42    1.72
  15   3  -3   38.67    1.38
 -15   3   3   36.50    1.49
  15   3  -3   39.12    1.51
  15   3  -3   35.70    1.38
  13  -3  -3   95.36    3.61
  13  -3  -3   92.14    3.39
 -13  -3   3   91.74    3.77
  13  -3  -3   92.17    3.14
  13  -3  -3   92.00    3.33
 -13  -3   3   95.36    3.48
  13  -3  -3   92.21    3.32
  13  -3  -3   91.10    3.13
  13  -3  -3   91.03    3.54
 -13  -3   3   93.06    3.39
 -13  -3   3   89.56    3.28
 -13  -3   3   90.04    3.37
  13  -3  -3   96.50    3.55
  13   3  -3   87.33    3.44
  13   3  -3   93.70    3.31
 -13   3   3   84.62    3.79
 -13   3   3   92.21    3.31
 -13   3   3   94.92    3.22
  13   3  -3   93.72    3.46
  13   3  -3   90.74    3.46
  13   3  -3   94.60    3.17
  13   3  -3   94.81    3.17
  13   3  -3   91.08    3.17
  13   3  -3   86.49    3.27
  13   3  -3   91.45    3.19
  13   3  -3   93.38    3.36
 -13   3   3   93.14    3.26
 -11  -3   3   29.03    1.60
  11  -3  -3   31.11    1.45
  11  -3  -3   30.20    1.28
  11  -3  -3   29.26    1.43
  11  -3  -3   30.69    1.32
  11  -3  -3   31.20    1.23
 -11  -3   3   28.90    1.21
 -11  -3   3   30.32    1.26
  11  -3  -3   32.14    1.55
 -11  -3   3   30.18    1.29
 -11  -3   3   31.11    1.35
 -11   3   3   30.89    1.30
  11   3  -3   28.75    1.36
  11   3  -3   31.25    1.28
  11   3  -3   29.17    1.33
  11   3  -3   30.95    1.28
  11   3  -3   31.06    1.14
  11   3  -3   31.68    1.38
 -11   3   3   31.56    1.18
  11   3  -3   30.59    1.12
  11   3  -3   32.90    1.13
  11   3  -3   29.47    1.11
 -11   3   3   31.06    1.48
  11   3  -3   30.47    1.12
 -11   3   3   29.46    1.63
  11   3  -3   30.46    1.39
   9  -3  -3  398.59   13.77
   9  -3  -3  407.70   13.61
   9  -3  -3  414.86   13.76
  -9  -3   3  374.90   13.52
   9  -3  -3  380.69   13.81
  -9  -3   3  405.39   13.91
   9  -3  -3  414.40   13.66
   9  -3  -3  379.16   13.56
  -9  -3   3  426.44   13.68
  -9  -3   3  399.86   13.65
  -9  -3   3  394.06   13.54
  -9  -3   3  378.87   13.49
  -9   3   3  356.86   13.73
   9   3  -3  434.74   13.45
   9   3  -3  404.77   13.53
   9   3  -3  399.56   13.61
  -9   3   3  413.59   13.78
   9   3  -3  407.71   13.44
   9   3  -3  425.10   13.45
  -9   3   3  408.95   13.50
   9   3  -3  407.49   13.48
   9   3  -3  389.54   13.67
   9   3  -3  428.05   13.45
  -9   3   3  375.72   13.92
   9   3  -3  426.42   13.65
  -9   3   3  425.52   13.49
  -7  -3   3   40.16    1.52
   7  -3  -3   39.70    1.66
  -7  -3   3   40.88    1.64
  -7  -3   3   38.89    1.81
   7  -3  -3   40.66    1.81
   7  -3  -3   40.01    1.74
   7  -3  -3   42.32    1.74
   7  -3  -3   42.78    1.49
   7  -3  -3   41.22    1.65
  -7  -3   3   40.57    1.68
   7   3  -3   41.49    1.57
   7   3  -3   40.24    1.50
  -7   3   3   40.20    1.55
  -7   3   3   40.62    1.52
   7   3  -3   42.91    1.49
  -7   3   3   39.57    1.53
   7   3  -3   41.16    1.69
   7   3  -3   41.86    1.51
   7   3  -3   43.44    1.48
   7   3  -3   42.06    1.62
   7   3  -3   41.26    1.51
   7   3  -3   40.45    1.65
  -7   3   3   42.06    1.75
  -5  -3   3  348.48   11.59
   5  -3  -3  347.61   11.29
   5  -3  -3  325.14   11.58
  -5  -3   3  298.40   11.43
  -5  -3   3  331.77   11.23
  -5  -3   3  347.08   11.27
   5  -3  -3  335.87   11.51
   5  -3  -3  344.35   11.47
  -5  -3   3  347.90   11.29
   5  -3  -3  332.30   11.51
   5  -3  -3  328.16   11.26
  -5  -3   3  346.79   11.31
  -5   3   3  346.23   11.52
   5   3  -3  349.08   11.23
   5   3  -3  332.93   11.32
  -5   3   3  347.87   11.22
   5   3  -3  337.13   11.29
   5   3  -3  338.81   11.41
   5   3  -3  337.77   11.36
   5   3  -3  352.95   11.28
  -5   3   3  313.94   11.33
   5   3  -3  334.33   11.27
  -5   3   3  332.23   11.50
   5   3  -3  350.21   11.27
  -5   3   3  309.35   11.30
   5   3  -3  337.77   11.46
   3  -3  -3  162.42    5.75
  -3  -3   3  171.17    5.64
  -3  -3   3  168.61    5.58
   3  -3  -3  157.72    5.56
  -3  -3   3  160.70    5.53
  -3  -3   3  160.78    5.78
  -3  -3   3  166.24    5.62
   3  -3  -3  167.37    5.48
   3  -3  -3  160.66    5.73
   3  -3  -3  159.11    5.72
   3  -3  -3  155.77    5.82
   3  -3  -3  161.59    5.59
  -3  -3   3  160.78    5.74
  -3  -3   3  169.28    5.55
  -3   3   3  166.73    5.76
  -3   3   3  157.39    5.62
   3   3  -3  163.59    5.61
   3   3  -3  168.38    5.58
  -3   3   3  166.03    5.76
  -3   3   3  162.54    5.52
   3   3  -3  166.71    5.55
  -3   3   3  159.75    5.59
   3   3  -3  165.40    5.71
   3   3  -3  162.09    5.65
   3   3  -3  164.00    5.64
  -1  -3   3  152.92    5.28
  -1  -3   3  159.99    5.34
  -1  -3   3  154.65    5.46
   1  -3  -3  145.12    5.43
  -1  -3   3  160.17    5.32
   1  -3  -3  147.88    5.34
  -1  -3   3  161.67    5.34
   1  -3  -3  153.86    5.47
   1  -3  -3  151.24    5.26
   1  -3  -3  149.24    5.19
  -1  -3   3  163.70    5.30
   1  -3  -3  151.51    5.45
   1  -3  -3  155.81    5.43
  -1  -3   3  152.20    5.48
   1  -3  -3  149.66    5.32
   1   3  -3  155.73    5.41
  -1   3   3  155.69    5.49
  -1   3   3  156.87    5.19
  -1   3   3  152.86    5.27
   1   3  -3  158.86    5.33
   1   3  -3  158.46    5.32
  -1   3   3  154.51    5.34
   1   3  -3  160.09    5.30
  -1   3   3  158.84    5.48
   1   3  -3  156.93    5.40
  -1   3   3  150.86    5.36
   1   3  -3  153.74    5.35
   1  -3   3  129.14    4.38
   1  -3   3  126.94    4.40
  -1  -3  -3  125.17    4.52
   1  -3   3  125.08    4.56
  -1  -3  -3  126.23    4.46
  -1  -3  -3  125.14    4.36
   1  -3   3  126.18    4.65
  -1  -3  -3  128.36    4.45
   1  -3   3  132.96    4.42
  -1  -3  -3  123.67    4.45
   1  -3   3  129.26    4.40
   1  -3   3  122.84    4.27
   1  -3   3  123.13    4.47
  -1  -3  -3  122.25    4.41
  -1   3  -3  128.53    4.38
   1   3   3  128.56    4.57
  -1   3  -3  127.04    4.45
  -1   3  -3  122.45    4.40
   1   3   3  124.36    4.44
   1   3   3  120.19    4.44
   1   3   3  125.74    4.28
   1   3   3  128.59    4.38
   1   3   3  127.08    4.56
  -1   3  -3  129.59    4.42
  -1   3  -3  133.69    4.44
   1   3   3  124.69    4.43
  -1   3  -3  129.98    4.54
   3  -3   3  251.42    8.39
  -3  -3  -3  237.94    8.38
   3  -3   3  244.94    8.27
   3  -3   3  258.03    8.35
  -3  -3  -3  241.45    8.46
  -3  -3  -3  246.95    8.40
   3  -3   3  236.82    8.33
  -3  -3  -3  233.40    8.41
  -3  -3  -3  240.97    8.38
   3  -3   3  246.83    8.68
  -3  -3  -3  233.37    8.36
   3  -3   3  257.13    8.36
   3   3   3  228.62    8.41
   3   3   3  254.77    8.42
  -3   3  -3  242.77    8.33
  -3   3  -3  255.51    8.52
   3   3   3  238.82    8.39
  -3   3  -3  248.57    8.38
   3   3   3  249.88    8.27
  -3   3  -3  238.10    8.35
   3   3   3  255.40    8.53
   3   3   3  260.36    8.39
  -3   3  -3  251.22    8.40
  -3   3  -3  242.71    8.34
  -5  -3  -3   93.81    3.54
  -5  -3  -3   98.81    3.64
  -5  -3  -3  101.98    3.62
   5  -3   3   98.51    3.51
  -5  -3  -3   98.34    3.64
   5  -3   3  100.22    3.60
  -5  -3  -3   98.32    3.77
  -5  -3  -3   96.63    3.60
   5  -3   3  102.60    3.54
   5  -3   3   91.87    3.87
  -5  -3  -3   99.81    3.52
   5  -3   3  102.90    3.56
   5  -3   3  103.01    3.54
  -5   3  -3  104.39    3.76
   5   3   3  102.97    3.61
   5   3   3   96.15    3.62
  -5   3  -3   99.04    3.54
   5   3   3  100.07    3.50
   5   3   3   99.21    3.62
  -5   3  -3  100.08    3.54
   5   3   3   98.37    3.60
  -5   3  -3  100.01    3.56
  -5   3  -3   99.40    3.52
   5   3   3   98.74    3.49
   5   3   3  104.49    3.70
  -5   3  -3  103.35    3.61
   7  -3   3   32.26    1.32
   7  -3   3   32.21    1.36
   7  -3   3   32.50    1.41
  -7  -3  -3   31.91    1.55
  -7  -3  -3   28.41    1.33
  -7  -3  -3   31.35    1.40
   7  -3   3   32.31    1.34
  -7  -3  -3   33.31    1.47
  -7  -3  -3   30.99    1.25
  -7  -3  -3   32.99    1.42
   7  -3   3   33.51    1.34
   7  -3   3   30.91    1.68
  -7  -3  -3   32.05    1.42
   7   3   3   31.24    1.43
   7   3   3   34.16    1.42
  -7   3  -3   33.78    1.42
   7   3   3   30.71    1.42
   7   3   3   33.65    1.35
  -7   3  -3   33.57    1.55
  -7   3  -3   32.98    1.30
   7   3   3   33.45    1.46
  -7   3  -3   31.82    1.44
   7   3   3   32.05    1.39
   7   3   3   32.30    1.24
  -7   3  -3   32.66    1.34
   9  -3   3  150.23    5.36
  -9  -3  -3  140.80    5.30
  -9  -3  -3  151.05    5.33
   9  -3   3  148.92    5.24
  -9  -3  -3  149.26    5.51
   9  -3   3  151.88    5.30
   9  -3   3  152.41    5.26
   9  -3   3  149.52    5.30
   9  -3   3  146.33    5.71
  -9  -3  -3  158.15    5.51
  -9  -3  -3  150.88    5.37
   9   3   3  146.70    5.33
  -9   3  -3  158.47    5.55
   9   3   3  150.12    5.36
  -9   3  -3  146.40    5.22
  -9   3  -3  154.53    5.31
  -9   3  -3  146.47    5.19
   9   3   3  148.62    5.38
   9   3   3  145.85    5.37
  -9   3  -3  147.70    5.25
   9   3   3  164.10    5.40
   9   3   3  145.51    5.28
  11  -3   3   15.95    1.15
 -11  -3  -3   15.70    1.09
  11  -3   3   17.59    0.89
  11  -3   3   17.56    1.01
  11  -3   3   17.00    0.94
 -11  -3  -3   15.96    0.98
 -11  -3  -3   16.28    0.98
 -11  -3  -3   16.51    0.95
 -11  -3  -3   18.77    1.05
 -11  -3  -3   17.35    1.10
  11  -3   3   17.77    0.91
  11  -3   3   17.29    1.35
 -11   3  -3   19.57    1.01
 -11   3  -3   17.11    0.93
  11   3   3   17.15    1.00
 -11   3  -3   16.51    0.88
 -11   3  -3   16.31    0.81
  11   3   3   17.41    0.93
 -11   3  -3   17.84    1.03
 -11   3  -3   17.84    1.13
  11   3   3   17.89    0.96
  11   3   3   16.83    1.08
  11   3   3   17.82    1.02
  13  -3   3   46.52    2.08
 -13  -3  -3   49.51    2.11
  13  -3   3   49.61    2.10
 -13  -3  -3   48.03    2.01
 -13  -3  -3   47.23    2.21
  13  -3   3   49.55    1.99
  13  -3   3   52.52    2.54
  13  -3   3   51.81    2.30
 -13  -3  -3   45.70    2.13
 -13  -3  -3   50.06    2.19
  13  -3   3   48.78    2.03
  13   3   3   47.68    1.98
  13   3   3   47.39    2.10
  13   3   3   49.92    2.05
  13   3   3   48.61    2.16
 -13   3  -3   48.36    1.97
 -13   3  -3   48.42    2.06
 -13   3  -3   50.89    1.96
 -13   3  -3   47.59    1.94
 -13   3  -3   49.96    2.13
 -13   3  -3   46.05    1.98
  13   3   3   50.22    2.09
 -13   3  -3   48.01    1.84
  15  -3   3   16.63    1.11
 -15  -3  -3   15.76    1.12
 -15  -3  -3   15.68    1.20
  15  -3   3   15.72    1.50
  15  -3   3   20.67    1.64
  15  -3   3   17.49    0.98
 -15  -3  -3   17.81    1.02
  15  -3   3   15.14    1.01
 -15  -3  -3   17.06    1.25
 -15   3  -3   18.18    1.11
 -15   3  -3   16.07    0.90
  15   3   3   17.86    1.07
 -15   3  -3   17.41    0.94
 -15   3  -3   17.37    1.16
  15   3   3   17.24    1.24
  15   3   3   17.00    1.12
 -15   3  -3   17.19    0.83
 -15   3  -3   16.66    1.07
  17  -3   3   22.86    1.31
  17  -3   3   20.32    1.19
 -17  -3  -3   20.06    1.15
  17  -3   3   23.01    1.42
 -17  -3  -3   18.85    1.44
 -17  -3  -3   21.79    1.45
 -17  -3  -3   20.14    1.34
  17  -3   3   24.05    1.80
 -17   3  -3   22.04    1.38
  17   3   3   22.29    1.23
 -17   3  -3   21.48    1.32
 -17   3  -3   18.81    1.25
 -17   3  -3   17.88    1.03
  17   3   3   19.64    1.27
  17   3   3   19.35    1.43
  17   3   3   21.83    1.39
 -19  -3  -3    3.52    0.82
  19  -3   3    3.08    0.61
  19  -3   3    3.42    0.79
 -19  -3  -3    5.28    1.08
  19  -3   3    5.13    1.10
 -19   3  -3    3.23    0.86
  19   3   3    4.36    0.81
  19   3   3    3.42    0.78
  19   3   3    5.61    0.85
 -19   3  -3    4.90    1.08
 -19   3  -3    3.87    0.72
  21  -3   3   10.94    1.66
  21  -3   3   13.48    1.52
 -21  -3  -3    8.52    1.22
  21  -3   3    7.46    1.09
 -21  -3  -3   11.98    1.66
 -21   3  -3    9.64    1.24
  21   3   3   10.41    1.41
 -21   3  -3    8.64    1.35
  21   3   3    8.80    1.17
  23  -3   3    1.60    1.26
 -24  -4   3   11.10    1.91
  24  -4  -3    6.42    1.23
  24  -4  -3    8.46    1.13
  24   4  -3    6.14    1.06
  24   4  -3    7.07    1.04
 -22  -4   3    6.97    1.41
  22  -4  -3    7.83    0.99
  22  -4  -3    7.51    1.15
  22   4  -3    7.06    0.92
  22   4  -3    6.49    0.91
  20  -4  -3   22.31    1.40
 -20  -4   3   22.52    1.99
 -20  -4   3   21.66    1.47
  20  -4  -3   22.18    1.53
 -20  -4   3   22.59    1.30
  20   4  -3   22.44    1.36
  20   4  -3   20.74    0.91
  20   4  -3   22.55    1.42
  20   4  -3   19.82    1.08
 -20   4   3   20.26    1.20
 -20   4   3   21.07    1.18
  18  -4  -3    7.10    0.51
 -18  -4   3    8.18    0.84
  18  -4  -3    8.46    1.02
 -18  -4   3    7.19    0.73
  18  -4  -3    7.96    0.88
 -18  -4   3    7.34    1.38
  18   4  -3    7.16    0.54
  18   4  -3    6.06    0.53
  18   4  -3    7.03    1.00
 -18   4   3    7.45    0.60
  18   4  -3    7.24    0.81
 -18   4   3    7.48    0.68
  18   4  -3    8.45    0.70
  18   4  -3    7.51    1.11
  16  -4  -3   42.21    1.91
 -16  -4   3   36.58    1.75
 -16  -4   3   41.91    1.75
  16  -4  -3   41.07    1.58
  16  -4  -3   41.81    1.82
 -16  -4   3   39.93    1.69
 -16  -4   3   38.62    2.32
  16  -4  -3   42.93    2.04
  16  -4  -3   39.85    1.85
  16  -4  -3   39.12    1.65
  16   4  -3   39.31    1.61
  16   4  -3   38.37    1.49
 -16   4   3   40.07    1.57
  16   4  -3   36.92    1.81
  16   4  -3   40.66    1.50
 -16   4   3   36.96    1.69
 -16   4   3   39.76    1.63
  16   4  -3   41.90    1.76
 -16   4   3   38.89    2.79
  16   4  -3   38.77    1.91
  16   4  -3   38.80    1.55
 -14  -4   3   36.49    1.58
  14  -4  -3   36.36    1.76
 -14  -4   3   36.25    1.63
  14  -4  -3   40.65    1.90
  14  -4  -3   38.04    1.51
  14  -4  -3   38.87    1.54
 -14  -4   3   38.73    1.63
  14  -4  -3   35.28    1.55
 -14  -4   3   38.07    2.14
 -14  -4   3   37.63    1.57
  14  -4  -3   38.36    1.67
  14   4  -3   38.75    1.61
  14   4  -3   38.31    1.47
  14   4  -3   38.42    1.42
  14   4  -3   38.35    1.54
  14   4  -3   35.55    1.45
  14   4  -3   40.30    1.73
 -14   4   3   38.55    1.48
  14   4  -3   34.80    1.66
 -14   4   3   33.21    2.03
  14   4  -3   36.52    1.41
  14   4  -3   34.70    1.66
 -14   4   3   38.35    1.53
 -14   4   3   38.74    1.57
 -12  -4   3   80.42    3.44
  12  -4  -3   82.76    2.90
 -12  -4   3   78.65    2.98
  12  -4  -3   83.25    3.26
  12  -4  -3   77.78    3.17
  12  -4  -3   75.84    2.99
  12  -4  -3   84.12    3.21
 -12  -4   3   78.62    2.99
  12  -4  -3   80.71    2.92
 -12  -4   3   77.97    2.92
 -12  -4   3   79.87    2.99
  12   4  -3   81.85    2.95
  12   4  -3   81.80    3.06
  12   4  -3   80.20    2.86
 -12   4   3   81.46    2.86
  12   4  -3   81.77    2.82
  12   4  -3   77.68    3.01
 -12   4   3   75.63    3.41
  12   4  -3   85.18    2.87
  12   4  -3   75.65    3.06
 -12   4   3   79.94    2.91
  12   4  -3   82.67    2.94
 -12   4   3   79.55    2.98
 -10  -4   3  118.31    4.13
  10  -4  -3  114.70    4.18
  10  -4  -3  115.49    4.30
 -10  -4   3  107.24    4.40
  10  -4  -3  116.72    3.92
  10  -4  -3  113.68    4.00
 -10  -4   3  111.73    4.00
 -10  -4   3  106.85    3.95
 -10  -4   3  109.71    4.06
 -10  -4   3  111.00    3.99
  10  -4  -3  111.96    4.10
  10   4  -3  115.63    3.88
  10   4  -3  118.86    3.94
 -10   4   3  112.28    4.07
 -10   4   3  114.79    3.92
  10   4  -3  108.25    4.11
  10   4  -3  108.12    3.99
  10   4  -3  116.01    4.01
 -10   4   3  114.97    3.97
 -10   4   3  105.66    4.38
 -10   4   3   96.57    4.01
  10   4  -3  117.51    4.09
  10   4  -3  111.88    3.88
 -10   4   3  113.46    4.21
  10   4  -3  117.03    3.97
  -8  -4   3   48.44    1.91
   8  -4  -3   46.46    1.94
  -8  -4   3   47.77    1.83
  -8  -4   3   45.08    1.78
   8  -4  -3   48.44    2.10
   8  -4  -3   47.76    1.73
  -8  -4   3   44.02    2.12
  -8  -4   3   46.37    1.92
  -8   4   3   49.14    1.78
  -8   4   3   47.96    1.84
  -8   4   3   46.08    1.99
   8   4  -3   47.10    1.83
   8   4  -3   47.27    1.88
  -8   4   3   46.12    2.15
   8   4  -3   47.98    1.74
   8   4  -3   47.17    1.72
  -8   4   3   48.76    1.95
  -8   4   3   46.52    1.81
   8   4  -3   46.87    1.77
   8   4  -3   50.21    1.88
   8   4  -3   45.01    1.92
  -8   4   3   46.50    1.78
   8   4  -3   48.02    1.74
   8   4  -3   49.91    1.78
  -6  -4   3  152.21    5.77
   6  -4  -3  161.70    5.38
   6  -4  -3  158.07    5.65
  -6  -4   3  151.12    5.61
   6  -4  -3  146.17    5.66
  -6  -4   3  159.65    5.55
  -6  -4   3  155.49    5.41
   6  -4  -3  154.44    5.62
   6  -4  -3  158.47    5.77
   6   4  -3  160.11    5.52
   6   4  -3  161.94    5.39
   6   4  -3  160.67    5.41
  -6   4   3  159.64    5.66
   6   4  -3  158.94    5.43
   6   4  -3  156.14    5.38
  -6   4   3  159.40    5.47
   6   4  -3  163.04    5.42
   6   4  -3  158.47    5.37
   6   4  -3  169.64    5.57
   6   4  -3  154.11    5.58
   6   4  -3  162.49    5.45
  -6   4   3  158.75    5.50
   6   4  -3  161.62    5.58
  -6   4   3  163.07    5.66
  -4  -4   3   81.47    2.88
   4  -4  -3   77.50    3.14
  -4  -4   3   80.75    2.98
   4  -4  -3   84.23    2.96
   4  -4  -3   80.08    3.14
  -4  -4   3   81.53    3.22
  -4  -4   3   84.17    2.95
   4  -4  -3   81.69    3.26
   4  -4  -3   84.05    3.15
   4  -4  -3   82.38    2.87
   4  -4  -3   87.32    2.88
   4  -4  -3   89.61    3.05
  -4  -4   3   81.52    3.03
  -4  -4   3   80.94    3.15
   4  -4  -3   87.60    2.99
  -4   4   3   83.62    3.17
  -4   4   3   84.32    2.86
   4   4  -3   82.27    2.85
   4   4  -3   83.57    2.94
   4   4  -3   86.62    2.98
  -4   4   3   86.07    3.16
  -4   4   3   80.54    2.99
   4   4  -3   83.92    3.01
  -4   4   3   86.38    2.89
  -4   4   3   80.87    3.01
   4   4  -3   85.93    2.95
   4   4  -3   81.12    3.05
   4   4  -3   84.67    2.95
   4   4  -3   85.82    2.96
   4   4  -3   83.38    3.09
  -2  -4   3  251.04    9.09
  -2  -4   3  274.68    9.27
  -2  -4   3  276.43    9.24
   2  -4  -3  280.10    9.13
   2  -4  -3  255.53    9.48
  -2  -4   3  277.38    9.26
  -2  -4   3  272.83    9.46
  -2  -4   3  285.73    9.21
   2  -4  -3  272.62    9.26
   2  -4  -3  277.42    9.40
   2  -4  -3  287.05    9.30
  -2  -4   3  263.08    9.42
   2  -4  -3  267.04    9.40
   2  -4  -3  266.52    9.23
   2  -4  -3  265.77    9.15
  -2  -4   3  269.56    9.44
   2  -4  -3  273.06    9.39
  -2  -4   3  259.17    9.10
   2   4  -3  290.11    9.26
   2   4  -3  276.01    9.27
   2   4  -3  290.71    9.22
  -2   4   3  271.92    9.16
   2   4  -3  273.96    9.32
   2   4  -3  269.80    9.25
  -2   4   3  263.59    9.28
   2   4  -3  264.10    9.28
  -2   4   3  280.08    9.46
  -2   4   3  264.46    9.25
  -2   4   3  278.30    9.14
  -2   4   3  277.14    9.40
   0  -4  -3   18.73    0.86
   0  -4  -3   17.61    0.88
   0  -4  -3   16.69    0.95
   0  -4  -3   17.78    0.96
   0  -4   3   16.89    0.99
   0  -4   3   18.76    0.81
   0  -4   3   18.52    0.84
   0  -4   3   17.94    0.84
   0  -4  -3   17.37    0.78
   0  -4   3   18.41    0.85
   0  -4   3   18.65    0.71
   0  -4   3   18.05    0.94
   0  -4   3   17.55    1.04
   0  -4  -3   17.55    0.88
   0  -4  -3   17.86    0.74
   0   4   3   18.44    0.90
   0   4  -3   18.28    0.82
   0   4   3   18.74    0.87
   0   4  -3   18.10    0.91
   0   4  -3   19.83    0.87
   0   4  -3   17.84    0.86
   0   4  -3   18.16    0.85
   0   4   3   18.83    0.81
   0   4   3   18.91    1.01
   0   4   3   18.29    0.98
   2  -4   3  216.95    7.51
  -2  -4  -3  220.26    7.57
   2  -4   3  224.45    7.68
  -2  -4  -3  217.22    7.58
   2  -4   3  216.79    7.60
   2  -4   3  227.45    7.54
   2  -4   3  217.87    7.41
   2  -4   3  229.77    7.53
  -2  -4  -3  217.24    7.61
  -2  -4  -3  213.69    7.50
  -2  -4  -3  226.61    7.60
  -2  -4  -3  212.05    7.45
   2  -4   3  214.99    7.85
  -2  -4  -3  214.64    7.67
   2   4   3  214.54    7.60
  -2   4  -3  222.78    7.54
   2   4   3  216.89    7.57
  -2   4  -3  221.92    7.53
  -2   4  -3  222.42    7.65
  -2   4  -3  210.95    7.54
   2   4   3  219.73    7.60
   2   4   3  217.51    7.43
  -2   4  -3  212.94    7.53
   2   4   3  232.89    7.56
   2   4   3  227.36    7.72
  -2   4  -3  225.28    7.57
   2   4   3  232.59    7.76
  -4  -4  -3   14.26    0.80
  -4  -4  -3   15.04    0.75
  -4  -4  -3   15.69    0.83
   4  -4   3   14.87    0.74
   4  -4   3   15.41    0.73
  -4  -4  -3   15.25    0.85
   4  -4   3   14.43    0.75
   4  -4   3   13.98    0.78
   4  -4   3   13.07    1.03
  -4  -4  -3   15.52    0.89
  -4  -4  -3   13.68    0.75
  -4   4  -3   13.92    0.73
  -4   4  -3   14.61    0.87
  -4   4  -3   15.39    0.76
   4   4   3   15.56    0.84
  -4   4  -3   14.51    0.75
   4   4   3   15.96    0.92
  -4   4  -3   14.78    0.80
   4   4   3   14.82    0.79
   4   4   3   14.79    0.70
  -4   4  -3   15.11    0.76
   4   4   3   14.40    0.79
  -6  -4  -3  108.19    4.04
  -6  -4  -3  106.11    3.95
   6  -4   3  111.24    3.89
   6  -4   3  110.09    3.94
  -6  -4  -3  107.22    3.86
  -6  -4  -3  112.34    4.01
   6  -4   3  110.98    3.90
  -6  -4  -3  113.91    4.03
   6  -4   3  108.79    3.99
   6  -4   3  112.20    3.92
   6  -4   3  104.23    4.33
  -6  -4  -3  105.43    4.03
   6   4   3  107.18    4.02
   6   4   3  117.28    4.12
  -6   4  -3  113.46    4.01
  -6   4  -3  111.67    4.13
   6   4   3  110.93    4.03
   6   4   3  117.51    4.03
  -6   4  -3  109.73    3.91
  -6   4  -3  107.83    3.87
   6   4   3  112.19    3.89
  -6   4  -3  107.89    3.93
  -6   4  -3  108.21    3.92
   6   4   3  111.46    3.99
   8  -4   3   36.67    1.46
   8  -4   3   35.97    1.51
  -8  -4  -3   36.78    1.66
  -8  -4  -3   33.82    1.35
  -8  -4  -3   33.42    1.53
   8  -4   3   36.52    1.58
  -8  -4  -3   35.02    1.58
  -8  -4  -3   35.51    1.59
  -8  -4  -3   35.49    1.59
   8  -4   3   32.31    2.15
   8  -4   3   34.34    1.49
   8  -4   3   36.94    1.49
  -8  -4  -3   37.77    1.73
   8   4   3   36.46    1.62
   8   4   3   34.44    1.60
   8   4   3   37.12    1.60
   8   4   3   35.62    1.61
  -8   4  -3   35.49    1.69
  -8   4  -3   35.14    1.39
   8   4   3   36.68    1.56
  -8   4  -3   34.29    1.47
  -8   4  -3   36.78    1.58
   8   4   3   36.87    1.51
  -8   4  -3   36.29    1.53
  10  -4   3   68.22    2.59
  10  -4   3   67.20    2.55
  10  -4   3   68.96    3.09
 -10  -4  -3   63.21    2.64
  10  -4   3   67.74    2.63
  10  -4   3   68.77    2.62
 -10  -4  -3   70.34    2.78
 -10  -4  -3   69.38    2.72
 -10  -4  -3   63.68    2.80
  10  -4   3   70.36    2.70
 -10  -4  -3   65.58    2.67
  10   4   3   67.12    2.62
 -10   4  -3   72.70    2.88
  10   4   3   70.12    2.71
 -10   4  -3   72.26    2.64
 -10   4  -3   66.90    2.58
 -10   4  -3   65.33    2.44
  10   4   3   69.28    2.72
  10   4   3   69.21    2.73
 -10   4  -3   69.76    2.71
  10   4   3   66.57    2.72
 -10   4  -3   67.80    2.63
  10   4   3   69.37    2.67
 -12  -4  -3    9.38    0.89
  12  -4   3    7.86    0.68
 -12  -4  -3    8.19    0.89
 -12  -4  -3    9.20    0.79
  12  -4   3    9.13    0.82
  12  -4   3    8.68    0.61
  12  -4   3   10.13    1.18
 -12  -4  -3    9.00    0.86
  12  -4   3    8.87    0.77
  12  -4   3    8.31    0.81
  12   4   3    8.61    0.89
 -12   4  -3    8.80    0.69
 -12   4  -3    7.55    0.76
 -12   4  -3    8.13    0.47
  12   4   3    7.88    0.79
  12   4   3    8.16    0.69
  12   4   3    7.26    0.71
 -12   4  -3    8.47    0.71
 -12   4  -3    8.98    0.82
  12   4   3    7.72    0.75
 -14  -4  -3   32.51    1.55
 -14  -4  -3   31.39    1.71
  14  -4   3   32.75    2.07
  14  -4   3   35.78    1.69
  14  -4   3   29.99    1.42
 -14  -4  -3   33.82    1.73
 -14  -4  -3   31.12    1.65
  14  -4   3   32.72    1.63
  14  -4   3   31.51    1.52
 -14   4  -3   34.79    1.50
 -14   4  -3   32.74    1.59
  14   4   3   32.16    1.48
 -14   4  -3   33.37    1.64
 -14   4  -3   31.39    1.51
  14   4   3   32.29    1.55
  14   4   3   32.21    1.70
  14   4   3   34.94    1.64
  14   4   3   32.53    1.62
 -16  -4  -3   17.46    1.36
 -16  -4  -3   18.85    1.31
  16  -4   3   17.95    1.11
  16  -4   3   17.03    1.21
  16  -4   3   19.16    1.33
  16  -4   3   21.29    1.77
 -16  -4  -3   19.23    1.17
 -16  -4  -3   15.71    1.27
 -16   4  -3   18.66    1.08
  16   4   3   19.22    1.29
  16   4   3   16.78    0.99
 -16   4  -3   18.01    1.23
  16   4   3   18.07    1.21
 -16   4  -3   18.84    1.17
  16   4   3   18.23    1.14
  16   4   3   19.26    1.39
 -16   4  -3   17.51    0.99
 -16   4  -3   18.47    1.28
 -18  -4  -3    3.72    0.82
 -18  -4  -3    3.82    0.69
  18  -4   3    2.91    0.67
  18  -4   3    3.21    0.77
  18  -4   3    4.60    1.06
 -18  -4  -3    3.66    0.83
  18  -4   3    2.60    0.62
  18   4   3    2.39    0.73
  18   4   3    4.27    0.89
 -18   4  -3    3.70    0.66
 -18   4  -3    4.04    0.77
  18   4   3    2.98    0.60
 -18   4  -3    3.75    0.60
  20  -4   3    9.77    1.63
 -20  -4  -3    7.25    1.31
  20  -4   3    8.95    1.30
  20  -4   3    8.57    1.01
 -20  -4  -3    6.00    1.08
  20   4   3    7.21    0.97
 -20   4  -3    7.22    0.94
 -20   4  -3    6.11    0.98
  20   4   3    9.61    1.39
  20   4   3    6.09    0.95
  22  -4   3    3.96    1.31
 -22  -4  -3    3.68    1.28
  22  -4   3    4.33    1.09
 -22   4  -3    3.16    0.87
  22   4   3    3.84    0.94
  25   5  -3    2.83    0.80
  23  -5  -3    2.78    0.81
  23  -5  -3    4.21    0.93
 -23  -5   3    3.49    1.38
  23   5  -3    4.58    0.97
  23   5  -3    3.77    0.73
  21  -5  -3   10.71    1.18
 -21  -5   3   11.80    1.80
  21  -5  -3   13.34    1.36
  21   5  -3   12.72    1.24
  21   5  -3   10.47    1.01
  21   5  -3    8.73    0.72
  19  -5  -3    2.56    0.64
 -19  -5   3    2.87    0.68
 -19  -5   3    2.40    1.17
  19  -5  -3    3.11    0.47
  19  -5  -3    3.74    0.84
 -19  -5   3    1.65    0.54
  19   5  -3    2.56    0.38
  19   5  -3    2.62    0.40
  19   5  -3    2.52    0.68
 -19   5   3    2.73    0.48
  19   5  -3    3.48    0.55
 -19   5   3    2.98    0.55
  19   5  -3    3.16    0.50
  19   5  -3    3.03    0.43
  19   5  -3    2.93    0.59
  17  -5  -3   32.24    1.54
 -17  -5   3   28.68    1.64
 -17  -5   3   33.66    1.63
  17  -5  -3   30.60    1.25
 -17  -5   3   31.01    1.51
 -17  -5   3   33.66    2.28
  17  -5  -3   34.41    1.88
  17  -5  -3   33.35    1.63
  17   5  -3   31.68    1.39
 -17   5   3   31.59    1.46
 -17   5   3   32.05    1.41
  17   5  -3   31.48    1.65
  17   5  -3   32.10    1.28
  17   5  -3   34.96    1.57
  17   5  -3   30.31    1.35
 -17   5   3   31.49    1.37
  17   5  -3   26.46    1.51
  17   5  -3   31.12    1.37
  15  -5  -3   13.12    0.75
 -15  -5   3   13.10    0.96
 -15  -5   3   13.10    0.90
  15  -5  -3   12.89    0.67
 -15  -5   3   12.39    0.81
 -15  -5   3   12.64    0.84
  15  -5  -3   12.96    0.82
  15  -5  -3   13.42    0.98
  15   5  -3   13.11    0.79
 -15   5   3   12.07    0.81
 -15   5   3   12.68    0.72
  15   5  -3   11.83    0.68
 -15   5   3   12.88    0.82
  15   5  -3   10.76    0.84
  15   5  -3   12.72    0.65
  15   5  -3   13.18    0.72
  15   5  -3   12.57    0.98
  15   5  -3   11.72    0.75
  15   5  -3   12.46    0.86
  13  -5  -3   33.86    1.78
  13  -5  -3   31.59    1.32
  13  -5  -3   30.47    1.45
 -13  -5   3   31.06    1.41
 -13  -5   3   32.70    1.46
 -13  -5   3   31.76    2.01
  13  -5  -3   30.36    1.56
 -13  -5   3   32.24    1.49
 -13  -5   3   32.05    1.44
  13  -5  -3   32.39    1.34
 -13   5   3   32.76    1.41
  13   5  -3   32.58    1.28
  13   5  -3   33.64    1.41
  13   5  -3   31.06    1.43
 -13   5   3   33.01    1.47
  13   5  -3   28.97    1.52
  13   5  -3   31.72    1.28
 -13   5   3   31.14    1.33
 -13   5   3   29.68    1.88
  13   5  -3   33.09    1.41
  13   5  -3   32.42    1.34
  13   5  -3   33.62    1.55
 -11  -5   3    8.22    0.64
 -11  -5   3    8.08    0.69
 -11  -5   3    8.43    0.69
  11  -5  -3    8.85    0.91
 -11  -5   3    8.21    0.61
 -11  -5   3    8.43    0.73
 -11  -5   3    7.73    1.05
  11  -5  -3    8.43    0.57
  11  -5  -3    8.77    0.55
  11  -5  -3    8.05    0.68
  11  -5  -3    8.14    0.72
 -11   5   3    8.96    0.62
 -11   5   3    8.97    0.82
 -11   5   3    8.85    0.59
  11   5  -3    8.30    0.70
  11   5  -3    9.55    0.64
  11   5  -3    9.93    0.60
  11   5  -3    9.33    0.53
  11   5  -3    7.82    0.71
 -11   5   3    7.52    0.92
  11   5  -3    8.96    0.60
  11   5  -3    9.05    0.51
  11   5  -3    8.51    0.56
 -11   5   3    9.17    0.57
 -11   5   3    8.70    0.71
 -11   5   3    8.49    0.64
  11   5  -3    8.48    0.63
  -9  -5   3  144.42    5.19
   9  -5  -3  150.94    5.11
   9  -5  -3  148.19    5.54
   9  -5  -3  141.46    5.34
  -9  -5   3  145.88    5.30
  -9  -5   3  152.99    5.32
   9  -5  -3  153.79    5.39
  -9  -5   3  148.31    5.25
  -9  -5   3  144.85    5.68
   9   5  -3  151.14    5.47
  -9   5   3  149.77    5.17
   9   5  -3  146.03    5.12
  -9   5   3  152.12    5.23
   9   5  -3  151.63    5.14
   9   5  -3  153.19    5.15
  -9   5   3  150.60    5.38
   9   5  -3  141.81    5.31
  -9   5   3  148.35    5.22
   9   5  -3  150.96    5.13
   9   5  -3  152.74    5.28
   9   5  -3  150.95    5.18
  -9   5   3  151.48    5.41
   9   5  -3  141.51    5.15
  -9   5   3  138.21    5.59
   7  -5  -3    4.98    0.59
   7  -5  -3    6.70    0.73
   7  -5  -3    6.16    0.59
  -7  -5   3    5.69    0.61
  -7  -5   3    6.20    0.79
  -7  -5   3    6.62    0.47
   7   5  -3    6.64    0.36
  -7   5   3    6.68    0.52
   7   5  -3    5.69    0.54
   7   5  -3    6.66    0.58
   7   5  -3    7.81    0.55
   7   5  -3    6.34    0.53
  -7   5   3    6.27    0.50
  -7   5   3    6.59    0.56
   7   5  -3    6.24    0.58
  -7   5   3    6.25    0.63
   7   5  -3    6.08    0.43
  -7   5   3    6.40    0.50
  -7   5   3    7.49    0.67
   7   5  -3    6.53    0.44
   7   5  -3    6.61    0.49
   7   5  -3    6.16    0.31
  -5  -5   3  117.65    4.20
   5  -5  -3  111.83    4.32
   5  -5  -3  121.11    4.04
  -5  -5   3  114.26    4.06
   5  -5  -3  116.41    4.46
   5  -5  -3  119.73    4.31
  -5  -5   3  108.69    4.43
  -5  -5   3  114.67    4.31
  -5  -5   3  120.69    4.22
   5   5  -3  113.83    4.24
   5   5  -3  114.10    4.03
   5   5  -3  119.18    4.11
   5   5  -3  116.06    4.18
  -5   5   3  116.45    4.38
   5   5  -3  116.95    4.11
  -5   5   3  115.11    4.18
  -5   5   3  114.12    4.14
  -5   5   3  121.84    4.08
   5   5  -3  122.24    4.16
   5   5  -3  119.70    4.12
  -5   5   3  120.76    3.96
   5   5  -3  114.12    4.22
   5   5  -3  119.59    4.03
  -5   5   3  118.25    4.31
   5   5  -3  120.93    4.23
   3  -5  -3   42.21    1.51
   3  -5  -3   39.86    1.75
  -3  -5   3   39.65    1.63
   3  -5  -3   40.16    1.60
  -3  -5   3   40.31    1.65
  -3  -5   3   39.90    1.80
   3  -5  -3   40.43    1.66
  -3  -5   3   39.07    1.83
  -3  -5   3   39.25    1.51
  -3  -5   3   42.08    1.59
   3  -5  -3   43.09    1.65
  -3  -5   3   38.65    1.73
   3  -5  -3   41.49    1.90
   3  -5  -3   37.98    1.77
  -3   5   3   41.76    1.63
  -3   5   3   38.52    1.65
  -3   5   3   42.12    1.76
   3   5  -3   42.72    1.71
   3   5  -3   40.96    1.57
   3   5  -3   41.67    1.60
   3   5  -3   42.03    1.60
   3   5  -3   42.47    1.64
  -3   5   3   41.17    1.86
  -3   5   3   41.41    1.50
   3   5  -3   42.06    1.57
   3   5  -3   41.26    1.69
  -3   5   3   41.50    1.53
   3   5  -3   38.50    1.67
   3   5  -3   40.47    1.63
   1  -5  -3   34.94    1.44
   1  -5  -3   33.74    1.66
  -1  -5   3   33.57    1.58
  -1  -5   3   33.41    1.64
  -1  -5   3   34.93    1.45
   1  -5  -3   34.51    1.47
   1  -5  -3   31.91    1.52
  -1  -5   3   35.01    1.44
   1  -5  -3   35.29    1.33
   1  -5  -3   32.36    1.57
   1  -5  -3   36.19    1.48
  -1  -5   3   35.17    1.30
  -1  -5   3   36.63    1.40
  -1   5   3   35.81    1.46
   1   5  -3   37.12    1.42
   1   5  -3   35.52    1.45
  -1   5   3   35.09    1.66
   1   5  -3   37.36    1.46
   1   5  -3   32.00    1.45
  -1   5   3   36.77    1.38
  -1   5   3   34.89    1.33
   1   5  -3   33.83    1.44
  -1   5   3   34.41    1.49
  -1   5   3   35.00    1.56
   1   5  -3   37.35    1.53
   1   5  -3   34.39    1.46
   1  -5   3   31.42    1.27
  -1  -5  -3   28.75    1.36
  -1  -5  -3   27.38    1.43
   1  -5   3   28.38    1.56
   1  -5   3   30.19    1.32
  -1  -5  -3   32.62    1.38
   1  -5   3   29.90    1.39
   1  -5   3   31.85    1.31
  -1  -5  -3   30.15    1.21
  -1  -5  -3   31.88    1.38
  -1  -5  -3   30.13    1.33
   1  -5   3   33.13    1.29
  -1   5  -3   30.94    1.33
  -1   5  -3   31.79    1.32
  -1   5  -3   31.30    1.36
  -1   5  -3   33.33    1.40
   1   5   3   31.49    1.53
  -1   5  -3   31.38    1.32
   1   5   3   31.27    1.44
   1   5   3   30.79    1.37
   1   5   3   33.25    1.31
  -1   5  -3   30.11    1.31
   1   5   3   28.99    1.21
   1   5   3   27.89    1.34
  -1   5  -3   31.51    1.29
   1   5   3   31.90    1.34
  -3  -5  -3   73.51    3.01
   3  -5   3   68.51    3.19
  -3  -5  -3   78.91    2.96
   3  -5   3   76.79    2.92
   3  -5   3   78.85    2.86
  -3  -5  -3   77.23    2.92
   3  -5   3   81.95    2.86
   3  -5   3   77.43    2.90
  -3  -5  -3   79.67    2.94
  -3  -5  -3   75.59    2.80
   3  -5   3   77.65    2.82
  -3   5  -3   77.36    2.97
  -3   5  -3   82.50    3.03
   3   5   3   80.83    2.96
   3   5   3   78.47    2.92
   3   5   3   78.82    2.94
   3   5   3   76.13    2.90
   3   5   3   81.36    3.12
  -3   5  -3   77.55    2.91
   3   5   3   78.66    3.03
  -3   5  -3   81.71    2.97
   3   5   3   75.90    2.77
  -3   5  -3   79.10    2.86
  -3   5  -3   76.89    2.87
  -3   5  -3   73.29    2.86
   5  -5   3   23.13    1.50
  -5  -5  -3   24.33    1.20
   5  -5   3   25.28    1.09
   5  -5   3   24.56    1.19
   5  -5   3   24.57    1.12
   5  -5   3   24.73    1.10
  -5  -5  -3   21.45    1.37
  -5  -5  -3   26.59    1.23
   5  -5   3   26.74    1.14
  -5  -5  -3   25.02    1.11
  -5  -5  -3   24.57    1.28
   5  -5   3   24.68    1.06
   5   5   3   27.03    1.35
  -5   5  -3   27.61    1.25
  -5   5  -3   25.86    1.28
   5   5   3   24.86    1.08
  -5   5  -3   24.69    1.14
  -5   5  -3   24.89    1.24
  -5   5  -3   24.82    1.13
  -5   5  -3   23.67    1.07
   5   5   3   24.65    1.20
   5   5   3   24.93    1.19
   5   5   3   24.51    1.22
   5   5   3   25.08    1.23
  -5   5  -3   25.61    1.15
   7  -5   3   11.37    0.71
  -7  -5  -3   12.42    0.81
   7  -5   3   12.34    0.67
  -7  -5  -3   12.22    0.83
  -7  -5  -3   11.80    0.87
  -7  -5  -3   11.66    0.64
   7  -5   3   11.77    0.73
  -7  -5  -3   11.82    0.87
   7  -5   3   12.14    0.72
   7  -5   3   11.59    0.78
   7  -5   3   10.50    1.12
  -7   5  -3   12.91    0.81
   7   5   3   12.13    0.83
   7   5   3   13.21    0.90
   7   5   3   11.22    0.71
   7   5   3   11.07    0.97
  -7   5  -3   11.39    0.74
  -7   5  -3   12.31    0.82
  -7   5  -3   10.96    0.62
   7   5   3   12.20    0.87
   7   5   3   12.63    0.79
  -7   5  -3   11.73    0.88
  -7   5  -3   12.29    0.76
  -7   5  -3   12.38    0.74
   9  -5   3   55.85    2.18
  -9  -5  -3   54.86    2.37
   9  -5   3   56.60    2.79
  -9  -5  -3   56.37    2.07
   9  -5   3   58.71    2.25
  -9  -5  -3   55.99    2.36
   9  -5   3   56.84    2.26
   9  -5   3   57.24    2.34
  -9  -5  -3   60.16    2.45
  -9  -5  -3   58.90    2.39
   9  -5   3   57.98    2.27
  -9  -5  -3   55.40    2.46
   9   5   3   57.51    2.26
  -9   5  -3   58.11    2.47
  -9   5  -3   59.22    2.37
   9   5   3   57.91    2.40
   9   5   3   56.14    2.36
  -9   5  -3   55.75    2.27
  -9   5  -3   59.44    2.32
   9   5   3   61.26    2.35
   9   5   3   56.80    2.39
   9   5   3   62.52    2.41
  -9   5  -3   56.11    2.28
  -9   5  -3   55.60    2.08
  11  -5   3    5.23    0.63
 -11  -5  -3    3.83    0.73
 -11  -5  -3    4.29    0.69
 -11  -5  -3    3.52    0.56
  11  -5   3    3.61    0.53
  11  -5   3    4.09    0.56
 -11  -5  -3    4.90    0.72
  11  -5   3    5.56    1.25
  11  -5   3    4.12    0.46
 -11   5  -3    4.64    0.71
  11   5   3    5.18    0.62
 -11   5  -3    4.77    0.65
  11   5   3    4.81    0.62
 -11   5  -3    4.32    0.59
 -11   5  -3    4.95    0.58
  11   5   3    4.61    0.60
  11   5   3    3.66    0.65
  11   5   3    5.89    0.70
  13  -5   3   22.82    1.07
  13  -5   3   22.58    1.30
 -13  -5  -3   20.71    1.32
 -13  -5  -3   21.60    1.28
  13  -5   3   21.58    1.17
 -13  -5  -3   21.20    1.34
  13  -5   3   20.33    1.22
 -13  -5  -3   24.51    1.41
  13  -5   3   20.39    1.76
 -13   5  -3   21.51    1.18
 -13   5  -3   21.07    1.28
  13   5   3   21.23    1.26
  13   5   3   22.88    1.22
 -13   5  -3   20.00    1.15
  13   5   3   19.84    1.17
  13   5   3   22.61    1.28
  13   5   3   22.36    1.37
 -13   5  -3   21.57    1.24
  15  -5   3    9.65    0.84
  15  -5   3    9.16    0.93
 -15  -5  -3    7.96    1.02
 -15  -5  -3    9.00    1.06
  15  -5   3    9.75    0.72
 -15  -5  -3   10.61    1.12
  15  -5   3   13.16    1.54
  15  -5   3   11.39    1.09
 -15  -5  -3   11.24    0.99
  15   5   3    9.47    1.00
  15   5   3    9.54    0.90
 -15   5  -3   10.51    1.05
  15   5   3   10.13    0.87
  15   5   3    9.93    1.10
 -15   5  -3   11.28    0.89
  15   5   3    9.49    0.96
 -15   5  -3    9.30    1.03
 -15   5  -3    9.67    0.90
  17  -5   3   11.51    1.19
  17  -5   3   10.44    0.99
 -17  -5  -3   11.29    1.13
 -17  -5  -3   10.21    1.20
  17  -5   3    8.35    0.85
  17  -5   3   11.71    1.58
 -17  -5  -3   10.18    1.17
  17   5   3   10.69    0.92
 -17   5  -3   10.54    1.10
  17   5   3    9.85    1.21
 -17   5  -3   10.36    1.16
 -17   5  -3    7.91    0.80
 -17   5  -3    8.67    1.01
  17   5   3   10.18    1.11
  17   5   3    9.47    0.97
  19  -5   3    2.41    0.78
 -19  -5  -3    3.00    0.91
  19  -5   3    2.52    0.60
 -19  -5  -3    3.35    1.11
  19  -5   3    2.79    1.11
  19   5   3    3.65    0.62
 -19   5  -3    1.25    0.80
 -19   5  -3    3.32    0.69
  19   5   3    2.94    0.83
  19   5   3    2.57    0.75
  21  -5   3    6.34    1.50
 -21  -5  -3    9.60    1.79
  21  -5   3    5.31    1.07
 -21   5  -3    3.17    0.97
  21   5   3    5.75    1.04
 -24  -6   3    8.21    2.14
  24  -6  -3    4.38    1.19
  24   6  -3    4.07    0.84
 -22  -6   3    7.05    1.68
  22  -6  -3    5.53    0.99
  22  -6  -3    9.51    1.45
  22   6  -3    7.47    1.01
  22   6  -3    5.73    0.95
  20  -6  -3   13.95    1.24
  20  -6  -3   11.70    1.40
 -20  -6   3   11.81    2.02
  20   6  -3   13.17    1.23
  20   6  -3   11.79    0.86
  20   6  -3   13.43    1.09
  18  -6  -3   11.14    0.72
  18  -6  -3   10.64    1.26
 -18  -6   3   10.67    1.82
 -18  -6   3   11.06    1.25
  18  -6  -3    9.73    1.04
 -18  -6   3    8.31    1.12
  18   6  -3   10.38    0.77
  18   6  -3    8.20    0.80
  18   6  -3   10.45    0.93
  18   6  -3    9.44    0.77
 -18   6   3   12.36    1.20
 -18   6   3   10.16    0.92
  18   6  -3   11.37    1.05
  18   6  -3    9.04    0.62
 -18   6   3    9.58    0.88
  18   6  -3    8.67    0.86
  18   6  -3   10.27    0.72
 -16  -6   3   42.25    1.99
 -16  -6   3   40.40    1.86
  16  -6  -3   43.59    1.98
  16  -6  -3   46.47    2.26
 -16  -6   3   41.91    2.69
 -16  -6   3   37.26    1.90
  16  -6  -3   43.19    1.82
  16  -6  -3   41.64    1.57
 -16  -6   3   40.91    1.73
  16   6  -3   41.51    1.72
  16   6  -3   42.61    1.79
  16   6  -3   37.29    1.82
  16   6  -3   41.24    1.75
 -16   6   3   41.05    1.73
 -16   6   3   39.86    1.81
  16   6  -3   43.25    1.98
  16   6  -3   42.24    1.63
  16   6  -3   41.23    1.83
  16   6  -3   40.52    1.65
 -16   6   3   40.08    1.81
  14  -6  -3   30.16    1.24
  14  -6  -3   30.37    1.29
 -14  -6   3   30.02    2.15
 -14  -6   3   29.52    1.43
 -14  -6   3   27.68    1.43
  14  -6  -3   31.50    1.80
  14  -6  -3   29.72    1.45
 -14  -6   3   29.00    1.38
 -14  -6   3   29.93    1.53
 -14   6   3   28.35    1.41
  14   6  -3   30.78    1.33
  14   6  -3   30.09    1.39
  14   6  -3   30.51    1.53
  14   6  -3   28.35    1.22
  14   6  -3   30.14    1.36
  14   6  -3   27.30    1.36
 -14   6   3   29.16    1.45
  14   6  -3   29.38    1.26
  14   6  -3   28.61    1.36
  12  -6  -3   44.09    2.03
  12  -6  -3   46.08    1.84
 -12  -6   3   42.39    1.89
  12  -6  -3   47.63    2.27
 -12  -6   3   44.86    2.56
  12  -6  -3   47.75    1.78
 -12  -6   3   46.58    1.93
 -12  -6   3   38.14    1.87
 -12  -6   3   44.38    1.97
  12  -6  -3   42.27    1.97
  12   6  -3   45.55    1.88
  12   6  -3   45.67    1.77
 -12   6   3   44.54    1.89
  12   6  -3   45.58    1.75
 -12   6   3   46.09    2.00
  12   6  -3   45.30    1.83
 -12   6   3   47.22    1.88
  12   6  -3   44.86    1.82
  12   6  -3   45.62    2.01
  12   6  -3   43.69    1.83
  12   6  -3   48.04    2.00
 -12   6   3   47.98    2.11
  10  -6  -3   91.84    3.75
 -10  -6   3   97.55    3.70
 -10  -6   3   96.83    3.71
  10  -6  -3  103.87    4.03
  10  -6  -3  101.42    3.52
 -10  -6   3  100.81    3.75
 -10  -6   3   94.65    3.62
 -10  -6   3   97.76    4.24
  10  -6  -3   97.30    3.77
 -10   6   3  103.62    3.84
  10   6  -3   96.75    3.49
  10   6  -3  102.33    3.56
 -10   6   3  100.94    3.59
  10   6  -3  101.59    3.62
  10   6  -3   88.45    3.70
  10   6  -3  100.66    3.66
  10   6  -3  100.79    3.58
 -10   6   3  100.41    3.63
 -10   6   3   98.47    3.64
  10   6  -3   99.09    3.52
 -10   6   3  102.58    3.59
 -10   6   3  101.87    3.83
  10   6  -3  100.39    3.70
 -10   6   3   87.73    3.98
  10   6  -3  103.41    3.55
  -8  -6   3   64.60    2.65
  -8  -6   3   70.68    2.62
  -8  -6   3   63.10    2.47
   8  -6  -3   57.48    2.63
  -8  -6   3   63.82    3.00
   8  -6  -3   66.34    2.65
   8  -6  -3   68.80    2.40
   8  -6  -3   67.16    2.86
   8   6  -3   68.59    2.45
  -8   6   3   65.67    2.67
  -8   6   3   65.67    2.75
  -8   6   3   68.04    2.56
   8   6  -3   64.66    2.51
  -8   6   3   65.71    2.49
   8   6  -3   65.29    2.42
   8   6  -3   69.07    2.57
  -8   6   3   63.04    2.86
   8   6  -3   64.29    2.63
  -8   6   3   64.59    2.52
   8   6  -3   69.57    2.42
   8   6  -3   66.16    2.46
   8   6  -3   61.46    2.59
   8   6  -3   64.39    2.55
  -8   6   3   65.50    2.48
   8   6  -3   66.20    2.30
   6  -6  -3  100.14    3.43
  -6  -6   3   94.92    3.49
  -6  -6   3  103.75    3.65
   6  -6  -3   95.25    3.87
  -6  -6   3   94.00    3.95
   6  -6  -3   98.22    3.69
   6  -6  -3   90.30    3.72
  -6  -6   3   84.93    3.62
  -6  -6   3   96.91    3.73
   6   6  -3  102.58    3.53
   6   6  -3   99.02    3.38
   6   6  -3   98.57    3.64
   6   6  -3  100.45    3.44
   6   6  -3   94.01    3.63
  -6   6   3   99.19    3.71
   6   6  -3  102.33    3.63
  -6   6   3   96.23    3.55
   6   6  -3   98.13    3.65
  -6   6   3  102.89    3.49
   6   6  -3   99.66    3.52
  -6   6   3   98.99    3.54
  -6   6   3   99.66    3.60
   6   6  -3   97.12    3.56
  -6   6   3   93.44    3.82
  -6   6   3  100.76    3.62
   6   6  -3   96.33    3.59
  -4  -6   3   75.44    2.94
   4  -6  -3   73.32    2.96
   4  -6  -3   69.81    3.02
   4  -6  -3   77.21    3.17
   4  -6  -3   80.50    2.90
  -4  -6   3   74.51    3.15
  -4  -6   3   80.63    2.92
  -4  -6   3   75.71    2.76
  -4  -6   3   75.73    3.06
   4   6  -3   71.43    2.90
   4   6  -3   79.47    2.83
  -4   6   3   69.54    3.04
  -4   6   3   79.55    2.68
   4   6  -3   75.88    2.87
   4   6  -3   83.91    2.95
  -4   6   3   65.39    3.21
   4   6  -3   79.03    2.79
  -4   6   3   77.91    3.16
  -4   6   3   80.20    3.00
   4   6  -3   76.39    2.73
   4   6  -3   80.04    2.83
   4   6  -3   76.67    2.92
  -4   6   3   79.13    2.76
   2  -6  -3  180.80    6.17
  -2  -6   3  169.36    6.31
   2  -6  -3  176.69    6.25
  -2  -6   3  187.85    6.16
  -2  -6   3  174.50    6.36
   2  -6  -3  162.04    6.29
   2  -6  -3  185.23    6.01
   2  -6  -3  171.08    6.41
   2  -6  -3  171.06    6.18
  -2  -6   3  181.22    6.09
   2  -6  -3  169.51    6.23
  -2  -6   3  175.69    5.99
  -2   6   3  178.15    6.13
   2   6  -3  194.75    6.23
   2   6  -3  173.40    6.15
  -2   6   3  179.53    6.01
   2   6  -3  169.95    6.11
  -2   6   3  183.20    6.01
  -2   6   3  180.65    6.46
  -2   6   3  178.15    6.24
   2   6  -3  172.88    6.08
   2   6  -3  164.68    6.28
   2   6  -3  177.67    6.05
   2   6  -3  169.23    6.15
   2   6  -3  148.57    6.28
   0  -6  -3   28.32    1.33
   0  -6  -3   27.32    1.43
   0  -6   3   27.68    1.40
   0  -6   3   25.77    1.53
   0  -6  -3   28.56    1.17
   0  -6   3   28.38    1.29
   0  -6   3   29.50    1.28
   0  -6  -3   26.24    1.27
   0  -6  -3   27.79    1.31
   0  -6   3   27.31    1.13
   0  -6  -3   28.51    1.51
   0   6   3   27.88    1.28
   0   6   3   28.22    1.17
   0   6   3   30.99    1.55
   0   6   3   27.72    1.23
   0   6  -3   28.39    1.27
   0   6  -3   28.72    1.25
   0   6  -3   29.97    1.31
   0   6  -3   28.84    1.28
   0   6  -3   28.11    1.25
   0   6   3   28.12    1.37
   0   6  -3   27.24    1.27
   0   6  -3   30.24    1.35
  -2  -6  -3  163.71    5.71
   2  -6   3  162.97    5.73
  -2  -6  -3  171.59    5.87
   2  -6   3  168.36    5.75
  -2  -6  -3  156.72    5.83
  -2  -6  -3  155.73    5.96
  -2  -6  -3  162.55    6.03
  -2  -6  -3  160.34    5.86
   2  -6   3  149.80    6.15
   2  -6   3  167.01    5.82
   2  -6   3  173.76    5.79
  -2  -6  -3  168.09    5.84
   2  -6   3  162.77    5.87
  -2   6  -3  163.55    5.77
   2   6   3  167.26    5.83
  -2   6  -3  157.60    5.76
   2   6   3  155.60    5.86
  -2   6  -3  166.05    5.84
  -2   6  -3  168.38    5.78
  -2   6  -3  164.32    5.84
   2   6   3  174.19    5.94
   2   6   3  170.17    5.81
   2   6   3  160.54    5.67
  -2   6  -3  163.52    5.79
   2   6   3  176.98    6.12
   2   6   3  159.61    5.83
  -2   6  -3  177.62    5.90
  -4  -6  -3   34.78    1.72
   4  -6   3   37.17    1.57
  -4  -6  -3   36.23    1.63
   4  -6   3   37.86    1.55
  -4  -6  -3   35.26    1.55
   4  -6   3   36.82    1.53
   4  -6   3   36.14    1.59
  -4  -6  -3   38.87    1.65
   4  -6   3   36.23    1.48
   4  -6   3   33.00    1.96
  -4  -6  -3   36.60    1.51
  -4  -6  -3   37.72    1.69
   4  -6   3   37.18    1.60
   4   6   3   40.00    1.65
  -4   6  -3   33.92    1.51
  -4   6  -3   38.67    1.65
  -4   6  -3   36.73    1.57
   4   6   3   35.71    1.63
  -4   6  -3   35.59    1.54
  -4   6  -3   34.80    1.76
   4   6   3   37.93    1.72
   4   6   3   36.59    1.64
  -4   6  -3   36.66    1.62
   4   6   3   36.33    1.47
   4   6   3   38.30    1.61
   4   6   3   38.28    1.80
  -4   6  -3   35.92    1.64
  -6  -6  -3   55.51    2.48
   6  -6   3   57.04    2.26
  -6  -6  -3   59.82    2.43
  -6  -6  -3   60.56    2.43
   6  -6   3   61.05    2.33
   6  -6   3   59.35    2.33
  -6  -6  -3   60.48    2.48
   6  -6   3   59.45    2.39
   6  -6   3   58.02    2.26
   6  -6   3   57.47    2.84
   6  -6   3   59.18    2.26
  -6  -6  -3   55.93    2.26
  -6   6  -3   60.97    2.48
   6   6   3   58.83    2.27
   6   6   3   59.87    2.43
  -6   6  -3   56.33    2.23
  -6   6  -3   60.03    2.36
   6   6   3   61.67    2.40
   6   6   3   65.62    2.47
  -6   6  -3   58.99    2.33
  -6   6  -3   60.12    2.41
   6   6   3   63.32    2.59
  -6   6  -3   64.78    2.44
   6   6   3   61.36    2.44
  -6   6  -3   61.04    2.36
   8  -6   3   29.99    1.37
  -8  -6  -3   29.56    1.26
   8  -6   3   30.14    1.95
  -8  -6  -3   28.38    1.53
  -8  -6  -3   32.08    1.54
  -8  -6  -3   33.22    1.58
   8  -6   3   30.70    1.30
   8  -6   3   29.67    1.46
   8  -6   3   31.44    1.40
  -8  -6  -3   29.61    1.58
  -8  -6  -3   29.97    1.50
  -8   6  -3   31.51    1.43
  -8   6  -3   29.03    1.23
   8   6   3   32.18    1.57
   8   6   3   30.49    1.50
   8   6   3   30.35    1.49
  -8   6  -3   32.60    1.48
   8   6   3   30.59    1.55
   8   6   3   30.79    1.44
  -8   6  -3   30.00    1.49
  -8   6  -3   30.79    1.56
  -8   6  -3   29.92    1.37
  -8   6  -3   30.73    1.44
   8   6   3   29.36    1.44
 -10  -6  -3   67.51    2.76
  10  -6   3   65.28    2.57
 -10  -6  -3   64.56    2.72
  10  -6   3   64.02    2.63
 -10  -6  -3   63.72    2.76
  10  -6   3   66.91    2.67
  10  -6   3   63.17    2.45
 -10  -6  -3   66.70    2.71
 -10   6  -3   64.92    2.62
 -10   6  -3   72.65    2.67
  10   6   3   57.23    2.90
  10   6   3   66.77    2.72
  10   6   3   64.32    2.56
 -10   6  -3   60.93    2.50
 -10   6  -3   67.42    2.69
  10   6   3   65.30    2.61
  10   6   3   65.31    2.66
  12  -6   3   14.63    1.03
  12  -6   3   11.69    0.95
  12  -6   3   12.97    0.90
  12  -6   3   13.87    1.58
 -12  -6  -3   10.25    1.04
 -12  -6  -3   14.35    1.12
 -12  -6  -3   12.55    1.07
  12  -6   3   11.18    0.73
 -12  -6  -3   13.60    1.10
  12   6   3   12.28    0.95
  12   6   3   13.53    0.97
  12   6   3   12.94    0.98
  12   6   3   12.69    1.11
 -12   6  -3   11.75    0.87
 -12   6  -3   11.54    0.99
  12   6   3   13.31    0.94
 -12   6  -3   13.76    0.94
 -14  -6  -3   21.88    1.38
 -14  -6  -3   17.55    2.12
 -14  -6  -3   18.27    1.33
  14  -6   3   21.13    1.86
  14  -6   3   18.24    1.21
  14  -6   3   18.88    1.15
  14  -6   3   18.56    0.98
  14  -6   3   19.39    1.31
 -14  -6  -3   21.33    1.45
  14   6   3   17.12    1.21
 -14   6  -3   18.41    1.14
 -14   6  -3   19.67    1.24
 -14   6  -3   17.85    1.30
  14   6   3   18.76    1.25
  14   6   3   19.20    1.35
 -14   6  -3   19.69    1.22
  14   6   3   20.19    1.17
  14   6   3   20.66    1.19
 -16  -6  -3   13.19    1.34
 -16  -6  -3   14.01    1.31
 -16  -6  -3   14.63    1.32
  16  -6   3   13.54    1.10
  16  -6   3   13.72    1.27
  16  -6   3   11.86    1.00
 -16  -6  -3   12.04    1.24
  16  -6   3   17.44    1.87
  16   6   3   13.96    1.05
  16   6   3   13.78    1.17
 -16   6  -3   12.53    1.06
  16   6   3   12.46    1.23
 -16   6  -3   12.94    1.21
 -16   6  -3   14.69    1.28
  16   6   3   13.24    1.32
  16   6   3   10.62    1.03
  18  -6   3    6.86    0.99
  18  -6   3    4.58    0.70
  18  -6   3    6.27    1.38
 -18  -6  -3    4.29    0.98
 -18  -6  -3    7.18    1.17
  18   6   3    5.10    0.86
  18   6   3    4.49    0.68
 -18   6  -3    3.64    0.91
  18   6   3    3.64    0.84
 -18   6  -3    4.26    0.73
 -20  -6  -3    7.32    1.47
  20  -6   3    4.16    0.99
  20  -6   3    4.30    1.55
 -20   6  -3    5.29    0.85
  20   6   3    5.15    0.92
 -23  -7   3    2.89    1.90
  23   7  -3    4.71    0.82
 -21  -7   3   11.56    2.09
  21  -7  -3   14.15    1.68
  21  -7  -3   10.48    1.40
  21   7  -3   12.79    1.10
  21   7  -3    9.72    0.97
  21   7  -3   12.03    1.35
  19  -7  -3    6.93    0.97
  19  -7  -3    8.69    1.34
 -19  -7   3    8.00    1.79
  19  -7  -3    7.73    0.72
  19   7  -3    7.54    0.92
  19   7  -3   10.10    1.21
  19   7  -3    7.15    0.90
 -17  -7   3   25.25    1.62
 -17  -7   3   24.38    1.68
  17  -7  -3   27.01    1.56
  17  -7  -3   23.51    1.27
  17  -7  -3   26.87    1.81
 -17  -7   3   25.06    2.35
  17   7  -3   24.32    1.40
  17   7  -3   22.30    1.19
  17   7  -3   24.60    1.23
 -17   7   3   22.82    1.39
  17   7  -3   24.14    1.49
  17   7  -3   22.19    1.28
 -17   7   3   24.43    1.39
  17   7  -3   24.31    1.26
 -15  -7   3   18.70    1.11
  15  -7  -3   22.76    1.61
  15  -7  -3   19.80    1.35
  15  -7  -3   19.42    1.20
 -15  -7   3   18.53    1.24
 -15  -7   3   19.75    1.80
 -15  -7   3   20.41    2.06
  15  -7  -3   20.05    0.91
  15   7  -3   19.13    1.07
  15   7  -3   20.82    1.01
  15   7  -3   19.93    1.08
  15   7  -3   20.99    1.33
  15   7  -3   21.07    1.12
  15   7  -3   19.70    1.11
  15   7  -3   20.66    0.96
  15   7  -3   21.19    1.14
 -15   7   3   18.74    1.22
 -15   7   3   19.08    1.20
 -13  -7   3   42.51    2.07
  13  -7  -3   48.95    1.94
 -13  -7   3   50.13    2.10
 -13  -7   3   50.63    2.96
 -13  -7   3   49.73    2.24
  13  -7  -3   52.16    2.51
  13  -7  -3   50.02    2.03
  13  -7  -3   47.59    2.28
  13   7  -3   50.83    2.18
 -13   7   3   51.54    2.07
 -13   7   3   47.42    2.22
 -13   7   3   49.28    2.03
  13   7  -3   48.56    1.96
  13   7  -3   48.64    1.92
  13   7  -3   49.55    1.96
  13   7  -3   50.94    2.08
 -13   7   3   47.75    2.11
  13   7  -3   49.88    2.07
  13   7  -3   51.47    2.03
  13   7  -3   50.14    2.10
 -11  -7   3   33.14    2.38
  11  -7  -3   33.98    1.76
  11  -7  -3   30.11    1.65
 -11  -7   3   32.43    1.55
  11  -7  -3   34.05    1.99
 -11  -7   3   35.30    1.66
  11  -7  -3   35.37    1.42
 -11  -7   3   33.92    1.68
  11   7  -3   35.94    1.52
 -11   7   3   34.68    1.76
 -11   7   3   34.26    1.60
  11   7  -3   34.38    1.46
  11   7  -3   33.89    1.36
  11   7  -3   34.39    1.99
  11   7  -3   36.02    1.49
  11   7  -3   36.55    1.57
  11   7  -3   33.38    1.43
 -11   7   3   36.19    1.57
  11   7  -3   34.09    1.58
 -11   7   3   34.50    1.76
  -9  -7   3  102.89    3.90
   9  -7  -3   89.78    3.91
   9  -7  -3  107.08    4.18
  -9  -7   3   98.05    3.85
  -9  -7   3   94.70    3.72
   9  -7  -3  100.31    3.87
  -9  -7   3  101.05    4.42
   9  -7  -3  103.64    3.62
  -9   7   3  102.11    3.77
  -9   7   3   93.05    4.14
  -9   7   3  105.49    3.72
  -9   7   3  107.60    3.95
   9   7  -3  105.56    3.82
   9   7  -3  103.22    3.71
   9   7  -3  102.38    3.77
   9   7  -3  102.43    3.64
   9   7  -3  104.22    3.80
  -9   7   3  102.39    3.71
   9   7  -3  103.99    3.69
  -9   7   3  104.48    3.81
  -9   7   3   95.95    4.01
  -7  -7   3   30.59    1.39
   7  -7  -3   29.93    1.51
   7  -7  -3   31.80    1.79
  -7  -7   3   32.14    1.51
   7  -7  -3   27.56    1.59
  -7  -7   3   31.54    1.92
  -7  -7   3   31.86    1.63
   7  -7  -3   33.64    1.32
  -7   7   3   32.58    1.47
  -7   7   3   34.03    1.53
   7   7  -3   32.23    1.41
   7   7  -3   31.78    1.35
  -7   7   3   32.46    1.59
   7   7  -3   30.73    1.47
  -7   7   3   33.35    1.76
  -7   7   3   31.11    1.42
   7   7  -3   31.68    1.39
   7   7  -3   32.89    1.48
   7   7  -3   32.18    1.55
   7   7  -3   32.24    1.19
   7   7  -3   32.11    1.48
  -7   7   3   31.59    1.38
  -7   7   3   31.46    1.42
   7   7  -3   33.51    1.32
   5  -7  -3  138.17    4.74
   5  -7  -3  130.65    4.96
  -5  -7   3  124.09    4.87
  -5  -7   3  127.06    4.88
  -5  -7   3  129.97    5.28
  -5  -7   3  139.81    4.94
   5  -7  -3  137.75    5.23
   5  -7  -3  141.40    4.90
   5  -7  -3  121.40    5.06
  -5  -7   3  136.31    5.10
   5   7  -3  136.31    4.82
  -5   7   3  144.12    5.29
  -5   7   3  135.85    4.87
  -5   7   3  134.29    4.91
   5   7  -3  135.40    4.94
   5   7  -3  135.10    4.88
  -5   7   3  142.47    4.96
   5   7  -3  142.74    4.92
   5   7  -3  147.75    4.96
   5   7  -3  137.56    4.71
   5   7  -3  127.68    4.91
   5   7  -3  136.11    4.79
  -5   7   3  136.15    4.77
  -5   7   3  136.02    4.86
  -5   7   3  135.16    4.63
  -5   7   3  140.98    5.01
   5   7  -3  138.14    4.85
  -3  -7   3   78.25    2.90
  -3  -7   3   76.66    3.30
   3  -7  -3   82.96    2.88
   3  -7  -3   78.89    3.10
  -3  -7   3   86.22    3.19
   3  -7  -3   85.59    3.20
   3  -7  -3   75.16    3.39
  -3  -7   3   73.14    3.15
   3  -7  -3   84.00    3.05
   3  -7  -3   70.04    3.17
  -3   7   3   81.51    3.38
   3   7  -3   76.58    2.91
  -3   7   3   77.55    3.04
   3   7  -3   83.40    3.06
   3   7  -3   79.43    3.14
  -3   7   3   77.32    2.85
   3   7  -3   82.19    2.97
  -3   7   3   81.16    3.11
  -3   7   3   80.01    2.90
   3   7  -3   80.15    2.98
  -3   7   3   79.56    3.00
   3   7  -3   74.78    3.03
   3   7  -3   86.07    3.10
   3   7  -3   76.08    2.99
   1  -7  -3   66.93    2.87
   1  -7  -3   58.74    2.74
  -1  -7   3   65.24    2.45
  -1  -7   3   65.40    2.79
  -1  -7   3   67.14    2.67
  -1  -7   3   65.14    2.60
  -1  -7   3   63.77    2.86
   1  -7  -3   68.91    2.47
  -1  -7   3   66.86    2.54
   1  -7  -3   66.54    2.61
   1  -7  -3   65.63    2.62
   1  -7  -3   64.60    2.56
   1   7  -3   67.12    2.62
  -1   7   3   64.13    2.45
   1   7  -3   64.73    2.57
   1   7  -3   66.14    2.53
   1   7  -3   66.68    2.55
   1   7  -3   63.75    2.58
  -1   7   3   66.89    2.67
   1   7  -3   70.11    2.50
   1   7  -3   61.37    2.56
  -1   7   3   68.24    2.60
  -1   7   3   71.50    2.52
  -1   7   3   66.66    2.63
   1   7  -3   71.83    2.66
   1   7  -3   65.60    2.51
  -1   7   3   68.92    2.93
   1  -7   3   55.20    2.33
   1  -7   3   62.91    2.47
  -1  -7  -3   62.36    2.33
   1  -7   3   63.45    2.47
   1  -7   3   62.83    2.45
  -1  -7  -3   60.15    2.50
  -1  -7  -3   62.13    2.48
   1  -7   3   58.60    2.81
  -1  -7  -3   60.16    2.44
   1  -7   3   60.58    2.56
  -1  -7  -3   63.61    2.72
  -1  -7  -3   60.32    2.62
  -1   7  -3   61.53    2.47
  -1   7  -3   61.25    2.43
   1   7   3   58.32    2.29
  -1   7  -3   63.34    2.52
  -1   7  -3   64.20    2.50
   1   7   3   64.36    2.53
  -1   7  -3   62.24    2.42
  -1   7  -3   61.98    2.42
  -1   7  -3   57.07    2.38
   1   7   3   62.51    2.50
   1   7   3   66.01    2.43
  -3  -7  -3   80.43    2.99
   3  -7   3   72.14    3.52
  -3  -7  -3   81.62    3.13
  -3  -7  -3   76.23    3.08
  -3  -7  -3   81.27    3.31
   3  -7   3   77.01    2.83
   3  -7   3   81.10    3.13
  -3  -7  -3   78.28    3.26
   3  -7   3   81.62    3.10
  -3  -7  -3   82.16    3.18
  -3  -7  -3   79.70    3.13
   3  -7   3   83.58    3.05
   3   7   3   84.92    3.12
  -3   7  -3   87.97    3.18
   3   7   3   85.38    3.39
  -3   7  -3   79.06    3.07
   3   7   3   83.56    3.10
  -3   7  -3   79.66    3.13
  -3   7  -3   82.34    3.05
   3   7   3   79.59    2.95
   3   7   3   80.97    3.14
   3   7   3   79.95    3.12
   3   7   3   83.73    3.19
  -3   7  -3   82.19    3.07
  -3   7  -3   75.12    3.00
  -3   7  -3   81.53    3.12
   5  -7   3   44.74    1.80
  -5  -7  -3   47.04    2.01
   5  -7   3   42.79    1.92
  -5  -7  -3   45.43    1.86
   5  -7   3   45.04    1.86
   5  -7   3   41.30    2.41
   5  -7   3   43.89    1.87
   5  -7   3   45.03    1.79
  -5  -7  -3   45.26    2.15
  -5  -7  -3   44.06    1.86
   5  -7   3   44.21    1.86
  -5  -7  -3   43.25    2.09
  -5  -7  -3   49.09    2.06
  -5  -7  -3   43.72    1.96
  -5   7  -3   40.88    1.78
  -5   7  -3   44.07    1.91
   5   7   3   45.95    1.81
   5   7   3   47.25    1.98
   5   7   3   44.41    1.97
   5   7   3   48.33    2.16
  -5   7  -3   46.16    1.98
  -5   7  -3   46.46    2.00
  -5   7  -3   44.26    1.86
   5   7   3   44.71    1.97
   5   7   3   47.01    1.94
  -5   7  -3   46.15    1.98
   5   7   3   45.32    2.03
  -5   7  -3   44.13    1.90
   7  -7   3   42.13    1.78
  -7  -7  -3   41.93    2.04
  -7  -7  -3   43.00    1.97
   7  -7   3   44.99    1.83
   7  -7   3   42.99    1.95
   7  -7   3   42.56    2.46
   7  -7   3   41.28    1.71
   7  -7   3   40.21    1.87
   7  -7   3   41.54    1.73
  -7  -7  -3   44.03    2.01
   7   7   3   43.97    1.94
   7   7   3   42.21    2.03
   7   7   3   43.26    2.00
  -7   7  -3   43.26    1.87
  -7   7  -3   41.48    1.98
   7   7   3   42.98    1.88
   7   7   3   42.79    1.94
  -7   7  -3   46.48    1.94
  -7   7  -3   43.07    1.88
   7   7   3   43.86    1.93
  -7   7  -3   43.48    1.94
  -7   7  -3   40.51    1.78
   7   7   3   42.94    1.77
   9  -7   3   49.03    1.99
   9  -7   3   51.78    2.12
   9  -7   3   47.93    2.17
  -9  -7  -3   51.43    2.37
   9  -7   3   49.00    2.09
  -9  -7  -3   52.08    1.95
  -9  -7  -3   53.53    2.35
  -9  -7  -3   51.31    2.34
   9  -7   3   46.30    2.04
   9  -7   3   53.52    2.87
  -9  -7  -3   53.10    2.29
   9   7   3   53.17    2.35
  -9   7  -3   52.39    2.18
  -9   7  -3   48.98    2.16
   9   7   3   50.10    2.21
   9   7   3   50.83    2.09
  -9   7  -3   49.84    2.07
   9   7   3   52.54    2.18
  -9   7  -3   51.24    2.25
  -9   7  -3   53.26    2.23
   9   7   3   51.38    2.31
  11  -7   3    7.48    0.86
  11  -7   3    7.51    0.59
  11  -7   3    8.18    0.86
  11  -7   3    8.86    1.51
 -11  -7  -3    8.15    0.99
  11  -7   3    7.30    0.74
 -11  -7  -3    8.60    1.02
 -11  -7  -3    7.63    1.01
 -11  -7  -3   10.05    1.10
  11   7   3    7.36    0.85
 -11   7  -3    7.92    0.78
 -11   7  -3    8.69    0.89
  11   7   3    7.74    0.84
  11   7   3    7.56    0.95
 -11   7  -3    9.15    0.93
 -11   7  -3    8.88    0.87
  11   7   3    9.14    0.87
  11   7   3    7.04    0.84
 -13  -7  -3   23.16    1.51
 -13  -7  -3   26.84    1.63
  13  -7   3   22.43    1.36
 -13  -7  -3   25.33    1.59
  13  -7   3   27.31    2.11
  13  -7   3   25.10    1.47
  13  -7   3   22.91    1.12
  13  -7   3   20.57    1.26
 -13  -7  -3   27.33    1.60
 -13   7  -3   22.84    1.27
  13   7   3   21.91    1.35
 -13   7  -3   22.57    1.41
 -13   7  -3   23.59    1.45
  13   7   3   21.98    1.48
  13   7   3   22.81    1.38
  13   7   3   26.08    1.39
 -13   7  -3   23.66    1.39
  13   7   3   21.82    1.36
 -15  -7  -3   19.61    1.52
  15  -7   3   17.82    1.36
 -15  -7  -3   16.60    1.52
  15  -7   3   16.73    1.93
  15  -7   3   14.06    1.28
 -15  -7  -3   18.69    1.52
  15  -7   3   14.35    1.18
  15   7   3   17.31    1.29
 -15   7  -3   17.26    1.40
  15   7   3   16.85    1.36
  15   7   3   17.00    1.18
  15   7   3   16.71    1.21
 -15   7  -3   17.68    1.34
 -15   7  -3   15.28    1.14
 -15   7  -3   18.96    1.51
  15   7   3   17.38    1.28
 -17  -7  -3    8.10    1.60
  17  -7   3    6.31    1.46
 -17  -7  -3   11.40    1.42
  17  -7   3    9.58    1.01
  17  -7   3    8.63    1.23
 -17   7  -3    8.48    1.05
  17   7   3    7.35    0.95
  17   7   3    8.95    1.26
  17   7   3    8.24    0.97
  19  -7   3    4.12    0.97
 -19  -7  -3    2.90    1.33
 -19   7  -3    3.60    0.79
  19   7   3    3.54    0.84
  22   8  -3    2.60    0.70
 -20  -8   3    5.37    1.93
  20  -8  -3    4.61    1.16
  20  -8  -3    3.27    0.99
  20   8  -3    4.60    0.92
  20   8  -3    6.06    0.90
 -18  -8   3    5.70    1.74
  18  -8  -3    4.69    0.73
  18  -8  -3    4.16    0.84
  18  -8  -3    5.45    1.12
  18   8  -3    5.48    0.80
  18   8  -3    4.40    0.82
  18   8  -3    4.00    0.65
 -16  -8   3   15.04    1.49
 -16  -8   3   18.26    1.08
  16  -8  -3   17.09    1.59
  16  -8  -3   18.18    1.39
  16  -8  -3   16.45    1.14
 -16  -8   3   16.61    2.20
 -16   8   3   15.09    1.26
  16   8  -3   14.38    1.07
 -16   8   3   15.52    1.30
 -16   8   3   19.95    1.72
  16   8  -3   15.70    1.24
  16   8  -3   15.61    1.08
 -14  -8   3    9.27    1.15
 -14  -8   3   10.19    0.90
 -14  -8   3    6.62    0.96
 -14  -8   3    8.44    1.05
  14  -8  -3   10.73    0.97
  14  -8  -3    9.85    0.63
  14  -8  -3    8.53    1.25
 -14  -8   3   11.40    1.82
 -14   8   3    8.53    0.87
  14   8  -3    9.02    0.99
  14   8  -3    8.39    0.82
 -14   8   3   10.34    1.02
 -14   8   3   10.44    0.86
  14   8  -3   10.32    0.84
  14   8  -3   10.32    0.70
  14   8  -3    8.20    0.83
  14   8  -3    9.68    0.72
 -14   8   3    7.98    1.05
  12  -8  -3   12.43    1.33
 -12  -8   3   11.93    0.97
 -12  -8   3   13.62    1.73
  12  -8  -3   13.07    1.10
 -12  -8   3   12.55    1.13
  12  -8  -3   13.10    0.76
 -12  -8   3   13.88    1.06
  12   8  -3   13.15    0.82
 -12   8   3    9.28    1.10
  12   8  -3   12.62    0.78
  12   8  -3   12.86    0.89
 -12   8   3   13.50    1.02
  12   8  -3   12.25    0.67
  12   8  -3   12.43    0.90
  12   8  -3   13.28    1.06
  12   8  -3   12.13    0.82
 -12   8   3   12.43    0.90
  10  -8  -3   31.42    1.78
  10  -8  -3   35.61    2.00
 -10  -8   3   34.94    2.40
 -10  -8   3   29.69    1.56
 -10  -8   3   35.49    1.75
  10  -8  -3   33.36    1.41
  10   8  -3   35.91    1.62
 -10   8   3   31.44    1.86
 -10   8   3   34.70    1.65
  10   8  -3   34.91    1.46
 -10   8   3   34.14    1.58
  10   8  -3   32.27    1.48
  10   8  -3   33.11    1.46
  10   8  -3   31.59    1.85
 -10   8   3   33.21    1.54
  10   8  -3   34.76    1.55
 -10   8   3   34.19    1.74
 -10   8   3   33.16    1.52
  10   8  -3   34.53    1.64
   8  -8  -3   20.12    1.41
   8  -8  -3   23.66    1.06
  -8  -8   3   23.58    1.44
   8  -8  -3   20.83    1.24
  -8  -8   3   22.64    1.19
   8   8  -3   22.68    1.14
   8   8  -3   22.58    1.06
  -8   8   3   23.51    1.19
  -8   8   3   22.09    1.15
  -8   8   3   23.90    1.21
  -8   8   3   24.54    1.35
  -8   8   3   23.62    1.19
  -8   8   3   24.36    1.60
  -8   8   3   24.36    1.31
   8   8  -3   23.31    1.25
   8   8  -3   23.29    1.10
   8   8  -3   22.15    1.17
   8   8  -3   23.09    1.36
   8   8  -3   21.79    1.27
   6  -8  -3   24.73    1.60
   6  -8  -3   23.14    1.04
  -6  -8   3   23.45    1.74
  -6  -8   3   23.55    1.17
   6  -8  -3   20.12    1.40
  -6  -8   3   23.47    1.50
   6  -8  -3   21.15    1.23
  -6  -8   3   21.31    1.17
  -6   8   3   24.42    1.31
   6   8  -3   23.43    1.31
   6   8  -3   22.34    1.10
   6   8  -3   23.23    1.24
  -6   8   3   24.97    1.23
  -6   8   3   22.64    1.28
  -6   8   3   23.07    1.15
   6   8  -3   23.16    1.19
   6   8  -3   22.80    1.24
  -6   8   3   23.62    1.18
  -6   8   3   22.66    1.55
   6   8  -3   23.07    1.15
   6   8  -3   24.18    1.28
  -6   8   3   24.42    1.37
   6   8  -3   23.52    0.99
   4  -8  -3   20.29    1.15
   4  -8  -3   20.71    1.46
   4  -8  -3   21.75    0.98
   4  -8  -3   19.11    1.16
  -4  -8   3   19.79    1.04
  -4  -8   3   19.89    1.48
  -4  -8   3   19.02    1.22
   4  -8  -3   19.57    1.34
   4   8  -3   17.49    1.25
   4   8  -3   21.11    1.02
  -4   8   3   21.44    0.94
  -4   8   3   20.46    1.21
   4   8  -3   19.01    1.11
   4   8  -3   20.48    1.19
  -4   8   3   20.59    1.10
  -4   8   3   20.18    1.47
  -4   8   3   20.77    1.04
   4   8  -3   20.66    1.16
  -4   8   3   20.49    1.12
   4   8  -3   22.04    1.20
  -4   8   3   22.52    1.22
   4   8  -3   22.01    1.08
   4   8  -3   21.19    1.11
  -2  -8   3   47.33    1.88
   2  -8  -3   48.44    1.98
   2  -8  -3   41.81    2.20
  -2  -8   3   44.40    2.27
   2  -8  -3   47.00    2.32
   2  -8  -3   47.64    1.87
  -2  -8   3   48.15    2.33
   2  -8  -3   46.44    2.01
  -2  -8   3   45.09    1.99
   2   8  -3   48.52    1.89
  -2   8   3   48.08    2.07
   2   8  -3   48.78    1.96
  -2   8   3   45.35    2.34
   2   8  -3   46.70    1.98
   2   8  -3   45.58    2.03
   2   8  -3   47.07    2.05
   2   8  -3   47.38    2.02
   2   8  -3   47.66    1.90
  -2   8   3   47.51    1.89
   2   8  -3   47.33    2.00
  -2   8   3   47.23    1.99
  -2   8   3   47.75    2.04
  -2   8   3   49.74    1.89
   0  -8  -3    8.29    0.95
   0  -8  -3    7.39    0.61
   0  -8  -3    8.69    0.82
   0  -8   3    7.53    0.72
   0  -8   3    6.49    1.06
   0  -8   3    8.22    0.61
   0  -8   3    6.90    0.68
   0  -8  -3    8.00    1.02
   0  -8   3    9.15    0.69
   0  -8   3    8.49    0.88
   0  -8  -3    7.78    0.77
   0  -8  -3    9.38    0.76
   0   8   3    9.72    0.73
   0   8   3    9.08    0.80
   0   8  -3    9.11    0.87
   0   8  -3    9.30    0.65
   0   8  -3    7.09    0.74
   0   8  -3    8.05    0.65
   0   8   3    8.91    0.78
   0   8   3    9.41    0.73
   0   8   3    6.75    0.62
   0   8  -3    8.94    0.76
   0   8   3    8.26    0.97
   0   8  -3    8.03    0.78
   0   8  -3    8.19    0.78
   0   8  -3    7.98    0.72
   2  -8   3   46.57    2.10
   2  -8   3   45.39    1.67
  -2  -8  -3   46.44    2.03
   2  -8   3   40.87    2.45
   2  -8   3   47.26    1.94
  -2  -8  -3   44.53    2.23
   2  -8   3   44.93    1.82
  -2  -8  -3   46.78    2.29
  -2  -8  -3   46.23    1.89
   2  -8   3   46.60    2.02
   2  -8   3   49.29    2.09
  -2  -8  -3   47.24    2.09
  -2  -8  -3   51.46    2.36
  -2   8  -3   49.17    2.10
   2   8   3   47.55    2.01
  -2   8  -3   46.40    2.00
   2   8   3   49.24    2.02
  -2   8  -3   47.15    2.00
   2   8   3   47.53    2.06
   2   8   3   46.77    2.05
  -2   8  -3   46.10    2.06
  -2   8  -3   45.68    1.97
   2   8   3   45.53    1.87
   2   8   3   44.38    2.30
  -2   8  -3   48.20    1.97
  -4  -8  -3   13.87    1.17
  -4  -8  -3   13.37    0.90
  -4  -8  -3   13.72    1.00
   4  -8   3   11.69    0.81
   4  -8   3   11.16    1.85
  -4  -8  -3   12.64    1.14
  -4  -8  -3   12.61    1.00
  -4  -8  -3   12.37    0.79
   4  -8   3   12.87    0.90
   4  -8   3   11.80    0.64
   4  -8   3   12.57    0.88
  -4   8  -3   11.27    0.86
  -4   8  -3   11.66    0.94
  -4   8  -3   14.21    0.99
   4   8   3   13.12    0.90
   4   8   3   12.38    0.79
  -4   8  -3   10.65    1.01
  -4   8  -3   11.65    0.87
   4   8   3   13.31    0.98
   4   8   3   11.17    0.91
   4   8   3   12.75    0.94
  -4   8  -3   12.88    0.94
   4   8   3   13.17    1.11
  -6  -8  -3   15.37    0.94
   6  -8   3   14.32    0.78
   6  -8   3   15.36    0.94
   6  -8   3   15.37    0.82
   6  -8   3   14.98    0.88
  -6  -8  -3   12.66    1.08
  -6  -8  -3   14.46    1.11
  -6  -8  -3   14.69    0.92
  -6  -8  -3   15.16    1.22
  -6  -8  -3   16.00    1.30
   6  -8   3   13.75    0.98
   6  -8   3   12.88    1.56
   6  -8   3   13.51    0.90
  -6   8  -3   14.00    0.93
   6   8   3   14.21    0.91
  -6   8  -3   14.85    1.04
  -6   8  -3   14.54    1.02
   6   8   3   15.81    1.00
  -6   8  -3   14.10    1.05
  -6   8  -3   16.84    1.60
   6   8   3   14.85    1.03
   6   8   3   13.55    1.03
  -6   8  -3   14.51    1.11
   6   8   3   15.52    1.07
   6   8   3   15.11    1.07
  -8  -8  -3   10.72    1.04
   8  -8   3   11.07    0.83
  -8  -8  -3   11.12    0.77
  -8  -8  -3   11.55    1.09
   8  -8   3   12.21    1.53
   8  -8   3   10.63    0.91
   8  -8   3   10.17    0.68
   8  -8   3   10.51    0.74
  -8  -8  -3   11.25    1.14
   8  -8   3   11.22    0.90
   8   8   3   10.77    1.00
  -8   8  -3   11.99    0.92
   8   8   3   10.98    0.85
  -8   8  -3   10.25    0.83
  -8   8  -3    8.47    0.94
   8   8   3   10.54    0.99
   8   8   3   10.69    0.88
  -8   8  -3    9.60    0.93
   8   8   3    9.53    0.88
 -10  -8  -3   26.11    1.61
  10  -8   3   23.29    1.39
 -10  -8  -3   26.15    1.55
 -10  -8  -3   26.02    1.12
  10  -8   3   25.69    1.40
  10  -8   3   24.37    1.32
  10  -8   3   29.13    2.23
 -10  -8  -3   24.65    1.52
  10  -8   3   22.54    1.24
 -10  -8  -3   26.40    1.75
  10  -8   3   23.57    1.14
 -10   8  -3   22.76    1.50
 -10   8  -3   25.32    1.39
  10   8   3   25.69    1.48
 -10   8  -3   25.15    1.29
  10   8   3   23.93    1.32
  10   8   3   24.80    1.39
 -10   8  -3   24.88    1.42
  10   8   3   22.88    1.38
  12  -8   3    7.42    1.42
 -12  -8  -3    5.57    0.93
 -12  -8  -3    8.82    1.36
  12  -8   3    6.48    0.80
  12  -8   3    4.34    0.61
 -12  -8  -3    6.40    1.00
  12  -8   3    6.03    0.57
 -12  -8  -3    7.08    0.93
  12  -8   3    5.60    0.83
  12  -8   3    7.81    1.00
  12   8   3    6.73    0.80
 -12   8  -3    5.93    0.82
 -12   8  -3    4.62    0.79
  12   8   3    5.41    0.84
 -12   8  -3    5.36    0.79
  12   8   3    5.48    0.85
  12   8   3    7.15    0.92
  14  -8   3    8.18    1.18
  14  -8   3    7.80    0.71
  14  -8   3    8.26    1.60
  14  -8   3    6.65    0.83
 -14  -8  -3   10.26    1.38
 -14  -8  -3    6.66    1.09
 -14  -8  -3    7.62    1.09
  14  -8   3    5.90    0.82
  14   8   3    9.06    0.95
 -14   8  -3    6.03    0.97
 -14   8  -3    8.06    0.95
  14   8   3    6.80    0.95
  14   8   3    7.86    1.01
  14   8   3    8.13    1.16
 -14   8  -3    6.91    0.92
  16  -8   3    6.24    0.83
 -16  -8  -3   10.36    1.58
  16  -8   3    9.02    1.81
  16  -8   3    8.99    1.25
  16   8   3    5.84    0.87
 -16   8  -3    7.48    1.04
  16   8   3    6.26    0.96
  16   8   3    4.69    1.01
 -18  -8  -3    5.48    1.52
  18  -8   3    3.58    1.00
  18   8   3    3.19    0.81
 -19  -9   3    5.19    2.05
  19  -9  -3    5.48    1.31
  19  -9  -3    2.92    1.28
  19   9  -3    3.95    1.00
  19   9  -3    3.57    0.69
  17  -9  -3   14.00    1.13
 -17  -9   3   15.82    2.50
  17  -9  -3   17.98    1.51
  17  -9  -3   15.12    1.75
  17   9  -3   13.40    1.07
  17   9  -3   14.21    1.32
 -15  -9   3   13.83    1.12
 -15  -9   3   17.69    3.01
 -15  -9   3   14.46    1.57
  15  -9  -3   13.14    1.54
  15  -9  -3   14.82    1.20
  15   9  -3   13.38    0.99
 -15   9   3   14.09    1.31
  15   9  -3   12.20    1.08
  15   9  -3   12.86    1.22
 -13  -9   3   15.55    1.32
  13  -9  -3   17.69    1.35
 -13  -9   3   19.73    1.29
  13  -9  -3   19.90    1.65
 -13  -9   3   24.19    2.29
  13   9  -3   18.62    1.22
 -13   9   3   20.34    1.75
  13   9  -3   18.12    1.31
 -13   9   3   17.59    1.34
  13   9  -3   18.46    1.08
 -13   9   3   19.12    1.31
  13   9  -3   17.74    1.06
 -11  -9   3   20.34    1.37
  11  -9  -3   21.51    1.70
  11  -9  -3   17.80    1.37
 -11  -9   3   17.46    1.23
 -11  -9   3   19.53    2.07
  11   9  -3   18.45    1.08
 -11   9   3   19.03    1.17
  11   9  -3   17.82    1.02
 -11   9   3   18.32    1.28
 -11   9   3   21.01    1.12
  11   9  -3   19.78    1.22
  11   9  -3   20.23    1.27
  11   9  -3   17.66    1.03
 -11   9   3   18.96    1.31
  11   9  -3   17.77    1.15
 -11   9   3   18.69    1.17
  -9  -9   3   47.67    2.41
  -9  -9   3   50.03    2.97
   9  -9  -3   45.54    2.37
   9  -9  -3   48.62    2.54
  -9  -9   3   52.50    2.36
   9  -9  -3   45.86    1.89
  -9   9   3   46.64    2.04
   9   9  -3   47.30    2.02
   9   9  -3   45.89    1.94
   9   9  -3   46.74    2.13
   9   9  -3   47.27    1.94
  -9   9   3   49.28    2.04
  -9   9   3   47.74    2.06
   9   9  -3   47.88    2.25
   9   9  -3   47.90    2.06
   9   9  -3   47.17    2.14
  -9   9   3   49.68    2.19
  -9   9   3   47.05    2.90
  -7  -9   3   18.14    1.11
   7  -9  -3   19.12    1.55
  -7  -9   3   17.77    1.70
  -7  -9   3   18.00    1.05
   7  -9  -3   18.02    0.93
   7  -9  -3   18.03    1.18
  -7  -9   3   20.20    1.45
   7  -9  -3   16.70    1.38
   7   9  -3   18.48    1.18
  -7   9   3   19.92    1.09
   7   9  -3   18.26    1.12
   7   9  -3   18.87    1.19
  -7   9   3   17.49    1.10
   7   9  -3   18.28    1.06
  -7   9   3   19.66    1.24
  -7   9   3   18.61    1.09
   7   9  -3   20.41    1.31
   7   9  -3   19.35    1.01
  -7   9   3   18.55    1.21
   5  -9  -3   46.50    2.49
  -5  -9   3   58.17    2.57
   5  -9  -3   54.50    2.05
   5  -9  -3   46.40    2.22
  -5  -9   3   50.26    2.12
  -5  -9   3   47.26    2.25
  -5  -9   3   45.67    3.43
  -5   9   3   51.87    2.19
   5   9  -3   52.60    2.19
  -5   9   3   51.41    1.94
   5   9  -3   50.99    2.21
   5   9  -3   50.93    2.14
  -5   9   3   54.14    2.29
   5   9  -3   53.71    2.27
   5   9  -3   47.25    2.52
  -5   9   3   54.06    2.18
  -5   9   3   52.38    2.22
  -5   9   3   57.16    2.35
   5   9  -3   53.70    2.10
   3  -9  -3   39.25    2.17
  -3  -9   3   38.67    2.07
  -3  -9   3   39.54    1.71
  -3  -9   3   40.73    2.21
   3  -9  -3   37.44    1.82
   3  -9  -3   36.54    2.09
   3  -9  -3   41.07    1.67
  -3   9   3   39.28    1.81
   3   9  -3   39.05    1.78
   3   9  -3   40.34    1.67
  -3   9   3   43.09    1.67
   3   9  -3   39.78    1.89
   3   9  -3   38.31    1.82
  -3   9   3   40.55    1.79
   3   9  -3   39.29    1.87
   3   9  -3   39.99    1.70
  -3   9   3   41.15    1.92
  -3   9   3   41.21    1.87
  -3   9   3   40.08    1.72
   1  -9  -3   27.34    1.71
  -1  -9   3   25.29    1.78
  -1  -9   3   26.47    1.28
  -1  -9   3   26.85    1.64
   1  -9  -3   23.38    1.66
   1  -9  -3   25.52    1.36
   1  -9  -3   27.92    1.26
   1   9  -3   25.41    1.38
   1   9  -3   25.82    1.37
   1   9  -3   28.68    1.29
  -1   9   3   21.52    1.38
  -1   9   3   28.77    1.39
  -1   9   3   26.72    1.42
   1   9  -3   27.47    1.33
   1   9  -3   26.73    1.47
   1   9  -3   27.13    1.29
  -1   9   3   26.72    1.28
   1   9  -3   27.65    1.38
  -1   9   3   27.95    1.32
  -1  -9  -3   27.72    1.49
   1  -9   3   29.72    1.66
  -1  -9  -3   27.85    1.55
  -1  -9  -3   30.48    1.80
   1  -9   3   27.57    1.30
   1  -9   3   28.84    1.50
   1  -9   3   25.63    1.97
  -1  -9  -3   28.08    1.77
  -1  -9  -3   25.94    1.32
  -1   9  -3   28.30    1.48
   1   9   3   29.93    1.37
   1   9   3   30.52    1.46
  -1   9  -3   30.33    1.45
  -1   9  -3   28.77    1.48
   1   9   3   28.37    1.48
   1   9   3   30.33    1.52
  -1   9  -3   29.34    1.53
  -1   9  -3   29.62    1.42
  -1   9  -3   29.51    1.42
  -1   9  -3   31.18    1.39
   1   9   3   29.36    1.47
  -3  -9  -3   44.79    2.26
   3  -9   3   38.99    1.55
   3  -9   3   39.37    2.54
  -3  -9  -3   41.25    1.96
   3  -9   3   42.07    1.85
  -3  -9  -3   41.90    2.22
  -3  -9  -3   41.01    1.81
  -3  -9  -3   44.09    2.06
   3  -9   3   39.84    1.72
   3  -9   3   42.85    1.99
   3  -9   3   43.07    1.96
   3   9   3   42.72    1.88
   3   9   3   40.44    1.90
  -3   9  -3   41.74    2.00
  -3   9  -3   42.23    1.92
  -3   9  -3   39.87    1.88
  -3   9  -3   41.27    1.85
   3   9   3   44.17    1.92
   3   9   3   44.80    1.97
  -3   9  -3   42.91    1.82
  -3   9  -3   44.62    1.94
   3   9   3   41.85    1.94
  -3   9  -3   44.00    1.88
  -5  -9  -3   20.29    1.38
  -5  -9  -3   22.97    1.54
   5  -9   3   20.38    2.19
  -5  -9  -3   18.76    1.12
   5  -9   3   19.64    1.13
   5  -9   3   20.66    1.17
  -5  -9  -3   21.77    1.32
  -5  -9  -3   23.47    1.59
  -5  -9  -3   20.09    1.22
   5  -9   3   18.13    1.22
   5  -9   3   19.64    0.99
   5   9   3   20.43    1.14
  -5   9  -3   19.93    1.31
   5   9   3   19.85    1.19
   5   9   3   20.56    1.27
   5   9   3   20.37    1.24
  -5   9  -3   20.47    1.16
   5   9   3   20.64    1.33
  -5   9  -3   21.12    1.27
   5   9   3   20.51    1.31
  -5   9  -3   20.60    1.26
   7  -9   3   18.25    1.10
  -7  -9  -3   20.25    1.49
  -7  -9  -3   21.70    1.40
   7  -9   3   18.59    1.02
  -7  -9  -3   17.83    1.12
   7  -9   3   19.19    1.17
   7  -9   3   17.35    0.97
  -7  -9  -3   17.03    1.29
   7  -9   3   21.40    2.03
  -7  -9  -3   21.36    1.58
  -7  -9  -3   18.81    1.14
   7  -9   3   17.71    1.18
   7   9   3   18.97    1.20
  -7   9  -3   19.51    1.28
  -7   9  -3   18.90    1.25
   7   9   3   19.13    1.30
   7   9   3   20.04    1.21
   7   9   3   18.24    1.24
  -7   9  -3   18.16    1.11
  -7   9  -3   16.74    1.28
   7   9   3   17.92    1.12
  -9  -9  -3   25.22    1.58
  -9  -9  -3   26.81    1.29
   9  -9   3   26.08    2.26
  -9  -9  -3   28.35    1.68
  -9  -9  -3   26.43    1.85
   9  -9   3   22.31    1.21
  -9  -9  -3   25.67    1.63
   9  -9   3   23.48    1.33
   9  -9   3   26.06    1.44
   9  -9   3   24.38    1.73
   9   9   3   24.55    1.43
  -9   9  -3   24.94    1.56
  -9   9  -3   25.00    1.46
   9   9   3   25.93    1.39
  -9   9  -3   25.69    1.47
  -9   9  -3   23.48    1.31
   9   9   3   22.92    2.19
   9   9   3   24.40    1.48
 -11  -9  -3    8.76    1.29
  11  -9   3    8.79    1.60
  11  -9   3    7.49    0.80
 -11  -9  -3    7.68    1.07
  11  -9   3    7.91    1.04
  11  -9   3    5.79    0.87
  11  -9   3    8.19    0.65
 -11  -9  -3    9.66    1.38
 -11  -9  -3    7.50    1.15
  11  -9   3    7.38    0.79
 -11  -9  -3    7.88    1.33
 -11   9  -3    6.47    0.85
  11   9   3    7.58    1.03
 -11   9  -3    7.75    1.04
  11   9   3    7.94    1.21
 -11   9  -3    5.90    0.95
  11   9   3    9.32    0.95
  11   9   3    7.61    0.97
  11   9   3    8.29    0.89
 -13  -9  -3   12.69    1.48
 -13  -9  -3   13.01    1.41
 -13  -9  -3   13.94    1.55
  13  -9   3   13.54    2.17
  13  -9   3    8.72    0.92
  13  -9   3   10.45    1.09
  13  -9   3   10.78    1.22
 -13   9  -3   10.60    1.04
  13   9   3   12.69    1.34
 -13   9  -3   11.34    1.26
  13   9   3   10.98    1.26
  13   9   3   10.69    1.05
  13   9   3    9.69    1.06
  15  -9   3    9.87    1.17
 -15  -9  -3   12.03    1.67
  15  -9   3   10.48    1.92
 -15   9  -3    7.85    0.92
  15   9   3   11.82    1.05
  15   9   3    7.67    1.08
  15   9   3    7.97    1.09
 -17  -9  -3    6.22    1.19
  17  -9   3    5.29    1.47
  17   9   3    4.92    0.91
  18  10  -3    5.78    0.87
  16 -10  -3   12.42    1.75
 -16 -10   3   15.94    2.77
  16 -10  -3   12.99    1.20
  16  10  -3   11.25    1.35
  16  10  -3   11.97    1.01
  14 -10  -3   16.97    1.39
 -14 -10   3   20.81    1.42
 -14 -10   3   18.51    2.50
  14 -10  -3   18.76    1.82
 -14  10   3   16.46    1.46
  14  10  -3   18.60    1.15
  14  10  -3   15.80    1.31
 -12 -10   3   28.31    2.54
 -12 -10   3   24.76    1.65
  12 -10  -3   25.12    1.64
  12 -10  -3   23.57    1.92
  12  10  -3   23.44    1.51
  12  10  -3   23.53    1.36
  12  10  -3   27.16    1.74
  12  10  -3   23.13    1.44
 -12  10   3   25.10    1.58
 -10 -10   3   33.29    2.63
  10 -10  -3   31.56    1.95
  10 -10  -3   35.51    2.21
 -10 -10   3   35.39    1.98
 -10 -10   3   30.79    1.72
 -10  10   3   33.39    1.80
  10  10  -3   35.90    1.79
  10  10  -3   34.62    1.90
 -10  10   3   37.06    1.78
 -10  10   3   31.56    1.68
  10  10  -3   34.60    1.63
  10  10  -3   32.01    1.53
 -10  10   3   35.68    1.85
  10  10  -3   32.71    1.80
  -8 -10   3   26.06    1.55
  -8 -10   3   30.78    2.33
   8 -10  -3   29.76    1.98
  -8 -10   3   32.55    1.92
   8 -10  -3   26.80    1.84
  -8  10   3   29.65    1.60
  -8  10   3   29.72    1.49
   8  10  -3   28.87    1.61
   8  10  -3   25.85    1.50
   8  10  -3   28.93    1.53
   8  10  -3   29.37    1.63
  -8  10   3   28.10    1.53
  -8  10   3   28.98    1.65
  -8  10   3   29.62    1.54
   8  10  -3   30.66    1.69
  -6 -10   3   39.95    1.83
   6 -10  -3   37.81    1.66
  -6 -10   3   38.13    1.88
   6 -10  -3   40.04    2.30
  -6 -10   3   43.60    2.31
   6 -10  -3   37.18    2.21
  -6 -10   3   42.83    2.61
  -6  10   3   40.61    1.98
  -6  10   3   40.68    1.82
  -6  10   3   37.43    1.53
  -6  10   3   39.65    1.86
  -6  10   3   42.73    1.94
   6  10  -3   39.19    1.89
   6  10  -3   38.06    1.85
   6  10  -3   41.59    2.00
  -6  10   3   38.57    1.80
   6  10  -3   37.33    1.78
   6  10  -3   37.86    1.71
   6  10  -3   40.95    1.97
   4 -10  -3   44.94    2.40
  -4 -10   3   41.89    1.90
   4 -10  -3   40.08    2.85
  -4 -10   3   44.49    2.55
   4 -10  -3   38.19    1.97
  -4 -10   3   41.81    2.20
   4 -10  -3   43.51    1.81
   4  10  -3   44.02    1.98
  -4  10   3   44.52    2.00
  -4  10   3   44.82    2.10
   4  10  -3   42.40    2.06
   4  10  -3   41.75    2.04
   4  10  -3   42.61    1.99
   4  10  -3   42.53    1.78
  -4  10   3   46.89    2.05
  -4  10   3   43.76    1.90
   4  10  -3   42.81    1.84
   4  10  -3   43.02    1.92
  -4  10   3   44.93    1.78
  -4  10   3   42.04    1.92
   2 -10  -3   47.67    2.57
  -2 -10   3   49.39    2.94
  -2 -10   3   49.75    2.10
   2 -10  -3   50.23    2.62
   2 -10  -3   48.78    2.05
  -2 -10   3   48.67    2.60
  -2  10   3   50.17    2.34
   2  10  -3   50.42    2.07
   2  10  -3   50.35    2.09
   2  10  -3   51.43    2.25
   2  10  -3   51.39    2.32
  -2  10   3   51.65    2.18
  -2  10   3   52.02    2.24
  -2  10   3   48.85    2.11
   2  10  -3   51.44    2.15
   2  10  -3   50.44    2.22
  -2  10   3   52.02    2.11
  -2  10   3   50.56    2.23
   2  10  -3   49.05    2.21
   0 -10   3   28.25    2.09
   0 -10  -3   32.04    1.98
   0 -10  -3   28.80    1.41
   0 -10  -3   30.73    1.97
   0 -10  -3   26.81    1.53
   0 -10   3   31.45    1.81
   0 -10   3   28.69    1.43
   0  10  -3   31.25    1.51
   0  10   3   33.21    1.63
   0  10   3   28.82    1.51
   0  10   3   30.73    1.56
   0  10  -3   29.15    1.43
   0  10  -3   30.57    1.45
   0  10  -3   29.22    1.55
   0  10   3   28.65    1.44
   0  10   3   30.46    1.57
   0  10  -3   29.87    1.67
   0  10  -3   28.76    1.56
   2 -10   3   46.28    2.24
   2 -10   3   42.31    1.88
  -2 -10  -3   43.27    2.19
  -2 -10  -3   49.69    2.54
  -2 -10  -3   44.22    2.12
  -2 -10  -3   46.48    2.43
   2 -10   3   41.97    2.74
  -2 -10  -3   43.89    1.95
   2  10   3   46.22    1.97
  -2  10  -3   44.95    2.04
  -2  10  -3   45.42    2.03
  -2  10  -3   44.49    2.07
   2  10   3   45.90    2.10
   2  10   3   48.95    2.12
  -2  10  -3   44.67    2.07
  -2  10  -3   44.64    2.01
  -2  10  -3   44.82    2.18
  -2  10  -3   48.51    1.98
   2  10   3   43.85    2.03
   2  10   3   48.99    2.08
   4 -10   3   25.39    1.43
  -4 -10  -3   26.46    1.76
  -4 -10  -3   25.08    1.57
  -4 -10  -3   26.18    1.79
  -4 -10  -3   24.48    1.42
   4 -10   3   22.18    1.39
   4 -10   3   22.49    1.19
  -4 -10  -3   23.86    1.50
   4 -10   3   22.64    1.01
   4 -10   3   22.15    1.29
   4 -10   3   21.66    2.15
  -4 -10  -3   21.82    1.28
  -4  10  -3   24.12    1.45
  -4  10  -3   23.84    1.32
   4  10   3   26.03    1.31
   4  10   3   25.90    1.41
  -4  10  -3   22.06    1.40
  -4  10  -3   24.60    1.36
   4  10   3   23.91    1.41
  -4  10  -3   22.24    1.49
  -4  10  -3   24.58    1.30
   4  10   3   24.66    1.55
   6 -10   3   26.30    1.37
   6 -10   3   23.12    1.46
  -6 -10  -3   26.58    1.58
   6 -10   3   29.07    2.36
   6 -10   3   24.01    1.27
  -6 -10  -3   27.65    1.46
   6 -10   3   24.01    1.31
  -6 -10  -3   25.37    1.71
   6 -10   3   25.09    1.37
   6  10   3   27.20    1.49
   6  10   3   27.11    1.48
  -6  10  -3   26.83    1.39
   6  10   3   26.09    1.44
  -6  10  -3   23.50    1.47
  -6  10  -3   23.79    1.62
  -6  10  -3   24.51    1.52
   6  10   3   26.66    1.58
  -8 -10  -3   25.50    1.72
  -8 -10  -3   25.33    2.14
  -8 -10  -3   24.29    1.58
  -8 -10  -3   26.41    1.92
   8 -10   3   21.47    1.29
   8 -10   3   21.76    1.60
   8 -10   3   22.15    1.14
   8 -10   3   25.18    2.37
   8 -10   3   20.50    1.36
   8  10   3   23.28    1.38
   8  10   3   21.94    1.51
  -8  10  -3   20.46    1.44
  -8  10  -3   20.51    1.29
  -8  10  -3   21.07    1.48
   8  10   3   22.41    1.44
   8  10   3   23.60    1.36
   8  10   3   21.22    1.31
  10 -10   3   22.33    2.43
  10 -10   3   15.86    1.32
 -10 -10  -3   23.26    1.82
 -10 -10  -3   18.51    1.58
  10 -10   3   21.33    1.41
 -10 -10  -3   22.04    1.62
  10  10   3   17.24    1.27
 -10  10  -3   18.36    1.37
 -10  10  -3   17.70    1.22
  10  10   3   22.09    1.51
  10  10   3   18.47    1.80
  10  10   3   16.57    1.20
 -10  10  -3   18.89    1.43
  10  10   3   18.83    1.27
  12 -10   3   10.64    1.84
 -12 -10  -3    7.63    1.14
  12 -10   3    8.60    1.20
 -12 -10  -3    8.34    1.39
 -12 -10  -3   11.24    1.63
  12  10   3    6.68    0.97
 -12  10  -3    6.73    0.94
  12  10   3    8.97    1.09
  12  10   3    7.81    1.04
  12  10   3   13.11    1.73
 -14 -10  -3   13.84    1.80
  14 -10   3    9.80    1.41
  14 -10   3    9.63    1.99
  14  10   3    9.93    1.18
  14  10   3    7.53    1.07
  14  10   3   13.37    1.24
  16 -10   3    5.91    1.15
 -16 -10  -3    7.23    1.28
  16  10   3    5.55    0.93
  17 -11  -3    8.08    1.22
  17  11  -3    6.42    0.98
  15 -11  -3    8.47    1.16
  15  11  -3    8.27    0.92
 -13 -11   3    8.42    1.68
 -13 -11   3    6.02    1.93
  13 -11  -3    5.99    0.93
  13 -11  -3    7.36    1.35
  13  11  -3    5.32    1.05
  13  11  -3    5.75    0.78
 -13  11   3    5.61    1.05
  13  11  -3    6.66    0.97
  11 -11  -3    9.73    1.25
  11 -11  -3    8.47    1.40
 -11 -11   3   10.84    2.01
 -11  11   3    7.00    0.98
  11  11  -3    6.71    0.84
  11  11  -3   10.72    1.31
  11  11  -3    8.54    1.17
   9 -11  -3   21.31    1.68
  -9 -11   3   24.96    2.33
  -9 -11   3   21.40    1.80
   9 -11  -3   19.87    1.87
  -9  11   3   18.71    1.37
   9  11  -3   20.10    1.43
   9  11  -3   18.31    1.23
  -9  11   3   20.54    1.37
  -9  11   3   22.02    1.53
   9  11  -3   21.82    1.57
  -7 -11   3    7.69    1.07
   7 -11  -3    8.85    1.45
   7 -11  -3    8.20    1.29
  -7 -11   3    9.51    1.51
  -7 -11   3    9.10    1.71
  -7  11   3    8.24    1.05
  -7  11   3    8.40    0.95
  -7  11   3    8.14    1.14
   7  11  -3    9.19    1.15
  -7  11   3    9.84    1.02
   7  11  -3    7.38    0.85
   7  11  -3    9.26    1.06
  -7  11   3   10.53    1.17
   5 -11  -3   14.76    1.56
  -5 -11   3   16.03    1.75
   5 -11  -3   17.61    1.58
  -5 -11   3   15.47    1.35
  -5 -11   3   14.41    1.12
  -5  11   3   15.30    1.31
   5  11  -3   16.90    1.22
  -5  11   3   14.90    1.21
   5  11  -3   14.67    1.51
  -5  11   3   14.90    1.38
  -5  11   3   16.96    1.25
   5  11  -3   14.64    1.06
  -5  11   3   15.20    0.83
  -5  11   3   14.78    1.08
   5  11  -3   17.14    1.30
   5  11  -3   14.34    0.96
   3 -11  -3   16.26    1.60
  -3 -11   3   15.89    1.11
  -3 -11   3   15.26    1.59
  -3 -11   3   15.77    1.80
   3 -11  -3   16.17    1.58
  -3  11   3   13.79    1.06
  -3  11   3   15.70    1.14
   3  11  -3   16.30    1.05
   3  11  -3   12.11    1.16
  -3  11   3   15.63    1.09
   3  11  -3   15.81    1.20
   3  11  -3   15.85    1.00
  -3  11   3   12.19    1.70
  -3  11   3   15.50    1.33
  -3  11   3   17.52    1.32
   3  11  -3   15.07    1.23
   3  11  -3   15.94    0.94
  -1 -11   3   10.56    1.30
  -1 -11   3   10.31    0.91
  -1 -11   3   10.00    1.56
   1 -11  -3   10.66    1.53
   1 -11  -3    9.99    1.41
   1  11  -3   10.17    0.88
   1  11  -3   10.12    0.81
  -1  11   3    9.89    1.09
  -1  11   3   11.08    0.97
   1  11  -3   10.02    0.90
  -1  11   3    9.09    0.96
   1  11  -3    9.04    1.05
  -1  11   3   12.78    1.41
  -1  11   3   10.90    1.18
  -1  11   3    9.58    1.08
   1  11  -3    9.16    1.00
   1  11  -3   11.34    1.07
  -1  11   3   10.99    0.96
  -1 -11  -3   14.12    1.62
  -1 -11  -3   12.14    1.48
   1 -11   3   12.18    1.48
   1 -11   3   10.49    1.81
   1 -11   3   11.55    0.96
  -1  11  -3   11.87    0.95
   1  11   3   12.21    1.26
   1  11   3   13.24    1.04
  -1  11  -3   12.01    1.08
  -1  11  -3   11.68    0.95
   1  11   3   12.23    1.02
   1  11   3   10.31    1.02
  -1  11  -3   12.95    1.21
  -1  11  -3   11.70    1.08
   1  11   3   13.11    1.22
   3 -11   3   15.65    1.06
  -3 -11  -3   15.35    1.36
  -3 -11  -3   19.80    1.81
   3 -11   3   15.70    2.06
   3 -11   3   16.50    1.32
  -3 -11  -3   18.62    1.91
   3  11   3   16.15    1.17
  -3  11  -3   16.63    1.24
  -3  11  -3   16.56    1.12
  -3  11  -3   16.31    1.18
   3  11   3   18.33    1.21
  -3  11  -3   19.08    1.36
   3  11   3   16.66    1.36
  -3  11  -3   16.78    1.09
   3  11   3   17.89    1.18
  -5 -11  -3    8.98    1.36
   5 -11   3    7.90    1.63
   5 -11   3    7.63    0.87
  -5 -11  -3    6.50    0.90
  -5 -11  -3   10.47    1.48
  -5 -11  -3    9.31    1.17
  -5  11  -3    9.25    1.03
   5  11   3    6.64    0.89
  -5  11  -3    7.90    0.94
  -5  11  -3    7.98    0.87
  -5  11  -3    7.13    0.88
  -5  11  -3    6.57    0.88
   5  11   3    8.92    0.99
   7 -11   3    8.74    1.70
  -7 -11  -3    6.55    1.13
   7 -11   3    7.71    1.11
   7 -11   3    6.03    0.85
   7 -11   3    6.01    0.75
  -7 -11  -3    9.62    1.50
  -7 -11  -3    6.63    1.00
   7  11   3    6.98    1.00
  -7  11  -3    5.21    0.69
  -7  11  -3    8.61    1.14
   7  11   3    6.90    0.90
   7  11   3    7.20    0.95
  -7  11  -3    8.35    0.97
  -7  11  -3    6.07    0.97
   7  11   3    5.86    0.86
   9 -11   3   11.09    1.27
   9 -11   3   13.44    2.28
   9 -11   3   11.31    1.01
  -9 -11  -3   13.62    1.51
  -9 -11  -3    7.98    1.12
   9  11   3   11.15    1.02
   9  11   3    9.47    1.07
   9  11   3    9.03    1.05
   9  11   3   10.57    1.23
  -9  11  -3   12.06    1.46
  -9  11  -3   11.05    1.06
  -9  11  -3    9.94    1.42
 -11 -11  -3    5.65    1.19
  11 -11   3    4.88    0.94
  11 -11   3    3.82    1.60
  11  11   3    4.56    0.78
 -11  11  -3    5.11    0.85
 -11  11  -3    3.08    0.85
  11  11   3    3.31    0.93
 -11  11  -3    2.98    0.87
  11  11   3    4.90    0.82
 -13 -11  -3    5.20    1.90
  13 -11   3    5.98    1.03
  13  11   3    4.26    0.87
  13  11   3    4.52    0.82
  14 -12  -3    5.22    1.11
  14  12  -3    5.72    0.74
 -12 -12   3    8.38    2.64
  12 -12  -3    7.81    1.28
  12 -12  -3    8.14    1.57
  12  12  -3    6.67    1.20
  10 -12  -3   10.35    1.82
 -10 -12   3   10.97    2.08
  10 -12  -3    7.73    1.35
 -10 -12   3   15.40    1.79
 -10  12   3   10.42    1.50
  10  12  -3    9.22    1.20
  10  12  -3   11.06    1.30
   8 -12  -3    8.05    1.38
   8 -12  -3    8.90    1.56
  -8 -12   3    9.82    1.79
  -8 -12   3   12.31    1.70
  -8  12   3    6.89    0.94
  -8  12   3    8.64    1.02
   8  12  -3    8.73    1.07
  -8  12   3    7.63    1.10
   8  12  -3    9.10    1.32
   6 -12  -3   12.38    1.57
  -6 -12   3   12.10    1.62
   6 -12  -3   12.22    1.67
  -6 -12   3   15.49    1.89
   6  12  -3   11.68    0.98
   6  12  -3   12.20    1.27
   6  12  -3   11.50    1.29
  -6  12   3    9.58    1.11
  -6  12   3   10.35    1.15
  -6  12   3    9.92    1.34
  -4 -12   3   12.91    1.56
   4 -12  -3   12.35    1.64
   4 -12  -3   11.41    1.61
  -4  12   3   15.47    1.11
   4  12  -3   11.57    0.99
  -4  12   3   10.87    1.10
   4  12  -3   12.43    1.28
  -4  12   3   13.25    1.70
   4  12  -3   14.26    1.27
  -4  12   3   11.63    1.47
  -2 -12   3   16.41    1.84
   2 -12  -3   12.64    1.66
   2 -12  -3   12.13    1.55
  -2 -12   3   13.11    1.54
  -2  12   3   12.57    1.12
  -2  12   3   14.39    1.13
   2  12  -3   11.97    1.19
   2  12  -3   11.39    1.21
  -2  12   3   16.13    1.39
   2  12  -3   12.72    1.03
  -2  12   3   12.54    1.09
   0 -12  -3   11.51    1.71
   0 -12   3    9.49    1.33
   0 -12  -3    9.55    1.52
   0  12   3    7.95    0.98
   0  12   3    9.87    1.01
   0  12  -3    8.84    1.13
   0  12  -3    8.57    1.05
   0  12  -3    6.72    0.85
   0  12   3    8.91    0.98
   0  12   3    9.38    1.12
   2 -12   3   12.28    1.29
  -2 -12  -3   12.74    1.57
   2 -12   3   11.43    1.79
  -2  12  -3   12.15    1.21
   2  12   3   12.98    1.31
   2  12   3   11.26    1.04
  -2  12  -3   11.90    1.13
  -2  12  -3   13.22    1.02
   2  12   3   12.00    1.07
   2  12   3   10.85    1.07
  -2  12  -3   11.47    1.04
   4 -12   3    7.98    1.68
  -4 -12  -3   11.37    1.59
  -4 -12  -3    8.19    1.15
   4 -12   3    6.78    1.05
   4  12   3    8.83    0.94
  -4  12  -3    9.21    1.16
   4  12   3    5.63    0.74
   4  12   3    9.73    1.04
  -4  12  -3    7.23    1.02
  -4  12  -3    8.07    0.93
  -6 -12  -3    6.60    1.14
  -6 -12  -3    7.74    1.27
   6 -12   3    8.52    1.75
  -6 -12  -3   12.09    1.90
   6  12   3    8.12    1.10
  -6  12  -3    7.57    0.90
   6  12   3    9.29    0.99
  -6  12  -3    8.53    1.05
   6  12   3    8.04    1.14
  -6  12  -3    6.82    0.97
  -8 -12  -3    6.89    1.23
  -8 -12  -3    7.99    1.40
   8 -12   3    7.58    1.79
   8 -12   3    7.57    1.05
  -8  12  -3    7.16    0.96
   8  12   3    7.53    1.01
   8  12   3    7.31    1.07
  -8  12  -3    6.10    1.02
   8  12   3    8.00    1.14
  -8  12  -3    7.66    1.10
 -10 -12  -3    6.49    1.37
  10 -12   3    6.84    1.09
  10 -12   3    7.64    2.02
  10  12   3    5.99    1.02
  10  12   3    6.63    0.94
   9 -13  -3   13.13    1.79
  -9 -13   3   17.23    2.19
   9 -13  -3   15.72    2.15
  -9 -13   3   20.19    3.45
   9  13  -3   15.84    1.75
  -9  13   3   18.40    1.55
   7 -13  -3   15.58    1.84
   7 -13  -3   12.85    1.28
  -7 -13   3   17.23    2.06
   7 -13  -3   12.35    1.94
  -7 -13   3   18.51    2.37
   7  13  -3   15.24    1.57
  -7  13   3   12.73    1.20
  -7  13   3   11.26    1.32
  -5 -13   3   19.43    2.08
  -5 -13   3   23.41    2.11
   5 -13  -3   19.13    2.02
   5 -13  -3   18.22    1.96
  -5  13   3   18.15    1.28
   5  13  -3   14.33    1.51
   5  13  -3   19.12    1.62
  -3 -13   3   19.05    1.90
   3 -13  -3   18.83    2.05
   3 -13  -3   16.50    1.91
   3  13  -3   16.67    1.41
   3  13  -3   15.57    1.49
   3  13  -3   15.53    1.18
  -3  13   3   17.20    1.36
  -3  13   3   17.39    1.55
  -1 -13   3   13.40    2.04
   1 -13  -3   17.59    2.00
   1 -13  -3   14.98    1.77
  -1 -13   3   15.34    1.65
  -1  13   3   14.85    1.24
   1  13  -3   12.71    1.43
  -1  13   3   15.10    1.19
   1  13  -3   13.54    1.29
  -1 -13  -3   17.53    2.20
  -1 -13  -3   16.38    1.80
   1 -13   3   15.93    2.45
   1 -13   3   14.30    1.56
  -1  13  -3   13.28    1.38
  -1  13  -3   15.28    1.34
   1  13   3   14.29    1.25
   1  13   3   15.05    1.16
   3 -13   3   14.64    1.48
  -3 -13  -3   19.27    2.15
  -3 -13  -3   17.63    2.50
   3 -13   3   19.32    2.58
   3  13   3   14.68    1.29
   3  13   3   16.16    1.54
  -3  13  -3   16.54    1.70
   3  13   3   12.44    1.63
  -3  13  -3   15.27    1.33
   5 -13   3   10.97    1.99
  -5 -13  -3   12.39    2.02
  -5  13  -3    7.62    1.10
   5  13   3   10.69    1.19
   7 -13   3   11.09    1.30
   7 -13   3   12.45    2.32
   7  13   3   13.09    1.31
  26   0  -4    2.83    1.14
  26   0  -4    2.68    0.86
  24   0  -4   10.37    1.04
  24   0  -4   14.13    1.21
  24   0  -4   14.77    1.33
  22   0  -4    7.21    0.62
  22   0  -4    6.84    0.88
  22   0  -4    8.97    1.04
  22   0  -4    7.26    0.93
 -22   0   4    6.91    1.19
  22   0  -4    6.82    1.00
 -22   0   4    7.81    0.90
  20   0  -4   34.14    1.42
  20   0  -4   30.93    1.51
  20   0  -4   33.49    1.75
 -20   0   4   33.60    1.88
  20   0  -4   36.29    1.67
 -20   0   4   31.26    1.35
  20   0  -4   35.15    1.56
  20   0  -4   33.43    1.59
  18   0  -4    9.25    0.73
  18   0  -4    9.99    0.86
  18   0  -4    9.08    0.74
 -18   0   4   10.94    1.08
 -18   0   4    9.15    0.59
  18   0  -4    8.94    0.75
  18   0  -4   10.65    0.65
  18   0  -4    8.61    0.88
 -18   0   4    8.90    0.54
  18   0  -4    9.93    0.54
  16   0  -4   97.79    3.69
  16   0  -4   94.28    3.81
 -16   0   4  100.66    3.39
  16   0  -4  100.48    3.62
  16   0  -4   94.67    3.51
 -16   0   4   94.90    3.35
  16   0  -4   93.90    3.61
  16   0  -4  102.94    3.67
 -16   0   4   96.69    3.84
  16   0  -4  100.16    3.64
  14   0  -4    8.79    0.69
  14   0  -4    7.47    0.64
  14   0  -4    7.47    0.70
  14   0  -4    7.43    0.66
 -14   0   4    7.58    0.80
  14   0  -4    8.10    0.63
  14   0  -4    7.40    0.56
  14   0  -4    8.04    0.62
  14   0  -4    7.20    0.53
 -12   0   4  213.12    7.71
  12   0  -4  214.48    7.68
  12   0  -4  224.72    7.61
  12   0  -4  218.81    7.70
  12   0  -4  222.34    7.61
  12   0  -4  218.78    7.46
  12   0  -4  216.19    7.53
  12   0  -4  219.59    7.54
  12   0  -4  214.16    7.46
  10   0  -4   49.11    1.84
  10   0  -4   49.14    1.99
  10   0  -4   48.26    1.98
 -10   0   4   47.61    1.99
 -10   0   4   49.62    2.03
  10   0  -4   51.10    1.85
  10   0  -4   50.31    1.99
  10   0  -4   48.43    1.94
  10   0  -4   49.74    2.03
 -10   0   4   47.65    2.07
  10   0  -4   47.72    1.88
   8   0  -4  204.86    7.33
   8   0  -4  207.43    7.35
   8   0  -4  208.69    7.14
  -8   0   4  207.68    7.40
  -8   0   4  214.19    7.34
   8   0  -4  216.76    7.34
   8   0  -4  212.25    7.25
   8   0  -4  218.97    7.34
   8   0  -4  208.95    7.28
   8   0  -4  207.88    7.30
  -8   0   4  211.11    7.36
  -6   0   4  154.72    5.13
   6   0  -4  150.37    5.27
   6   0  -4  152.01    5.28
   6   0  -4  147.15    5.26
  -6   0   4  146.35    5.26
   6   0  -4  147.57    5.26
  -6   0   4  148.08    5.02
   6   0  -4  145.41    5.10
   6   0  -4  146.82    5.07
  -6   0   4  149.27    5.29
  -6   0   4  149.74    5.00
   4   0  -4  394.10   12.92
  -4   0   4  376.92   12.89
  -4   0   4  356.02   12.89
  -4   0   4  376.06   12.70
   4   0  -4  397.39   12.75
   4   0  -4  363.66   13.05
  -4   0   4  367.89   12.67
   4   0  -4  390.46   12.90
   4   0  -4  388.45   12.66
   4   0  -4  350.17   12.65
   4   0  -4  372.07   12.69
  -4   0   4  414.76   12.77
   4   0  -4  379.01   12.72
  -4   0   4  388.69   12.67
  -2   0   4   98.20    3.36
  -2   0   4   93.32    3.27
   2   0  -4   99.73    3.26
  -2   0   4   94.30    3.53
   2   0  -4   96.07    3.38
   2   0  -4   96.71    3.51
  -2   0   4   96.46    3.53
  -2   0   4   97.41    3.38
   2   0  -4   95.31    3.34
   2   0  -4   96.71    3.32
   2   0  -4   97.28    3.35
   2   0  -4   96.27    3.54
   0   0  -4  141.36    5.10
   0   0  -4  146.67    5.08
   0   0   4  151.02    5.24
   0   0   4  146.48    5.12
   0   0  -4  151.70    5.20
   0   0  -4  149.89    5.33
   0   0   4  147.33    5.10
   0   0   4  147.42    5.04
   0   0  -4  147.52    5.23
   0   0  -4  150.60    5.03
   0   0   4  151.49    5.28
   0   0  -4  146.23    5.10
   0   0   4  144.96    5.09
   0   0   4  146.19    4.99
   2   0   4  354.31   12.07
  -2   0  -4  356.43   12.18
  -2   0  -4  357.26   12.09
  -2   0  -4  358.69   12.00
   2   0   4  356.52   11.95
  -2   0  -4  367.79   12.31
   2   0   4  356.39   12.07
   2   0   4  365.16   12.04
   2   0   4  344.89   12.11
  -2   0  -4  360.93   12.13
   2   0   4  363.07   12.17
  -2   0  -4  350.89   12.06
  -4   0  -4   46.85    1.92
  -4   0  -4   48.31    1.85
   4   0   4   48.35    1.90
  -4   0  -4   45.94    1.85
   4   0   4   48.05    1.83
  -4   0  -4   50.46    2.08
   4   0   4   48.06    1.73
   4   0   4   44.67    1.88
  -4   0  -4   45.49    1.81
  -4   0  -4   48.79    1.79
   4   0   4   46.83    1.85
   4   0   4   48.94    1.84
  -4   0  -4   46.75    1.88
   6   0   4  158.54    5.45
  -6   0  -4  164.61    5.81
  -6   0  -4  158.10    5.55
   6   0   4  161.08    5.56
   6   0   4  155.75    5.61
   6   0   4  154.69    5.57
  -6   0  -4  159.37    5.50
  -6   0  -4  153.22    5.59
  -6   0  -4  162.53    5.60
   6   0   4  161.00    5.54
   6   0   4  154.59    5.57
   8   0   4   46.38    1.94
   8   0   4   45.47    1.88
   8   0   4   48.03    1.89
  -8   0  -4   41.48    1.96
  -8   0  -4   49.94    1.98
  -8   0  -4   46.52    1.87
  -8   0  -4   49.20    2.14
  -8   0  -4   48.09    1.93
   8   0   4   47.93    1.82
   8   0   4   47.13    1.92
   8   0   4   46.63    2.23
  -8   0  -4   47.42    1.92
 -10   0  -4   59.17    2.37
 -10   0  -4   59.03    2.32
  10   0   4   55.82    2.20
 -10   0  -4   57.81    2.26
 -10   0  -4   57.58    2.27
 -10   0  -4   56.51    2.26
  10   0   4   58.32    2.28
  10   0   4   55.62    2.33
  10   0   4   58.93    2.67
  10   0   4   56.76    2.36
  10   0   4   55.87    2.23
  10   0   4   59.63    2.32
 -10   0  -4   58.45    2.53
 -12   0  -4    6.90    0.83
  12   0   4    6.61    0.81
 -12   0  -4    6.69    0.66
  12   0   4    7.13    0.69
  12   0   4    7.93    0.63
 -12   0  -4    7.62    0.77
  12   0   4    6.73    0.73
 -12   0  -4    8.84    0.84
 -12   0  -4    6.99    0.69
  12   0   4    7.28    0.60
  12   0   4    5.27    0.99
  12   0   4    6.73    0.68
 -12   0  -4    7.72    0.64
  14   0   4   70.53    2.77
  14   0   4   70.45    2.62
 -14   0  -4   69.53    2.64
  14   0   4   69.96    2.83
 -14   0  -4   67.21    2.87
 -14   0  -4   68.12    2.74
 -14   0  -4   71.68    2.85
  14   0   4   62.02    3.51
 -16   0  -4    3.64    0.63
 -16   0  -4    4.17    0.68
 -16   0  -4    3.79    0.65
  16   0   4    4.53    0.64
  16   0   4    3.62    0.50
  16   0   4    4.29    1.05
  16   0   4    4.01    0.65
  16   0   4    5.69    0.82
 -16   0  -4    5.29    0.63
 -18   0  -4    5.73    0.84
  18   0   4    9.28    1.71
 -18   0  -4    7.27    0.96
  18   0   4    5.85    0.88
 -18   0  -4    6.27    0.73
  18   0   4    6.48    0.85
  18   0   4    7.42    0.61
  18   0   4    8.01    1.16
 -18   0  -4    7.90    1.02
  20   0   4    5.59    0.95
 -20   0  -4    5.98    0.85
  20   0   4    5.61    0.80
  20   0   4    5.58    1.13
  22   0   4    3.29    1.09
  25  -1  -4    1.98    0.83
  25  -1  -4    3.26    0.70
 -25  -1   4    2.69    1.12
  25  -1  -4    1.58    0.72
  25   1  -4    1.40    0.78
  25   1  -4    2.38    0.72
  23  -1  -4   17.08    1.21
 -23  -1   4   19.86    1.73
  23  -1  -4   16.70    1.23
  23  -1  -4   18.93    1.38
  23   1  -4   15.25    1.45
  23   1  -4   14.25    1.01
  23   1  -4   17.01    1.34
 -23   1   4   17.17    1.43
  21  -1  -4    3.09    0.54
  21  -1  -4    3.63    0.47
 -21  -1   4    5.02    1.03
 -21  -1   4    3.56    0.47
  21  -1  -4    4.89    0.69
  21  -1  -4    4.21    0.71
  21  -1  -4    3.70    0.71
  21  -1  -4    2.75    0.64
 -21   1   4    2.69    0.39
 -21   1   4    1.51    1.01
  21   1  -4    3.78    0.65
  21   1  -4    4.20    0.73
 -21   1   4    4.24    0.79
  21   1  -4    3.43    0.51
  21   1  -4    3.17    0.57
  19  -1  -4   19.17    1.21
  19  -1  -4   16.05    1.06
 -19  -1   4   15.78    0.82
  19  -1  -4   15.68    1.08
  19  -1  -4   16.61    0.95
  19  -1  -4   18.67    1.06
  19  -1  -4   16.89    0.82
 -19  -1   4   15.61    1.39
  19   1  -4   17.14    0.97
  19   1  -4   15.61    0.74
 -19   1   4   16.22    0.77
  19   1  -4   18.30    1.18
  19   1  -4   16.68    0.93
  19   1  -4   15.54    1.06
  19   1  -4   16.25    0.71
 -19   1   4   15.45    1.50
  19   1  -4   17.43    0.89
 -19   1   4   16.49    1.19
  19   1  -4   13.99    0.96
  17  -1  -4   29.53    1.43
 -17  -1   4   29.20    1.21
  17  -1  -4   30.07    1.43
 -17  -1   4   28.44    1.17
  17  -1  -4   28.80    1.35
  17  -1  -4   29.62    1.22
 -17  -1   4   29.78    1.70
  17  -1  -4   28.62    1.27
  17  -1  -4   30.94    1.48
  17  -1  -4   30.33    1.48
  17   1  -4   29.30    1.40
  17   1  -4   30.40    1.37
  17   1  -4   30.57    1.52
 -17   1   4   29.49    1.56
 -17   1   4   29.78    1.14
  17   1  -4   28.50    1.22
  17   1  -4   29.89    1.58
  17   1  -4   29.34    1.32
  17   1  -4   27.30    1.39
 -17   1   4   30.04    1.19
  15  -1  -4   23.35    1.31
  15  -1  -4   23.64    1.03
  15  -1  -4   24.17    1.15
 -15  -1   4   23.27    1.41
  15  -1  -4   22.99    1.24
  15  -1  -4   24.36    1.22
  15  -1  -4   24.11    1.17
  15  -1  -4   21.83    1.18
  15  -1  -4   22.94    1.04
 -15  -1   4   23.92    0.96
  15   1  -4   23.32    1.10
 -15   1   4   24.44    0.93
 -15   1   4   23.61    0.90
  15   1  -4   23.42    1.28
 -15   1   4   22.56    1.29
  15   1  -4   22.94    1.06
  15   1  -4   24.06    1.14
  15   1  -4   24.30    1.16
  15   1  -4   22.79    1.21
  15   1  -4   23.11    1.17
  13  -1  -4   44.35    1.86
  13  -1  -4   41.24    1.71
  13  -1  -4   44.55    1.90
 -13  -1   4   42.16    1.85
  13  -1  -4   44.81    1.75
  13  -1  -4   44.11    1.94
 -13  -1   4   43.10    2.02
  13  -1  -4   42.49    1.79
  13  -1  -4   43.26    1.65
  13  -1  -4   42.38    1.77
  13   1  -4   42.45    1.81
  13   1  -4   43.51    1.74
 -13   1   4   43.31    1.91
  13   1  -4   42.78    1.76
  13   1  -4   43.23    1.72
  13   1  -4   43.01    1.79
  13   1  -4   43.14    1.89
  13   1  -4   44.96    1.77
 -13   1   4   43.27    1.53
  13   1  -4   42.97    1.80
  11  -1  -4   44.10    1.78
  11  -1  -4   47.23    1.95
 -11  -1   4   45.49    2.04
  11  -1  -4   45.40    1.95
  11  -1  -4   44.06    1.76
  11  -1  -4   45.21    1.81
  11  -1  -4   46.13    1.69
  11  -1  -4   44.82    1.90
 -11  -1   4   45.46    1.91
  11  -1  -4   45.89    1.86
  11   1  -4   45.85    1.80
  11   1  -4   45.97    1.74
  11   1  -4   45.49    1.83
  11   1  -4   46.35    1.82
 -11   1   4   45.70    1.95
  11   1  -4   44.59    1.81
  11   1  -4   44.96    1.85
  11   1  -4   45.01    1.91
  11   1  -4   46.01    1.89
   9  -1  -4  152.07    5.35
  -9  -1   4  154.05    5.39
  -9  -1   4  151.30    5.32
   9  -1  -4  148.35    5.21
   9  -1  -4  146.04    5.19
   9  -1  -4  150.03    5.42
  -9  -1   4  154.31    5.49
   9  -1  -4  147.36    5.31
   9  -1  -4  146.90    5.41
   9  -1  -4  154.69    5.39
   9  -1  -4  149.31    5.23
  -9   1   4  149.20    5.39
   9   1  -4  155.12    5.37
   9   1  -4  149.18    5.16
   9   1  -4  155.82    5.34
   9   1  -4  152.33    5.25
  -9   1   4  148.14    5.38
   9   1  -4  151.11    5.36
   9   1  -4  149.03    5.31
   9   1  -4  154.07    5.25
   9   1  -4  149.74    5.33
   7  -1  -4    6.39    0.60
   7  -1  -4    7.85    0.58
   7  -1  -4    6.65    0.54
  -7  -1   4    7.11    0.45
  -7  -1   4    6.67    0.62
   7  -1  -4    7.01    0.57
  -7  -1   4    7.35    0.31
   7  -1  -4    6.95    0.42
  -7  -1   4    7.64    0.54
  -7  -1   4    7.77    0.60
  -7  -1   4    7.16    0.33
   7  -1  -4    6.74    0.53
   7   1  -4    6.43    0.54
   7   1  -4    6.99    0.47
  -7   1   4    6.87    0.60
   7   1  -4    7.50    0.56
  -7   1   4    7.00    0.34
   7   1  -4    7.44    0.54
  -7   1   4    7.37    0.43
  -7   1   4    6.71    0.59
   7   1  -4    7.60    0.45
  -7   1   4    7.06    0.36
   7   1  -4    7.08    0.39
   7   1  -4    7.17    0.56
   5  -1  -4  314.40   10.86
   5  -1  -4  326.55   11.12
   5  -1  -4  308.79   11.12
  -5  -1   4  325.97   10.94
  -5  -1   4  326.87   11.06
   5  -1  -4  339.61   11.14
  -5  -1   4  341.18   10.89
  -5  -1   4  312.48   11.13
   5  -1  -4  314.52   10.85
   5  -1  -4  337.39   11.13
   5  -1  -4  308.52   10.85
  -5  -1   4  313.46   11.17
  -5  -1   4  346.74   11.00
  -5  -1   4  344.10   10.87
   5   1  -4  322.22   11.09
  -5   1   4  322.19   10.89
   5   1  -4  321.26   10.84
  -5   1   4  322.74   10.91
   5   1  -4  338.49   10.99
   5   1  -4  310.76   10.91
   5   1  -4  337.81   11.14
  -5   1   4  328.45   11.15
  -5   1   4  320.13   11.12
   5   1  -4  321.46   10.87
  -5   1   4  342.32   10.95
   5   1  -4  325.94   10.85
  -5   1   4  329.44   11.12
   5   1  -4  312.49   11.05
   3  -1  -4   17.11    0.90
   3  -1  -4   18.08    0.93
  -3  -1   4   17.88    0.73
   3  -1  -4   17.85    0.75
   3  -1  -4   18.64    0.74
  -3  -1   4   17.94    0.89
   3  -1  -4   18.28    0.77
   3  -1  -4   17.31    0.92
  -3  -1   4   18.50    0.81
  -3  -1   4   16.76    0.74
   3  -1  -4   18.23    0.77
  -3  -1   4   16.34    0.92
  -3  -1   4   18.58    0.76
  -3   1   4   17.45    0.75
  -3   1   4   18.11    0.78
   3   1  -4   17.91    0.81
  -3   1   4   17.47    0.78
   3   1  -4   17.59    0.85
   3   1  -4   18.14    0.73
   3   1  -4   18.26    0.67
   3   1  -4   18.27    0.74
   3   1  -4   18.65    0.74
  -3   1   4   18.59    0.93
   1  -1  -4  293.50    9.98
  -1  -1   4  301.29    9.88
   1  -1  -4  289.19    9.85
   1  -1  -4  288.66    9.86
  -1  -1   4  270.50    9.97
  -1  -1   4  300.48    9.84
   1  -1  -4  286.63    9.84
   1  -1  -4  287.91    9.84
  -1  -1   4  291.03   10.02
  -1  -1   4  283.64    9.80
   1  -1  -4  289.24   10.02
  -1  -1   4  302.69    9.89
  -1   1   4  302.40   10.05
   1   1  -4  297.99   10.01
  -1   1   4  280.24    9.88
   1   1  -4  301.39    9.87
   1   1  -4  290.03   10.01
   1   1  -4  293.64   10.07
   1   1  -4  296.01    9.74
  -1   1   4  282.58    9.86
  -1   1   4  293.97    9.85
   1   1  -4  297.36    9.78
   1   1  -4  286.84    9.97
  -1   1   4  290.90   10.01
   1   1  -4  289.06    9.88
  -1   1   4  306.36   10.08
   1   1  -4  295.05    9.84
   1  -1   4   28.75    1.19
  -1  -1  -4   28.21    1.16
  -1  -1  -4   29.57    1.31
  -1  -1  -4   29.10    1.17
  -1  -1  -4   28.56    1.21
   1  -1   4   29.44    1.17
  -1  -1  -4   29.43    1.26
   1  -1   4   29.77    1.12
  -1  -1  -4   28.98    1.18
   1  -1   4   27.98    1.30
   1  -1   4   28.79    1.21
   1  -1   4   29.19    1.11
   1   1   4   29.47    1.32
  -1   1  -4   30.35    1.21
  -1   1  -4   29.03    1.17
   1   1   4   28.35    1.22
  -1   1  -4   28.21    1.24
  -1   1  -4   28.05    1.29
  -1   1  -4   29.55    1.09
  -1   1  -4   29.11    1.19
   1   1   4   29.48    1.27
   1   1   4   29.20    1.19
  -1   1  -4   28.91    1.07
   1   1   4   27.60    1.19
   1   1   4   30.27    1.04
  -1   1  -4   29.61    1.29
   1   1   4   27.43    1.36
   3  -1   4  169.19    5.77
  -3  -1  -4  169.77    5.90
  -3  -1  -4  166.23    5.83
  -3  -1  -4  169.26    5.85
   3  -1   4  168.17    5.85
  -3  -1  -4  164.30    5.90
  -3  -1  -4  165.24    5.95
   3  -1   4  173.16    5.86
   3  -1   4  171.81    5.97
   3  -1   4  165.41    5.89
   3  -1   4  170.07    5.80
  -3  -1  -4  167.24    5.86
  -3   1  -4  168.40    5.76
  -3   1  -4  169.25    5.85
   3   1   4  161.21    5.90
   3   1   4  171.15    5.91
   3   1   4  169.56    5.98
  -3   1  -4  168.44    5.84
  -3   1  -4  176.39    6.09
  -3   1  -4  164.79    5.95
  -3   1  -4  175.76    5.90
   3   1   4  170.16    5.72
   3   1   4  177.37    5.87
   3   1   4  172.22    5.87
   3   1   4  168.07    5.87
  -5  -1  -4    6.49    0.53
  -5  -1  -4    6.97    0.67
   5  -1   4    6.51    0.57
   5  -1   4    6.82    0.56
   5  -1   4    6.80    0.45
  -5  -1  -4    6.10    0.56
  -5  -1  -4    6.97    0.50
   5  -1   4    6.63    0.76
  -5  -1  -4    6.65    0.49
   5  -1   4    7.72    0.54
  -5  -1  -4    6.91    0.57
  -5  -1  -4    6.80    0.58
   5  -1   4    7.16    0.51
   5  -1   4    7.61    0.51
  -5   1  -4    7.25    0.54
   5   1   4    6.88    0.52
   5   1   4    7.56    0.56
   5   1   4    7.11    0.56
  -5   1  -4    6.33    0.50
  -5   1  -4    6.83    0.57
  -5   1  -4    7.21    0.45
  -5   1  -4    7.90    0.69
  -5   1  -4    7.20    0.58
   5   1   4    6.99    0.50
   5   1   4    7.19    0.53
  -7  -1  -4  116.42    4.23
  -7  -1  -4  117.48    4.20
   7  -1   4  118.63    4.22
   7  -1   4  115.53    4.28
  -7  -1  -4  119.80    4.46
   7  -1   4  117.26    4.13
  -7  -1  -4  112.72    4.17
   7  -1   4  120.06    4.62
   7  -1   4  122.84    4.22
  -7  -1  -4  116.86    4.46
   7  -1   4  117.81    4.23
   7  -1   4  115.68    4.27
  -7   1  -4  112.71    4.17
   7   1   4  116.80    4.24
  -7   1  -4  108.93    4.48
   7   1   4  124.53    4.24
   7   1   4  119.28    4.19
  -7   1  -4  114.40    4.34
  -7   1  -4  122.47    4.23
   7   1   4  113.56    4.28
   7   1   4  118.06    4.26
  -7   1  -4  118.92    4.15
  -7   1  -4  123.30    4.47
  -9  -1  -4   27.02    1.32
   9  -1   4   25.91    1.30
   9  -1   4   26.43    1.16
   9  -1   4   24.77    1.58
   9  -1   4   26.61    1.25
   9  -1   4   28.20    1.23
  -9  -1  -4   25.93    1.26
  -9  -1  -4   26.19    1.45
  -9  -1  -4   26.25    1.23
  -9  -1  -4   24.84    1.21
   9  -1   4   25.02    1.27
   9  -1   4   27.67    1.27
  -9  -1  -4   26.23    1.27
  -9   1  -4   27.04    1.26
   9   1   4   25.29    1.22
   9   1   4   27.96    1.18
  -9   1  -4   24.40    1.20
  -9   1  -4   27.50    1.43
   9   1   4   25.96    1.25
  -9   1  -4   27.70    1.27
   9   1   4   25.98    1.31
   9   1   4   27.04    1.32
  -9   1  -4   25.73    1.17
 -11  -1  -4   21.72    1.19
  11  -1   4   22.44    1.06
  11  -1   4   20.49    1.08
 -11  -1  -4   22.64    1.24
 -11  -1  -4   21.36    1.11
  11  -1   4   20.92    1.18
 -11  -1  -4   20.33    1.11
  11  -1   4   21.11    1.49
  11  -1   4   22.30    1.15
  11  -1   4   20.70    1.10
  11  -1   4   20.37    1.18
 -11  -1  -4   21.25    1.30
 -11  -1  -4   21.51    1.11
  11   1   4   20.43    1.21
 -11   1  -4   21.61    1.06
  11   1   4   21.16    1.12
 -11   1  -4   20.51    1.19
  11   1   4   21.96    1.19
  11   1   4   21.77    1.00
 -11   1  -4   21.59    1.17
 -11   1  -4   22.00    1.12
  11   1   4   21.12    1.13
 -11   1  -4   21.58    1.10
 -13  -1  -4   19.26    1.35
  13  -1   4   18.55    2.39
 -13  -1  -4   18.66    1.12
  13  -1   4   18.00    1.07
 -13  -1  -4   20.20    1.21
  13  -1   4   20.35    1.12
  13  -1   4   16.48    1.14
 -13  -1  -4   19.25    1.05
  13  -1   4   20.02    1.06
  13  -1   4   20.19    1.23
 -13  -1  -4   20.36    1.23
  13   1   4   20.69    1.27
 -13   1  -4   21.02    1.19
  13   1   4   18.25    1.17
 -13   1  -4   20.81    1.21
 -13   1  -4   17.88    1.04
 -13   1  -4   18.24    1.02
  13   1   4   20.99    1.14
  13   1   4   19.58    0.93
 -13   1  -4   19.30    1.12
  15  -1   4    9.38    1.27
  15  -1   4    6.71    0.81
 -15  -1  -4    7.82    1.03
  15  -1   4    8.65    0.71
 -15  -1  -4    8.12    0.74
 -15  -1  -4    8.92    0.94
 -15  -1  -4    7.98    0.86
  15  -1   4    8.64    1.01
  15  -1   4    7.45    0.77
  15   1   4    7.61    0.56
  15   1   4    9.55    0.83
 -15   1  -4    7.20    0.90
 -15   1  -4    7.74    0.72
 -15   1  -4    7.48    0.91
  15   1   4    7.52    0.81
 -15   1  -4    6.93    0.83
  15   1   4    8.42    1.01
 -17  -1  -4    9.71    1.12
 -17  -1  -4    7.41    0.96
  17  -1   4    8.92    0.93
  17  -1   4    9.64    0.75
  17  -1   4    8.43    1.11
 -17  -1  -4    8.96    0.77
  17  -1   4    9.80    1.36
  17  -1   4    9.11    0.88
 -17  -1  -4   11.73    1.11
 -17   1  -4    9.10    1.09
  17   1   4    8.58    0.57
 -17   1  -4    7.43    0.96
 -17   1  -4    9.23    0.75
  17   1   4    8.86    0.87
 -17   1  -4    9.20    1.06
  17   1   4    9.66    1.14
  17   1   4    8.89    0.93
  19  -1   4    4.82    0.76
  19  -1   4    6.17    0.93
  19  -1   4    5.26    1.02
 -19  -1  -4    4.70    0.89
 -19  -1  -4    5.66    0.85
  19  -1   4    4.09    0.65
 -19   1  -4    4.84    0.76
  19   1   4    3.72    0.66
  19   1   4    5.81    0.93
 -19   1  -4    4.83    0.87
  21  -1   4    5.58    1.14
  21  -1   4    4.69    1.01
  21  -1   4    6.37    1.08
  21   1   4    4.96    0.99
 -21   1  -4    4.43    0.82
  26  -2  -4    2.01    0.75
  26  -2  -4    3.91    1.01
 -26  -2   4    2.57    1.41
  26   2  -4    2.14    0.79
 -24  -2   4    8.58    1.41
  24  -2  -4    9.99    1.27
  24  -2  -4    6.46    0.91
  24  -2  -4    6.70    1.04
  24   2  -4    7.35    1.05
  24   2  -4    9.55    1.23
  22  -2  -4    4.40    0.55
  22  -2  -4    5.28    0.91
  22  -2  -4    3.28    0.71
 -22  -2   4    5.85    1.17
  22   2  -4    4.65    0.62
  22   2  -4    5.68    0.76
  22   2  -4    4.52    0.79
  20  -2  -4   17.39    0.86
  20  -2  -4   18.76    1.21
  20  -2  -4   17.87    1.40
 -20  -2   4   18.41    0.96
  20  -2  -4   17.36    0.97
 -20  -2   4   15.31    1.95
  20  -2  -4   16.89    0.89
  20   2  -4   19.87    0.99
  20   2  -4   18.02    0.94
  20   2  -4   17.65    0.81
 -20   2   4   18.29    0.98
  20   2  -4   18.41    1.27
  20   2  -4   21.88    1.22
 -20   2   4   18.54    0.87
  20   2  -4   19.14    0.92
  18  -2  -4    3.32    0.40
 -18  -2   4    3.36    0.48
  18  -2  -4    4.07    0.60
  18  -2  -4    3.94    0.58
  18  -2  -4    3.95    0.74
  18  -2  -4    4.38    0.40
  18  -2  -4    3.77    0.50
 -18  -2   4    4.85    0.97
  18   2  -4    3.98    0.69
  18   2  -4    3.53    0.52
 -18   2   4    3.66    0.39
 -18   2   4    4.13    0.97
  18   2  -4    3.41    0.56
  18   2  -4    4.01    0.40
  18   2  -4    4.92    0.64
  18   2  -4    4.50    0.43
  18   2  -4    3.66    0.44
  16  -2  -4   66.62    2.66
  16  -2  -4   69.03    2.74
 -16  -2   4   63.53    2.36
  16  -2  -4   65.60    2.53
  16  -2  -4   64.20    2.57
  16  -2  -4   64.53    2.46
 -16  -2   4   65.46    2.95
 -16  -2   4   65.88    2.42
  16  -2  -4   66.86    2.58
  16   2  -4   65.88    2.40
 -16   2   4   66.60    2.31
  16   2  -4   65.71    2.72
  16   2  -4   63.30    2.71
  16   2  -4   67.10    2.66
  16   2  -4   63.02    2.57
  16   2  -4   64.72    2.46
  16   2  -4   69.00    2.56
  16   2  -4   62.59    2.60
 -16   2   4   60.25    2.99
 -14  -2   4    1.06    0.53
  14  -2  -4    1.07    0.44
  14  -2  -4    0.67    0.34
  14  -2  -4    1.49    0.41
  14  -2  -4    0.60    0.26
  14  -2  -4    1.09    0.34
 -14  -2   4    0.66    0.35
 -14  -2   4    0.91    0.20
  14  -2  -4    1.06    0.22
  14  -2  -4    0.93    0.34
 -14  -2   4    0.75    0.25
 -14   2   4    1.00    0.18
  14   2  -4    1.16    0.36
  14   2  -4    1.69    0.33
  14   2  -4    0.95    0.39
  14   2  -4    1.22    0.35
  14   2  -4    0.71    0.31
 -14   2   4    1.11    0.22
  14   2  -4    1.38    0.27
  14   2  -4    1.47    0.33
  12  -2  -4   99.32    3.58
  12  -2  -4   98.66    3.42
  12  -2  -4  104.11    3.80
  12  -2  -4  100.12    3.59
  12  -2  -4   99.20    3.63
  12  -2  -4  101.55    3.80
 -12  -2   4   91.94    3.41
 -12  -2   4  102.76    3.71
  12  -2  -4   98.25    3.73
 -12  -2   4   97.91    3.90
 -12   2   4  100.79    3.42
  12   2  -4   97.11    3.63
  12   2  -4   97.56    3.61
  12   2  -4  101.26    3.53
  12   2  -4   95.99    3.68
 -12   2   4  100.79    3.37
  12   2  -4  100.39    3.69
  12   2  -4   99.64    3.63
 -12   2   4   91.24    3.39
 -10  -2   4   21.23    1.10
  10  -2  -4   20.64    1.02
  10  -2  -4   19.59    1.08
  10  -2  -4   21.57    1.18
  10  -2  -4   21.24    1.04
  10  -2  -4   21.35    1.12
 -10  -2   4   20.25    1.22
  10  -2  -4   20.91    0.83
  10   2  -4   22.03    1.05
 -10   2   4   21.38    1.03
  10   2  -4   20.62    1.00
  10   2  -4   21.61    1.07
 -10   2   4   20.37    0.84
 -10   2   4   19.62    0.82
  10   2  -4   21.28    1.00
  10   2  -4   21.16    0.90
 -10   2   4   21.89    0.80
 -10   2   4   20.75    0.85
 -10   2   4   19.94    1.13
  10   2  -4   21.52    0.96
  10   2  -4   20.24    1.02
   8  -2  -4  133.03    4.71
   8  -2  -4  134.63    4.66
  -8  -2   4  127.52    4.80
   8  -2  -4  129.75    4.41
   8  -2  -4  127.98    4.77
   8  -2  -4  130.26    4.72
  -8  -2   4  126.27    4.41
  -8  -2   4  130.26    4.57
   8  -2  -4  126.86    4.63
  -8  -2   4  132.89    4.56
  -8  -2   4  128.79    4.69
   8   2  -4  126.98    4.43
   8   2  -4  128.99    4.66
   8   2  -4  128.86    4.58
  -8   2   4  126.11    4.42
  -8   2   4  132.65    4.74
   8   2  -4  131.05    4.54
   8   2  -4  134.30    4.63
  -8   2   4  133.75    4.65
  -8   2   4  122.58    4.43
  -6  -2   4   30.24    1.09
   6  -2  -4   28.77    1.35
  -6  -2   4   29.53    1.24
  -6  -2   4   29.56    1.22
   6  -2  -4   28.70    1.10
   6  -2  -4   29.59    1.33
  -6  -2   4   30.02    1.11
   6  -2  -4   28.92    1.43
   6  -2  -4   29.97    1.34
   6  -2  -4   30.60    1.12
  -6  -2   4   28.24    1.41
  -6  -2   4   28.88    1.35
   6   2  -4   29.82    1.25
   6   2  -4   30.01    1.06
   6   2  -4   29.63    1.24
   6   2  -4   30.20    1.34
  -6   2   4   29.93    1.38
   6   2  -4   30.23    1.06
  -6   2   4   27.49    1.33
   6   2  -4   30.78    1.07
  -6   2   4   30.25    1.34
   6   2  -4   29.84    1.29
   6   2  -4   29.48    1.19
  -6   2   4   28.44    1.16
  -6   2   4   30.82    1.14
   6   2  -4   29.80    1.08
  -6   2   4   29.80    1.14
   6   2  -4   30.24    1.06
   4  -2  -4  167.64    5.96
  -4  -2   4  172.66    5.74
  -4  -2   4  164.17    5.78
   4  -2  -4  173.19    5.81
   4  -2  -4  164.34    5.74
   4  -2  -4  165.05    5.74
  -4  -2   4  161.38    5.96
  -4  -2   4  173.11    5.72
   4  -2  -4  166.04    5.95
  -4  -2   4  168.03    5.84
  -4  -2   4  163.46    6.01
  -4  -2   4  179.78    5.84
   4  -2  -4  161.97    5.72
   4  -2  -4  171.27    5.99
   4   2  -4  172.06    5.73
   4   2  -4  176.06    5.96
  -4   2   4  165.47    5.98
   4   2  -4  169.86    5.91
  -4   2   4  175.84    5.98
  -4   2   4  166.77    5.79
  -4   2   4  173.05    5.75
  -4   2   4  164.70    5.94
   4   2  -4  171.17    5.84
   4   2  -4  169.73    5.71
   4   2  -4  163.36    5.78
   4   2  -4  172.19    5.84
  -4   2   4  172.27    5.77
   4   2  -4  165.93    5.91
  -2  -2   4   45.35    1.92
  -2  -2   4   47.42    1.83
   2  -2  -4   46.57    1.71
   2  -2  -4   46.61    1.75
   2  -2  -4   45.94    1.92
   2  -2  -4   45.11    1.76
  -2  -2   4   47.43    1.74
  -2  -2   4   49.54    1.80
   2  -2  -4   45.79    1.73
  -2  -2   4   47.16    1.74
  -2  -2   4   46.38    1.93
   2  -2  -4   48.41    1.90
   2  -2  -4   47.01    1.92
  -2  -2   4   48.43    1.71
   2   2  -4   46.20    1.85
  -2   2   4   47.32    1.74
   2   2  -4   44.10    2.01
  -2   2   4   46.30    1.94
   2   2  -4   46.56    1.71
  -2   2   4   46.76    1.87
  -2   2   4   46.77    1.76
   2   2  -4   49.08    1.75
   2   2  -4   47.57    1.89
   2   2  -4   47.24    1.80
  -2   2   4   45.98    1.78
   0  -2   4   64.56    2.49
   0  -2   4   63.70    2.56
   0  -2   4   66.50    2.37
   0  -2  -4   66.11    2.50
   0  -2   4   64.62    2.40
   0  -2   4   66.10    2.40
   0  -2   4   59.38    2.23
   0  -2   4   67.87    2.36
   0  -2  -4   63.95    2.53
   0  -2  -4   65.99    2.40
   0  -2  -4   65.50    2.36
   0  -2  -4   65.00    2.41
   0  -2  -4   66.69    2.40
   0   2   4   63.15    2.40
   0   2  -4   66.77    2.51
   0   2   4   65.85    2.48
   0   2   4   64.63    2.44
   0   2   4   65.83    2.60
   0   2  -4   67.32    2.37
   0   2  -4   65.32    2.41
   0   2  -4   65.00    2.22
   0   2  -4   67.88    2.41
   0   2   4   69.42    2.58
   0   2  -4   65.69    2.35
   0   2   4   65.24    2.41
   0   2  -4   64.82    2.55
   0   2   4   68.40    2.39
  -2  -2  -4  183.60    6.33
   2  -2   4  179.83    6.32
   2  -2   4  186.85    6.28
  -2  -2  -4  182.08    6.33
   2  -2   4  179.87    6.48
  -2  -2  -4  177.65    6.36
   2  -2   4  187.39    6.68
   2  -2   4  186.57    6.36
   2  -2   4  174.61    6.27
  -2  -2  -4  181.42    6.29
  -2  -2  -4  180.10    6.38
   2  -2   4  190.01    6.32
  -2  -2  -4  180.80    6.45
   2   2   4  190.19    6.50
  -2   2  -4  194.16    6.53
  -2   2  -4  184.10    6.18
   2   2   4  180.67    6.54
  -2   2  -4  174.59    6.32
   2   2   4  182.60    6.37
  -2   2  -4  187.23    6.31
  -2   2  -4  192.70    6.36
  -2   2  -4  184.58    6.41
   2   2   4  180.73    6.18
   2   2   4  179.66    6.38
   2   2   4  183.13    6.35
   2   2   4  189.03    6.33
   2   2   4  187.72    6.35
  -2   2  -4  179.56    6.24
  -4  -2  -4   11.67    0.77
   4  -2   4   13.02    0.64
  -4  -2  -4   11.94    0.69
  -4  -2  -4   11.45    0.87
   4  -2   4   12.05    0.97
  -4  -2  -4   12.73    0.67
   4  -2   4   11.68    0.64
   4  -2   4   12.34    0.72
  -4  -2  -4   11.29    0.85
  -4  -2  -4   12.02    0.71
   4  -2   4   13.19    0.68
   4  -2   4   13.22    0.67
   4  -2   4   11.55    0.79
   4   2   4   12.58    0.69
  -4   2  -4   12.80    0.84
   4   2   4   12.19    0.73
  -4   2  -4   11.56    0.72
  -4   2  -4   12.14    0.72
   4   2   4   12.91    0.68
  -4   2  -4   11.90    0.57
   4   2   4   11.53    0.70
   4   2   4   11.65    0.73
  -4   2  -4   11.38    0.68
  -4   2  -4   12.38    0.69
   4   2   4   12.21    0.78
  -6  -2  -4   73.15    2.75
   6  -2   4   72.89    2.71
   6  -2   4   71.34    2.76
  -6  -2  -4   73.64    2.96
  -6  -2  -4   69.45    2.71
   6  -2   4   74.32    2.65
   6  -2   4   69.54    2.81
  -6  -2  -4   74.79    2.80
   6  -2   4   69.71    2.67
   6  -2   4   69.95    3.08
  -6  -2  -4   69.53    2.67
   6  -2   4   77.79    2.70
  -6  -2  -4   69.42    2.66
   6   2   4   72.15    2.66
  -6   2  -4   76.74    2.94
  -6   2  -4   71.50    2.68
   6   2   4   74.34    2.73
  -6   2  -4   76.53    2.72
   6   2   4   70.54    2.75
   6   2   4   71.17    2.78
   6   2   4   71.83    2.74
   6   2   4   72.12    2.81
  -6   2  -4   73.73    2.61
  -6   2  -4   70.20    2.72
  -8  -2  -4   16.29    0.92
   8  -2   4   18.43    0.91
  -8  -2  -4   16.04    0.93
   8  -2   4   17.34    0.95
   8  -2   4   19.31    0.88
  -8  -2  -4   16.33    0.97
   8  -2   4   18.58    1.32
   8  -2   4   16.35    1.01
   8  -2   4   16.98    0.93
   8  -2   4   17.44    1.01
  -8  -2  -4   15.99    0.98
  -8  -2  -4   17.99    1.14
  -8  -2  -4   18.36    1.04
   8   2   4   18.82    0.87
  -8   2  -4   17.99    0.99
  -8   2  -4   18.80    1.05
  -8   2  -4   18.11    1.11
   8   2   4   17.64    0.95
  -8   2  -4   17.62    0.97
  -8   2  -4   16.41    0.93
   8   2   4   19.18    0.98
   8   2   4   18.42    1.00
  -8   2  -4   17.65    0.85
   8   2   4   17.14    1.01
  -8   2  -4   17.46    0.93
   8   2   4   17.50    1.02
  10  -2   4   38.12    1.78
  10  -2   4   38.68    1.77
 -10  -2  -4   41.01    1.79
  10  -2   4   40.01    1.80
  10  -2   4   41.68    1.66
 -10  -2  -4   40.99    1.95
 -10  -2  -4   39.22    1.71
 -10  -2  -4   40.49    1.74
  10  -2   4   40.74    1.74
 -10  -2  -4   40.71    1.82
  10  -2   4   41.90    1.70
  10  -2   4   40.74    2.16
 -10  -2  -4   38.49    1.80
  10   2   4   40.30    1.58
 -10   2  -4   40.61    1.70
  10   2   4   39.22    1.74
 -10   2  -4   40.84    1.74
 -10   2  -4   41.95    1.81
  10   2   4   41.21    1.83
  10   2   4   38.77    1.79
 -10   2  -4   40.94    1.73
 -10   2  -4   39.17    1.64
 -10   2  -4   41.15    1.95
  10   2   4   40.65    1.77
 -12  -2  -4    3.87    0.62
  12  -2   4    2.27    0.41
 -12  -2  -4    3.23    0.54
  12  -2   4    2.71    0.51
  12  -2   4    4.08    0.91
 -12  -2  -4    4.14    0.73
  12  -2   4    3.64    0.55
  12  -2   4    2.66    0.45
 -12  -2  -4    3.22    0.49
  12  -2   4    3.91    0.62
  12  -2   4    2.60    0.49
 -12   2  -4    3.56    0.56
  12   2   4    3.01    0.37
  12   2   4    3.21    0.51
  12   2   4    2.56    0.61
 -12   2  -4    2.74    0.47
  12   2   4    2.60    0.48
 -12   2  -4    2.69    0.40
 -12   2  -4    3.49    0.57
 -12   2  -4    3.38    0.55
  14  -2   4   42.77    2.33
  14  -2   4   40.20    1.76
  14  -2   4   40.36    1.92
  14  -2   4   37.71    1.84
 -14  -2  -4   37.78    1.79
 -14  -2  -4   39.60    1.91
 -14  -2  -4   31.81    2.21
  14  -2   4   37.88    1.75
 -14  -2  -4   38.00    1.68
  14   2   4   40.53    1.91
 -14   2  -4   39.56    1.88
  14   2   4   34.36    1.70
  14   2   4   38.17    1.78
 -14   2  -4   38.45    1.78
 -14   2  -4   38.85    1.67
  14   2   4   38.11    1.84
 -14   2  -4   37.11    1.87
 -16  -2  -4    2.96    0.68
  16  -2   4    1.66    0.53
 -16  -2  -4    1.56    0.53
 -16  -2  -4    2.14    0.63
  16  -2   4    2.92    0.90
 -16  -2  -4    2.04    0.47
  16  -2   4    2.18    0.47
  16  -2   4    2.09    0.67
  16  -2   4    1.82    0.49
  16   2   4    2.02    0.53
 -16   2  -4    1.47    0.41
 -16   2  -4    2.25    0.58
 -16   2  -4    2.55    0.56
  16   2   4    1.56    0.52
  16   2   4    2.10    0.67
 -16   2  -4    1.79    0.56
  18  -2   4    5.95    0.90
 -18  -2  -4    6.09    0.87
  18  -2   4    7.73    0.74
  18  -2   4    7.58    1.31
 -18  -2  -4    6.26    0.93
  18  -2   4    5.13    0.74
 -18  -2  -4    6.09    0.81
 -18  -2  -4    5.47    0.79
  18  -2   4    4.42    0.78
 -18   2  -4    5.88    0.81
  18   2   4    6.54    0.98
 -18   2  -4    5.16    0.84
  18   2   4    5.99    1.01
  18   2   4    5.31    0.75
 -18   2  -4    5.91    0.84
  20  -2   4    4.45    1.10
  20  -2   4    6.14    0.97
  20  -2   4    4.58    0.75
 -20   2  -4    4.29    0.81
  20   2   4    6.69    0.96
  20   2   4    4.26    0.93
  20   2   4    6.24    0.98
  22  -2   4    1.42    1.62
  22  -2   4    2.18    1.16
  22   2   4    1.02    0.93
 -22   2  -4    1.60    0.81
  25  -3  -4    3.00    0.79
 -25  -3   4    4.96    1.37
  25  -3  -4    2.59    1.16
  25   3  -4    3.78    1.13
  25   3  -4    3.91    0.77
 -23  -3   4   17.23    1.91
  23  -3  -4   19.92    1.42
  23  -3  -4   18.72    1.38
  23   3  -4   17.31    1.26
  23   3  -4   15.65    1.40
  21  -3  -4    6.20    0.52
  21  -3  -4    6.55    0.99
 -21  -3   4    5.26    1.18
  21  -3  -4    7.16    0.87
  21   3  -4    6.16    0.86
  21   3  -4    6.50    0.81
 -19  -3   4   22.56    1.21
  19  -3  -4   21.81    1.23
 -19  -3   4   22.32    1.80
  19  -3  -4   25.30    1.46
  19  -3  -4   22.31    1.32
 -19  -3   4   21.82    1.11
  19  -3  -4   20.64    0.89
  19  -3  -4   21.13    1.07
  19   3  -4   22.81    1.38
 -19   3   4   21.55    0.98
  19   3  -4   22.34    1.06
  19   3  -4   21.69    1.02
  19   3  -4   21.21    1.00
  19   3  -4   20.35    1.43
  17  -3  -4   30.23    1.38
  17  -3  -4   31.50    1.18
 -17  -3   4   31.70    1.53
 -17  -3   4   30.16    1.34
  17  -3  -4   33.32    1.85
  17  -3  -4   32.40    1.55
  17  -3  -4   33.78    1.71
 -17  -3   4   30.41    1.96
  17  -3  -4   30.56    1.32
 -17  -3   4   30.30    1.50
  17  -3  -4   30.32    1.20
  17   3  -4   32.60    1.38
 -17   3   4   31.34    2.13
  17   3  -4   30.85    1.30
 -17   3   4   31.30    1.31
  17   3  -4   32.94    1.48
  17   3  -4   30.86    1.24
 -17   3   4   31.88    1.25
  17   3  -4   31.01    1.37
  17   3  -4   32.94    1.63
  17   3  -4   30.49    1.59
  15  -3  -4   32.71    1.22
 -15  -3   4   33.40    1.56
  15  -3  -4   34.06    1.44
  15  -3  -4   35.43    1.74
  15  -3  -4   33.42    1.62
  15  -3  -4   33.28    1.23
  15  -3  -4   35.63    1.55
  15  -3  -4   31.96    1.44
 -15  -3   4   32.06    1.91
 -15  -3   4   31.45    1.34
 -15  -3   4   32.23    1.48
  15   3  -4   34.85    1.61
  15   3  -4   34.63    1.45
 -15   3   4   30.82    1.92
  15   3  -4   30.89    1.56
  15   3  -4   32.79    1.28
 -15   3   4   33.39    1.33
  15   3  -4   35.22    1.39
  15   3  -4   31.36    1.54
 -15   3   4   34.41    1.28
  15   3  -4   34.64    1.47
  13  -3  -4   87.81    3.22
 -13  -3   4   81.50    3.16
  13  -3  -4   90.47    3.46
  13  -3  -4   87.00    3.21
 -13  -3   4   87.73    3.29
  13  -3  -4   86.31    2.96
 -13  -3   4   82.85    3.59
  13  -3  -4   88.25    3.22
 -13  -3   4   82.10    3.04
  13  -3  -4   87.68    3.41
 -13   3   4   83.36    3.04
  13   3  -4   80.75    3.26
 -13   3   4   90.95    3.46
  13   3  -4   85.77    3.02
 -13   3   4   85.67    3.05
  13   3  -4   89.78    3.15
 -13   3   4   88.05    3.01
  13   3  -4   83.90    3.28
 -13   3   4   86.72    3.20
  13   3  -4   88.50    3.28
  13   3  -4   87.09    3.19
  11  -3  -4   78.86    2.77
  11  -3  -4   79.00    2.94
  11  -3  -4   79.97    3.15
 -11  -3   4   78.63    3.00
  11  -3  -4   80.74    3.10
  11  -3  -4   80.91    2.67
  11  -3  -4   75.94    3.06
 -11  -3   4   74.82    2.81
 -11  -3   4   73.20    3.21
  11  -3  -4   79.61    2.94
 -11   3   4   77.95    2.76
  11   3  -4   77.15    2.97
 -11   3   4   78.89    2.94
  11   3  -4   79.67    2.81
  11   3  -4   80.58    2.94
  11   3  -4   76.51    2.93
  11   3  -4   75.71    2.98
 -11   3   4   78.60    3.10
 -11   3   4   74.55    2.77
 -11   3   4   71.53    2.75
  11   3  -4   78.01    2.76
  11   3  -4   78.59    2.90
 -11   3   4   79.68    2.72
   9  -3  -4  118.02    4.39
  -9  -3   4  119.57    4.34
   9  -3  -4  118.18    4.29
  -9  -3   4  116.46    4.25
   9  -3  -4  119.01    4.00
   9  -3  -4  118.13    4.28
  -9  -3   4  114.97    4.51
   9  -3  -4  120.35    4.07
  -9  -3   4  112.91    4.09
   9  -3  -4  118.78    4.40
   9  -3  -4  120.48    4.48
   9   3  -4  119.55    4.23
   9   3  -4  122.78    4.00
  -9   3   4  122.15    4.31
   9   3  -4  116.67    4.13
   9   3  -4  122.32    4.11
  -9   3   4  119.91    4.08
   9   3  -4  120.47    4.32
   9   3  -4  115.52    4.27
   9   3  -4  121.17    4.00
   9   3  -4  115.52    4.23
  -9   3   4  122.35    4.42
  -9   3   4  111.35    4.09
  -9   3   4  118.77    4.12
   9   3  -4  121.40    4.15
   9   3  -4  118.67    4.24
  -9   3   4  111.86    4.12
   7  -3  -4   39.04    1.72
   7  -3  -4   40.63    1.67
  -7  -3   4   37.68    1.58
  -7  -3   4   37.64    1.46
  -7  -3   4   41.15    1.65
   7  -3  -4   38.52    1.66
  -7  -3   4   37.15    1.79
  -7  -3   4   38.16    1.70
   7  -3  -4   37.03    1.70
   7  -3  -4   38.62    1.81
  -7  -3   4   38.33    1.44
   7  -3  -4   40.29    1.39
   7   3  -4   39.46    1.61
   7   3  -4   39.71    1.41
   7   3  -4   38.77    1.53
   7   3  -4   39.75    1.42
  -7   3   4   38.44    1.41
  -7   3   4   37.92    1.48
   7   3  -4   37.70    1.55
  -7   3   4   38.88    1.67
   7   3  -4   39.85    1.54
   7   3  -4   38.66    1.66
   7   3  -4   39.19    1.61
   7   3  -4   39.88    1.40
   7   3  -4   39.75    1.40
  -7   3   4   37.45    1.50
  -7   3   4   38.42    1.73
   7   3  -4   39.51    1.40
  -5  -3   4  404.40   15.14
   5  -3  -4  458.12   15.01
  -5  -3   4  453.25   15.01
   5  -3  -4  462.41   14.84
  -5  -3   4  448.88   14.94
   5  -3  -4  442.65   14.90
  -5  -3   4  465.34   14.90
   5  -3  -4  429.23   14.86
   5  -3  -4  446.70   14.91
  -5  -3   4  451.38   15.25
   5  -3  -4  461.13   15.19
   5  -3  -4  419.23   15.25
   5  -3  -4  447.10   15.14
  -5  -3   4  471.70   14.93
   5  -3  -4  431.66   15.17
   5   3  -4  444.44   14.98
   5   3  -4  450.08   14.96
  -5   3   4  450.27   15.16
  -5   3   4  440.59   15.18
   5   3  -4  423.85   15.05
   5   3  -4  445.33   15.05
   5   3  -4  433.27   14.89
   5   3  -4  464.22   14.89
  -5   3   4  448.04   14.96
   5   3  -4  467.90   14.91
   5   3  -4  438.41   15.02
   5   3  -4  433.16   14.87
  -5   3   4  426.19   14.98
   5   3  -4  455.56   15.13
  -5   3   4  458.08   14.88
   3  -3  -4   50.21    2.13
   3  -3  -4   53.26    2.18
   3  -3  -4   54.20    1.96
  -3  -3   4   50.82    1.97
  -3  -3   4   57.72    2.04
   3  -3  -4   50.31    2.12
  -3  -3   4   49.47    2.16
  -3  -3   4   53.88    1.93
   3  -3  -4   52.34    2.01
  -3  -3   4   51.84    2.01
  -3  -3   4   50.36    2.18
   3  -3  -4   53.05    1.97
  -3  -3   4   53.57    1.96
   3   3  -4   54.72    1.93
   3   3  -4   52.66    2.11
  -3   3   4   52.68    1.99
   3   3  -4   54.64    2.08
  -3   3   4   53.99    2.18
   3   3  -4   58.03    1.97
  -3   3   4   53.27    2.02
   3   3  -4   52.75    1.98
   3   3  -4   53.02    2.04
  -3   3   4   54.43    1.93
  -3   3   4   51.84    2.18
  -1  -3   4  264.04    9.23
   1  -3  -4  265.72    9.05
  -1  -3   4  258.12    9.18
   1  -3  -4  268.26    8.96
   1  -3  -4  260.94    9.18
  -1  -3   4  272.73    9.02
   1  -3  -4  256.81    9.03
  -1  -3   4  270.53    9.04
  -1  -3   4  252.86    9.02
  -1  -3   4  261.04    9.03
   1  -3  -4  261.75    9.01
  -1  -3   4  272.80    8.98
   1  -3  -4  267.49    9.15
   1   3  -4  254.96    9.04
   1   3  -4  270.94    8.98
  -1   3   4  273.01    9.05
  -1   3   4  259.24    9.10
  -1   3   4  272.41    9.24
   1   3  -4  279.90    9.02
   1   3  -4  262.66    8.99
   1   3  -4  270.78    9.15
  -1   3   4  276.05    9.24
  -1   3   4  260.45    9.07
   1   3  -4  268.14    9.13
  -1   3   4  253.42    8.99
  -1  -3  -4   78.73    3.05
  -1  -3  -4   83.34    2.97
  -1  -3  -4   80.35    2.93
   1  -3   4   81.36    2.92
   1  -3   4   82.20    2.93
  -1  -3  -4   77.45    2.98
  -1  -3  -4   78.12    2.93
   1  -3   4   83.39    2.90
   1  -3   4   77.80    3.11
   1  -3   4   79.11    3.23
   1  -3   4   79.05    2.76
   1  -3   4   81.55    2.89
  -1  -3  -4   78.52    2.86
   1   3   4   80.55    2.96
  -1   3  -4   82.78    2.89
  -1   3  -4   80.80    2.93
  -1   3  -4   80.36    2.99
   1   3   4   76.34    2.95
  -1   3  -4   81.87    3.06
   1   3   4   78.26    2.97
   1   3   4   79.69    2.95
   1   3   4   84.19    2.91
  -1   3  -4   78.02    2.92
   1   3   4   81.90    3.11
   1   3   4   80.63    3.13
  -1   3  -4   81.35    2.87
   1   3   4   79.30    2.74
   3  -3   4  195.03    6.82
  -3  -3  -4  200.24    7.06
   3  -3   4  196.38    6.91
   3  -3   4  207.82    6.97
  -3  -3  -4  196.94    6.90
  -3  -3  -4  194.71    6.96
  -3  -3  -4  202.97    6.96
   3  -3   4  196.07    7.12
   3  -3   4  198.80    7.33
   3  -3   4  202.66    6.91
  -3  -3  -4  198.72    6.96
   3  -3   4  206.60    6.90
  -3  -3  -4  202.55    7.00
  -3   3  -4  197.83    6.87
   3   3   4  192.36    6.99
  -3   3  -4  200.57    6.98
   3   3   4  198.17    6.79
   3   3   4  198.32    6.93
   3   3   4  206.79    7.13
  -3   3  -4  197.67    6.93
  -3   3  -4  207.95    6.92
  -3   3  -4  204.54    6.97
  -3   3  -4  205.59    7.12
   3   3   4  210.88    6.95
   3   3   4  202.10    6.97
   3   3   4  204.81    6.99
   5  -3   4   27.91    1.27
  -5  -3  -4   27.23    1.44
  -5  -3  -4   27.18    1.31
   5  -3   4   25.53    1.14
  -5  -3  -4   27.38    1.20
  -5  -3  -4   27.37    1.25
   5  -3   4   25.90    1.37
   5  -3   4   29.24    1.18
   5  -3   4   26.62    1.59
  -5  -3  -4   26.44    1.23
   5  -3   4   28.19    1.21
  -5  -3  -4   27.49    1.26
   5  -3   4   28.06    1.19
  -5   3  -4   26.83    1.37
   5   3   4   27.14    1.25
   5   3   4   27.35    1.17
  -5   3  -4   26.53    1.21
  -5   3  -4   29.06    1.23
   5   3   4   28.76    1.25
   5   3   4   25.94    1.29
   5   3   4   29.14    1.37
   5   3   4   27.00    1.12
  -5   3  -4   27.00    1.16
  -5   3  -4   23.40    1.61
  -5   3  -4   27.64    1.23
   5   3   4   28.50    1.30
   7  -3   4  155.69    5.43
  -7  -3  -4  149.92    5.38
  -7  -3  -4  156.03    5.52
  -7  -3  -4  153.81    5.53
  -7  -3  -4  160.73    5.58
   7  -3   4  157.77    5.41
  -7  -3  -4  155.88    5.51
   7  -3   4  158.77    5.47
   7  -3   4  153.89    5.52
   7  -3   4  148.33    5.40
   7  -3   4  145.95    5.61
  -7  -3  -4  153.92    5.73
   7  -3   4  155.65    6.09
  -7  -3  -4  147.78    5.45
  -7   3  -4  157.35    5.46
  -7   3  -4  153.53    5.43
   7   3   4  150.02    5.35
   7   3   4  155.16    5.51
   7   3   4  153.32    5.38
  -7   3  -4  165.98    5.72
  -7   3  -4  150.84    5.45
   7   3   4  147.99    5.54
   7   3   4  153.19    5.53
  -7   3  -4  165.36    5.54
   7   3   4  155.54    5.59
   7   3   4  166.85    5.54
  -7   3  -4  150.22    5.33
  -9  -3  -4   33.53    1.59
  -9  -3  -4   30.19    1.44
   9  -3   4   32.73    1.47
   9  -3   4   30.07    1.57
   9  -3   4   34.24    1.41
   9  -3   4   33.05    1.41
  -9  -3  -4   32.58    1.52
  -9  -3  -4   32.04    1.67
   9  -3   4   31.84    1.90
   9  -3   4   31.79    1.46
  -9  -3  -4   34.14    1.54
   9  -3   4   33.52    1.54
   9   3   4   34.79    1.35
  -9   3  -4   32.13    1.35
   9   3   4   32.13    1.43
  -9   3  -4   31.86    1.44
   9   3   4   30.94    1.54
  -9   3  -4   33.78    1.49
  -9   3  -4   34.21    1.68
  -9   3  -4   32.55    1.53
   9   3   4   32.69    1.53
  -9   3  -4   31.50    1.52
   9   3   4   31.70    1.49
   9   3   4   32.34    1.55
  11  -3   4   20.40    1.61
 -11  -3  -4   18.46    1.09
 -11  -3  -4   17.51    1.10
  11  -3   4   22.00    1.23
 -11  -3  -4   19.57    1.28
  11  -3   4   19.38    1.01
 -11  -3  -4   20.74    1.19
  11  -3   4   18.20    1.34
  11  -3   4   20.17    1.16
  11  -3   4   19.67    1.03
 -11  -3  -4   19.73    1.14
  11  -3   4   21.33    1.10
 -11  -3  -4   20.08    1.22
  11   3   4   18.97    1.22
  11   3   4   20.51    1.11
 -11   3  -4   20.97    1.00
 -11   3  -4   22.60    1.20
 -11   3  -4   20.06    1.10
  11   3   4   20.02    0.87
 -11   3  -4   19.14    1.18
  11   3   4   19.28    1.16
 -11   3  -4   19.13    1.07
  11   3   4   20.25    1.11
  11   3   4   20.14    1.10
  13  -3   4   32.65    1.59
 -13  -3  -4   28.60    1.51
 -13  -3  -4   29.42    1.47
  13  -3   4   29.62    1.57
 -13  -3  -4   28.08    1.79
  13  -3   4   30.89    1.50
  13  -3   4   33.73    2.06
  13  -3   4   32.89    1.62
 -13  -3  -4   30.29    1.71
 -13  -3  -4   31.16    1.65
 -13   3  -4   27.41    1.46
  13   3   4   30.10    1.44
 -13   3  -4   29.08    1.38
  13   3   4   31.06    1.69
 -13   3  -4   29.42    1.44
 -13   3  -4   31.51    1.54
  13   3   4   33.14    1.56
 -13   3  -4   31.81    1.60
  13   3   4   30.86    1.52
  13   3   4   29.45    1.57
 -15  -3  -4   17.52    1.28
  15  -3   4   13.83    1.08
 -15  -3  -4   14.06    1.03
 -15  -3  -4   15.21    1.20
  15  -3   4   15.99    1.29
  15  -3   4   16.63    1.67
 -15  -3  -4   13.72    1.09
  15  -3   4   15.51    1.13
  15  -3   4   15.12    1.07
 -15   3  -4   14.23    0.95
 -15   3  -4   17.32    1.22
  15   3   4   16.66    1.13
  15   3   4   15.07    1.26
  15   3   4   17.20    1.21
 -15   3  -4   15.82    0.97
 -15   3  -4   14.51    1.09
 -15   3  -4   15.72    1.17
  15   3   4   14.45    1.06
 -17  -3  -4    7.94    1.20
  17  -3   4    8.10    0.89
 -17  -3  -4    7.46    0.85
  17  -3   4    7.19    0.91
 -17  -3  -4    8.21    0.97
  17  -3   4    7.68    0.99
  17  -3   4    9.72    1.48
  17  -3   4    6.70    0.93
  17   3   4    6.66    0.97
 -17   3  -4    5.91    0.79
  17   3   4    6.48    0.88
 -17   3  -4    9.35    1.11
  17   3   4    6.42    0.93
 -17   3  -4    6.48    0.85
  17   3   4    7.57    1.05
 -17   3  -4    7.28    0.75
  19  -3   4    3.85    0.73
  19  -3   4    5.56    1.00
  19  -3   4    5.44    1.32
  19  -3   4    5.10    1.15
 -19   3  -4    5.16    0.80
  19   3   4    4.89    0.74
  19   3   4    5.85    0.91
  19   3   4    5.77    1.02
  21  -3   4    6.53    1.14
  21  -3   4    5.50    1.34
 -21  -3  -4    7.43    1.42
  21   3   4    7.09    1.09
 -21   3  -4    5.79    0.92
  24  -4  -4    8.65    1.27
  24  -4  -4    6.06    1.01
 -24  -4   4    8.78    1.62
  24   4  -4    7.97    1.03
  24   4  -4   11.06    1.40
 -22  -4   4    7.08    1.41
  22  -4  -4    5.83    1.06
  22  -4  -4    5.07    0.85
  22   4  -4    6.77    0.91
  22   4  -4    6.88    0.99
  20  -4  -4   19.48    1.40
 -20  -4   4   19.47    1.86
  20  -4  -4   17.32    0.84
 -20  -4   4   17.02    1.20
  20  -4  -4   18.15    1.25
  20   4  -4   15.84    0.91
  20   4  -4   17.75    1.16
  20   4  -4   17.60    1.30
 -18  -4   4    7.75    0.75
 -18  -4   4    7.91    0.88
  18  -4  -4    8.27    0.64
  18  -4  -4    8.88    0.61
  18  -4  -4    9.93    1.08
 -18  -4   4    9.31    1.44
 -18  -4   4    7.77    0.85
  18  -4  -4    8.96    0.91
 -18   4   4    8.95    0.61
  18   4  -4    9.23    0.86
  18   4  -4    9.32    0.83
  18   4  -4    7.46    0.60
 -18   4   4    7.76    0.81
  18   4  -4    8.09    0.61
  18   4  -4    7.83    0.96
  16  -4  -4   63.00    2.40
 -16  -4   4   53.58    3.66
  16  -4  -4   59.41    2.40
 -16  -4   4   58.76    2.36
  16  -4  -4   69.23    3.43
 -16  -4   4   59.20    2.48
 -16  -4   4   61.41    2.51
  16  -4  -4   61.60    2.37
  16  -4  -4   67.27    2.57
 -16   4   4   60.68    2.33
  16   4  -4   63.24    2.37
 -16   4   4   63.97    2.42
  16   4  -4   64.92    2.38
  16   4  -4   58.83    2.56
  16   4  -4   64.82    2.61
 -16   4   4   65.45    2.32
 -16   4   4   62.65    2.28
  16   4  -4   61.64    2.71
  14  -4  -4    3.79    0.39
 -14  -4   4    2.92    0.53
 -14  -4   4    2.70    0.51
  14  -4  -4    3.24    0.48
  14  -4  -4    3.20    0.48
 -14  -4   4    2.80    0.84
  14  -4  -4    3.05    0.68
  14  -4  -4    3.20    0.56
 -14  -4   4    3.08    0.45
  14  -4  -4    3.78    0.54
 -14  -4   4    3.29    0.40
  14   4  -4    2.84    0.42
  14   4  -4    3.01    0.42
  14   4  -4    2.93    0.43
  14   4  -4    3.06    0.24
  14   4  -4    3.58    0.57
 -14   4   4    3.88    0.39
  14   4  -4    3.52    0.54
 -14   4   4    3.10    0.39
  14   4  -4    2.43    0.51
 -14   4   4    3.53    0.53
 -14   4   4    2.94    0.36
 -14   4   4    3.15    0.79
  14   4  -4    3.25    0.26
 -12  -4   4   80.92    3.11
  12  -4  -4   81.43    3.20
 -12  -4   4   78.41    3.47
  12  -4  -4   80.69    2.87
 -12  -4   4   79.22    3.09
 -12  -4   4   74.51    2.94
  12  -4  -4   81.61    3.07
  12  -4  -4   81.21    3.31
  12  -4  -4   80.43    3.02
  12  -4  -4   76.93    3.20
 -12   4   4   82.87    2.86
  12   4  -4   80.84    2.77
  12   4  -4   82.50    2.93
 -12   4   4   75.60    2.88
  12   4  -4   76.52    3.10
 -12   4   4   81.08    2.91
  12   4  -4   82.65    2.78
  12   4  -4   77.49    3.12
  12   4  -4   79.95    2.97
 -12   4   4   84.72    3.27
 -12   4   4   79.05    2.94
  12   4  -4   79.07    3.02
  12   4  -4   84.56    3.00
 -12   4   4   81.70    3.07
  12   4  -4   82.87    3.08
 -10  -4   4   48.20    1.94
  10  -4  -4   54.55    1.91
  10  -4  -4   52.89    2.23
  10  -4  -4   52.95    2.10
 -10  -4   4   52.10    2.17
  10  -4  -4   48.21    2.22
  10  -4  -4   54.10    2.16
 -10  -4   4   51.35    2.12
 -10  -4   4   49.99    2.44
  10  -4  -4   53.54    2.34
  10   4  -4   52.97    1.86
 -10   4   4   52.58    2.14
  10   4  -4   52.00    2.09
  10   4  -4   51.36    2.13
  10   4  -4   53.81    1.86
 -10   4   4   52.60    2.26
 -10   4   4   53.78    1.93
  10   4  -4   53.06    1.93
  10   4  -4   51.61    1.85
  10   4  -4   52.50    1.87
  10   4  -4   54.07    1.92
 -10   4   4   51.78    1.98
  10   4  -4   51.61    2.03
 -10   4   4   49.72    1.98
 -10   4   4   49.64    1.95
  10   4  -4   53.48    1.86
  10   4  -4   50.37    2.03
  10   4  -4   50.01    2.14
   8  -4  -4  135.53    5.35
  -8  -4   4  144.26    5.32
   8  -4  -4  149.42    5.37
   8  -4  -4  151.84    5.01
  -8  -4   4  148.77    5.23
   8  -4  -4  147.25    5.49
   8  -4  -4  146.11    5.29
  -8  -4   4  140.77    5.03
  -8  -4   4  141.62    5.51
   8   4  -4  150.20    5.02
   8   4  -4  145.03    5.05
   8   4  -4  152.80    5.04
   8   4  -4  148.88    5.19
   8   4  -4  147.95    5.02
   8   4  -4  150.90    5.10
   8   4  -4  147.59    5.10
  -8   4   4  150.91    5.39
  -8   4   4  143.68    5.14
   8   4  -4  144.56    5.25
   8   4  -4  150.53    5.30
  -8   4   4  152.23    5.32
   6  -4  -4   40.31    1.40
   6  -4  -4   38.04    1.71
  -6  -4   4   37.52    1.83
  -6  -4   4   36.89    1.73
   6  -4  -4   37.47    1.73
  -6  -4   4   39.91    1.53
   6  -4  -4   38.96    1.87
  -6  -4   4   37.87    1.60
  -6  -4   4   39.50    1.45
  -6  -4   4   39.96    1.50
  -6  -4   4   36.67    1.38
   6  -4  -4   36.19    1.73
   6   4  -4   40.23    1.48
   6   4  -4   40.46    1.49
   6   4  -4   39.87    1.38
   6   4  -4   38.79    1.68
  -6   4   4   39.21    1.73
  -6   4   4   37.74    1.56
  -6   4   4   38.79    1.76
   6   4  -4   39.79    1.53
   6   4  -4   39.47    1.65
  -6   4   4   38.97    1.54
   6   4  -4   37.76    1.57
  -6   4   4   39.75    1.41
   6   4  -4   40.18    1.47
   6   4  -4   40.69    1.48
   6   4  -4   39.04    1.45
   4  -4  -4  152.78    5.29
  -4  -4   4  152.90    5.31
  -4  -4   4  157.32    5.39
  -4  -4   4  154.61    5.68
  -4  -4   4  157.11    5.45
   4  -4  -4  162.84    5.47
  -4  -4   4  159.56    5.35
   4  -4  -4  151.88    5.60
   4  -4  -4  149.86    5.60
  -4  -4   4  147.46    5.62
   4  -4  -4  155.40    5.36
   4  -4  -4  156.03    5.59
   4  -4  -4  157.60    5.24
   4  -4  -4  146.80    5.71
   4  -4  -4  158.92    5.40
   4   4  -4  160.42    5.35
   4   4  -4  160.73    5.38
   4   4  -4  158.13    5.54
   4   4  -4  158.28    5.44
   4   4  -4  151.32    5.41
  -4   4   4  155.97    5.31
  -4   4   4  162.07    5.64
   4   4  -4  152.78    5.48
  -4   4   4  153.74    5.45
   4   4  -4  152.84    5.35
  -4   4   4  157.56    5.63
  -4   4   4  160.55    5.43
   2  -4  -4   79.07    2.76
  -2  -4   4   83.07    2.97
  -2  -4   4   82.06    2.89
   2  -4  -4   79.74    3.13
  -2  -4   4   79.08    3.14
   2  -4  -4   81.94    2.99
  -2  -4   4   80.54    2.93
   2  -4  -4   81.04    3.10
   2  -4  -4   77.01    3.10
  -2  -4   4   80.66    3.19
  -2  -4   4   79.92    3.18
   2  -4  -4   80.21    2.96
   2  -4  -4   80.16    2.85
   2  -4  -4   79.38    2.93
  -2  -4   4   81.86    2.96
  -2   4   4   81.12    3.00
   2   4  -4   83.26    2.94
   2   4  -4   84.10    2.94
  -2   4   4   79.60    3.14
  -2   4   4   82.30    2.88
  -2   4   4   80.86    2.75
   2   4  -4   80.03    2.94
   2   4  -4   79.69    2.99
  -2   4   4   83.70    2.98
  -2   4   4   82.97    3.17
   2   4  -4   82.09    3.01
   2   4  -4   80.14    3.04
   0  -4  -4   90.72    3.34
   0  -4   4   89.78    3.63
   0  -4   4   94.77    3.41
   0  -4  -4   92.28    3.57
   0  -4  -4   94.57    3.42
   0  -4  -4   95.88    3.46
   0  -4  -4   96.37    3.46
   0  -4   4   95.50    3.41
   0  -4   4   98.60    3.38
   0  -4  -4   92.24    3.51
   0  -4   4   91.59    3.55
   0  -4   4   90.49    3.71
   0  -4   4   93.03    3.39
   0   4  -4   97.94    3.43
   0   4   4   96.78    3.63
   0   4   4   97.57    3.45
   0   4   4   98.81    3.38
   0   4   4   93.61    3.48
   0   4   4   94.19    3.48
   0   4  -4   96.49    3.52
   0   4   4   94.45    3.23
   0   4  -4   95.17    3.40
   0   4  -4   93.00    3.44
   0   4   4   96.32    3.64
   0   4  -4   97.16    3.38
   0   4  -4   95.90    3.49
   2  -4   4  166.83    6.14
   2  -4   4  177.16    6.09
  -2  -4  -4  176.88    6.18
   2  -4   4  178.91    6.06
   2  -4   4  168.06    6.31
  -2  -4  -4  171.57    6.09
   2  -4   4  181.29    6.06
  -2  -4  -4  171.30    6.12
   2  -4   4  173.44    6.47
  -2  -4  -4  171.20    6.22
   2  -4   4  179.91    6.04
  -2  -4  -4  176.29    6.11
  -2  -4  -4  167.42    6.01
   2   4   4  167.76    6.14
   2   4   4  169.94    6.12
  -2   4  -4  177.79    6.11
   2   4   4  176.01    6.29
   2   4   4  181.17    6.31
  -2   4  -4  180.34    6.05
  -2   4  -4  176.39    6.04
   2   4   4  174.40    6.11
   2   4   4  181.83    6.08
   2   4   4  171.59    5.90
  -2   4  -4  175.39    6.11
  -2   4  -4  168.38    6.06
  -2   4  -4  174.45    6.20
  -4  -4  -4   29.54    1.43
   4  -4   4   27.04    1.49
  -4  -4  -4   27.98    1.29
  -4  -4  -4   27.09    1.25
  -4  -4  -4   28.34    1.33
   4  -4   4   29.51    1.27
  -4  -4  -4   29.15    1.38
   4  -4   4   29.50    1.30
  -4  -4  -4   30.59    1.34
   4  -4   4   27.56    1.45
   4  -4   4   31.74    1.27
   4  -4   4   30.26    1.27
   4  -4   4   27.95    1.68
   4   4   4   29.70    1.40
   4   4   4   29.29    1.36
   4   4   4   30.26    1.34
   4   4   4   27.78    1.60
  -4   4  -4   29.69    1.44
   4   4   4   31.02    1.32
  -4   4  -4   30.69    1.27
  -4   4  -4   28.71    1.29
   4   4   4   30.16    1.47
  -4   4  -4   29.72    1.34
  -4   4  -4   29.28    1.28
  -4   4  -4   29.39    1.29
  -6  -4  -4   61.08    2.54
  -6  -4  -4   69.36    2.70
   6  -4   4   67.83    2.53
  -6  -4  -4   65.85    2.67
   6  -4   4   70.39    2.54
  -6  -4  -4   64.00    2.65
  -6  -4  -4   67.88    2.84
   6  -4   4   65.09    2.50
  -6  -4  -4   65.38    2.54
   6  -4   4   67.15    2.56
   6  -4   4   63.03    3.03
   6  -4   4   62.95    2.79
  -6  -4  -4   69.77    2.64
   6  -4   4   68.98    2.63
  -6   4  -4   64.90    2.52
   6   4   4   68.63    2.67
   6   4   4   70.13    2.64
  -6   4  -4   70.89    2.78
   6   4   4   67.38    2.49
  -6   4  -4   70.52    2.59
  -6   4  -4   67.67    2.55
   6   4   4   70.19    2.76
  -6   4  -4   68.94    2.64
   6   4   4   68.21    2.63
  -6   4  -4   65.33    2.55
   6   4   4   67.86    2.68
  -8  -4  -4   25.60    1.28
  -8  -4  -4   28.39    1.40
   8  -4   4   26.86    1.26
   8  -4   4   27.87    1.29
   8  -4   4   26.33    1.33
   8  -4   4   27.78    1.24
  -8  -4  -4   25.34    1.16
  -8  -4  -4   25.91    1.33
  -8  -4  -4   27.61    1.51
  -8  -4  -4   27.48    1.42
   8  -4   4   28.14    1.25
  -8  -4  -4   28.11    1.40
   8  -4   4   25.62    1.74
   8   4   4   27.69    1.52
  -8   4  -4   28.67    1.42
   8   4   4   28.89    1.42
   8   4   4   27.90    1.35
  -8   4  -4   27.77    1.28
  -8   4  -4   28.17    1.37
  -8   4  -4   27.56    1.46
   8   4   4   29.15    1.37
   8   4   4   28.04    1.40
   8   4   4   27.26    1.25
  10  -4   4   44.79    1.92
 -10  -4  -4   44.22    2.14
  10  -4   4   45.44    1.87
  10  -4   4   45.49    2.49
  10  -4   4   46.02    1.92
 -10  -4  -4   46.32    1.95
 -10  -4  -4   48.10    2.08
  10  -4   4   44.20    1.99
 -10  -4  -4   44.17    1.97
  10  -4   4   44.62    1.84
 -10  -4  -4   39.27    1.98
 -10   4  -4   47.08    2.01
  10   4   4   45.10    1.96
  10   4   4   44.71    1.88
  10   4   4   42.91    2.00
  10   4   4   48.79    2.02
  10   4   4   47.21    2.06
 -10   4  -4   47.13    1.90
 -10   4  -4   46.19    1.80
 -10   4  -4   43.19    1.96
 -12  -4  -4    6.85    1.04
 -12  -4  -4    6.57    0.80
  12  -4   4    5.83    0.68
  12  -4   4    7.45    1.34
  12  -4   4    6.87    0.79
 -12  -4  -4    6.36    0.78
 -12  -4  -4    6.68    0.88
  12  -4   4    8.64    0.84
 -12  -4  -4    5.87    0.88
  12  -4   4    6.91    0.72
  12   4   4    7.45    0.78
  12   4   4    6.51    0.79
 -12   4  -4    6.61    0.81
  12   4   4    7.26    0.79
  12   4   4    6.46    0.71
  12   4   4    7.48    0.92
 -12   4  -4    7.01    0.76
 -12   4  -4    7.17    0.69
 -12   4  -4    7.65    0.58
 -12   4  -4    8.05    0.84
 -14  -4  -4   27.57    1.75
  14  -4   4   27.83    1.54
  14  -4   4   32.91    2.17
 -14  -4  -4   29.50    1.54
 -14  -4  -4   31.78    1.71
  14  -4   4   28.93    1.51
 -14  -4  -4   30.49    1.65
 -14   4  -4   29.45    1.26
 -14   4  -4   30.86    1.58
  14   4   4   29.95    1.54
  14   4   4   28.96    1.58
 -14   4  -4   29.73    1.62
 -14   4  -4   29.93    1.47
 -14   4  -4   30.90    1.46
  14   4   4   29.34    1.75
  14   4   4   29.55    1.46
 -14   4  -4   28.95    1.52
  14   4   4   31.37    1.70
 -16  -4  -4    3.10    0.64
  16  -4   4    3.45    0.77
 -16  -4  -4    3.79    0.78
 -16  -4  -4    3.31    0.77
  16  -4   4    2.59    0.58
  16  -4   4    3.83    0.72
  16  -4   4    4.87    1.17
 -16   4  -4    4.21    0.66
 -16   4  -4    3.28    0.56
 -16   4  -4    2.99    0.71
  16   4   4    3.16    0.76
 -16   4  -4    3.47    0.75
  16   4   4    3.93    0.70
  16   4   4    3.09    0.61
  16   4   4    3.43    0.72
 -18  -4  -4    8.94    1.25
  18  -4   4    7.31    1.02
  18  -4   4    7.25    1.41
  18  -4   4    8.92    1.02
  18  -4   4    8.04    1.06
  18   4   4    7.36    1.00
  18   4   4    8.30    1.23
 -18   4  -4    7.88    1.38
  18   4   4    7.03    0.95
 -18   4  -4    7.95    1.02
  20  -4   4    5.82    1.08
  20  -4   4    2.60    0.73
  20  -4   4    5.51    0.84
  20  -4   4    4.54    1.33
 -20   4  -4    4.18    0.80
  20   4   4    4.07    1.03
  20   4   4    5.09    0.91
  23  -5  -4    8.86    1.30
  23  -5  -4   11.67    1.35
 -23  -5   4   10.78    2.04
  23   5  -4    8.76    1.06
  23   5  -4    8.93    1.17
  21  -5  -4    3.57    0.96
  21  -5  -4    2.82    0.78
 -21  -5   4    2.25    1.22
  21   5  -4    1.79    0.56
  21   5  -4    2.61    0.70
 -19  -5   4    8.95    1.17
  19  -5  -4    9.50    0.68
 -19  -5   4   10.57    1.66
  19  -5  -4    8.28    0.99
  19  -5  -4    8.95    1.14
  19   5  -4    9.94    1.04
  19   5  -4    8.76    0.88
  19   5  -4    8.09    0.50
  17  -5  -4   16.32    1.28
  17  -5  -4   13.31    0.87
 -17  -5   4   14.56    0.95
 -17  -5   4   13.10    0.97
 -17  -5   4   13.48    1.01
 -17  -5   4   15.10    1.70
 -17  -5   4   13.91    1.05
  17  -5  -4   14.15    0.81
  17  -5  -4   15.55    1.12
 -17   5   4   14.23    0.94
  17   5  -4   14.67    1.11
  17   5  -4   13.61    0.95
  17   5  -4   14.29    0.99
 -17   5   4   14.06    0.79
  17   5  -4   14.49    0.90
 -17   5   4   14.51    0.89
  17   5  -4   14.43    0.67
  17   5  -4   13.78    0.65
 -15  -5   4   11.63    1.44
  15  -5  -4   12.38    1.15
 -15  -5   4   12.57    0.88
 -15  -5   4   11.76    0.93
  15  -5  -4   13.45    0.78
  15  -5  -4   11.28    0.83
 -15  -5   4   13.22    0.91
  15  -5  -4   12.21    0.99
 -15  -5   4   10.97    0.79
  15  -5  -4   13.01    0.72
  15   5  -4   12.47    0.86
  15   5  -4   13.31    0.63
 -15   5   4   13.44    0.81
  15   5  -4   12.61    0.81
 -15   5   4   12.67    0.71
 -15   5   4   12.22    0.79
  15   5  -4   12.12    0.59
 -15   5   4   14.38    0.75
  15   5  -4   11.75    0.56
 -15   5   4   12.21    0.86
  15   5  -4   12.04    0.59
  15   5  -4   12.99    0.78
  15   5  -4   13.61    1.02
 -13  -5   4   25.45    1.41
  13  -5  -4   25.44    1.32
 -13  -5   4   24.41    1.27
  13  -5  -4   27.74    1.26
 -13  -5   4   25.70    1.85
 -13  -5   4   27.59    1.39
 -13  -5   4   24.77    1.24
  13  -5  -4   28.53    1.64
  13  -5  -4   26.93    1.15
  13   5  -4   25.85    1.05
 -13   5   4   26.80    1.23
  13   5  -4   27.36    1.09
  13   5  -4   27.32    1.39
  13   5  -4   27.12    1.21
 -13   5   4   26.14    1.15
 -13   5   4   27.30    1.34
 -13   5   4   26.62    1.23
 -13   5   4   28.00    1.18
  13   5  -4   28.79    1.07
  13   5  -4   27.52    1.10
  13   5  -4   27.13    1.23
  13   5  -4   27.76    1.27
 -13   5   4   27.13    1.73
  11  -5  -4   24.64    1.45
 -11  -5   4   26.02    1.36
  11  -5  -4   24.37    1.31
  11  -5  -4   27.57    1.09
  11  -5  -4   27.38    1.56
  11  -5  -4   25.81    1.24
 -11  -5   4   24.07    1.16
 -11  -5   4   25.52    1.31
 -11  -5   4   26.06    1.71
  11  -5  -4   25.35    1.38
 -11   5   4   26.77    1.13
  11   5  -4   28.46    1.23
  11   5  -4   26.13    1.29
 -11   5   4   23.28    1.13
 -11   5   4   25.75    1.46
  11   5  -4   27.51    1.08
 -11   5   4   24.83    1.18
  11   5  -4   26.82    1.05
 -11   5   4   25.39    1.31
  11   5  -4   27.74    1.13
 -11   5   4   26.82    1.20
  11   5  -4   24.93    1.36
  11   5  -4   26.06    1.17
  11   5  -4   26.88    1.08
  11   5  -4   23.77    1.29
   9  -5  -4   37.96    1.92
   9  -5  -4   38.45    1.76
   9  -5  -4   39.54    1.79
  -9  -5   4   37.42    1.52
  -9  -5   4   39.64    1.71
  -9  -5   4   38.74    1.79
   9  -5  -4   36.18    1.84
  -9  -5   4   37.21    2.02
   9  -5  -4   40.30    1.47
   9   5  -4   39.20    1.49
  -9   5   4   38.93    1.62
  -9   5   4   40.73    1.85
   9   5  -4   36.53    1.69
  -9   5   4   39.10    1.77
   9   5  -4   39.22    1.50
   9   5  -4   39.54    1.49
   9   5  -4   39.35    1.48
   9   5  -4   38.77    1.38
  -9   5   4   36.00    1.56
   9   5  -4   39.72    1.47
  -9   5   4   38.38    1.55
   9   5  -4   40.44    1.67
   9   5  -4   38.32    1.73
  -9   5   4   37.30    1.61
   9   5  -4   39.81    1.51
   9   5  -4   39.03    1.66
  -7  -5   4    7.22    0.76
  -7  -5   4    7.13    0.86
   7  -5  -4    7.84    0.44
   7  -5  -4    6.44    0.72
  -7  -5   4    7.30    0.45
   7  -5  -4    6.88    0.67
   7  -5  -4    7.44    0.87
  -7  -5   4    7.32    0.64
   7  -5  -4    7.64    0.71
   7   5  -4    7.68    0.61
   7   5  -4    8.15    0.63
   7   5  -4    7.43    0.48
   7   5  -4    7.34    0.66
  -7   5   4    7.12    0.70
   7   5  -4    8.36    0.49
  -7   5   4    7.16    0.55
   7   5  -4    8.07    0.43
   7   5  -4    7.07    0.62
  -7   5   4    7.86    0.76
   7   5  -4    8.58    0.53
   7   5  -4    8.44    0.50
   7   5  -4    7.86    0.44
   7   5  -4    8.59    0.43
  -5  -5   4  167.63    5.75
   5  -5  -4  162.00    5.88
  -5  -5   4  153.32    5.49
  -5  -5   4  162.31    5.68
   5  -5  -4  168.28    5.64
  -5  -5   4  154.79    5.99
   5  -5  -4  160.24    5.51
  -5  -5   4  159.22    5.92
   5  -5  -4  159.22    6.03
   5  -5  -4  159.42    5.87
   5  -5  -4  173.47    5.75
  -5  -5   4  167.31    5.63
   5  -5  -4  167.30    5.52
   5  -5  -4  147.20    5.87
  -5   5   4  157.26    5.75
  -5   5   4  165.08    5.94
   5   5  -4  168.70    5.62
   5   5  -4  159.31    5.69
   5   5  -4  164.96    5.80
   5   5  -4  164.56    5.78
   5   5  -4  164.41    5.59
   5   5  -4  161.97    5.62
  -5   5   4  157.89    5.68
   5   5  -4  165.37    5.62
   5   5  -4  170.08    5.66
  -5   5   4  162.79    5.88
  -5   5   4  166.48    5.52
  -3  -5   4   11.93    0.88
   3  -5  -4   12.86    0.99
   3  -5  -4   12.41    0.84
   3  -5  -4   12.03    0.86
   3  -5  -4   12.15    0.75
   3  -5  -4   11.56    0.58
  -3  -5   4   11.89    0.70
   3  -5  -4   11.89    0.72
   3  -5  -4   11.96    0.54
   3  -5  -4   11.82    0.68
  -3  -5   4   11.66    0.73
  -3  -5   4   11.48    0.89
  -3  -5   4   11.31    0.91
   3  -5  -4   11.87    0.88
   3   5  -4   12.40    0.77
   3   5  -4   11.64    0.76
  -3   5   4   12.71    0.61
  -3   5   4   10.73    0.76
  -3   5   4   11.89    0.89
   3   5  -4   11.98    0.70
  -3   5   4   11.96    0.56
   3   5  -4   11.47    0.64
  -3   5   4   11.58    0.86
   3   5  -4   11.24    0.71
   3   5  -4   12.29    0.66
  -1  -5   4   74.53    3.52
   1  -5  -4   85.42    3.40
  -1  -5   4   89.39    3.42
  -1  -5   4   89.34    3.17
  -1  -5   4   87.07    3.52
  -1  -5   4   88.32    3.51
  -1  -5   4   93.05    3.23
   1  -5  -4   89.37    3.06
  -1  -5   4   85.76    3.00
  -1  -5   4   87.46    3.07
  -1  -5   4   87.01    2.99
   1  -5  -4   83.24    3.43
   1  -5  -4   85.51    3.35
   1  -5  -4   76.57    3.39
   1  -5  -4   92.54    3.29
   1  -5  -4   87.40    3.13
  -1  -5   4   89.81    3.24
  -1   5   4   91.48    3.05
  -1   5   4   91.51    3.16
   1   5  -4   85.37    3.29
   1   5  -4   88.08    3.26
  -1   5   4   90.28    3.26
   1   5  -4   87.73    3.22
  -1   5   4   90.50    3.42
  -1   5   4   95.14    3.52
   1   5  -4   90.98    3.27
   1   5  -4   89.10    3.29
   1  -5   4   21.99    1.01
  -1  -5  -4   21.89    1.11
   1  -5   4   21.85    1.05
   1  -5   4   20.90    1.03
  -1  -5  -4   22.77    1.13
  -1  -5  -4   20.79    0.89
  -1  -5  -4   20.60    0.98
  -1  -5  -4   21.19    1.09
   1  -5   4   20.62    1.38
   1  -5   4   21.57    1.01
   1  -5   4   20.41    1.14
   1  -5   4   20.87    1.30
   1   5   4   22.17    1.25
   1   5   4   20.27    0.88
  -1   5  -4   23.70    1.08
  -1   5  -4   22.50    1.12
  -1   5  -4   20.65    1.06
  -1   5  -4   21.64    1.04
   1   5   4   22.21    1.09
   1   5   4   21.07    1.22
  -1   5  -4   21.68    1.28
  -1   5  -4   22.80    1.08
   1   5   4   22.86    1.02
   1   5   4   22.39    1.13
   1   5   4   21.78    1.12
   3  -5   4   67.90    2.48
   3  -5   4   65.03    3.08
   3  -5   4   73.98    2.65
  -3  -5  -4   67.39    2.60
   3  -5   4   68.41    2.70
  -3  -5  -4   71.93    2.74
  -3  -5  -4   72.79    2.72
  -3  -5  -4   67.77    2.80
   3  -5   4   70.56    2.61
   3  -5   4   69.08    2.60
   3  -5   4   71.29    2.68
  -3  -5  -4   68.06    2.68
   3  -5   4   68.40    2.94
   3   5   4   70.88    2.70
  -3   5  -4   71.38    2.69
   3   5   4   69.14    2.49
  -3   5  -4   59.63    2.76
   3   5   4   68.76    2.73
   3   5   4   72.02    2.87
  -3   5  -4   69.22    2.65
  -3   5  -4   68.26    2.63
  -3   5  -4   69.58    2.76
   3   5   4   71.58    2.73
   3   5   4   72.87    2.89
  -3   5  -4   70.10    2.63
   3   5   4   74.18    2.69
   5  -5   4    6.06    0.61
   5  -5   4    4.96    0.96
   5  -5   4    7.24    0.52
   5  -5   4    7.12    0.59
  -5  -5  -4    7.44    0.73
  -5  -5  -4    7.02    0.59
  -5  -5  -4    6.28    0.69
  -5  -5  -4    6.30    0.64
  -5  -5  -4    7.76    0.89
  -5  -5  -4    6.46    0.58
   5  -5   4    6.91    0.54
   5  -5   4    6.25    0.57
   5   5   4    6.38    0.67
  -5   5  -4    6.55    0.55
   5   5   4    6.70    0.79
  -5   5  -4    6.46    0.67
  -5   5  -4    5.56    0.64
   5   5   4    6.63    0.64
   5   5   4    6.81    0.70
   5   5   4    6.41    0.72
  -5   5  -4    7.25    0.62
   5   5   4    6.43    0.62
   5   5   4    6.38    0.49
  -5   5  -4    5.90    0.58
  -5   5  -4    5.63    0.61
   7  -5   4   55.96    2.90
  -7  -5  -4   61.05    2.47
  -7  -5  -4   58.29    2.53
  -7  -5  -4   61.66    2.64
   7  -5   4   62.72    2.35
  -7  -5  -4   63.62    2.53
   7  -5   4   58.76    2.36
   7  -5   4   58.19    2.29
   7  -5   4   60.44    2.32
  -7  -5  -4   57.45    2.32
   7  -5   4   59.70    2.42
  -7  -5  -4   58.00    2.37
  -7  -5  -4   57.26    2.43
  -7   5  -4   58.13    2.31
  -7   5  -4   59.54    2.35
   7   5   4   64.13    2.58
   7   5   4   62.12    2.47
  -7   5  -4   59.66    2.54
  -7   5  -4   59.67    2.43
   7   5   4   60.05    2.28
   7   5   4   61.95    2.44
  -7   5  -4   61.33    2.39
   7   5   4   61.51    2.49
  -7   5  -4   59.06    2.34
   7   5   4   57.94    2.45
   9  -5   4   10.67    1.39
   9  -5   4   13.77    0.95
  -9  -5  -4   14.64    1.07
  -9  -5  -4   13.96    1.02
   9  -5   4   12.78    0.83
  -9  -5  -4   12.17    1.04
  -9  -5  -4   11.38    0.97
  -9  -5  -4   12.98    0.71
   9  -5   4   12.44    1.00
   9  -5   4   12.14    0.86
  -9  -5  -4   11.40    0.89
   9  -5   4   12.86    0.76
  -9   5  -4   13.75    0.89
  -9   5  -4   14.05    0.96
  -9   5  -4   12.54    0.94
   9   5   4   13.73    0.94
   9   5   4   13.35    0.97
   9   5   4   12.00    0.82
   9   5   4   12.62    0.95
  -9   5  -4   13.32    0.74
   9   5   4   13.21    1.04
  -9   5  -4   12.36    0.91
  11  -5   4    9.57    0.87
 -11  -5  -4    7.99    0.92
 -11  -5  -4    8.59    0.96
  11  -5   4    7.63    0.65
  11  -5   4    9.63    0.82
  11  -5   4   10.48    1.40
 -11  -5  -4   10.17    0.98
 -11  -5  -4    9.75    0.98
 -11   5  -4    9.17    0.86
  11   5   4    8.13    0.79
 -11   5  -4    8.02    0.57
  11   5   4    8.03    0.84
 -11   5  -4    9.43    0.79
  11   5   4    8.93    0.81
  11   5   4    7.88    0.97
  11   5   4    9.18    0.85
 -11   5  -4    8.77    0.81
 -11   5  -4    8.90    0.90
 -13  -5  -4   13.98    1.07
  13  -5   4   16.01    1.16
 -13  -5  -4   12.86    1.18
  13  -5   4   15.32    1.08
 -13  -5  -4   12.62    1.16
  13  -5   4   13.18    0.98
  13  -5   4   15.15    1.70
 -13  -5  -4   12.57    1.17
 -13   5  -4   12.45    0.68
  13   5   4   13.44    1.19
  13   5   4   14.85    1.07
 -13   5  -4   14.52    1.09
 -13   5  -4   11.68    1.57
  13   5   4   10.30    0.98
 -13   5  -4   13.92    0.95
  13   5   4   13.02    0.96
 -13   5  -4   14.50    1.12
  15  -5   4    5.98    0.83
  15  -5   4    9.50    1.63
 -15  -5  -4    7.26    0.98
 -15  -5  -4    9.01    1.22
 -15  -5  -4    8.96    1.13
  15  -5   4    7.64    0.94
  15  -5   4    8.71    1.11
 -15   5  -4    7.74    0.86
 -15   5  -4    8.65    0.95
  15   5   4    8.03    0.91
  15   5   4    7.21    0.91
 -15   5  -4    8.26    1.06
  15   5   4    7.90    1.01
  15   5   4    9.31    1.18
  15   5   4    6.00    0.79
 -15   5  -4    6.72    0.92
  17  -5   4    4.83    0.86
  17  -5   4    3.42    0.68
  17  -5   4    5.91    1.43
 -17  -5  -4    4.55    0.79
 -17  -5  -4    6.11    1.36
  17   5   4    2.45    0.63
 -17   5  -4    4.31    0.73
 -17   5  -4    4.94    0.89
  17   5   4    3.69    0.78
  17   5   4    3.92    0.90
 -17   5  -4    4.08    0.64
  19  -5   4    2.33    0.67
  19  -5   4    4.37    0.98
  19  -5   4    2.69    1.36
  19  -5   4    3.32    0.77
 -19   5  -4    3.85    0.75
  19   5   4    3.01    0.80
  19   5   4    2.31    0.66
  19   5   4    1.87    0.90
 -22  -6   4    6.55    1.69
  22  -6  -4    4.40    0.95
  22  -6  -4    6.31    1.13
  22   6  -4    4.41    0.92
  22   6  -4    6.43    0.95
 -20  -6   4   15.02    2.11
  20  -6  -4   14.64    1.45
  20  -6  -4   14.61    1.34
  20   6  -4   15.28    1.11
  20   6  -4   16.81    1.32
  18  -6  -4   10.54    1.07
 -18  -6   4    9.50    1.75
 -18  -6   4    9.20    0.87
  18  -6  -4    9.25    0.76
  18  -6  -4    9.08    1.21
  18   6  -4    8.56    0.86
  18   6  -4    9.00    1.05
  18   6  -4    9.54    0.56
  18   6  -4    9.17    1.07
  18   6  -4    7.86    0.61
  18   6  -4    9.15    0.55
 -16  -6   4   37.19    2.55
  16  -6  -4   39.23    1.82
 -16  -6   4   33.09    1.64
 -16  -6   4   33.85    1.66
  16  -6  -4   36.56    1.68
  16  -6  -4   39.13    2.08
  16  -6  -4   36.25    1.52
  16  -6  -4   35.01    1.52
 -16  -6   4   31.50    1.65
 -16  -6   4   34.63    1.77
  16   6  -4   35.41    1.59
  16   6  -4   33.93    1.38
  16   6  -4   34.50    1.56
 -16   6   4   33.95    1.61
  16   6  -4   36.07    1.43
 -16   6   4   37.72    1.61
 -16   6   4   34.48    1.50
  16   6  -4   33.86    1.45
 -16   6   4   38.96    1.56
  16   6  -4   36.62    1.40
  16   6  -4   36.58    1.80
 -16   6   4   35.95    1.70
  16   6  -4   35.48    1.65
 -14  -6   4    9.48    0.90
  14  -6  -4    9.50    0.84
  14  -6  -4   10.46    0.66
 -14  -6   4    8.24    1.49
 -14  -6   4    9.97    0.82
  14  -6  -4   10.80    0.71
 -14  -6   4   10.02    0.91
  14  -6  -4   11.91    1.18
 -14   6   4   10.44    0.70
  14   6  -4   10.65    0.72
  14   6  -4   10.90    0.95
  14   6  -4    9.89    0.57
  14   6  -4   10.40    0.64
  14   6  -4   11.81    0.76
  14   6  -4    9.66    0.81
 -14   6   4    9.78    0.85
 -14   6   4    9.42    0.80
  14   6  -4   10.38    0.73
 -14   6   4   11.14    0.77
  12  -6  -4   65.93    2.92
  12  -6  -4   77.32    2.82
 -12  -6   4   73.32    2.94
  12  -6  -4   69.19    3.47
 -12  -6   4   70.03    2.77
  12  -6  -4   75.53    2.66
 -12  -6   4   70.59    3.57
 -12   6   4   72.19    2.71
  12   6  -4   76.45    2.70
  12   6  -4   72.69    2.96
  12   6  -4   74.70    2.64
  12   6  -4   73.55    2.69
  12   6  -4   72.05    2.64
 -12   6   4   73.62    2.79
 -12   6   4   74.21    2.80
  12   6  -4   77.32    2.81
  12   6  -4   73.08    2.67
  12   6  -4   67.63    2.75
 -12   6   4   71.86    2.94
  12   6  -4   69.21    3.28
 -10  -6   4   39.56    1.77
  10  -6  -4   36.47    1.80
  10  -6  -4   39.21    1.49
  10  -6  -4   35.02    1.78
 -10  -6   4   39.66    1.84
 -10  -6   4   36.48    1.58
 -10  -6   4   37.41    2.19
  10  -6  -4   38.05    2.00
  10   6  -4   39.25    1.57
  10   6  -4   37.92    1.52
  10   6  -4   40.79    1.83
  10   6  -4   38.47    1.66
  10   6  -4   38.11    1.47
 -10   6   4   38.43    1.88
 -10   6   4   38.80    1.68
 -10   6   4   35.46    1.63
  10   6  -4   39.01    1.51
  10   6  -4   38.25    1.71
  10   6  -4   39.62    1.55
 -10   6   4   38.08    1.66
  10   6  -4   38.31    1.60
 -10   6   4   38.42    1.82
  -8  -6   4   81.53    3.09
  -8  -6   4   81.96    3.44
  -8  -6   4   75.90    2.89
   8  -6  -4   79.93    3.18
   8  -6  -4   78.11    3.21
  -8  -6   4   77.34    3.48
   8  -6  -4   82.10    2.85
   8  -6  -4   69.32    3.23
   8  -6  -4   80.53    3.39
   8   6  -4   81.55    3.06
   8   6  -4   81.00    2.84
  -8   6   4   75.36    2.97
   8   6  -4   83.86    2.76
  -8   6   4   74.94    2.98
   8   6  -4   85.17    3.00
   8   6  -4   82.78    2.97
   8   6  -4   77.47    2.76
   8   6  -4   82.13    2.93
  -8   6   4   77.96    3.03
   8   6  -4   81.50    3.14
   8   6  -4   81.64    2.91
  -8   6   4   83.20    3.24
   8   6  -4   78.07    3.11
  -8   6   4   82.96    3.27
   8   6  -4   84.05    3.07
  -8   6   4   79.87    3.04
   6  -6  -4   57.71    2.51
  -6  -6   4   56.88    2.20
  -6  -6   4   61.08    2.61
  -6  -6   4   60.93    2.43
  -6  -6   4   58.85    2.73
   6  -6  -4   53.80    2.55
   6  -6  -4   62.72    2.75
   6  -6  -4   63.03    2.40
   6  -6  -4   57.05    2.54
   6  -6  -4   62.52    2.19
   6   6  -4   59.90    2.45
  -6   6   4   62.32    2.56
  -6   6   4   57.64    2.38
   6   6  -4   64.31    2.35
   6   6  -4   63.84    2.44
  -6   6   4   62.39    2.65
   6   6  -4   62.08    2.29
  -6   6   4   61.56    2.12
   6   6  -4   61.39    2.20
   6   6  -4   61.00    2.47
   6   6  -4   61.77    2.26
  -6   6   4   59.31    2.34
   6   6  -4   61.60    2.29
   6   6  -4   59.93    2.38
   4  -6  -4  125.76    4.88
   4  -6  -4  129.75    4.83
  -4  -6   4  124.62    4.80
   4  -6  -4  128.99    4.61
  -4  -6   4  131.34    4.66
  -4  -6   4  124.66    4.46
  -4  -6   4  132.27    4.71
  -4  -6   4  134.43    4.61
   4  -6  -4  135.75    4.71
   4  -6  -4  133.98    4.49
   4  -6  -4  124.90    4.85
  -4  -6   4  125.40    4.97
   4  -6  -4  128.44    5.02
  -4  -6   4  128.86    4.93
   4  -6  -4  132.36    4.65
   4   6  -4  128.52    4.55
   4   6  -4  127.95    4.66
  -4   6   4  124.81    4.70
  -4   6   4  128.01    4.51
   4   6  -4  136.49    4.61
   4   6  -4  132.26    4.60
  -4   6   4  130.25    4.67
  -4   6   4  128.47    4.83
   4   6  -4  123.99    4.70
  -4   6   4  136.54    4.99
  -4   6   4  132.43    4.49
   4   6  -4  143.49    4.78
   4   6  -4  136.06    4.66
   4   6  -4  123.24    4.65
   4   6  -4  130.37    4.73
   2  -6  -4   53.78    2.18
   2  -6  -4   57.12    2.21
  -2  -6   4   55.71    2.10
  -2  -6   4   51.53    2.36
   2  -6  -4   55.94    1.99
   2  -6  -4   51.05    2.28
  -2  -6   4   52.87    2.41
   2  -6  -4   54.03    2.14
   2  -6  -4   52.75    2.35
  -2  -6   4   52.52    2.43
   2  -6  -4   53.59    2.48
  -2  -6   4   50.32    1.94
  -2  -6   4   54.51    2.15
  -2  -6   4   56.18    2.19
  -2   6   4   55.13    2.17
   2   6  -4   54.26    2.12
  -2   6   4   54.98    2.34
  -2   6   4   57.53    2.47
   2   6  -4   56.17    2.17
   2   6  -4   54.27    2.29
   2   6  -4   55.88    2.11
   2   6  -4   54.00    2.16
   2   6  -4   50.27    2.16
   2   6  -4   57.62    2.25
  -2   6   4   54.48    2.22
  -2   6   4   54.71    2.05
   0  -6  -4   80.10    3.01
   0  -6   4   77.26    3.12
   0  -6   4   74.83    2.80
   0  -6   4   74.90    2.73
   0  -6   4   74.90    3.31
   0  -6  -4   72.85    3.03
   0  -6   4   76.82    3.27
   0  -6   4   82.93    2.97
   0  -6  -4   74.72    3.13
   0  -6   4   77.41    2.94
   0  -6  -4   76.93    2.95
   0  -6  -4   78.98    3.00
   0  -6  -4   78.38    3.26
   0  -6   4   76.43    2.88
   0  -6   4   81.74    2.92
   0  -6  -4   76.74    2.79
   0   6   4   79.78    2.98
   0   6   4   79.88    2.89
   0   6  -4   77.68    3.07
   0   6   4   78.74    3.12
   0   6   4   81.95    3.26
   0   6  -4   80.92    2.97
   0   6   4   78.26    2.80
   0   6  -4   81.81    3.04
   0   6  -4   78.25    2.95
   0   6  -4   79.80    2.94
   0   6  -4   75.45    2.95
   0   6  -4   76.15    2.95
   0   6   4   76.46    3.01
   2  -6   4  119.30    4.41
  -2  -6  -4  121.31    4.45
   2  -6   4  123.88    4.40
   2  -6   4  121.60    4.35
   2  -6   4  114.41    4.86
  -2  -6  -4  125.25    4.50
   2  -6   4  117.60    4.23
  -2  -6  -4  126.11    4.48
  -2  -6  -4  116.88    4.58
  -2  -6  -4  116.33    4.27
  -2  -6  -4  119.45    4.47
   2  -6   4  120.36    4.50
   2  -6   4  122.43    4.35
  -2   6  -4  121.48    4.38
   2   6   4  121.02    4.49
   2   6   4  119.57    4.74
  -2   6  -4  130.28    4.51
  -2   6  -4  123.42    4.44
   2   6   4  121.80    4.24
  -2   6  -4  118.27    4.51
   2   6   4  125.77    4.50
   2   6   4  121.54    4.44
   2   6   4  129.08    4.43
  -2   6  -4  121.68    4.40
  -2   6  -4  125.14    4.48
  -2   6  -4  120.44    4.39
   2   6   4  125.63    4.72
   4  -6   4   30.47    1.26
  -4  -6  -4   33.53    1.50
   4  -6   4   29.92    1.36
  -4  -6  -4   30.34    1.58
   4  -6   4   30.60    1.33
  -4  -6  -4   32.00    1.52
   4  -6   4   30.76    1.38
   4  -6   4   29.63    1.42
  -4  -6  -4   29.67    1.41
  -4  -6  -4   31.37    1.48
   4  -6   4   28.13    1.88
   4  -6   4   30.30    1.44
   4   6   4   31.75    1.64
  -4   6  -4   31.58    1.41
  -4   6  -4   30.43    1.49
   4   6   4   31.08    1.45
  -4   6  -4   30.60    1.46
  -4   6  -4   28.95    1.34
  -4   6  -4   30.52    1.40
  -4   6  -4   32.46    1.49
   4   6   4   29.28    1.26
   4   6   4   29.72    1.44
   4   6   4   31.40    1.50
   4   6   4   31.66    1.51
  -4   6  -4   30.20    1.41
   4   6   4   30.97    1.60
  -6  -6  -4   58.45    2.46
   6  -6   4   55.75    2.23
  -6  -6  -4   57.55    2.51
   6  -6   4   59.33    2.31
   6  -6   4   59.41    2.31
   6  -6   4   56.99    2.36
   6  -6   4   52.05    2.87
  -6  -6  -4   59.31    2.42
  -6  -6  -4   57.76    2.42
  -6  -6  -4   58.18    2.28
   6  -6   4   56.31    2.21
   6   6   4   59.25    2.39
  -6   6  -4   57.73    2.39
  -6   6  -4   59.21    2.49
  -6   6  -4   56.92    2.31
   6   6   4   59.66    2.57
  -6   6  -4   57.94    2.33
   6   6   4   58.75    2.44
   6   6   4   59.36    2.56
   6   6   4   59.39    2.43
  -6   6  -4   56.12    2.32
   6   6   4   56.80    2.20
  -6   6  -4   55.22    2.22
   6   6   4   59.26    2.43
  -6   6  -4   62.15    2.42
   8  -6   4   31.40    1.55
   8  -6   4   31.18    1.45
  -8  -6  -4   35.77    1.73
  -8  -6  -4   29.47    1.58
  -8  -6  -4   35.84    1.66
  -8  -6  -4   34.62    1.78
   8  -6   4   32.89    1.50
  -8  -6  -4   31.48    1.68
   8  -6   4   32.49    1.42
   8  -6   4   30.87    3.12
  -8   6  -4   32.77    1.53
   8   6   4   31.86    1.62
  -8   6  -4   33.16    1.56
   8   6   4   31.46    1.43
  -8   6  -4   31.72    1.55
   8   6   4   33.50    1.70
  -8   6  -4   31.77    1.51
   8   6   4   35.07    1.60
  -8   6  -4   32.86    1.60
   8   6   4   28.06    1.95
 -10  -6  -4   24.74    1.45
  10  -6   4   23.47    1.17
 -10  -6  -4   24.38    1.07
  10  -6   4   24.08    1.34
 -10  -6  -4   26.05    1.51
 -10  -6  -4   25.20    1.46
  10  -6   4   26.97    2.05
 -10  -6  -4   25.05    1.52
  10  -6   4   23.87    1.29
  10  -6   4   23.23    1.26
  10   6   4   24.20    1.36
  10   6   4   25.96    1.37
 -10   6  -4   25.56    1.34
 -10   6  -4   25.09    1.31
  10   6   4   25.13    1.27
  10   6   4   23.70    1.41
 -10   6  -4   24.30    1.38
 -10   6  -4   23.25    1.27
  10   6   4   26.72    1.50
 -10   6  -4   22.75    1.06
  12  -6   4    8.39    0.83
 -12  -6  -4    8.98    1.05
  12  -6   4    6.31    0.82
  12  -6   4   10.06    1.55
 -12  -6  -4    6.67    1.05
 -12  -6  -4    8.72    1.00
  12  -6   4    8.61    0.98
 -12  -6  -4    9.60    1.08
 -12   6  -4    8.71    1.00
 -12   6  -4    9.64    0.94
 -12   6  -4    6.82    0.93
 -12   6  -4    9.15    0.84
 -12   6  -4    7.91    0.53
  12   6   4    7.41    1.02
  12   6   4    8.43    0.88
  12   6   4    6.98    0.86
  12   6   4    9.61    0.91
  12   6   4    8.72    0.87
 -14  -6  -4   26.95    1.72
  14  -6   4   24.85    1.42
  14  -6   4   30.65    2.35
 -14  -6  -4   27.54    1.66
  14  -6   4   28.32    1.61
  14  -6   4   26.58    1.52
 -14  -6  -4   26.20    1.63
 -14   6  -4   27.87    1.47
 -14   6  -4   26.03    1.47
  14   6   4   25.43    1.49
 -14   6  -4   24.51    1.64
  14   6   4   28.18    1.51
  14   6   4   28.64    1.72
 -14   6  -4   26.94    1.58
  14   6   4   26.23    1.48
  14   6   4   25.62    1.52
  16  -6   4    3.71    1.31
  16  -6   4    3.49    0.66
 -16  -6  -4    2.79    0.87
  16  -6   4    3.56    0.79
  16  -6   4    6.25    1.11
 -16  -6  -4    4.84    0.85
  16   6   4    4.72    0.78
 -16   6  -4    3.06    0.68
  16   6   4    2.31    0.60
  16   6   4    3.80    0.92
 -16   6  -4    3.72    0.83
  18  -6   4    3.69    1.44
  18  -6   4    4.72    0.94
  18   6   4    4.80    0.88
  18   6   4    3.69    0.74
 -18   6  -4    4.79    0.80
  18   6   4    2.18    0.96
  20  -6   4    2.53    1.05
  20   6   4    3.74    0.98
 -20   6  -4    3.06    0.83
  21  -7  -4    4.23    0.93
  21  -7  -4    3.63    1.04
 -21  -7   4    2.25    1.70
  21   7  -4    4.95    0.71
  21   7  -4    3.01    0.88
 -19  -7   4   12.15    2.25
  19  -7  -4   11.15    0.87
  19  -7  -4   12.78    1.23
  19  -7  -4   11.01    1.38
  19   7  -4   11.24    0.94
  19   7  -4   10.06    1.18
  19   7  -4    8.60    0.70
  17  -7  -4   21.83    1.27
 -17  -7   4   19.94    2.32
  17  -7  -4   21.99    1.46
  17  -7  -4   23.08    1.66
 -17  -7   4   20.50    1.26
  17   7  -4   22.56    1.19
  17   7  -4   21.96    1.40
 -17   7   4   22.79    1.24
 -17   7   4   18.54    1.31
  17   7  -4   19.74    1.12
  17   7  -4   19.88    1.03
 -15  -7   4   20.14    1.25
  15  -7  -4   18.02    1.21
 -15  -7   4   20.53    1.37
  15  -7  -4   19.09    1.00
  15  -7  -4   21.37    1.62
 -15  -7   4   17.01    1.19
 -15  -7   4   20.03    2.11
  15  -7  -4   20.21    1.01
  15   7  -4   18.36    0.93
  15   7  -4   18.54    1.01
  15   7  -4   18.67    1.09
  15   7  -4   19.58    1.26
  15   7  -4   19.47    1.05
  15   7  -4   18.65    1.00
 -15   7   4   20.16    1.18
 -15   7   4   19.99    1.08
  15   7  -4   20.55    0.93
  15   7  -4   19.10    1.04
 -15   7   4   20.55    1.28
  13  -7  -4   22.78    1.08
  13  -7  -4   25.35    1.70
 -13  -7   4   26.41    1.45
  13  -7  -4   22.98    1.38
  13  -7  -4   25.77    1.22
 -13  -7   4   21.60    1.26
 -13  -7   4   24.77    2.07
  13   7  -4   27.14    1.56
 -13   7   4   26.76    1.28
 -13   7   4   23.03    1.42
  13   7  -4   22.77    1.24
  13   7  -4   23.89    1.16
  13   7  -4   24.44    1.11
  13   7  -4   26.44    1.41
  13   7  -4   24.94    1.17
  13   7  -4   24.72    1.19
 -13   7   4   26.86    1.59
 -13   7   4   23.94    1.31
  13   7  -4   22.92    1.16
  13   7  -4   24.73    1.08
  11  -7  -4   42.83    2.25
  11  -7  -4   43.44    1.64
 -11  -7   4   38.64    1.75
 -11  -7   4   43.47    2.01
 -11  -7   4   40.42    2.60
  11  -7  -4   39.38    1.96
 -11   7   4   41.96    1.81
  11   7  -4   40.76    1.80
 -11   7   4   41.05    2.06
 -11   7   4   43.88    1.85
 -11   7   4   41.61    2.03
  11   7  -4   40.95    2.00
  11   7  -4   41.25    1.67
  11   7  -4   40.63    1.64
  11   7  -4   41.03    1.87
  11   7  -4   40.91    1.71
  11   7  -4   41.42    1.65
  11   7  -4   39.94    1.74
  11   7  -4   41.78    1.55
  -9  -7   4   67.50    2.61
   9  -7  -4   63.23    4.00
  -9  -7   4   71.33    3.06
   9  -7  -4   65.82    3.01
   9  -7  -4   64.06    2.86
   9  -7  -4   70.80    2.52
  -9   7   4   70.64    2.74
   9   7  -4   72.31    2.76
  -9   7   4   69.88    2.65
   9   7  -4   67.96    2.58
  -9   7   4   71.36    2.92
   9   7  -4   69.56    2.52
   9   7  -4   70.20    2.72
  -9   7   4   68.58    2.97
   9   7  -4   69.19    2.65
   9   7  -4   67.94    2.55
   9   7  -4   69.93    2.62
  -9   7   4   65.71    2.70
  -7  -7   4   32.61    1.53
   7  -7  -4   30.18    1.81
   7  -7  -4   32.66    1.56
  -7  -7   4   29.68    1.90
   7  -7  -4   31.93    1.64
  -7  -7   4   33.85    1.87
   7  -7  -4   30.28    1.56
   7  -7  -4   31.29    1.26
  -7  -7   4   28.86    1.32
   7   7  -4   31.54    1.48
   7   7  -4   29.74    1.19
   7   7  -4   30.45    1.56
  -7   7   4   31.04    1.41
  -7   7   4   31.68    1.41
  -7   7   4   30.49    1.72
  -7   7   4   32.85    1.63
   7   7  -4   26.61    1.47
   7   7  -4   33.01    1.44
   7   7  -4   31.75    1.50
  -7   7   4   32.60    1.51
   7   7  -4   31.52    1.36
  -7   7   4   29.98    1.46
   7   7  -4   31.24    1.38
  -5  -7   4  106.48    4.43
  -5  -7   4  114.19    4.35
   5  -7  -4  115.69    4.07
   5  -7  -4   97.65    4.22
  -5  -7   4  105.53    3.85
   5  -7  -4  104.73    4.23
   5  -7  -4  114.75    3.84
  -5  -7   4  106.24    4.10
  -5  -7   4  111.83    4.08
   5  -7  -4  106.91    4.40
   5  -7  -4  105.48    4.15
   5   7  -4  110.65    3.95
  -5   7   4  111.94    3.78
   5   7  -4  113.77    4.09
  -5   7   4  109.64    4.39
   5   7  -4  102.14    4.05
   5   7  -4  113.75    4.02
   5   7  -4  114.58    4.13
   5   7  -4  109.95    3.90
  -5   7   4  107.22    4.05
  -5   7   4  109.71    3.87
  -5   7   4  110.78    4.19
   5   7  -4  106.40    3.84
   5   7  -4  112.23    3.97
   5   7  -4  108.94    4.03
  -5   7   4  106.43    4.00
   3  -7  -4   41.42    2.02
  -3  -7   4   42.14    2.07
  -3  -7   4   43.75    2.18
   3  -7  -4   44.55    1.89
   3  -7  -4   42.48    1.98
  -3  -7   4   41.83    1.66
   3  -7  -4   44.05    1.68
   3  -7  -4   44.85    1.87
  -3  -7   4   43.77    1.87
  -3  -7   4   43.65    1.88
   3  -7  -4   44.99    1.82
  -3  -7   4   41.56    2.13
   3  -7  -4   42.56    2.20
   3  -7  -4   40.98    2.05
  -3  -7   4   45.02    1.80
   3   7  -4   42.33    1.87
  -3   7   4   43.48    1.69
   3   7  -4   43.72    1.74
   3   7  -4   44.45    1.81
   3   7  -4   44.10    1.86
   3   7  -4   45.57    1.92
   3   7  -4   45.99    1.92
  -3   7   4   44.26    2.01
   3   7  -4   45.25    1.74
  -3   7   4   42.95    2.19
  -3   7   4   43.65    1.85
   3   7  -4   41.94    1.85
   3   7  -4   43.82    1.79
  -3   7   4   42.39    1.89
   1  -7  -4   98.42    3.93
   1  -7  -4  101.81    3.84
   1  -7  -4  100.56    3.78
  -1  -7   4  106.39    4.19
   1  -7  -4  107.00    3.86
  -1  -7   4   95.48    4.13
  -1  -7   4   99.62    3.79
  -1  -7   4  103.71    4.04
  -1  -7   4   99.35    3.59
  -1  -7   4  104.12    3.73
   1  -7  -4   97.31    3.99
   1  -7  -4  102.49    4.14
  -1  -7   4  101.76    3.80
   1  -7  -4  101.62    3.63
   1   7  -4  100.57    3.82
  -1   7   4  101.08    3.62
   1   7  -4  106.18    3.76
  -1   7   4  107.45    3.71
   1   7  -4  101.22    3.74
   1   7  -4  100.90    3.78
  -1   7   4  106.99    3.97
   1   7  -4  100.70    3.80
  -1   7   4  102.22    3.81
   1   7  -4  104.60    3.74
   1   7  -4  104.95    3.86
   1   7  -4  102.46    3.82
  -1   7   4  101.23    3.86
   1  -7   4   50.49    2.14
   1  -7   4   47.85    2.18
   1  -7   4   47.79    1.83
  -1  -7  -4   52.27    2.40
  -1  -7  -4   48.25    1.89
   1  -7   4   48.10    2.02
  -1  -7  -4   48.78    2.10
  -1  -7  -4   49.48    2.25
  -1  -7  -4   50.69    2.08
  -1  -7  -4   47.29    2.11
  -1  -7  -4   48.00    2.11
   1  -7   4   47.81    1.72
   1  -7   4   50.48    1.98
   1  -7   4   43.92    2.48
  -1   7  -4   50.15    2.10
  -1   7  -4   46.96    2.00
   1   7   4   50.04    2.20
   1   7   4   49.46    2.02
  -1   7  -4   49.65    2.05
  -1   7  -4   47.55    2.02
   1   7   4   49.64    2.10
   1   7   4   45.65    1.86
   1   7   4   49.65    2.37
  -1   7  -4   49.05    2.01
  -1   7  -4   49.55    2.08
   1   7   4   49.83    2.07
  -1   7  -4   51.04    2.07
   3  -7   4   71.89    2.73
  -3  -7  -4   70.94    3.03
  -3  -7  -4   71.57    2.70
  -3  -7  -4   70.07    2.93
   3  -7   4   70.88    2.83
  -3  -7  -4   75.54    3.16
   3  -7   4   69.42    2.62
   3  -7   4   70.71    2.88
  -3  -7  -4   74.44    2.88
   3  -7   4   72.50    2.76
  -3  -7  -4   70.16    2.84
   3  -7   4   71.42    2.79
   3  -7   4   64.54    3.34
  -3  -7  -4   77.34    2.94
   3   7   4   71.65    2.65
  -3   7  -4   72.74    2.87
   3   7   4   77.64    2.89
   3   7   4   73.07    2.91
   3   7   4   72.24    2.90
  -3   7  -4   71.76    2.82
  -3   7  -4   69.99    2.84
  -3   7  -4   71.67    2.81
   3   7   4   77.25    3.03
   3   7   4   73.11    3.13
  -3   7  -4   75.96    2.90
  -3   7  -4   71.31    2.80
   3   7   4   72.78    2.84
  -3   7  -4   67.76    2.74
   5  -7   4   20.91    1.11
   5  -7   4   21.64    1.20
  -5  -7  -4   23.49    1.34
   5  -7   4   21.16    1.06
   5  -7   4   22.04    1.08
  -5  -7  -4   21.66    1.18
  -5  -7  -4   22.90    1.42
  -5  -7  -4   23.62    1.30
   5  -7   4   22.12    1.16
   5  -7   4   20.33    1.80
  -5   7  -4   22.34    1.32
   5   7   4   23.02    1.23
   5   7   4   23.42    1.56
   5   7   4   22.32    1.28
  -5   7  -4   20.82    1.08
  -5   7  -4   22.28    1.19
   5   7   4   23.04    1.27
   5   7   4   22.60    1.07
  -5   7  -4   21.29    1.23
   5   7   4   22.28    1.37
  -5   7  -4   23.34    1.27
  -5   7  -4   22.94    1.26
  -5   7  -4   20.95    1.20
  -7  -7  -4   55.68    2.35
  -7  -7  -4   50.17    2.06
   7  -7   4   50.00    2.18
  -7  -7  -4   49.79    2.34
   7  -7   4   49.32    2.02
  -7  -7  -4   54.30    2.27
   7  -7   4   49.72    2.10
   7  -7   4   49.68    2.04
  -7   7  -4   50.88    2.13
   7   7   4   52.87    2.20
  -7   7  -4   48.47    2.15
   7   7   4   48.53    2.02
   7   7   4   54.20    2.40
  -7   7  -4   48.16    1.99
  -7   7  -4   50.80    2.22
   7   7   4   50.90    2.25
  -7   7  -4   50.36    2.15
  -7   7  -4   50.41    2.21
   7   7   4   52.01    2.25
   9  -7   4   22.24    1.30
   9  -7   4   23.10    1.23
  -9  -7  -4   19.96    1.28
  -9  -7  -4   24.10    1.52
  -9  -7  -4   25.37    1.47
   9  -7   4   21.50    1.99
   9  -7   4   24.08    1.27
   9  -7   4   21.70    1.12
  -9  -7  -4   20.39    1.78
  -9  -7  -4   25.42    1.46
   9   7   4   22.63    1.40
  -9   7  -4   23.09    1.28
  -9   7  -4   18.93    1.08
  -9   7  -4   22.36    1.29
   9   7   4   22.49    1.18
   9   7   4   23.01    1.34
  -9   7  -4   22.71    1.27
  -9   7  -4   23.03    1.42
  -9   7  -4   20.88    1.35
   9   7   4   25.37    1.34
  11  -7   4   18.18    1.12
  11  -7   4   22.03    1.97
  11  -7   4   15.68    1.17
 -11  -7  -4   18.44    1.36
 -11  -7  -4   14.50    1.58
 -11  -7  -4   17.53    1.39
  11  -7   4   18.16    1.20
 -11  -7  -4   17.95    1.40
  11   7   4   17.93    1.18
  11   7   4   16.20    1.11
 -11   7  -4   15.81    1.27
 -11   7  -4   17.03    1.21
 -11   7  -4   15.74    1.27
  11   7   4   18.63    1.19
  11   7   4   16.68    1.30
  13  -7   4   11.89    1.92
 -13  -7  -4   12.50    1.36
 -13  -7  -4   13.92    1.37
  13  -7   4   13.04    1.00
 -13  -7  -4   13.35    1.45
  13  -7   4    9.80    1.05
 -13  -7  -4   13.31    1.52
  13  -7   4   13.61    1.22
  13   7   4   14.29    1.26
 -13   7  -4   11.59    1.31
  13   7   4   12.46    1.08
  13   7   4   13.25    1.08
 -13   7  -4   13.44    1.18
  13   7   4   12.52    1.09
 -13   7  -4   10.12    1.06
  15  -7   4    7.56    1.60
  15  -7   4    5.06    0.82
 -15  -7  -4    6.02    0.97
  15  -7   4    5.58    0.79
 -15  -7  -4    8.37    1.30
  15  -7   4    8.84    1.24
  15   7   4    6.30    0.83
 -15   7  -4    6.32    0.81
  15   7   4    7.54    1.04
 -15   7  -4    6.62    0.93
  15   7   4    6.31    1.06
 -17  -7  -4    5.78    1.07
  17  -7   4    5.81    0.99
  17  -7   4    6.38    1.67
  17   7   4    4.70    0.87
 -17   7  -4    4.81    0.86
  17   7   4    5.01    1.05
  19  -7   4    3.17    1.01
  19   7   4    4.29    0.96
 -19   7  -4    2.79    0.87
  20  -8  -4    5.08    1.10
 -20  -8   4    6.10    2.13
  20  -8  -4    4.85    1.12
  20   8  -4    6.59    0.86
  20   8  -4    5.89    1.01
  18  -8  -4    4.00    0.67
 -18  -8   4    1.67    1.52
  18  -8  -4    5.02    0.90
  18  -8  -4    5.69    1.13
  18   8  -4    4.46    0.82
  18   8  -4    2.82    0.51
  18   8  -4    4.09    0.64
  16  -8  -4   12.23    1.41
 -16  -8   4   11.33    2.12
  16  -8  -4   12.60    1.07
 -16  -8   4   13.15    1.10
  16   8  -4   12.62    1.12
  16   8  -4    9.67    0.84
  16   8  -4   10.54    0.88
  14  -8  -4    5.75    1.10
 -14  -8   4    4.55    1.43
 -14  -8   4    5.21    0.79
 -14  -8   4    4.15    0.71
  14  -8  -4    5.84    0.92
  14  -8  -4    4.64    0.60
  14   8  -4    5.17    0.86
  14   8  -4    4.18    0.54
  14   8  -4    4.75    0.73
 -14   8   4    5.17    0.74
  14   8  -4    5.11    0.62
 -14   8   4    4.88    0.63
  14   8  -4    3.32    0.51
  14   8  -4    5.17    0.51
  14   8  -4    3.75    0.65
  12  -8  -4   21.06    1.62
 -12  -8   4   24.72    1.51
 -12  -8   4   21.19    1.28
  12  -8  -4   22.35    1.08
  12  -8  -4   25.51    1.77
 -12  -8   4   24.52    2.16
  12   8  -4   25.56    1.14
 -12   8   4   24.89    1.54
  12   8  -4   22.33    1.21
  12   8  -4   24.34    1.11
  12   8  -4   24.54    1.39
  12   8  -4   23.48    1.14
 -12   8   4   24.16    1.36
  12   8  -4   24.32    1.54
 -12   8   4   23.38    1.26
  12   8  -4   22.35    1.22
  10  -8  -4    9.59    1.23
  10  -8  -4   12.83    1.34
 -10  -8   4   11.39    1.55
  10  -8  -4   12.08    0.68
 -10  -8   4   11.80    1.17
 -10  -8   4    9.16    0.86
  10   8  -4   11.15    1.08
  10   8  -4   12.13    0.71
 -10   8   4   10.75    0.84
 -10   8   4   11.05    0.86
  10   8  -4   10.76    0.86
  10   8  -4   12.74    0.72
 -10   8   4   11.55    1.09
 -10   8   4   12.76    1.00
  10   8  -4   11.68    0.98
  10   8  -4   11.06    0.82
  10   8  -4   11.24    0.77
  -8  -8   4   20.61    1.42
   8  -8  -4   19.43    0.92
   8  -8  -4   15.56    1.51
   8  -8  -4   19.46    1.56
  -8  -8   4   19.75    1.71
  -8  -8   4   17.91    1.06
   8   8  -4   19.40    1.28
   8   8  -4   19.42    0.80
   8   8  -4   19.26    1.11
   8   8  -4   20.25    1.03
  -8   8   4   20.78    1.14
  -8   8   4   20.12    1.10
  -8   8   4   15.76    1.29
  -8   8   4   20.93    1.24
   8   8  -4   21.09    1.03
   8   8  -4   19.45    1.07
   8   8  -4   21.92    1.22
  -8   8   4   20.66    1.49
  -6  -8   4   20.16    1.06
   6  -8  -4   19.64    0.96
  -6  -8   4   21.39    1.51
   6  -8  -4   19.73    1.62
  -6  -8   4   20.75    1.85
   6  -8  -4   19.14    1.27
   6  -8  -4   19.63    1.68
  -6  -8   4   21.97    1.20
   6   8  -4   21.30    1.23
  -6   8   4   22.00    0.86
   6   8  -4   21.20    1.03
   6   8  -4   19.92    1.10
   6   8  -4   22.46    1.18
   6   8  -4   20.32    0.93
   6   8  -4   20.88    1.08
  -6   8   4   20.37    1.13
  -6   8   4   20.75    1.06
  -6   8   4   23.56    1.31
  -6   8   4   20.83    1.18
  -6   8   4   22.63    1.34
   6   8  -4   21.24    1.35
  -6   8   4   22.55    1.15
  -4  -8   4   40.50    1.71
  -4  -8   4   39.35    1.98
   4  -8  -4   41.64    2.24
   4  -8  -4   39.82    2.09
   4  -8  -4   43.80    1.66
  -4  -8   4   46.31    2.26
  -4  -8   4   42.68    2.24
   4  -8  -4   36.35    2.77
   4  -8  -4   39.08    1.92
   4   8  -4   40.91    1.79
   4   8  -4   43.15    1.70
   4   8  -4   43.75    1.76
   4   8  -4   39.81    1.65
   4   8  -4   38.47    1.84
   4   8  -4   44.31    1.95
   4   8  -4   32.84    2.27
  -4   8   4   44.02    1.99
   4   8  -4   42.49    1.84
  -4   8   4   40.31    1.81
  -4   8   4   41.21    1.68
  -4   8   4   41.05    1.62
  -2  -8   4   11.98    1.12
  -2  -8   4   12.86    0.74
   2  -8  -4   11.99    0.73
   2  -8  -4   13.36    0.94
   2  -8  -4   13.97    1.30
  -2  -8   4   13.08    1.22
   2  -8  -4   11.15    0.98
  -2  -8   4   12.75    0.81
  -2  -8   4   13.48    1.31
   2  -8  -4   12.32    0.86
  -2   8   4   12.61    1.02
   2   8  -4   11.26    0.91
  -2   8   4   12.35    0.76
   2   8  -4   13.01    0.76
   2   8  -4   12.87    0.91
   2   8  -4   10.23    0.83
   2   8  -4   12.17    0.95
   2   8  -4   12.07    0.86
   2   8  -4   12.63    0.82
  -2   8   4   12.01    0.87
   2   8  -4   11.15    0.75
  -2   8   4   13.25    0.77
   0  -8   4   20.47    1.10
   0  -8  -4   20.35    1.28
   0  -8  -4   23.84    1.58
   0  -8  -4   21.59    1.20
   0  -8  -4   20.12    1.24
   0  -8  -4   22.15    1.04
   0  -8   4   21.58    1.36
   0  -8   4   21.79    1.66
   0  -8  -4   19.08    1.57
   0   8  -4   21.98    1.23
   0   8   4   21.82    1.31
   0   8  -4   21.10    1.11
   0   8  -4   20.93    1.15
   0   8   4   22.12    1.20
   0   8   4   18.95    1.00
   0   8  -4   18.92    1.11
   0   8  -4   21.85    1.44
   0   8  -4   20.50    1.05
   0   8   4   23.12    1.14
   0   8  -4   20.72    1.22
   2  -8   4   38.12    1.69
  -2  -8  -4   39.60    1.81
  -2  -8  -4   37.98    1.62
   2  -8   4   39.48    1.90
   2  -8   4   38.37    1.57
  -2  -8  -4   39.49    2.03
   2  -8   4   38.36    1.42
  -2  -8  -4   41.56    2.15
   2  -8   4   35.72    2.34
  -2  -8  -4   38.86    1.86
  -2  -8  -4   38.58    1.82
  -2   8  -4   36.90    1.69
  -2   8  -4   38.36    1.74
   2   8   4   40.59    1.92
   2   8   4   38.77    1.83
   2   8   4   39.33    1.78
  -2   8  -4   40.66    1.78
  -2   8  -4   38.58    1.83
  -2   8  -4   40.58    1.79
   2   8   4   39.63    1.61
  -2   8  -4   37.14    1.80
   2   8   4   42.57    1.82
   4  -8   4   10.11    0.83
   4  -8   4    9.13    0.70
  -4  -8  -4   10.87    1.19
   4  -8   4    8.45    1.44
   4  -8   4    9.87    0.71
   4  -8   4   10.10    0.78
  -4  -8  -4   11.56    1.05
  -4  -8  -4   11.50    1.25
  -4  -8  -4    9.86    0.93
   4  -8   4    9.96    0.59
  -4  -8  -4    9.43    0.73
  -4  -8  -4   11.20    0.88
   4  -8   4   10.34    0.85
  -4   8  -4   10.38    0.89
   4   8   4   10.74    0.87
  -4   8  -4    8.96    0.74
  -4   8  -4   10.10    0.88
   4   8   4   12.63    1.02
  -4   8  -4   10.13    0.92
  -4   8  -4   10.22    0.86
  -4   8  -4   10.04    0.87
   4   8   4   10.38    0.76
   4   8   4    9.54    0.97
   4   8   4    9.71    0.94
   4   8   4    9.31    0.83
   6  -8   4   15.54    1.87
   6  -8   4   16.38    0.98
   6  -8   4   18.47    1.05
  -6  -8  -4   18.90    1.33
  -6  -8  -4   18.34    1.11
  -6  -8  -4   19.57    1.42
  -6  -8  -4   18.56    1.28
   6  -8   4   17.87    1.15
   6  -8   4   17.77    0.92
   6  -8   4   17.51    1.06
   6  -8   4   17.84    1.03
  -6  -8  -4   21.73    1.54
  -6   8  -4   19.29    1.14
   6   8   4   17.00    1.23
  -6   8  -4   17.83    1.06
   6   8   4   20.80    1.44
   6   8   4   18.32    1.20
  -6   8  -4   18.08    1.15
   6   8   4   18.85    1.14
  -6   8  -4   18.30    1.22
   6   8   4   17.50    1.01
  -6   8  -4   17.91    1.19
   8  -8   4   13.11    1.00
   8  -8   4   12.20    0.84
  -8  -8  -4   14.01    0.92
   8  -8   4   14.90    1.89
   8  -8   4   13.33    0.96
   8  -8   4   10.99    0.90
  -8  -8  -4   15.20    1.23
  -8  -8  -4   16.35    1.22
  -8  -8  -4   14.38    1.30
   8   8   4   14.15    1.17
  -8   8  -4   13.46    1.13
  -8   8  -4   12.90    1.01
  -8   8  -4   12.90    1.04
   8   8   4   14.80    1.06
   8   8   4   13.01    1.18
   8   8   4   12.55    0.92
   8   8   4   14.72    1.03
  -8   8  -4   12.84    1.03
 -10  -8  -4   10.22    1.23
  10  -8   4    7.06    0.86
  10  -8   4    7.80    0.91
  10  -8   4    9.32    1.67
  10  -8   4    5.28    0.76
 -10  -8  -4    6.30    1.18
 -10  -8  -4    8.47    1.11
  10  -8   4    6.52    0.76
 -10  -8  -4    8.24    1.15
 -10   8  -4    7.56    0.98
  10   8   4    8.27    1.07
  10   8   4    8.01    0.95
 -10   8  -4    7.76    0.96
 -10   8  -4    7.88    1.00
  10   8   4    6.67    0.84
  10   8   4    6.76    0.87
  10   8   4    8.84    1.09
  12  -8   4    2.83    0.64
  12  -8   4    4.81    0.80
  12  -8   4    4.67    1.37
 -12  -8  -4    4.56    0.84
 -12  -8  -4    4.59    1.06
 -12  -8  -4    5.39    0.90
  12  -8   4    4.43    0.65
  12   8   4    2.99    0.76
  12   8   4    4.32    0.69
 -12   8  -4    3.71    0.77
 -12   8  -4    3.92    0.68
  12   8   4    6.48    0.89
  12   8   4    5.59    0.75
 -14  -8  -4   14.13    1.56
  14  -8   4   14.19    2.20
 -14  -8  -4   14.70    1.52
  14  -8   4   13.80    1.34
  14  -8   4    9.16    1.26
 -14   8  -4   12.23    1.37
  14   8   4   13.63    1.17
 -14   8  -4   12.62    1.19
  14   8   4   10.94    1.49
  14   8   4   12.14    1.51
 -16  -8  -4    3.15    0.98
  16  -8   4    5.10    1.83
  16  -8   4    1.87    0.86
  16   8   4    1.21    0.87
 -16   8  -4    1.43    0.67
  16   8   4    1.91    0.72
  19   9  -4    5.66    0.74
  17  -9  -4   11.10    1.07
 -17  -9   4   13.47    2.49
  17  -9  -4   12.27    1.72
  17  -9  -4    9.77    1.20
  17   9  -4    8.91    1.18
  17   9  -4    8.89    0.85
  17   9  -4    7.71    0.98
  17   9  -4   14.48    1.79
  15  -9  -4    9.01    1.09
 -15  -9   4   10.31    2.03
 -15  -9   4   10.06    1.19
  15  -9  -4    7.70    1.44
  15   9  -4    8.61    0.94
  15   9  -4   11.39    1.15
  15   9  -4    9.46    0.80
  15   9  -4    9.64    1.35
  13  -9  -4   14.99    1.63
  13  -9  -4   16.00    1.32
 -13  -9   4   15.43    1.36
 -13  -9   4   14.41    2.09
 -13  -9   4   14.25    1.18
  13   9  -4   15.76    1.20
  13   9  -4   16.41    1.43
 -13   9   4   15.74    1.27
  13   9  -4   14.01    1.06
 -13   9   4   17.55    1.32
  13   9  -4   14.43    0.92
  11  -9  -4   21.52    1.05
  11  -9  -4   21.82    1.78
 -11  -9   4   22.80    2.23
  11  -9  -4   20.67    1.52
 -11  -9   4   26.40    1.66
 -11  -9   4   19.16    1.29
  11   9  -4   21.79    1.16
 -11   9   4   23.63    1.42
  11   9  -4   21.20    1.06
 -11   9   4   23.66    1.47
  11   9  -4   22.23    1.52
 -11   9   4   20.01    1.30
 -11   9   4   23.24    1.29
  11   9  -4   21.80    1.36
  11   9  -4   20.85    1.28
  11   9  -4   22.76    1.13
 -11   9   4   21.87    1.29
  -9  -9   4   23.10    1.30
   9  -9  -4   21.25    1.94
   9  -9  -4   24.81    1.10
   9  -9  -4   24.82    1.81
  -9  -9   4   24.82    2.10
  -9  -9   4   26.21    1.71
  -9   9   4   24.97    1.31
   9   9  -4   26.13    1.56
  -9   9   4   25.99    1.48
  -9   9   4   23.30    1.24
  -9   9   4   25.07    1.51
   9   9  -4   21.22    1.25
   9   9  -4   24.56    1.22
  -9   9   4   22.92    1.40
   9   9  -4   18.23    1.55
   9   9  -4   23.21    1.41
   9   9  -4   25.24    1.41
   7  -9  -4   15.83    1.34
   7  -9  -4   19.62    0.93
  -7  -9   4   18.13    1.08
   7  -9  -4   19.10    1.62
  -7  -9   4   20.21    1.57
  -7  -9   4   19.53    1.70
  -7   9   4   19.45    1.29
  -7   9   4   18.97    1.29
   7   9  -4   19.72    1.30
   7   9  -4   16.08    1.09
  -7   9   4   18.44    1.07
   7   9  -4   17.19    1.15
  -7   9   4   19.79    1.11
  -7   9   4   19.09    1.15
   7   9  -4   18.08    0.98
   7   9  -4   18.35    1.06
   7   9  -4   18.31    0.85
   7   9  -4   18.09    1.19
   5  -9  -4   50.90    2.50
  -5  -9   4   50.90    2.07
   5  -9  -4   52.57    2.01
  -5  -9   4   52.43    2.76
   5  -9  -4   50.71    2.63
  -5  -9   4   49.45    2.31
   5   9  -4   49.74    1.98
  -5   9   4   52.02    2.52
  -5   9   4   50.99    2.07
   5   9  -4   49.81    2.05
  -5   9   4   48.85    1.91
  -5   9   4   50.63    2.18
   5   9  -4   51.64    2.31
  -5   9   4   54.82    2.32
   5   9  -4   50.06    2.11
   5   9  -4   49.93    2.16
   5   9  -4   52.55    2.25
  -5   9   4   50.12    2.17
   5   9  -4   51.76    2.23
   3  -9  -4   23.46    1.59
  -3  -9   4   22.64    1.71
   3  -9  -4   21.76    1.70
  -3  -9   4   27.37    1.82
  -3  -9   4   22.39    1.15
  -3  -9   4   21.17    1.56
   3  -9  -4   22.50    1.10
  -3   9   4   23.49    1.27
   3   9  -4   22.83    1.13
   3   9  -4   23.44    1.31
  -3   9   4   21.27    1.10
   3   9  -4   22.11    1.30
  -3   9   4   24.36    1.42
  -3   9   4   22.57    1.15
   3   9  -4   23.48    1.51
   3   9  -4   23.18    1.34
   3   9  -4   25.11    1.17
   1  -9  -4   41.97    2.33
   1  -9  -4   40.35    2.14
   1  -9  -4   38.81    1.83
  -1  -9   4   37.88    1.65
   1  -9  -4   40.37    1.67
   1  -9  -4   39.84    1.90
  -1  -9   4   37.50    2.29
  -1  -9   4   40.08    2.13
  -1   9   4   42.31    1.85
   1   9  -4   41.22    1.71
  -1   9   4   35.77    1.66
  -1   9   4   40.31    1.75
   1   9  -4   39.51    1.88
   1   9  -4   39.70    1.83
   1   9  -4   38.63    1.95
   1   9  -4   38.88    1.72
   1   9  -4   39.89    1.84
  -1   9   4   41.82    1.96
   1   9  -4   39.86    1.77
  -1  -9  -4   30.43    1.81
  -1  -9  -4   28.90    1.91
  -1  -9  -4   28.00    1.32
   1  -9   4   26.65    2.06
   1  -9   4   27.29    1.28
  -1  -9  -4   28.69    1.51
  -1  -9  -4   26.48    1.56
  -1  -9  -4   28.65    1.60
   1  -9   4   29.35    1.40
   1  -9   4   29.70    1.66
  -1   9  -4   26.48    1.55
   1   9   4   28.97    1.66
  -1   9  -4   26.83    1.45
  -1   9  -4   27.90    1.41
   1   9   4   29.75    1.47
  -1   9  -4   29.58    1.37
  -1   9  -4   27.48    2.13
  -1   9  -4   27.78    1.49
   1   9   4   30.11    1.48
   1   9   4   26.42    1.31
  -1   9  -4   28.00    1.40
   1   9   4   30.61    1.62
  -3  -9  -4   31.67    1.92
   3  -9   4   29.11    1.43
  -3  -9  -4   27.57    1.54
  -3  -9  -4   29.97    1.37
  -3  -9  -4   28.98    1.63
   3  -9   4   30.23    1.96
   3  -9   4   28.18    1.33
   3  -9   4   25.48    1.27
  -3  -9  -4   27.75    1.54
   3  -9   4   28.20    1.50
  -3  -9  -4   32.42    1.86
   3  -9   4   27.22    2.26
  -3   9  -4   26.62    1.56
  -3   9  -4   27.34    1.48
   3   9   4   29.10    1.55
   3   9   4   26.41    1.33
   3   9   4   29.84    1.51
  -3   9  -4   27.58    1.50
   3   9   4   29.23    1.58
   3   9   4   30.98    1.66
  -5  -9  -4   13.36    1.14
   5  -9   4   12.30    0.82
  -5  -9  -4   12.91    1.23
   5  -9   4   13.36    0.92
  -5  -9  -4   13.45    0.92
   5  -9   4   13.30    0.94
  -5  -9  -4   16.19    1.41
   5  -9   4   12.61    1.03
  -5  -9  -4   15.86    1.48
  -5  -9  -4   12.69    1.05
   5  -9   4   11.08    1.71
   5  -9   4   13.46    0.99
   5   9   4   13.83    1.04
  -5   9  -4   15.12    1.15
   5   9   4   14.22    1.20
   5   9   4   13.49    1.19
   5   9   4   15.61    0.96
  -5   9  -4   13.62    1.68
  -5   9  -4   12.50    1.05
   5   9   4   13.58    1.08
  -5   9  -4   13.52    1.17
   7  -9   4   26.93    1.49
   7  -9   4   23.85    2.34
   7  -9   4   27.47    1.38
  -7  -9  -4   27.90    1.83
   7  -9   4   25.79    1.21
   7  -9   4   24.93    1.36
  -7  -9  -4   28.72    1.42
  -7  -9  -4   27.89    1.84
  -7  -9  -4   26.93    1.73
  -7  -9  -4   27.07    1.59
   7   9   4   25.52    1.60
   7   9   4   25.98    1.43
   7   9   4   24.64    1.50
   7   9   4   25.52    1.34
  -7   9  -4   24.58    1.47
  -7   9  -4   22.83    1.60
  -7   9  -4   25.55    1.43
  -7   9  -4   24.20    1.46
   7   9   4   26.67    1.58
  -9  -9  -4   14.27    1.52
   9  -9   4   11.28    1.11
  -9  -9  -4   12.40    1.32
  -9  -9  -4   15.44    1.47
   9  -9   4   10.69    0.93
   9  -9   4   11.80    1.08
   9  -9   4   12.04    2.09
  -9   9  -4   11.64    1.03
  -9   9  -4   13.12    1.11
   9   9   4   11.93    1.22
   9   9   4   12.74    1.19
   9   9   4   13.25    1.03
   9   9   4   11.00    1.07
  -9   9  -4   10.58    1.11
 -11  -9  -4   10.20    1.64
 -11  -9  -4   10.46    1.44
 -11  -9  -4   11.04    1.43
  11  -9   4    8.04    0.88
  11  -9   4    7.79    1.62
  11  -9   4    9.98    1.14
  11   9   4    9.34    1.15
  11   9   4    9.39    1.20
  11   9   4   10.55    1.08
 -11   9  -4    6.74    0.96
 -11   9  -4    6.73    0.87
  11   9   4    8.90    0.99
  13  -9   4    7.98    1.02
 -13  -9  -4   11.36    1.59
  13  -9   4    9.21    1.76
 -13  -9  -4    5.90    1.06
 -13   9  -4    7.93    1.07
 -13   9  -4    7.24    1.06
  13   9   4    7.46    1.18
  13   9   4    7.29    0.86
  13   9   4    9.26    1.34
  15  -9   4    4.85    0.99
 -15  -9  -4    5.31    1.15
 -15   9  -4    3.22    0.78
  15   9   4    3.69    0.79
  18 -10  -4    7.71    1.43
  18  10  -4    7.49    0.95
  16 -10  -4   12.39    1.78
 -16 -10   4   21.83    3.97
  16 -10  -4   15.36    1.30
  16  10  -4   13.53    1.01
  16  10  -4   16.23    1.37
  16  10  -4   15.38    1.72
  14 -10  -4    8.74    1.16
  14 -10  -4    8.31    1.58
 -14 -10   4    9.58    1.41
 -14 -10   4   12.19    2.30
  14  10  -4   10.18    1.42
  14  10  -4    8.49    1.15
 -12 -10   4   23.15    2.47
  12 -10  -4   22.32    1.92
  12 -10  -4   19.80    1.56
 -12 -10   4   20.96    1.82
  12  10  -4   22.48    1.48
  12  10  -4   20.03    1.07
  12  10  -4   21.00    1.66
 -12  10   4   20.26    1.48
 -12  10   4   20.41    1.51
  10 -10  -4   27.27    2.01
 -10 -10   4   26.89    2.43
  10 -10  -4   25.87    1.76
 -10 -10   4   26.72    1.98
 -10  10   4   25.86    1.64
  10  10  -4   25.25    1.79
 -10  10   4   28.30    1.64
  10  10  -4   27.55    1.38
  10  10  -4   28.15    1.73
  10  10  -4   26.50    1.57
  -8 -10   4   36.82    2.20
  -8 -10   4   32.39    1.63
   8 -10  -4   33.19    2.02
   8 -10  -4   31.98    1.42
   8 -10  -4   34.54    2.19
  -8 -10   4   34.33    2.48
   8  10  -4   32.89    1.74
  -8  10   4   33.05    1.74
  -8  10   4   33.34    1.81
  -8  10   4   33.04    1.83
   8  10  -4   31.29    1.56
  -8  10   4   33.11    1.61
   8  10  -4   30.92    1.74
  -8  10   4   31.97    1.66
   8  10  -4   31.64    1.85
  -6 -10   4   29.15    2.10
   6 -10  -4   26.74    1.26
   6 -10  -4   27.33    1.81
  -6 -10   4   27.29    1.42
   6 -10  -4   29.87    1.98
  -6 -10   4   26.89    1.56
  -6 -10   4   29.81    2.03
  -6  10   4   28.57    1.64
   6  10  -4   26.22    1.56
  -6  10   4   27.23    1.40
   6  10  -4   26.72    1.51
  -6  10   4   26.83    1.50
  -6  10   4   27.48    1.44
   6  10  -4   25.89    1.49
   6  10  -4   24.90    1.20
   6  10  -4   29.82    1.65
  -6  10   4   26.65    1.24
  -6  10   4   27.32    1.59
   6  10  -4   24.69    1.54
   6  10  -4   26.46    1.31
  -4 -10   4   43.72    2.51
  -4 -10   4   40.90    1.84
   4 -10  -4   40.42    1.74
   4 -10  -4   42.07    2.39
  -4 -10   4   40.10    2.20
   4 -10  -4   42.13    2.33
  -4 -10   4   49.35    2.61
   4  10  -4   39.03    2.02
   4  10  -4   40.18    1.95
   4  10  -4   42.84    2.05
   4  10  -4   40.58    1.86
   4  10  -4   41.33    1.74
  -4  10   4   41.16    1.96
  -4  10   4   41.43    1.71
  -4  10   4   43.30    1.84
   4  10  -4   38.61    2.02
   4  10  -4   42.43    1.81
  -4  10   4   41.83    1.92
  -4  10   4   43.48    2.06
  -4  10   4   44.52    2.11
   2 -10  -4   31.98    2.05
  -2 -10   4   37.89    2.26
  -2 -10   4   30.96    1.97
   2 -10  -4   31.33    1.41
  -2 -10   4   30.73    1.46
   2 -10  -4   31.00    1.96
  -2 -10   4   29.02    2.01
   2  10  -4   30.17    1.42
   2  10  -4   31.37    1.66
   2  10  -4   27.22    1.58
   2  10  -4   28.08    1.65
  -2  10   4   31.16    1.57
  -2  10   4   32.77    1.72
   2  10  -4   28.98    1.71
   2  10  -4   31.44    1.53
   2  10  -4   30.69    1.47
  -2  10   4   27.83    1.44
  -2  10   4   30.69    1.46
   0 -10  -4   35.46    1.54
   0 -10   4   34.44    2.01
   0 -10  -4   36.00    2.09
   0 -10  -4   34.61    1.77
   0 -10   4   34.28    2.36
   0 -10  -4   35.84    2.15
   0 -10  -4   29.63    1.81
   0 -10   4   32.50    1.53
   0  10  -4   33.61    1.75
   0  10   4   34.36    1.67
   0  10  -4   33.80    1.56
   0  10  -4   30.89    1.79
   0  10   4   35.06    1.69
   0  10  -4   33.10    1.58
   0  10   4   34.41    1.84
   0  10   4   31.32    1.73
   0  10  -4   33.61    1.63
   0  10  -4   33.02    1.72
   0  10   4   33.61    1.55
   0  10  -4   33.29    1.79
   2 -10   4   40.60    2.05
  -2 -10  -4   39.61    1.97
   2 -10   4   36.07    1.65
  -2 -10  -4   42.23    2.31
  -2 -10  -4   42.81    2.36
   2 -10   4   37.13    1.92
   2 -10   4   38.17    1.80
  -2 -10  -4   38.47    1.72
  -2 -10  -4   39.55    2.28
  -2  10  -4   38.36    1.80
  -2  10  -4   37.72    1.90
   2  10   4   36.37    1.90
  -2  10  -4   38.47    1.76
   2  10   4   37.95    1.84
  -2  10  -4   39.91    1.89
   2  10   4   39.53    1.72
  -2  10  -4   35.64    1.85
  -2  10  -4   37.65    2.20
   2  10   4   39.04    1.93
   2  10   4   42.16    2.00
  -4 -10  -4   25.54    1.85
  -4 -10  -4   18.76    1.41
  -4 -10  -4   19.00    1.36
  -4 -10  -4   20.55    1.17
   4 -10   4   17.97    1.36
   4 -10   4   18.85    1.20
   4 -10   4   20.43    1.11
   4 -10   4   21.56    1.23
   4 -10   4   19.26    2.31
  -4 -10  -4   25.30    1.81
   4 -10   4   22.43    1.37
  -4  10  -4   21.34    1.33
   4  10   4   21.50    1.39
   4  10   4   21.55    1.29
   4  10   4   21.49    1.21
  -4  10  -4   21.42    1.41
  -4  10  -4   20.87    1.37
   4  10   4   22.11    1.41
   6 -10   4   18.86    1.20
   6 -10   4   20.09    1.25
   6 -10   4   19.91    1.21
  -6 -10  -4   19.14    1.46
  -6 -10  -4   21.73    1.77
   6 -10   4   16.44    1.11
   6 -10   4   18.05    2.34
  -6 -10  -4   23.75    1.80
   6  10   4   21.07    1.30
   6  10   4   21.73    1.42
  -6  10  -4   20.27    1.44
  -6  10  -4   18.70    1.34
   6  10   4   21.25    1.23
   6  10   4   18.31    1.49
  -6  10  -4   17.89    1.27
  -8 -10  -4   18.74    1.71
   8 -10   4   17.73    1.31
   8 -10   4   17.98    2.40
   8 -10   4   17.25    1.12
  -8 -10  -4   17.97    1.53
  -8 -10  -4   18.82    1.79
   8  10   4   17.38    1.19
   8  10   4   16.30    1.32
  -8  10  -4   15.66    1.21
   8  10   4   17.13    1.16
   8  10   4   17.52    1.43
  -8  10  -4   16.94    1.36
  -8  10  -4   14.88    1.31
  10 -10   4   11.94    2.24
 -10 -10  -4   12.64    1.55
 -10 -10  -4   15.79    1.75
 -10 -10  -4   14.76    1.82
  10 -10   4   13.53    1.26
  10 -10   4   11.67    0.98
 -10  10  -4   10.00    1.22
  10  10   4   14.03    1.43
  10  10   4    8.84    1.09
  10  10   4   13.06    1.25
  10  10   4   11.51    1.08
 -10  10  -4   13.05    1.36
 -10  10  -4   11.75    1.16
  12 -10   4    6.36    0.98
 -12 -10  -4    6.32    1.27
 -12 -10  -4    9.63    1.80
 -12 -10  -4    9.83    1.64
  12 -10   4    7.06    1.89
  12  10   4    6.10    0.96
  12  10   4    7.85    1.13
 -12  10  -4    8.48    1.16
  12  10   4    7.90    1.07
 -12  10  -4    6.55    1.12
  14 -10   4    8.43    1.15
 -14  10  -4    6.11    1.15
  14  10   4    6.86    0.97
  14  10   4    6.60    1.04
  15 -11  -4    5.01    0.92
  13 -11  -4    9.55    1.29
  13 -11  -4    8.03    1.49
 -13 -11   4    7.77    2.01
 -13 -11   4    8.70    1.30
  13  11  -4    8.49    1.21
  13  11  -4    7.54    1.04
  13  11  -4    6.64    0.84
  11 -11  -4    8.63    1.26
  11 -11  -4    8.77    1.46
 -11 -11   4    9.53    1.34
 -11 -11   4    9.87    2.01
 -11  11   4   11.26    1.41
  11  11  -4   11.30    1.44
 -11  11   4   12.89    1.21
  11  11  -4    8.53    1.24
  -9 -11   4    7.62    1.66
   9 -11  -4    7.25    1.23
   9 -11  -4    6.89    1.09
  -9 -11   4    8.09    1.30
   9  11  -4   10.51    1.46
  -9  11   4    5.81    0.90
   9  11  -4    7.19    0.97
  -9  11   4    6.70    0.96
  -7 -11   4   10.25    1.71
  -7 -11   4    9.66    1.34
   7 -11  -4    7.54    1.19
   7 -11  -4    8.64    1.49
   7  11  -4    7.84    0.86
   7  11  -4    8.65    1.06
  -7  11   4    8.80    1.24
  -7  11   4    9.74    1.03
   7  11  -4    9.79    1.21
  -5 -11   4   21.55    1.96
  -5 -11   4   21.11    1.65
   5 -11  -4   23.61    1.76
   5 -11  -4   21.86    1.87
  -5 -11   4   26.08    2.09
   5  11  -4   22.65    1.55
   5  11  -4   21.08    1.25
  -5  11   4   21.58    1.43
  -5  11   4   20.29    2.08
  -5  11   4   19.80    1.31
   5  11  -4   22.00    1.43
  -5  11   4   24.20    1.60
   3 -11  -4   11.39    1.53
  -3 -11   4    8.17    1.37
  -3 -11   4   12.62    1.73
   3 -11  -4    8.85    0.81
   3 -11  -4    9.70    1.48
  -3  11   4   11.12    1.59
  -3  11   4    9.59    1.12
   3  11  -4    9.73    1.14
   3  11  -4    9.05    1.05
  -3  11   4   10.79    1.28
   3  11  -4    9.29    0.89
  -3  11   4    7.70    0.91
  -3  11   4   10.00    1.00
   1 -11  -4   11.71    1.52
  -1 -11   4   10.89    1.40
  -1 -11   4   10.36    1.67
   1 -11  -4   11.13    0.87
   1 -11  -4   14.58    1.63
   1  11  -4   11.91    0.85
  -1  11   4   11.62    1.09
   1  11  -4   11.38    1.12
   1  11  -4   13.02    1.17
   1  11  -4   12.03    0.97
  -1  11   4   11.69    0.98
  -1  11   4   11.42    1.03
   1  11  -4   12.49    1.01
   1 -11   4   12.39    1.31
   1 -11   4   13.47    1.99
  -1 -11  -4   16.12    1.61
  -1 -11  -4   12.63    1.57
  -1 -11  -4   11.10    1.27
   1  11   4   12.18    1.13
   1  11   4   12.70    1.06
  -1  11  -4   12.76    0.99
  -1  11  -4   12.34    1.17
   1  11   4   10.39    1.19
   1  11   4   13.28    1.02
  -1  11  -4   11.05    0.97
  -1  11  -4   11.73    1.15
   3 -11   4   12.39    1.93
  -3 -11  -4   14.43    1.67
  -3 -11  -4   10.52    1.34
  -3 -11  -4   14.24    1.62
   3 -11   4   10.49    1.15
  -3  11  -4   12.14    1.11
  -3  11  -4    9.52    1.16
   3  11   4   11.87    1.05
  -3  11  -4    9.71    0.94
   3  11   4   11.16    1.49
  -3  11  -4   10.51    0.95
  -3  11  -4   10.40    1.52
  -5 -11  -4    8.76    1.44
   5 -11   4    6.01    0.86
   5 -11   4    5.99    0.93
   5 -11   4    6.69    1.68
   5 -11   4    6.05    0.83
  -5 -11  -4    7.43    1.22
  -5 -11  -4    7.59    1.10
  -5  11  -4    6.04    0.80
  -5  11  -4    5.17    1.10
  -5  11  -4    7.67    0.92
  -5  11  -4    6.93    1.16
   5  11   4    6.84    0.93
   5  11   4    8.67    1.03
   5  11   4    8.53    0.96
  -5  11  -4    6.66    0.97
  -7 -11  -4    9.80    1.25
   7 -11   4    8.89    0.96
  -7 -11  -4   15.34    1.85
   7 -11   4   12.40    2.06
  -7  11  -4   11.23    1.24
   7  11   4    9.92    1.10
   7  11   4   12.13    1.42
  -7  11  -4    8.41    1.10
   7  11   4   11.54    1.04
   7  11   4   11.72    1.14
  -9 -11  -4    5.10    1.23
   9 -11   4    5.15    0.74
  -9 -11  -4    7.05    1.27
   9 -11   4    7.27    1.95
   9 -11   4    6.47    0.97
  -9 -11  -4    7.62    1.31
   9  11   4    4.94    0.90
  -9  11  -4    4.68    0.91
   9  11   4    4.86    0.80
   9  11   4    4.44    1.00
  -9  11  -4    5.98    0.82
 -11 -11  -4    4.36    1.13
  11 -11   4    3.80    1.99
  11 -11   4    1.14    0.91
  11  11   4    2.88    0.80
 -11  11  -4    3.68    0.80
  11  11   4    3.69    0.83
  12 -12  -4    7.29    1.18
  10 -12  -4    6.62    1.17
 -10 -12   4   11.89    2.13
  10 -12  -4    7.89    1.48
  10  12  -4    8.72    1.22
  10  12  -4    7.94    1.16
 -10  12   4    8.66    1.12
  -8 -12   4   10.47    1.51
  -8 -12   4   11.40    1.88
   8 -12  -4    7.76    1.26
   8 -12  -4   10.00    1.73
  -8  12   4    8.75    1.18
   8  12  -4    7.61    1.11
   8  12  -4    8.27    1.18
  -8  12   4    8.58    1.09
  -8  12   4   10.99    1.20
   6 -12  -4    8.36    1.38
  -6 -12   4   10.96    1.78
  -6 -12   4   12.66    1.84
   6 -12  -4   10.07    1.60
  -6  12   4    8.27    1.12
   6  12  -4    8.64    1.12
   6  12  -4    8.74    1.22
  -6  12   4    9.41    1.41
  -6  12   4    9.57    1.11
   4 -12  -4   14.65    1.81
  -4 -12   4   12.58    1.64
   4 -12  -4   10.21    1.72
  -4 -12   4   15.71    2.04
   4  12  -4   10.94    0.96
   4  12  -4   10.28    1.25
   4  12  -4   11.26    1.23
  -4  12   4   11.71    1.57
  -4  12   4   11.45    1.14
  -4  12   4   12.56    1.16
  -2 -12   4   14.90    1.98
  -2 -12   4   10.20    1.50
   2 -12  -4    7.77    1.33
  -2 -12   4   10.39    1.62
   2 -12  -4   10.45    1.69
  -2  12   4    8.31    1.06
   2  12  -4    8.82    1.19
   2  12  -4    8.81    0.98
  -2  12   4    8.54    1.04
   2  12  -4    8.42    1.15
   0 -12  -4   13.83    1.72
   0 -12   4   11.58    1.40
   0 -12   4   11.24    2.13
   0 -12  -4   12.53    1.88
   0  12  -4   10.73    1.25
   0  12   4   11.09    1.11
   0  12  -4    9.93    1.17
   0  12  -4   11.62    1.00
   0  12   4    9.82    1.07
   2 -12   4   12.90    1.34
  -2 -12  -4   17.87    1.99
  -2 -12  -4   12.97    1.66
   2 -12   4   12.38    1.99
  -2  12  -4   10.73    1.22
   2  12   4   10.52    1.12
   2  12   4   12.96    1.16
  -2  12  -4   11.97    1.09
  -2  12  -4   12.23    1.22
  -4 -12  -4    8.61    1.62
  -4 -12  -4    9.05    1.40
   4 -12   4    6.72    1.80
   4 -12   4    6.57    1.12
   4 -12   4    6.60    1.17
   4  12   4    9.08    1.06
  -4  12  -4    5.63    0.83
   4  12   4    7.26    1.03
  -4  12  -4    6.24    1.00
   6 -12   4    7.65    1.42
  -6 -12  -4    7.54    1.33
  -6 -12  -4    8.12    1.48
   6 -12   4    6.95    1.91
   6  12   4    5.89    0.89
   6  12   4    6.47    0.99
  -6  12  -4    5.95    1.17
   6  12   4    7.17    1.07
  -6  12  -4    5.65    0.85
   8 -12   4    4.29    1.96
  -8 -12  -4    7.15    1.50
   8  12   4    7.54    1.32
  -8  12  -4    5.41    0.88
   8  12   4    8.21    1.19
  -7 -13   4   12.26    1.69
  -7 -13   4   14.15    2.37
   7 -13  -4   10.63    1.78
  -7  13   4   10.88    1.17
   7  13  -4    9.14    1.29
  -7  13   4    8.79    1.16
   5 -13  -4   17.42    2.07
  -5 -13   4   20.39    2.28
  -5 -13   4   18.52    2.42
   5  13  -4   14.78    1.57
  -5  13   4   16.69    1.46
  -5  13   4   16.60    1.49
  -3 -13   4   14.38    1.80
  -3 -13   4   17.77    2.32
   3 -13  -4   14.05    1.92
  -3  13   4   13.23    1.35
  -3  13   4   13.04    1.25
   3  13  -4   15.19    1.44
   1 -13  -4   17.39    2.00
  -1 -13   4   16.09    1.72
  -1  13   4   15.26    1.36
   1  13  -4   12.24    1.43
  -1  13   4   12.92    1.20
   1 -13   4   15.48    1.57
  -1 -13  -4   15.51    1.95
   1 -13   4   16.47    2.81
  -1  13  -4   14.40    1.38
   1  13   4   13.14    1.25
   1  13   4   13.67    1.36
  -3 -13  -4   13.78    2.00
   3 -13   4   15.91    2.90
  -3  13  -4    9.84    1.31
   3  13   4    9.12    1.15
   3  13   4   12.38    1.27
  -5  13  -4   10.45    1.31
   5  13   4    9.37    1.32
  24   0  -5    5.51    0.82
  24   0  -5    6.06    0.84
 -24   0   5    8.66    1.52
  24   0  -5    7.43    0.95
  22   0  -5   15.56    1.13
  22   0  -5   14.67    1.21
  22   0  -5   11.33    0.90
 -22   0   5   15.40    1.48
  22   0  -5   13.59    0.98
 -20   0   5   15.00    1.38
  20   0  -5   15.74    1.15
  20   0  -5   14.74    1.04
  20   0  -5   15.21    0.81
  20   0  -5   14.17    0.91
 -20   0   5   13.81    0.82
  20   0  -5   13.85    0.82
  20   0  -5   14.02    0.96
  18   0  -5   33.31    1.64
  18   0  -5   32.72    1.54
  18   0  -5   33.38    1.57
  18   0  -5   35.14    1.50
  18   0  -5   31.76    1.54
  18   0  -5   34.83    1.61
  18   0  -5   35.32    1.58
 -18   0   5   33.87    1.89
  16   0  -5   54.77    2.14
  16   0  -5   53.39    2.21
  16   0  -5   51.84    2.22
  16   0  -5   54.53    2.22
 -16   0   5   53.29    2.46
  16   0  -5   51.68    2.19
  16   0  -5   52.90    2.10
  16   0  -5   52.74    2.09
  14   0  -5   16.15    0.91
  14   0  -5   16.65    0.97
  14   0  -5   15.95    0.86
  14   0  -5   14.69    0.92
  14   0  -5   15.80    1.03
 -14   0   5   16.27    1.14
  14   0  -5   14.26    0.90
  14   0  -5   15.93    0.98
  14   0  -5   15.67    0.82
  12   0  -5  145.31    5.22
 -12   0   5  145.43    5.29
 -12   0   5  139.58    5.36
  12   0  -5  148.03    5.24
  12   0  -5  137.38    5.28
 -12   0   5  145.85    5.26
  12   0  -5  147.14    5.24
  12   0  -5  145.21    5.18
  12   0  -5  145.85    5.03
  12   0  -5  143.85    5.10
  12   0  -5  145.40    5.05
 -10   0   5   18.71    1.14
  10   0  -5   20.52    1.12
  10   0  -5   21.40    1.09
 -10   0   5   19.78    1.19
  10   0  -5   19.89    1.11
  10   0  -5   20.97    0.94
  10   0  -5   21.20    1.09
  10   0  -5   20.31    0.93
  10   0  -5   21.19    1.09
 -10   0   5   20.25    1.12
  10   0  -5   20.67    0.90
   8   0  -5  197.66    6.88
   8   0  -5  207.45    7.15
   8   0  -5  210.07    7.16
  -8   0   5  204.56    6.81
  -8   0   5  199.00    7.17
   8   0  -5  198.32    7.13
  -8   0   5  202.15    6.78
  -8   0   5  207.39    7.15
   8   0  -5  207.81    6.95
   8   0  -5  195.19    7.14
  -6   0   5   36.62    1.44
   6   0  -5   35.98    1.58
  -6   0   5   35.61    1.63
  -6   0   5   34.58    1.59
  -6   0   5   36.62    1.35
   6   0  -5   36.65    1.43
  -6   0   5   36.46    1.31
   6   0  -5   35.92    1.60
   6   0  -5   35.02    1.58
   6   0  -5   36.29    1.61
   6   0  -5   35.44    1.27
   6   0  -5   35.88    1.34
  -4   0   5  265.78    9.05
   4   0  -5  258.16    9.08
   4   0  -5  278.84    9.35
   4   0  -5  265.02    9.07
   4   0  -5  266.11    9.33
  -4   0   5  271.80    9.10
  -4   0   5  257.54    9.36
  -4   0   5  265.37    9.35
   4   0  -5  274.51    9.17
   4   0  -5  260.64    9.35
  -4   0   5  272.54    9.14
   4   0  -5  281.89    9.39
   4   0  -5  268.37    9.08
   4   0  -5  282.53    9.05
  -4   0   5  283.32    9.19
  -2   0   5   34.52    1.25
   2   0  -5   34.00    1.30
  -2   0   5   34.45    1.56
   2   0  -5   34.47    1.39
  -2   0   5   34.87    1.59
   2   0  -5   35.81    1.58
   2   0  -5   33.18    1.54
  -2   0   5   34.38    1.36
   2   0  -5   35.11    1.53
   2   0  -5   34.11    1.24
   2   0  -5   34.39    1.34
   2   0  -5   35.06    1.36
  -2   0   5   35.74    1.40
  -2   0   5   34.31    1.40
   0   0   5  294.11   10.30
   0   0  -5  315.65   10.57
   0   0   5  315.47   10.62
   0   0   5  305.10   10.41
   0   0  -5  300.77   10.36
   0   0  -5  307.01   10.28
   0   0  -5  320.49   10.69
   0   0   5  309.64   10.38
   0   0  -5  302.92   10.36
   0   0  -5  304.40   10.38
   0   0  -5  296.57   10.53
   0   0   5  291.16   10.22
   0   0   5  306.28   10.53
   0   0   5  305.65   10.36
   0   0  -5  309.57   10.49
   2   0   5   31.71    1.47
   2   0   5   32.29    1.36
  -2   0  -5   31.17    1.26
  -2   0  -5   32.44    1.59
   2   0   5   32.77    1.33
   2   0   5   29.97    1.39
  -2   0  -5   32.47    1.35
  -2   0  -5   33.15    1.39
   2   0   5   33.01    1.23
  -2   0  -5   31.93    1.49
   2   0   5   32.46    1.35
  -2   0  -5   31.99    1.43
  -4   0  -5  110.66    3.99
  -4   0  -5  112.08    4.23
   4   0   5  110.30    3.93
  -4   0  -5  107.09    3.98
   4   0   5  113.20    3.96
   4   0   5  108.61    4.02
   4   0   5  110.11    3.81
  -4   0  -5  107.24    3.86
  -4   0  -5  106.68    4.05
  -4   0  -5  108.02    3.92
   4   0   5  110.23    4.04
   4   0   5  110.58    3.97
  -4   0  -5  109.46    4.00
  -6   0  -5   96.80    3.61
   6   0   5  102.87    3.65
  -6   0  -5  101.89    3.74
   6   0   5   97.84    3.72
   6   0   5   99.87    3.51
  -6   0  -5  103.08    3.71
   6   0   5   96.73    3.69
   6   0   5  100.17    3.67
   6   0   5  100.85    3.66
  -6   0  -5   97.23    3.57
  -6   0  -5   99.15    3.94
  -6   0  -5   96.04    3.68
   8   0   5   55.13    2.28
  -8   0  -5   56.44    2.29
  -8   0  -5   56.95    2.24
   8   0   5   54.55    2.25
  -8   0  -5   52.66    2.12
   8   0   5   48.35    2.44
   8   0   5   54.95    2.08
  -8   0  -5   55.26    2.46
  -8   0  -5   54.16    2.26
   8   0   5   52.72    2.20
   8   0   5   56.53    2.20
 -10   0  -5   23.92    1.18
  10   0   5   25.91    1.16
 -10   0  -5   25.58    1.29
  10   0   5   25.29    1.36
 -10   0  -5   26.58    1.38
  10   0   5   22.79    1.31
  10   0   5   24.99    1.24
  10   0   5   23.36    1.33
 -10   0  -5   25.20    1.29
 -10   0  -5   24.41    1.30
 -12   0  -5   23.93    1.25
 -12   0  -5   25.60    1.37
  12   0   5   25.53    1.43
  12   0   5   23.17    1.20
  12   0   5   25.03    1.32
 -12   0  -5   24.11    1.32
  12   0   5   23.94    1.22
  12   0   5   23.45    1.35
 -12   0  -5   24.59    1.30
 -12   0  -5   24.19    1.39
  14   0   5   15.51    1.14
 -14   0  -5   17.65    1.14
 -14   0  -5   16.26    1.31
  14   0   5   18.46    1.16
 -14   0  -5   18.21    1.22
  14   0   5   16.28    1.29
  14   0   5   17.15    0.99
 -14   0  -5   17.27    1.08
 -16   0  -5    3.32    0.56
  16   0   5    3.55    0.73
  16   0   5    3.42    0.62
 -16   0  -5    2.49    0.72
 -16   0  -5    3.55    0.83
 -16   0  -5    1.83    0.60
  16   0   5    2.23    0.44
  16   0   5    2.99    0.57
 -18   0  -5    9.74    1.35
  18   0   5   11.51    1.31
  18   0   5   12.21    1.16
 -18   0  -5   13.04    1.24
 -20   0  -5    1.34    0.77
  20   0   5    1.11    0.83
 -25  -1   5    3.07    1.19
  25  -1  -5    3.37    0.74
  25  -1  -5    5.89    0.99
  25  -1  -5    2.70    0.73
  25   1  -5    4.61    0.95
  25   1  -5    2.49    0.65
  25   1  -5    2.52    0.71
  23  -1  -5   17.46    1.29
 -23  -1   5   15.03    1.66
  23  -1  -5   11.37    1.11
  23  -1  -5   15.27    1.19
  23  -1  -5   15.54    1.28
  23   1  -5   12.19    1.05
  23   1  -5   15.30    1.13
  23   1  -5   15.44    1.26
  21  -1  -5    2.87    0.52
  21  -1  -5    2.07    0.39
  21  -1  -5    2.07    0.55
  21  -1  -5    1.74    0.56
 -21  -1   5    1.67    0.87
  21  -1  -5    2.77    0.64
  21   1  -5    1.62    0.61
  21   1  -5    3.05    0.62
  21   1  -5    1.83    0.48
  21   1  -5    2.49    0.46
  21   1  -5    2.12    0.59
  19  -1  -5   39.34    1.84
  19  -1  -5   36.72    1.71
  19  -1  -5   38.82    1.57
  19  -1  -5   38.46    1.60
  19  -1  -5   39.63    1.81
 -19  -1   5   36.82    3.11
  19  -1  -5   38.99    1.89
  19  -1  -5   40.82    1.57
  19   1  -5   40.18    2.21
  19   1  -5   40.02    1.75
  19   1  -5   40.75    1.90
  19   1  -5   39.06    1.77
  19   1  -5   38.73    1.60
  19   1  -5   39.48    1.68
 -17  -1   5    5.03    0.92
  17  -1  -5    3.96    0.55
  17  -1  -5    4.05    0.60
  17  -1  -5    3.81    0.67
  17  -1  -5    3.67    0.57
  17  -1  -5    3.49    0.49
  17  -1  -5    5.10    0.63
  17  -1  -5    3.37    0.44
  17   1  -5    3.49    0.52
  17   1  -5    4.20    0.59
  17   1  -5    4.70    0.60
  17   1  -5    4.56    0.58
  17   1  -5    4.24    0.63
  17   1  -5    3.04    0.58
  17   1  -5    3.82    0.51
  15  -1  -5   48.66    1.89
  15  -1  -5   51.12    2.01
 -15  -1   5   51.27    2.54
  15  -1  -5   51.56    2.16
  15  -1  -5   49.48    2.05
  15  -1  -5   51.27    2.18
  15  -1  -5   49.45    2.00
  15  -1  -5   49.29    2.07
  15  -1  -5   47.28    2.39
  15   1  -5   43.16    2.14
  15   1  -5   49.88    2.08
  15   1  -5   51.20    1.98
  15   1  -5   49.19    2.02
  15   1  -5   51.31    2.04
  15   1  -5   51.89    2.03
  15   1  -5   49.93    2.08
  15   1  -5   47.02    2.08
 -13  -1   5   12.38    1.08
  13  -1  -5   12.68    0.79
 -13  -1   5   11.81    0.97
  13  -1  -5   12.71    0.90
  13  -1  -5   13.57    0.77
  13  -1  -5   12.88    0.83
  13  -1  -5   13.60    0.85
  13  -1  -5   13.09    0.68
  13  -1  -5   12.91    0.92
 -13   1   5   14.30    1.02
  13   1  -5   13.58    0.83
  13   1  -5   13.12    0.78
  13   1  -5   12.78    0.81
  13   1  -5   14.27    0.88
  13   1  -5   13.90    0.91
  13   1  -5   14.43    0.87
  13   1  -5   13.93    0.75
  13   1  -5   12.67    0.83
  11  -1  -5   98.54    3.65
 -11  -1   5   96.48    3.68
  11  -1  -5   96.12    3.68
  11  -1  -5   93.75    3.42
  11  -1  -5   93.57    3.44
  11  -1  -5   94.37    3.68
  11  -1  -5   97.25    3.61
  11  -1  -5   94.86    3.38
  11  -1  -5   96.33    3.58
 -11  -1   5   94.35    3.78
 -11  -1   5   97.48    3.59
  11   1  -5   98.94    3.61
  11   1  -5   98.29    3.62
  11   1  -5   95.21    3.57
  11   1  -5   95.51    3.47
  11   1  -5   92.84    3.61
  11   1  -5   97.40    3.60
  11   1  -5   95.70    3.39
  11   1  -5   94.35    3.47
 -11   1   5   95.16    3.69
   9  -1  -5   10.15    0.77
  -9  -1   5    9.65    0.73
  -9  -1   5    9.99    0.84
   9  -1  -5   10.12    0.56
  -9  -1   5   10.28    0.43
   9  -1  -5    9.22    0.79
   9  -1  -5   10.32    0.75
   9  -1  -5   10.56    0.74
   9  -1  -5    9.12    0.72
  -9  -1   5   10.18    0.81
  -9   1   5   11.80    0.83
  -9   1   5    9.88    0.43
   9   1  -5   11.51    0.74
  -9   1   5    9.68    0.80
   9   1  -5   10.12    0.72
   9   1  -5   10.56    0.75
   9   1  -5   10.40    0.73
   9   1  -5    9.80    0.59
   9   1  -5   10.58    0.53
  -9   1   5    9.50    0.46
   9   1  -5    9.10    0.61
  -7  -1   5   87.76    3.00
   7  -1  -5   89.38    3.08
   7  -1  -5   86.09    3.31
   7  -1  -5   82.58    3.05
   7  -1  -5   84.49    3.32
  -7  -1   5   83.78    3.33
   7  -1  -5   86.83    3.30
  -7  -1   5   86.93    3.09
  -7  -1   5   87.63    3.26
  -7  -1   5   88.25    2.97
  -7  -1   5   86.15    3.40
  -7  -1   5   89.06    3.16
   7  -1  -5   89.92    3.33
  -7   1   5   85.93    3.00
   7   1  -5   87.64    3.15
   7   1  -5   91.04    3.32
  -7   1   5   87.73    3.03
   7   1  -5   85.49    3.25
  -7   1   5   88.98    3.11
   7   1  -5   85.54    3.30
  -7   1   5   88.93    3.35
   7   1  -5   87.32    3.00
   7   1  -5   88.09    3.28
   7   1  -5   84.89    3.07
  -7   1   5   84.34    3.32
  -5  -1   5   86.07    3.40
  -5  -1   5   91.82    3.13
   5  -1  -5   87.47    3.39
   5  -1  -5   91.35    3.03
   5  -1  -5   90.19    3.38
   5  -1  -5   88.23    3.39
   5  -1  -5   95.38    3.43
  -5  -1   5   88.51    3.14
  -5  -1   5   92.97    3.24
  -5  -1   5   88.03    3.33
   5  -1  -5   89.58    3.16
   5  -1  -5   88.38    3.16
  -5  -1   5   90.31    3.10
   5  -1  -5   87.23    3.08
   5  -1  -5   88.47    3.08
  -5   1   5   88.73    3.16
  -5   1   5   90.54    3.42
  -5   1   5   90.71    3.19
   5   1  -5   91.59    3.23
   5   1  -5   87.83    3.12
  -5   1   5   87.94    3.39
  -5   1   5   89.36    3.13
   5   1  -5   89.74    3.08
   5   1  -5   91.40    3.36
   5   1  -5   88.21    3.08
   5   1  -5   87.43    3.06
   5   1  -5   90.27    3.40
   5   1  -5   87.21    3.31
  -3  -1   5   26.70    1.12
  -3  -1   5   25.95    1.06
   3  -1  -5   27.06    1.10
   3  -1  -5   30.66    1.32
   3  -1  -5   26.35    1.32
   3  -1  -5   27.34    1.12
   3  -1  -5   26.81    1.09
  -3  -1   5   26.30    1.28
   3  -1  -5   27.68    1.09
  -3  -1   5   27.94    1.17
  -3  -1   5   27.92    1.09
  -3  -1   5   28.04    1.34
  -3   1   5   27.07    1.11
   3   1  -5   26.97    1.30
   3   1  -5   26.31    1.31
  -3   1   5   26.32    1.14
   3   1  -5   28.36    1.05
  -3   1   5   27.25    1.35
  -3   1   5   27.73    1.32
   3   1  -5   28.06    1.10
   3   1  -5   26.86    1.00
   3   1  -5   26.65    1.16
   3   1  -5   26.17    1.33
   3   1  -5   26.98    1.08
   3   1  -5   27.17    1.27
  -3   1   5   27.30    1.14
   1  -1  -5  118.31    4.20
  -1  -1   5  121.76    4.24
  -1  -1   5  119.67    4.40
  -1  -1   5  119.54    4.13
   1  -1  -5  116.97    4.17
   1  -1  -5  121.78    4.37
  -1  -1   5  118.40    4.41
  -1  -1   5  124.28    4.25
   1  -1  -5  119.61    4.41
  -1  -1   5  117.40    4.18
   1  -1  -5  116.06    4.18
   1  -1  -5  120.69    4.22
   1   1  -5  120.65    4.07
   1   1  -5  121.89    4.22
  -1   1   5  118.08    4.37
   1   1  -5  122.37    4.47
   1   1  -5  124.21    4.41
   1   1  -5  119.22    4.40
  -1   1   5  120.81    4.23
   1   1  -5  120.09    4.24
  -1   1   5  116.32    4.21
  -1   1   5  119.17    4.46
  -1   1   5  115.43    4.25
   1   1  -5  119.01    4.09
   1   1  -5  122.51    4.19
   1   1  -5  124.65    4.36
  -1  -1  -5   54.75    2.10
  -1  -1  -5   56.69    2.41
  -1  -1  -5   57.26    2.29
  -1  -1  -5   57.10    2.15
  -1  -1  -5   55.35    2.22
   1  -1   5   54.21    2.02
   1  -1   5   54.41    2.28
  -1  -1  -5   55.37    2.12
   1  -1   5   52.64    2.31
   1  -1   5   55.62    2.16
   1  -1   5   56.67    2.11
   1  -1   5   55.67    2.03
  -1  -1  -5   51.56    2.14
   1   1   5   56.88    2.39
  -1   1  -5   55.58    1.98
   1   1   5   55.69    2.24
  -1   1  -5   55.44    2.28
   1   1   5   54.23    2.17
   1   1   5   57.24    1.95
  -1   1  -5   54.00    2.20
   1   1   5   55.03    2.13
  -1   1  -5   57.85    2.28
   1   1   5   57.06    2.13
  -1   1  -5   56.33    2.13
   1   1   5   54.32    2.11
  -1   1  -5   57.96    2.12
  -1   1  -5   58.33    2.15
  -1   1  -5   56.52    2.36
  -3  -1  -5  122.33    4.37
   3  -1   5  125.39    4.27
  -3  -1  -5  121.30    4.42
   3  -1   5  122.40    4.36
  -3  -1  -5  120.76    4.49
   3  -1   5  124.82    4.36
  -3  -1  -5  123.95    4.66
  -3  -1  -5  122.15    4.33
  -3  -1  -5  119.01    4.43
   3  -1   5  120.55    4.31
   3  -1   5  123.79    4.51
  -3  -1  -5  121.67    4.31
   3   1   5  120.92    4.37
  -3   1  -5  122.69    4.49
   3   1   5  126.21    4.37
  -3   1  -5  124.85    4.62
  -3   1  -5  120.86    4.34
   3   1   5  121.11    4.44
  -3   1  -5  124.93    4.47
   3   1   5  128.35    4.37
  -3   1  -5  120.90    4.23
   3   1   5  118.86    4.18
  -3   1  -5  120.87    4.49
  -3   1  -5  119.27    4.37
   5  -1   5    8.57    0.70
   5  -1   5    9.13    0.62
  -5  -1  -5    9.08    0.60
  -5  -1  -5    9.47    0.84
  -5  -1  -5    8.99    0.75
   5  -1   5    8.69    0.74
   5  -1   5    8.89    0.56
  -5  -1  -5    8.80    0.70
  -5  -1  -5    8.52    0.63
   5  -1   5    9.05    0.66
  -5  -1  -5    8.56    0.64
   5  -1   5    9.12    0.65
   5   1   5   10.16    0.68
  -5   1  -5    9.20    0.65
  -5   1  -5   10.02    0.71
   5   1   5    9.46    0.52
  -5   1  -5    7.92    0.76
  -5   1  -5    9.87    0.83
   5   1   5    9.50    0.70
   5   1   5    9.05    0.69
  -5   1  -5    9.13    0.54
   5   1   5    9.19    0.70
   5   1   5    8.23    0.63
  -5   1  -5   10.16    0.78
   7  -1   5  101.71    3.83
  -7  -1  -5  103.04    3.85
   7  -1   5  100.07    3.63
  -7  -1  -5  103.57    3.83
  -7  -1  -5  102.72    3.78
   7  -1   5  104.01    3.74
  -7  -1  -5  100.39    3.71
   7  -1   5  103.24    3.75
  -7  -1  -5  100.08    4.02
  -7  -1  -5  103.16    3.72
   7  -1   5  102.57    3.84
   7  -1   5   99.67    3.86
   7   1   5  101.45    3.84
   7   1   5  103.24    3.76
  -7   1  -5  107.58    3.83
  -7   1  -5  101.67    3.65
  -7   1  -5   95.14    4.11
   7   1   5   96.91    3.81
   7   1   5  102.50    3.75
  -7   1  -5  101.82    3.73
   7   1   5  103.64    3.80
  -7   1  -5  105.35    3.77
   7   1   5   99.80    3.61
  -7   1  -5  103.30    4.02
  -9  -1  -5    5.85    0.85
   9  -1   5    4.91    0.73
   9  -1   5    4.77    0.63
   9  -1   5    5.09    0.96
  -9  -1  -5    4.82    0.68
   9  -1   5    3.96    0.61
   9  -1   5    5.40    0.51
  -9  -1  -5    4.08    0.53
   9  -1   5    4.85    0.66
   9  -1   5    5.82    0.61
  -9  -1  -5    4.84    0.59
  -9  -1  -5    5.30    0.68
  -9  -1  -5    5.35    0.70
   9   1   5    4.94    0.51
   9   1   5    3.58    0.62
   9   1   5    5.37    0.68
  -9   1  -5    4.29    0.63
   9   1   5    4.76    0.55
  -9   1  -5    4.45    0.78
   9   1   5    3.14    0.51
  -9   1  -5    4.55    0.49
   9   1   5    4.41    0.64
  -9   1  -5    3.47    0.52
  -9   1  -5    4.67    0.67
  -9   1  -5    5.76    0.66
 -11  -1  -5   35.93    1.73
 -11  -1  -5   34.20    1.58
  11  -1   5   32.71    1.68
  11  -1   5   34.57    1.52
  11  -1   5   36.37    1.65
 -11  -1  -5   37.27    1.71
  11  -1   5   35.03    2.13
 -11  -1  -5   35.69    1.65
 -11  -1  -5   33.91    1.61
  11  -1   5   34.72    1.62
  11  -1   5   33.71    1.68
 -11   1  -5   37.27    1.73
  11   1   5   34.40    1.74
  11   1   5   34.41    1.51
 -11   1  -5   35.19    1.53
  11   1   5   34.78    1.63
  11   1   5   34.21    1.70
  11   1   5   34.81    1.52
 -11   1  -5   33.56    1.61
 -11   1  -5   37.27    1.68
 -11   1  -5   34.61    1.64
 -13  -1  -5   11.10    0.92
  13  -1   5   13.06    0.96
  13  -1   5   11.65    0.88
  13  -1   5   11.17    1.41
 -13  -1  -5   12.23    1.03
 -13  -1  -5    9.95    0.93
  13  -1   5   10.36    0.96
  13  -1   5   10.95    1.09
 -13  -1  -5   11.88    1.06
 -13   1  -5   11.00    1.05
  13   1   5   10.16    0.84
  13   1   5   10.31    1.07
 -13   1  -5   10.68    0.92
 -13   1  -5   10.51    1.00
 -13   1  -5   11.08    0.90
  13   1   5   10.65    0.93
  13   1   5   11.64    0.96
  13   1   5   11.32    0.74
 -15  -1  -5   10.36    1.13
 -15  -1  -5   10.85    1.10
  15  -1   5   12.45    1.18
 -15  -1  -5   10.10    0.90
  15  -1   5   12.18    1.00
  15  -1   5   12.27    1.47
 -15  -1  -5   11.25    1.02
  15  -1   5   10.34    0.94
 -15   1  -5   11.32    1.14
  15   1   5   12.30    1.01
  15   1   5   10.55    0.70
  15   1   5   11.42    1.15
 -15   1  -5   10.74    1.10
 -15   1  -5   10.46    0.97
 -15   1  -5   11.90    0.94
  15   1   5    9.70    0.95
  17  -1   5    2.85    0.49
  17  -1   5    2.05    0.77
  17  -1   5    1.36    0.50
  17  -1   5    1.54    0.63
 -17  -1  -5    1.65    0.61
  17  -1   5    2.84    1.01
 -17  -1  -5    2.07    0.73
 -17  -1  -5    1.87    0.54
  17   1   5    1.92    0.58
 -17   1  -5    2.55    0.65
 -17   1  -5    2.42    0.70
  17   1   5    1.42    0.55
  17   1   5    2.39    0.74
 -17   1  -5    1.74    0.53
 -19  -1  -5    4.06    0.82
  19  -1   5    5.40    0.96
  19  -1   5    6.00    1.25
 -19   1  -5    3.65    0.80
  19   1   5    4.53    0.95
  21  -1   5    1.73    1.65
 -21   1  -5    3.59    1.19
  24  -2  -5    5.25    0.83
  24  -2  -5    5.85    0.87
  24  -2  -5    5.04    0.85
 -24  -2   5    6.51    1.39
  24   2  -5    4.99    0.75
  24   2  -5    3.34    0.72
  24   2  -5    4.67    0.86
 -22  -2   5    8.55    1.55
  22  -2  -5    7.25    1.06
  22  -2  -5    8.97    0.98
  22  -2  -5    9.32    1.00
  22   2  -5    7.09    1.04
  22   2  -5    7.53    1.04
  22   2  -5    6.83    0.95
  20  -2  -5    6.70    0.53
  20  -2  -5    6.85    0.54
  20  -2  -5    7.86    0.69
  20  -2  -5    6.40    0.91
 -20  -2   5    6.99    1.25
  20  -2  -5    9.30    0.95
  20  -2  -5    7.09    0.88
  20   2  -5    8.17    0.86
  20   2  -5    8.81    0.97
  20   2  -5    7.06    0.59
  20   2  -5    7.17    0.70
  20   2  -5    6.84    0.59
  20   2  -5    6.02    0.78
 -18  -2   5   18.10    1.62
  18  -2  -5   20.71    1.21
  18  -2  -5   20.47    0.88
  18  -2  -5   19.61    1.26
  18  -2  -5   19.55    0.98
  18  -2  -5   19.76    0.88
  18  -2  -5   19.04    1.05
  18  -2  -5   18.04    1.14
  18   2  -5   18.11    0.91
  18   2  -5   19.04    1.01
  18   2  -5   18.83    1.05
  18   2  -5   19.93    1.19
  18   2  -5   18.96    1.23
 -18   2   5   19.09    0.83
  18   2  -5   21.62    1.11
  18   2  -5   18.36    0.94
  16  -2  -5   26.96    1.67
  16  -2  -5   27.76    1.50
  16  -2  -5   27.61    1.24
  16  -2  -5   25.40    1.07
 -16  -2   5   25.53    1.44
  16  -2  -5   25.21    1.30
  16  -2  -5   26.87    1.29
  16  -2  -5   26.22    1.34
 -16  -2   5   24.43    1.03
 -16  -2   5   25.68    1.73
  16   2  -5   26.77    1.28
  16   2  -5   25.88    1.16
 -16   2   5   23.05    1.04
  16   2  -5   26.77    1.27
 -16   2   5   26.13    1.01
  16   2  -5   23.83    1.38
  16   2  -5   24.73    1.31
  16   2  -5   28.20    1.38
  16   2  -5   27.10    1.28
  14  -2  -5    5.55    0.57
  14  -2  -5    5.66    0.77
  14  -2  -5    5.27    0.39
  14  -2  -5    6.17    0.57
  14  -2  -5    5.55    0.80
 -14  -2   5    4.93    0.91
  14  -2  -5    5.50    0.58
  14  -2  -5    6.09    0.68
 -14  -2   5    5.36    0.73
  14  -2  -5    4.58    0.59
  14   2  -5    5.44    0.52
  14   2  -5    4.40    0.62
  14   2  -5    5.31    0.58
  14   2  -5    5.40    0.61
 -14   2   5    4.72    0.39
  14   2  -5    5.33    0.53
 -14   2   5    5.46    0.34
  14   2  -5    4.63    0.60
  14   2  -5    4.92    0.59
  14   2  -5    5.18    0.64
 -14   2   5    4.82    0.80
  12  -2  -5   87.78    3.53
  12  -2  -5   85.65    3.38
  12  -2  -5   85.19    3.26
  12  -2  -5   85.28    3.16
 -12  -2   5   85.06    3.56
 -12  -2   5   85.37    3.37
  12  -2  -5   86.34    3.17
  12  -2  -5   82.07    3.40
  12  -2  -5   87.03    3.30
  12  -2  -5   89.21    3.04
  12   2  -5   88.81    3.11
  12   2  -5   86.34    3.41
 -12   2   5   80.98    3.01
  12   2  -5   88.21    3.23
 -12   2   5   90.81    3.46
 -12   2   5   86.28    2.98
  12   2  -5   88.03    3.28
  12   2  -5   88.07    3.24
  12   2  -5   88.17    3.20
 -12   2   5   87.11    2.95
 -12   2   5   83.18    2.98
  12   2  -5   88.47    3.31
  12   2  -5   88.13    3.33
 -10  -2   5    1.68    0.47
  10  -2  -5    2.02    0.43
 -10  -2   5    1.71    0.36
  10  -2  -5    1.86    0.30
  10  -2  -5    2.40    0.44
  10  -2  -5    1.92    0.40
  10  -2  -5    1.73    0.50
  10  -2  -5    2.13    0.42
 -10  -2   5    1.84    0.64
 -10   2   5    2.05    0.24
 -10   2   5    1.40    0.19
  10   2  -5    2.02    0.35
 -10   2   5    1.30    0.62
  10   2  -5    1.24    0.33
  10   2  -5    1.23    0.34
  10   2  -5    1.71    0.39
 -10   2   5    1.96    0.29
  10   2  -5    1.62    0.33
  10   2  -5    1.50    0.35
  10   2  -5    2.00    0.28
   8  -2  -5   87.95    3.38
   8  -2  -5   89.65    3.43
  -8  -2   5   90.12    3.08
   8  -2  -5   91.17    3.46
   8  -2  -5   90.90    3.12
  -8  -2   5   90.22    3.45
   8  -2  -5   84.76    3.48
  -8  -2   5   85.63    3.52
  -8  -2   5   88.38    3.23
  -8  -2   5   90.56    3.06
   8  -2  -5   90.39    3.40
  -8  -2   5   90.86    3.29
   8  -2  -5   87.94    3.11
   8   2  -5   89.21    3.34
  -8   2   5   90.22    3.43
   8   2  -5   90.28    3.27
  -8   2   5   89.04    3.46
   8   2  -5   88.40    3.20
   8   2  -5   89.19    3.08
  -8   2   5   89.55    3.15
   8   2  -5   87.46    3.30
   8   2  -5   87.88    3.38
  -8   2   5   91.61    3.16
  -8   2   5   90.46    3.38
  -8   2   5   87.97    3.11
   6  -2  -5   18.55    0.85
   6  -2  -5   17.31    0.70
  -6  -2   5   16.86    0.90
   6  -2  -5   16.40    0.85
  -6  -2   5   18.08    0.76
   6  -2  -5   18.47    1.01
   6  -2  -5   17.43    0.71
  -6  -2   5   15.89    1.03
  -6  -2   5   17.70    0.88
   6  -2  -5   17.28    0.63
  -6  -2   5   17.43    0.72
   6  -2  -5   17.50    1.01
   6   2  -5   17.22    0.80
  -6   2   5   17.29    0.99
   6   2  -5   17.79    0.70
   6   2  -5   17.48    0.66
   6   2  -5   17.82    0.70
  -6   2   5   17.13    1.04
  -6   2   5   19.04    1.03
  -6   2   5   16.39    0.77
  -6   2   5   17.27    0.87
   6   2  -5   17.20    0.69
   6   2  -5   17.20    0.89
  -6   2   5   17.52    0.81
   6   2  -5   17.91    0.98
   6   2  -5   17.80    0.94
   6   2  -5   16.94    0.88
   6   2  -5   17.09    0.95
  -4  -2   5  160.18    5.61
   4  -2  -5  157.98    5.58
  -4  -2   5  166.34    5.60
   4  -2  -5  157.91    5.56
   4  -2  -5  159.89    5.83
  -4  -2   5  161.07    5.90
   4  -2  -5  162.03    5.86
   4  -2  -5  165.27    5.64
  -4  -2   5  166.71    5.56
  -4  -2   5  158.79    5.72
   4  -2  -5  166.37    5.84
   4  -2  -5  160.07    5.58
  -4  -2   5  157.54    5.87
  -4  -2   5  169.28    5.69
   4   2  -5  165.80    5.69
  -4   2   5  172.18    5.88
   4   2  -5  164.64    5.83
   4   2  -5  159.14    5.58
   4   2  -5  162.76    5.56
   4   2  -5  163.43    5.58
  -4   2   5  159.90    5.81
  -4   2   5  159.57    5.65
   4   2  -5  163.92    5.78
   4   2  -5  169.98    5.84
  -4   2   5  165.59    5.61
  -4   2   5  162.85    5.61
  -4   2   5  163.39    5.89
   2  -2  -5    1.77    0.28
   2  -2  -5    1.34    0.35
  -2  -2   5    1.46    0.41
  -2  -2   5    2.09    0.40
   2  -2  -5    1.37    0.33
  -2  -2   5    1.85    0.28
  -2  -2   5    1.20    0.25
  -2  -2   5    2.14    0.33
  -2  -2   5    1.33    0.23
   2  -2  -5    1.43    0.26
   2  -2  -5    1.43    0.25
  -2   2   5    1.38    0.40
   2   2  -5    1.39    0.25
  -2   2   5    1.41    0.26
  -2   2   5    1.09    0.24
   2   2  -5    1.42    0.29
   2   2  -5    2.29    0.44
   2   2  -5    1.50    0.25
  -2   2   5    1.10    0.33
   2   2  -5    0.85    0.27
   2   2  -5    1.56    0.38
   2   2  -5    1.23    0.23
  -2   2   5    1.37    0.29
  -2   2   5    1.12    0.36
   0  -2   5  183.15    6.12
   0  -2  -5  176.24    6.27
   0  -2   5  185.08    6.17
   0  -2   5  176.05    6.36
   0  -2  -5  176.91    6.16
   0  -2   5  168.69    5.95
   0  -2   5  180.59    6.09
   0  -2  -5  176.71    6.13
   0  -2  -5  172.59    6.12
   0  -2  -5  175.33    6.32
   0  -2  -5  175.66    6.10
   0  -2   5  172.30    6.28
   0  -2   5  182.54    6.16
   0   2  -5  174.84    6.23
   0   2  -5  174.76    6.16
   0   2  -5  174.17    6.04
   0   2  -5  180.74    6.12
   0   2   5  174.94    6.20
   0   2   5  176.53    6.26
   0   2  -5  180.69    6.29
   0   2   5  176.05    6.41
   0   2   5  182.38    6.14
   0   2   5  176.96    6.35
   0   2   5  177.67    6.16
   0   2  -5  183.18    6.38
   0   2  -5  173.42    5.93
   0   2  -5  179.11    6.15
   0   2   5  178.04    6.16
  -2  -2  -5   14.42    0.78
   2  -2   5   16.38    0.82
  -2  -2  -5   16.77    0.83
  -2  -2  -5   11.61    1.06
   2  -2   5   15.00    0.79
   2  -2   5   16.24    0.77
  -2  -2  -5   15.10    0.88
  -2  -2  -5   15.29    1.07
   2  -2   5   15.21    0.72
  -2  -2  -5   16.52    1.00
   2  -2   5   14.65    0.98
   2   2   5   15.91    0.66
   2   2   5   15.78    0.90
   2   2   5   16.05    1.07
   2   2   5   15.69    0.63
   2   2   5   15.66    0.84
  -2   2  -5   17.08    1.03
  -2   2  -5   15.21    0.92
  -2   2  -5   15.83    0.84
   2   2   5   14.71    0.95
  -2   2  -5   15.83    0.72
  -2   2  -5   16.21    0.65
   2   2   5   16.55    0.82
   2   2   5   16.21    0.88
  -4  -2  -5   56.37    2.45
   4  -2   5   52.14    2.30
  -4  -2  -5   53.58    2.17
   4  -2   5   56.60    2.07
  -4  -2  -5   52.85    2.20
  -4  -2  -5   54.18    2.11
   4  -2   5   54.48    2.13
  -4  -2  -5   54.15    2.22
  -4  -2  -5   54.30    2.27
   4  -2   5   54.66    2.14
   4  -2   5   54.07    2.07
   4  -2   5   54.99    2.58
  -4  -2  -5   52.77    2.13
   4  -2   5   54.58    2.20
  -4   2  -5   55.71    2.23
  -4   2  -5   54.97    2.20
   4   2   5   56.73    2.19
   4   2   5   55.03    2.30
   4   2   5   53.94    1.96
  -4   2  -5   55.27    2.16
   4   2   5   52.92    2.17
   4   2   5   56.26    2.16
   4   2   5   56.23    2.20
  -4   2  -5   54.20    2.27
   4   2   5   52.89    2.22
  -4   2  -5   57.86    2.39
  -4   2  -5   55.38    1.99
  -4   2  -5   56.53    2.16
  -6  -2  -5   51.52    2.16
   6  -2   5   51.14    2.03
   6  -2   5   51.70    1.97
   6  -2   5   51.21    2.12
  -6  -2  -5   47.57    2.00
  -6  -2  -5   51.02    2.03
   6  -2   5   51.78    2.54
  -6  -2  -5   49.08    2.02
   6  -2   5   51.02    2.02
  -6  -2  -5   51.81    2.14
   6  -2   5   49.57    2.21
  -6  -2  -5   50.12    2.09
  -6  -2  -5   49.42    2.31
   6   2   5   52.01    2.06
  -6   2  -5   50.87    1.91
  -6   2  -5   51.56    2.06
   6   2   5   50.89    2.17
   6   2   5   52.93    2.13
  -6   2  -5   51.70    2.11
  -6   2  -5   50.55    2.26
  -6   2  -5   50.66    2.15
   6   2   5   47.18    2.30
   6   2   5   48.57    2.13
   6   2   5   50.64    2.03
  -6   2  -5   54.33    2.13
  -6   2  -5   50.75    2.04
  -8  -2  -5   31.11    1.48
   8  -2   5   30.07    1.91
  -8  -2  -5   28.38    1.38
   8  -2   5   29.97    1.52
  -8  -2  -5   29.98    1.49
   8  -2   5   30.95    1.31
  -8  -2  -5   31.05    1.51
   8  -2   5   30.57    1.43
  -8  -2  -5   29.51    1.38
  -8  -2  -5   28.94    1.64
   8  -2   5   29.73    1.36
   8  -2   5   30.70    1.50
   8  -2   5   29.38    1.41
  -8   2  -5   30.25    1.28
  -8   2  -5   30.63    1.40
   8   2   5   30.32    1.52
  -8   2  -5   32.38    1.50
  -8   2  -5   31.38    1.44
   8   2   5   30.12    1.34
  -8   2  -5   29.79    1.48
   8   2   5   29.57    1.42
   8   2   5   27.91    1.55
  -8   2  -5   29.41    1.42
  10  -2   5    9.26    0.79
 -10  -2  -5   10.02    0.86
  10  -2   5    9.14    0.97
  10  -2   5   10.01    0.86
 -10  -2  -5   10.00    0.89
 -10  -2  -5   10.24    1.04
  10  -2   5   10.78    0.71
  10  -2   5    9.21    1.44
  10  -2   5    9.41    0.82
 -10  -2  -5    8.68    0.78
 -10  -2  -5    8.57    0.73
 -10  -2  -5   11.54    0.93
  10   2   5   10.38    0.94
 -10   2  -5   10.46    0.87
  10   2   5    8.43    0.82
 -10   2  -5   10.25    0.87
 -10   2  -5   10.39    0.67
  10   2   5    9.14    0.82
  10   2   5    9.28    0.66
 -10   2  -5    8.73    0.83
 -10   2  -5   10.32    0.83
 -10   2  -5    9.38    0.78
  12  -2   5   15.07    1.02
  12  -2   5   15.24    1.04
 -12  -2  -5   17.58    1.18
 -12  -2  -5   14.94    1.13
  12  -2   5   14.90    1.12
  12  -2   5   13.96    1.05
 -12  -2  -5   14.16    1.30
 -12  -2  -5   14.38    1.02
  12  -2   5   12.35    1.43
 -12   2  -5   15.32    1.05
 -12   2  -5   14.74    1.01
  12   2   5   15.52    0.82
 -12   2  -5   15.06    1.11
 -12   2  -5   14.96    0.88
 -12   2  -5   16.64    1.11
  12   2   5   15.30    1.21
  12   2   5   16.42    1.08
 -12   2  -5   15.62    0.99
  12   2   5   13.09    1.05
  14  -2   5   14.41    1.04
 -14  -2  -5   13.88    1.02
  14  -2   5   13.70    1.10
 -14  -2  -5   14.63    1.23
 -14  -2  -5   13.07    1.16
  14  -2   5   14.58    1.05
 -14  -2  -5   12.56    1.06
  14  -2   5   16.19    1.66
  14  -2   5   11.55    1.18
  14   2   5   15.31    1.05
 -14   2  -5   13.74    0.99
  14   2   5   13.87    0.74
  14   2   5   14.51    1.27
 -14   2  -5   13.69    1.11
 -14   2  -5   13.98    1.00
 -14   2  -5   14.04    1.18
  14   2   5   13.70    1.10
 -14   2  -5   14.24    1.06
  16  -2   5    1.94    0.56
  16  -2   5    2.39    0.95
 -16  -2  -5    0.79    0.52
  16  -2   5    2.05    0.62
  16  -2   5    1.11    0.68
 -16  -2  -5    1.00    0.82
 -16  -2  -5    0.46    0.81
 -16  -2  -5    1.87    0.65
  16  -2   5    0.90    0.49
 -16   2  -5    1.13    0.53
 -16   2  -5    0.44    0.74
  16   2   5    1.28    0.53
 -16   2  -5    1.66    0.62
 -16   2  -5    1.47    0.48
  16   2   5    1.00    0.70
  18  -2   5    8.28    1.08
 -18  -2  -5    8.26    1.54
  18  -2   5   11.20    1.34
  18  -2   5    7.48    0.91
 -18  -2  -5    5.53    0.82
  18  -2   5    9.77    1.63
  18   2   5    8.59    1.03
 -18   2  -5    8.53    1.10
 -18   2  -5    7.14    1.15
  18   2   5    8.59    1.04
  18   2   5    7.16    1.14
  20  -2   5    1.41    0.90
  20  -2   5    3.32    1.26
 -20   2  -5    2.45    0.83
  20   2   5    0.16    1.07
  20   2   5    1.75    0.86
 -25  -3   5    1.69    1.46
  25  -3  -5    3.37    0.83
  25  -3  -5    2.19    0.90
  25   3  -5    1.44    0.72
  25   3  -5    5.13    1.29
  25   3  -5    2.46    0.74
  23  -3  -5   13.86    1.31
  23  -3  -5   16.34    1.36
  23  -3  -5   18.74    1.33
 -23  -3   5   17.16    2.01
  23   3  -5   16.75    1.39
  23   3  -5   14.56    1.17
  23   3  -5   13.88    1.26
 -21  -3   5    5.32    0.60
  21  -3  -5    7.03    0.96
  21  -3  -5    5.72    0.78
 -21  -3   5    6.54    1.31
  21   3  -5    4.56    0.76
  21   3  -5    6.07    0.85
  21   3  -5    8.96    1.06
 -21   3   5    7.19    0.64
 -19  -3   5   43.41    2.48
  19  -3  -5   42.84    2.08
  19  -3  -5   44.01    1.94
  19  -3  -5   39.57    1.53
 -19  -3   5   39.61    1.87
  19  -3  -5   41.95    1.78
  19  -3  -5   39.87    1.68
  19   3  -5   40.95    1.75
  19   3  -5   45.35    2.03
 -19   3   5   39.77    1.55
  19   3  -5   42.63    1.86
  19   3  -5   40.10    1.65
  19   3  -5   43.10    2.01
  19   3  -5   41.25    1.74
  19   3  -5   39.15    1.59
 -19   3   5   40.49    1.75
 -17  -3   5    8.89    0.66
 -17  -3   5    9.80    1.31
  17  -3  -5    8.80    0.70
  17  -3  -5   10.47    0.74
 -17  -3   5    9.62    0.99
  17  -3  -5    9.96    0.50
  17  -3  -5   11.69    0.90
  17   3  -5    9.33    0.72
  17   3  -5    9.63    0.65
 -17   3   5   10.03    0.53
 -17   3   5    8.94    0.56
  17   3  -5    9.56    0.74
  17   3  -5    9.78    0.56
  17   3  -5   10.31    0.95
  17   3  -5   10.41    0.89
 -17   3   5    9.66    0.65
  17   3  -5    9.64    0.76
 -17   3   5   10.27    0.59
  15  -3  -5   57.81    2.03
  15  -3  -5   62.09    2.61
  15  -3  -5   56.53    2.29
  15  -3  -5   58.49    2.33
 -15  -3   5   54.87    2.93
 -15  -3   5   57.16    2.46
  15  -3  -5   61.12    2.34
 -15   3   5   61.18    2.61
 -15   3   5   58.89    2.04
  15   3  -5   58.87    2.41
 -15   3   5   52.45    2.13
 -15   3   5   50.99    2.08
 -15   3   5   56.02    2.08
  15   3  -5   58.72    2.38
  15   3  -5   59.11    2.23
  15   3  -5   53.80    2.16
  15   3  -5   58.41    2.30
  15   3  -5   56.55    2.41
  13  -3  -5   20.52    1.07
 -13  -3   5   20.05    1.46
  13  -3  -5   21.66    0.90
  13  -3  -5   19.94    1.22
  13  -3  -5   21.13    1.11
  13  -3  -5   21.94    1.35
  13  -3  -5   20.29    0.81
  13  -3  -5   23.41    1.55
  13  -3  -5   20.21    1.09
 -13  -3   5   19.52    1.21
  13   3  -5   19.38    1.08
  13   3  -5   21.27    1.07
  13   3  -5   19.30    0.94
 -13   3   5   18.16    0.91
 -13   3   5   21.08    1.32
  13   3  -5   19.87    1.14
 -13   3   5   19.99    0.82
 -13   3   5   19.59    0.88
  13   3  -5   21.13    0.96
  13   3  -5   20.80    1.15
 -13   3   5   21.02    1.09
  13   3  -5   19.94    1.13
 -11  -3   5  114.19    4.61
  11  -3  -5  118.49    4.32
 -11  -3   5  120.80    4.42
  11  -3  -5  119.24    4.01
 -11  -3   5  114.01    4.25
  11  -3  -5  114.41    4.44
  11  -3  -5  117.07    4.06
  11  -3  -5  116.77    4.43
  11  -3  -5  120.64    4.53
  11  -3  -5  120.88    4.34
  11   3  -5  118.42    4.24
 -11   3   5  119.33    4.03
  11   3  -5  116.12    4.29
  11   3  -5  117.20    4.08
 -11   3   5  112.39    4.07
 -11   3   5  109.87    4.10
  11   3  -5  116.31    4.34
  11   3  -5  118.01    4.17
 -11   3   5  119.48    4.47
  11   3  -5  119.04    4.28
  11   3  -5  115.96    4.27
 -11   3   5  121.43    4.33
   9  -3  -5   50.60    2.27
   9  -3  -5   49.41    2.09
   9  -3  -5   51.78    2.11
   9  -3  -5   49.75    2.17
  -9  -3   5   49.03    2.31
   9  -3  -5   50.66    1.77
  -9  -3   5   49.61    1.95
   9  -3  -5   49.15    2.17
   9  -3  -5   50.65    1.79
  -9  -3   5   48.40    1.84
  -9  -3   5   48.42    1.99
  -9  -3   5   50.42    2.18
   9   3  -5   51.78    1.80
   9   3  -5   52.20    2.04
   9   3  -5   47.54    1.97
   9   3  -5   48.27    1.95
  -9   3   5   50.02    2.09
  -9   3   5   48.19    1.89
   9   3  -5   49.37    2.09
  -9   3   5   49.32    2.19
   9   3  -5   52.20    1.99
  -9   3   5   49.69    1.86
   9   3  -5   49.47    2.03
  -7  -3   5  104.66    3.63
   7  -3  -5  101.43    3.95
   7  -3  -5  107.24    3.96
  -7  -3   5  100.25    3.94
   7  -3  -5  102.04    3.60
  -7  -3   5   97.37    4.03
  -7  -3   5  101.50    3.75
   7  -3  -5  106.41    3.51
  -7  -3   5  108.51    3.73
   7  -3  -5  104.36    4.06
   7  -3  -5  103.08    3.89
   7  -3  -5  109.91    3.95
   7  -3  -5   99.96    3.55
   7   3  -5  103.22    3.88
   7   3  -5  105.24    3.83
  -7   3   5  104.84    3.62
   7   3  -5  107.61    3.57
  -7   3   5  105.16    3.91
  -7   3   5  103.85    3.70
   7   3  -5  101.72    3.58
  -7   3   5  106.45    3.99
   7   3  -5  104.74    3.55
   7   3  -5  104.53    3.80
  -7   3   5   98.93    3.69
   7   3  -5  103.78    3.71
   7   3  -5  105.42    3.56
  -5  -3   5   75.87    2.87
  -5  -3   5   75.77    3.15
  -5  -3   5   74.27    2.88
  -5  -3   5   80.28    2.92
  -5  -3   5   77.10    2.87
   5  -3  -5   80.25    2.80
   5  -3  -5   79.77    2.90
   5  -3  -5   76.65    3.06
  -5  -3   5   76.83    3.11
   5  -3  -5   76.57    3.07
  -5  -3   5   79.73    2.81
   5  -3  -5   77.67    3.09
   5  -3  -5   79.86    2.77
   5   3  -5   81.63    2.79
  -5   3   5   78.34    3.12
  -5   3   5   80.50    3.09
   5   3  -5   79.36    2.94
   5   3  -5   79.28    3.03
   5   3  -5   78.22    2.85
  -5   3   5   79.33    2.80
   5   3  -5   78.78    2.98
  -5   3   5   79.12    2.89
   5   3  -5   79.39    2.98
   3  -3  -5   76.55    2.95
  -3  -3   5   76.74    2.76
   3  -3  -5   76.45    2.74
   3  -3  -5   74.66    2.77
  -3  -3   5   77.91    2.74
   3  -3  -5   76.12    2.68
  -3  -3   5   71.67    2.78
   3  -3  -5   72.94    2.97
  -3  -3   5   74.14    3.01
  -3  -3   5   79.34    2.80
  -3  -3   5   71.97    2.76
  -3  -3   5   74.69    3.00
   3  -3  -5   75.04    2.96
   3   3  -5   73.88    2.85
   3   3  -5   76.02    2.90
   3   3  -5   78.33    2.74
  -3   3   5   76.77    2.72
  -3   3   5   76.51    3.02
   3   3  -5   64.60    2.92
   3   3  -5   75.86    2.91
  -3   3   5   74.57    2.81
  -3   3   5   77.72    2.99
   3   3  -5   77.38    2.73
  -3   3   5   75.47    2.91
  -3   3   5   70.66    2.86
   3   3  -5   76.13    2.82
  -1  -3   5  206.92    6.82
   1  -3  -5  192.13    6.72
  -1  -3   5  201.15    6.79
  -1  -3   5  177.15    6.82
  -1  -3   5  198.68    6.77
   1  -3  -5  191.37    6.97
  -1  -3   5  193.05    6.85
   1  -3  -5  196.24    6.80
  -1  -3   5  195.91    7.05
   1  -3  -5  198.93    6.81
   1  -3  -5  191.24    6.92
   1  -3  -5  183.27    6.81
  -1   3   5  193.70    6.85
  -1   3   5  199.98    6.92
   1   3  -5  196.67    6.73
   1   3  -5  193.65    6.82
  -1   3   5  188.77    6.88
  -1   3   5  204.36    7.04
  -1   3   5  201.38    6.77
   1   3  -5  199.74    6.93
   1   3  -5  209.07    6.98
   1   3  -5  189.44    6.78
   1   3  -5  210.30    6.80
  -1   3   5  202.79    7.07
   1  -3   5   68.60    2.88
   1  -3   5   69.87    2.72
  -1  -3  -5   73.92    2.66
  -1  -3  -5   70.56    2.82
  -1  -3  -5   68.13    2.73
   1  -3   5   68.21    2.44
  -1  -3  -5   70.98    2.69
  -1  -3  -5   68.67    2.65
   1  -3   5   73.20    2.65
   1  -3   5   72.07    2.61
  -1  -3  -5   71.11    2.59
  -1   3  -5   70.36    2.74
   1   3   5   72.34    2.63
  -1   3  -5   71.04    2.57
   1   3   5   70.70    2.72
   1   3   5   69.26    2.68
   1   3   5   63.18    2.72
   1   3   5   73.26    2.93
   1   3   5   65.30    2.80
  -1   3  -5   72.72    2.67
   1   3   5   71.82    2.86
  -1   3  -5   72.36    2.83
  -1   3  -5   72.71    2.68
  -1   3  -5   72.60    2.62
   3  -3   5  117.72    4.24
  -3  -3  -5  111.99    4.24
  -3  -3  -5  112.79    4.14
  -3  -3  -5  117.42    4.27
   3  -3   5  111.51    4.65
   3  -3   5  115.60    4.18
  -3  -3  -5  117.37    4.22
   3  -3   5  112.82    4.06
  -3  -3  -5  117.05    4.35
   3  -3   5  112.83    4.42
  -3  -3  -5  113.16    4.23
   3  -3   5  122.10    4.16
   3   3   5  123.10    4.54
   3   3   5  114.73    4.28
   3   3   5  114.65    4.01
  -3   3  -5  114.86    4.10
   3   3   5  115.95    4.22
  -3   3  -5  116.75    4.22
  -3   3  -5  122.44    4.42
  -3   3  -5  123.03    4.25
   3   3   5  121.62    4.27
   3   3   5  119.38    4.42
   3   3   5  119.87    4.21
  -3   3  -5  116.69    4.28
  -3   3  -5  116.20    4.18
  -5  -3  -5   27.37    1.56
  -5  -3  -5   29.28    1.45
  -5  -3  -5   29.15    1.39
  -5  -3  -5   29.82    1.41
   5  -3   5   28.65    1.78
   5  -3   5   30.12    1.30
   5  -3   5   26.95    1.24
   5  -3   5   27.27    1.35
   5  -3   5   27.85    1.52
   5  -3   5   29.60    1.26
  -5  -3  -5   27.80    1.32
  -5  -3  -5   28.12    1.32
  -5  -3  -5   28.36    1.29
   5  -3   5   27.10    1.29
   5   3   5   26.98    1.38
   5   3   5   29.88    1.34
   5   3   5   29.03    1.40
   5   3   5   28.89    1.17
  -5   3  -5   29.41    1.49
  -5   3  -5   29.20    1.35
  -5   3  -5   30.00    1.38
  -5   3  -5   28.51    1.33
   5   3   5   28.26    1.29
  -5   3  -5   28.15    1.13
  -5   3  -5   28.59    1.38
   5   3   5   28.84    1.48
   5   3   5   28.80    1.40
  -7  -3  -5  108.15    3.98
   7  -3   5  102.98    4.11
  -7  -3  -5  105.82    3.96
   7  -3   5  107.11    3.84
  -7  -3  -5  104.27    3.88
   7  -3   5  102.57    3.87
   7  -3   5  103.71    3.98
  -7  -3  -5  100.49    3.84
   7  -3   5  104.82    4.48
  -7  -3  -5  107.37    4.11
   7  -3   5  106.94    3.92
  -7  -3  -5  110.63    4.03
  -7  -3  -5  104.06    4.21
   7  -3   5  101.19    3.86
   7   3   5  106.47    3.80
   7   3   5  106.79    4.06
  -7   3  -5  102.30    3.74
  -7   3  -5  110.56    3.93
   7   3   5  107.66    3.97
   7   3   5  112.09    4.03
  -7   3  -5  107.20    4.14
  -7   3  -5  111.69    3.99
   7   3   5  105.05    3.84
  -7   3  -5  106.29    3.93
   7   3   5  104.58    4.02
   7   3   5  112.29    3.97
  -7   3  -5  109.04    3.91
   9  -3   5   12.88    0.78
  -9  -3  -5   11.28    1.06
  -9  -3  -5   12.43    1.00
   9  -3   5   11.63    0.87
  -9  -3  -5   11.21    0.85
   9  -3   5   12.94    0.86
   9  -3   5   11.33    0.91
   9  -3   5   12.15    0.91
   9  -3   5   12.32    0.99
  -9  -3  -5   12.35    0.94
  -9  -3  -5   11.10    1.32
  -9  -3  -5   12.79    0.97
  -9   3  -5   12.15    0.71
   9   3   5   11.78    0.88
   9   3   5   12.64    0.97
   9   3   5   12.87    1.04
   9   3   5   12.38    0.92
  -9   3  -5   12.29    0.98
  -9   3  -5   13.01    0.97
  -9   3  -5   12.87    0.92
   9   3   5   12.40    0.82
   9   3   5   12.70    0.74
  -9   3  -5   13.25    0.87
  -9   3  -5   14.05    0.98
 -11  -3  -5   43.66    2.01
  11  -3   5   40.65    1.99
  11  -3   5   40.41    1.89
 -11  -3  -5   40.99    1.87
  11  -3   5   41.27    1.95
 -11  -3  -5   43.33    1.93
  11  -3   5   40.39    1.87
 -11  -3  -5   43.63    1.97
  11  -3   5   39.56    2.44
 -11   3  -5   44.75    1.97
  11   3   5   41.35    2.05
 -11   3  -5   42.92    1.93
 -11   3  -5   41.30    1.73
  11   3   5   43.49    1.85
  11   3   5   41.20    1.97
 -11   3  -5   42.75    1.84
  11   3   5   42.59    1.67
  11   3   5   42.25    1.92
 -11   3  -5   41.30    1.86
  11   3   5   42.14    1.90
 -11   3  -5   45.16    1.94
  13  -3   5   13.21    1.06
 -13  -3  -5   10.60    0.98
  13  -3   5   12.73    1.56
 -13  -3  -5    9.45    1.04
  13  -3   5   11.49    1.02
  13  -3   5   12.16    0.95
 -13  -3  -5   12.44    1.19
  13  -3   5   13.24    1.12
 -13  -3  -5   12.23    1.00
  13   3   5   13.93    0.95
  13   3   5   12.42    1.00
  13   3   5   11.26    1.04
  13   3   5   12.24    1.03
 -13   3  -5   12.44    0.92
 -13   3  -5   12.75    1.06
 -13   3  -5   11.24    0.96
  13   3   5   12.09    1.19
 -13   3  -5   12.60    1.12
 -13   3  -5   11.63    1.03
  15  -3   5   11.48    1.59
 -15  -3  -5   12.05    1.07
  15  -3   5   10.74    1.16
 -15  -3  -5   10.23    1.11
  15  -3   5   11.02    1.70
  15  -3   5    9.80    0.95
 -15  -3  -5   10.18    0.98
 -15  -3  -5    9.45    1.28
  15  -3   5    9.86    1.02
  15   3   5   11.13    1.08
  15   3   5   10.35    1.23
 -15   3  -5    8.51    0.91
 -15   3  -5   11.18    1.13
  15   3   5    7.51    0.96
 -15   3  -5    8.95    1.15
 -15   3  -5   10.30    1.02
  15   3   5   11.21    1.00
  17  -3   5    3.81    0.82
  17  -3   5    3.67    0.74
 -17  -3  -5    3.01    0.85
 -17  -3  -5    3.26    0.74
  17  -3   5    4.89    0.72
  17  -3   5    5.07    1.26
 -17  -3  -5    4.04    0.72
  17   3   5    3.66    0.69
 -17   3  -5    4.93    0.85
 -17   3  -5    3.05    0.69
  17   3   5    3.83    0.90
 -17   3  -5    3.60    0.79
  17   3   5    4.11    0.82
  19  -3   5    7.37    1.52
  19  -3   5    6.78    1.05
  19  -3   5    5.15    0.96
 -19   3  -5    5.04    0.83
  19   3   5    5.52    0.97
  19   3   5    4.64    1.08
  24  -4  -5    4.63    1.01
 -24  -4   5    7.09    1.78
  24  -4  -5    8.03    1.24
  24   4  -5    5.95    0.82
  24   4  -5    4.58    1.45
  24   4  -5    7.00    1.07
  22  -4  -5    8.42    1.10
 -22  -4   5    8.02    1.51
  22  -4  -5    7.17    1.10
  22   4  -5    6.47    0.92
  22   4  -5    8.03    0.92
  22   4  -5    8.50    1.04
  20  -4  -5    8.27    0.64
  20  -4  -5    9.29    0.98
 -20  -4   5    9.31    1.64
  20  -4  -5    9.42    1.12
  20   4  -5    6.83    1.00
  20   4  -5    9.01    0.89
 -20   4   5    7.65    0.77
  20   4  -5    8.83    0.74
  20   4  -5    6.93    1.02
  18  -4  -5   22.61    1.13
 -18  -4   5   21.00    1.33
  18  -4  -5   22.70    1.52
 -18  -4   5   21.78    1.87
  18  -4  -5   21.65    1.12
  18  -4  -5   22.42    1.31
  18   4  -5   23.07    1.20
 -18   4   5   21.50    1.07
  18   4  -5   22.27    1.10
  18   4  -5   19.49    1.28
  18   4  -5   22.51    1.06
  18   4  -5   19.30    1.36
  18   4  -5   22.11    1.36
 -18   4   5   22.62    1.11
 -18   4   5   22.64    0.97
  16  -4  -5   29.42    1.45
  16  -4  -5   28.80    1.35
  16  -4  -5   27.63    1.20
 -16  -4   5   28.19    1.54
 -16  -4   5   28.56    2.00
  16  -4  -5   31.19    1.71
  16  -4  -5   29.45    1.39
 -16   4   5   26.20    1.20
  16   4  -5   29.44    1.32
  16   4  -5   27.61    1.29
  16   4  -5   26.84    1.53
  16   4  -5   29.73    1.51
 -16   4   5   25.02    1.18
 -16   4   5   28.20    1.14
 -16   4   5   26.31    1.25
 -16   4   5   26.76    1.35
  16   4  -5   26.88    1.42
  16   4  -5   28.25    1.27
  14  -4  -5   14.22    0.89
  14  -4  -5   14.06    0.96
  14  -4  -5   14.17    1.17
  14  -4  -5   12.97    0.70
 -14  -4   5   12.54    1.38
 -14  -4   5   12.47    1.06
  14  -4  -5   14.60    0.92
 -14   4   5   13.13    0.91
  14   4  -5   14.36    0.84
 -14   4   5   13.35    0.80
  14   4  -5   13.52    0.82
  14   4  -5   14.28    0.89
  14   4  -5   13.49    1.03
 -14   4   5   14.65    1.19
 -14   4   5   13.69    0.75
 -14   4   5   14.10    0.68
 -14   4   5   12.79    0.72
  14   4  -5   13.88    0.97
  14   4  -5   14.43    0.66
  14   4  -5   14.64    0.78
  12  -4  -5   89.33    3.31
  12  -4  -5   88.15    3.32
  12  -4  -5   88.49    3.56
  12  -4  -5   86.49    3.04
 -12  -4   5   84.85    3.29
 -12  -4   5   88.51    3.74
 -12  -4   5   82.38    3.38
  12  -4  -5   79.23    3.49
  12   4  -5   84.64    3.22
 -12   4   5   78.07    3.08
  12   4  -5   89.12    3.08
 -12   4   5   88.55    3.51
  12   4  -5   89.46    3.27
  12   4  -5   85.81    3.06
  12   4  -5   86.23    3.05
 -12   4   5   91.01    3.26
  12   4  -5   85.61    3.23
  12   4  -5   86.99    3.50
 -12   4   5   76.06    3.15
 -12   4   5   87.51    3.04
 -12   4   5   87.92    3.32
  12   4  -5   88.09    3.34
 -10  -4   5    5.40    0.61
  10  -4  -5    4.57    0.63
  10  -4  -5    5.15    0.60
  10  -4  -5    4.53    0.64
  10  -4  -5    5.51    0.36
  10  -4  -5    4.27    0.38
  10  -4  -5    5.77    0.84
 -10  -4   5    4.49    0.83
 -10  -4   5    5.84    0.76
  10  -4  -5    5.83    0.67
  10   4  -5    5.60    0.33
  10   4  -5    5.18    0.39
  10   4  -5    5.12    0.64
 -10   4   5    5.19    0.79
  10   4  -5    5.94    0.45
 -10   4   5    5.61    0.47
  10   4  -5    5.91    0.56
  10   4  -5    5.47    0.59
  10   4  -5    5.83    0.63
  10   4  -5    6.15    0.32
  10   4  -5    5.47    0.51
 -10   4   5    4.93    0.53
 -10   4   5    5.90    0.64
 -10   4   5    5.29    0.43
   8  -4  -5   85.10    3.18
  -8  -4   5   80.58    2.89
   8  -4  -5   81.19    3.16
   8  -4  -5   83.53    2.79
  -8  -4   5   78.62    3.36
   8  -4  -5   77.10    3.32
  -8  -4   5   79.89    3.04
  -8  -4   5   79.06    2.91
  -8  -4   5   80.45    2.87
   8  -4  -5   76.11    3.20
   8  -4  -5   81.26    2.77
   8  -4  -5   74.14    3.17
  -8  -4   5   79.98    3.23
  -8   4   5   80.29    3.24
   8   4  -5   81.06    2.81
   8   4  -5   84.09    2.83
  -8   4   5   79.68    2.81
   8   4  -5   80.95    3.08
   8   4  -5   81.83    2.81
   8   4  -5   82.03    2.76
  -8   4   5   81.58    3.17
  -8   4   5   79.61    2.93
   8   4  -5   80.09    3.12
   8   4  -5   79.38    2.98
   8   4  -5   81.35    2.96
   8   4  -5   79.69    3.04
   8   4  -5   81.90    2.94
   8   4  -5   83.29    2.81
  -8   4   5   75.96    2.96
  -6  -4   5   54.19    2.37
   6  -4  -5   55.41    2.04
  -6  -4   5   52.66    2.00
   6  -4  -5   55.02    2.46
  -6  -4   5   52.81    2.43
   6  -4  -5   51.70    2.28
   6  -4  -5   54.40    2.33
   6  -4  -5   54.45    2.14
   6  -4  -5   55.96    1.88
  -6  -4   5   52.85    2.14
  -6  -4   5   54.60    2.05
   6  -4  -5   54.89    2.33
   6  -4  -5   56.20    2.01
  -6   4   5   53.17    2.13
   6   4  -5   57.10    2.02
   6   4  -5   53.66    2.19
   6   4  -5   55.40    2.25
   6   4  -5   49.67    2.23
  -6   4   5   57.02    2.34
  -6   4   5   54.23    2.35
  -6   4   5   53.13    1.97
  -6   4   5   55.46    2.10
   6   4  -5   55.18    1.99
   6   4  -5   55.77    1.97
   6   4  -5   52.33    2.10
   6   4  -5   55.51    1.99
   4  -4  -5  153.79    5.76
   4  -4  -5  167.35    5.62
  -4  -4   5  162.51    5.60
  -4  -4   5  154.26    5.85
   4  -4  -5  155.26    5.48
   4  -4  -5  159.59    5.81
  -4  -4   5  166.08    5.49
  -4  -4   5  155.76    5.84
  -4  -4   5  153.00    5.48
   4  -4  -5  160.01    5.78
   4  -4  -5  157.13    5.50
  -4  -4   5  159.60    5.58
   4  -4  -5  158.90    5.53
  -4  -4   5  158.51    5.52
  -4   4   5  162.80    5.83
   4   4  -5  161.71    5.51
   4   4  -5  163.59    5.64
  -4   4   5  161.01    5.82
   4   4  -5  158.96    5.63
   4   4  -5  161.81    5.71
   4   4  -5  164.02    5.48
  -4   4   5  142.27    5.81
  -4   4   5  161.77    5.57
   4   4  -5  155.15    5.54
   2  -4  -5    4.35    0.51
   2  -4  -5    5.03    0.41
  -2  -4   5    4.62    0.64
  -2  -4   5    3.61    0.48
  -2  -4   5    4.91    0.71
  -2  -4   5    4.41    0.41
   2  -4  -5    4.83    0.46
   2  -4  -5    5.49    0.59
  -2  -4   5    3.78    0.47
   2  -4  -5    4.49    0.63
  -2  -4   5    5.25    0.48
   2  -4  -5    4.24    0.50
   2   4  -5    4.65    0.53
  -2   4   5    3.79    0.65
  -2   4   5    3.33    0.49
   2   4  -5    4.73    0.42
   2   4  -5    3.57    0.52
  -2   4   5    4.83    0.43
  -2   4   5    4.31    0.59
   2   4  -5    5.05    0.49
  -2   4   5    4.35    0.48
   2   4  -5    4.45    0.53
   0  -4  -5  160.64    5.57
   0  -4   5  163.52    5.56
   0  -4   5  154.19    5.85
   0  -4   5  151.47    5.73
   0  -4  -5  156.29    5.93
   0  -4  -5  155.38    5.49
   0  -4   5  162.74    5.58
   0  -4  -5  160.87    5.61
   0  -4   5  156.96    5.99
   0  -4   5  161.09    5.52
   0  -4   5  161.69    5.58
   0  -4  -5  158.93    5.61
   0  -4   5  148.88    5.58
   0  -4  -5  158.41    5.70
   0   4   5  160.52    5.85
   0   4  -5  164.69    5.59
   0   4   5  158.39    5.61
   0   4   5  154.61    5.63
   0   4   5  160.79    5.84
   0   4  -5  161.72    5.53
   0   4  -5  155.88    5.65
   0   4   5  153.31    5.64
   0   4   5  164.37    5.55
   0   4  -5  159.55    5.53
   0   4  -5  161.66    5.72
   0   4  -5  157.09    5.67
  -2  -4  -5   38.99    1.63
   2  -4   5   37.59    1.55
   2  -4   5   37.12    1.60
   2  -4   5   33.75    1.82
  -2  -4  -5   39.30    1.66
  -2  -4  -5   35.87    1.64
  -2  -4  -5   37.81    1.82
   2  -4   5   35.33    1.40
   2  -4   5   38.92    1.57
   2  -4   5   38.19    1.56
   2  -4   5   35.54    2.00
  -2  -4  -5   36.99    1.53
  -2  -4  -5   38.28    1.61
  -2   4  -5   37.86    1.73
  -2   4  -5   38.05    1.56
   2   4   5   37.02    1.67
  -2   4  -5   37.37    1.53
   2   4   5   37.66    1.66
   2   4   5   38.33    1.63
   2   4   5   39.85    1.84
  -2   4  -5   39.38    1.63
  -2   4  -5   37.20    1.64
   2   4   5   36.40    1.84
  -2   4  -5   37.65    1.62
   2   4   5   31.40    1.43
   2   4   5   39.02    1.59
  -4  -4  -5   58.84    2.51
  -4  -4  -5   60.32    2.39
   4  -4   5   62.23    2.33
   4  -4   5   60.44    2.39
   4  -4   5   55.60    2.82
   4  -4   5   59.60    2.32
  -4  -4  -5   59.72    2.40
   4  -4   5   59.40    2.32
  -4  -4  -5   57.23    2.30
  -4  -4  -5   59.32    2.38
  -4  -4  -5   60.33    2.45
   4  -4   5   59.01    2.63
  -4   4  -5   58.57    2.28
   4   4   5   62.31    2.68
  -4   4  -5   61.31    2.41
   4   4   5   59.83    2.44
  -4   4  -5   60.36    2.37
  -4   4  -5   61.13    2.53
   4   4   5   63.41    2.60
   4   4   5   58.53    2.39
  -4   4  -5   60.97    2.34
   4   4   5   59.09    2.40
  -4   4  -5   60.33    2.39
   4   4   5   62.82    2.38
   4   4   5   59.21    2.45
  -6  -4  -5   54.45    2.33
   6  -4   5   53.29    2.44
   6  -4   5   52.16    2.12
  -6  -4  -5   52.62    2.14
   6  -4   5   53.57    2.22
  -6  -4  -5   52.64    2.20
  -6  -4  -5   54.33    2.28
   6  -4   5   49.47    2.07
  -6  -4  -5   52.03    2.13
  -6  -4  -5   53.97    2.48
   6  -4   5   55.65    2.13
  -6  -4  -5   54.46    2.23
   6  -4   5   54.90    2.16
   6  -4   5   53.20    2.75
  -6   4  -5   53.16    2.18
  -6   4  -5   54.06    2.36
  -6   4  -5   53.29    2.17
   6   4   5   51.16    2.21
   6   4   5   54.11    2.37
   6   4   5   52.46    2.21
  -6   4  -5   55.04    2.18
   6   4   5   51.75    2.27
  -6   4  -5   54.18    2.23
   6   4   5   56.29    2.28
   6   4   5   53.27    2.02
  -8  -4  -5   34.77    1.63
   8  -4   5   30.89    1.49
   8  -4   5   35.99    1.64
   8  -4   5   33.62    1.47
  -8  -4  -5   34.61    1.69
  -8  -4  -5   32.98    1.45
  -8  -4  -5   30.18    1.52
  -8  -4  -5   32.29    1.81
   8  -4   5   32.71    1.49
   8  -4   5   32.47    1.77
   8  -4   5   32.83    1.53
  -8  -4  -5   32.94    1.66
  -8  -4  -5   31.50    1.58
   8   4   5   33.72    1.66
  -8   4  -5   34.61    1.63
   8   4   5   35.61    1.71
   8   4   5   33.79    1.65
  -8   4  -5   32.26    1.55
   8   4   5   35.64    1.61
   8   4   5   33.90    1.45
  -8   4  -5   33.85    1.51
  -8   4  -5   32.93    1.54
  10  -4   5   11.29    1.08
  10  -4   5   11.20    1.44
  10  -4   5   11.70    0.89
  10  -4   5   11.46    0.95
  10  -4   5   12.70    0.96
 -10  -4  -5   10.57    0.96
 -10  -4  -5   11.93    1.07
 -10  -4  -5   11.66    0.91
 -10  -4  -5   13.01    1.01
  10   4   5   11.42    0.85
  10   4   5   12.20    0.94
 -10   4  -5   12.49    0.96
  10   4   5   10.83    0.95
 -10   4  -5    9.17    1.15
 -10   4  -5   11.66    1.00
  10   4   5   11.68    1.09
  10   4   5   10.81    0.95
 -10   4  -5   12.19    0.84
 -12  -4  -5   17.76    1.34
  12  -4   5   17.77    1.16
 -12  -4  -5   15.74    1.14
  12  -4   5   18.73    1.24
 -12  -4  -5   16.57    1.28
  12  -4   5   18.47    1.81
  12  -4   5   13.83    1.93
 -12  -4  -5   17.13    1.20
  12  -4   5   17.72    1.13
  12   4   5   15.23    1.13
  12   4   5   16.38    1.32
 -12   4  -5   16.41    1.13
  12   4   5   14.82    1.09
  12   4   5   17.37    1.15
 -12   4  -5   17.13    1.17
 -12   4  -5   16.73    1.24
 -12   4  -5   17.27    1.17
  12   4   5   17.21    1.10
 -12   4  -5   17.56    1.01
 -14  -4  -5   14.99    1.16
 -14  -4  -5   13.91    1.16
 -14  -4  -5   14.81    1.24
  14  -4   5   15.78    1.26
  14  -4   5   18.42    1.92
  14  -4   5   13.60    1.07
 -14  -4  -5   13.89    1.35
  14  -4   5   17.49    1.33
  14  -4   5   14.89    1.19
 -14   4  -5   14.54    1.32
 -14   4  -5   14.71    1.13
  14   4   5   14.25    1.11
 -14   4  -5   14.73    1.17
  14   4   5   14.97    1.17
  14   4   5   17.16    1.18
 -14   4  -5   13.93    1.18
  14   4   5   13.74    1.33
  16  -4   5    3.22    0.61
 -16  -4  -5    0.70    0.69
  16  -4   5    1.24    0.63
  16  -4   5    1.16    0.57
  16  -4   5    1.62    1.14
  16  -4   5    3.46    0.79
 -16  -4  -5    2.35    0.66
 -16   4  -5    2.06    0.58
 -16   4  -5    1.77    0.61
  16   4   5    2.14    0.68
 -16   4  -5    1.73    0.69
  16   4   5    3.23    0.69
  16   4   5    1.45    0.58
  16   4   5    2.17    0.84
  18  -4   5    6.09    1.02
  18  -4   5    6.10    1.48
 -18   4  -5    5.68    0.88
  18   4   5    7.20    1.12
  18   4   5    5.39    0.91
  20  -4   5    0.17    0.95
 -20   4  -5    2.17    0.81
  23  -5  -5    5.51    0.95
 -23  -5   5    7.47    1.69
  23  -5  -5    7.96    1.29
  23   5  -5    6.93    1.05
  23   5  -5    7.29    1.03
  23   5  -5    7.08    0.96
 -21  -5   5    2.38    1.22
  21  -5  -5    2.99    0.72
  21  -5  -5    4.01    0.84
  21   5  -5    2.36    0.75
 -21   5   5    2.55    0.56
  21   5  -5    3.65    0.83
  21   5  -5    3.11    0.59
 -19  -5   5   18.52    1.28
  19  -5  -5   21.05    1.52
  19  -5  -5   16.73    1.03
  19  -5  -5   20.95    1.32
 -19  -5   5   20.27    2.01
 -19   5   5   19.03    1.10
  19   5  -5   16.61    1.38
  19   5  -5   19.83    1.35
 -17  -5   5    3.16    1.12
  17  -5  -5    3.76    0.49
  17  -5  -5    4.34    0.68
 -17  -5   5    3.19    0.61
  17  -5  -5    3.30    0.58
  17  -5  -5    4.05    0.79
 -17  -5   5    2.30    0.62
  17  -5  -5    4.37    0.59
 -17   5   5    3.85    0.60
  17   5  -5    3.92    0.57
 -17   5   5    4.18    0.54
  17   5  -5    3.10    0.50
  17   5  -5    4.47    0.71
 -17   5   5    2.99    0.44
  17   5  -5    3.63    0.52
  17   5  -5    3.66    0.71
 -17   5   5    4.12    0.63
 -17   5   5    3.70    0.50
  15  -5  -5   21.68    1.25
  15  -5  -5   22.01    1.12
  15  -5  -5   20.72    0.95
  15  -5  -5   19.18    1.40
 -15  -5   5   17.31    1.07
  15  -5  -5   21.87    1.53
 -15  -5   5   18.33    1.29
 -15  -5   5   17.02    1.72
 -15   5   5   20.15    1.03
  15   5  -5   19.12    1.33
 -15   5   5   21.76    1.22
  15   5  -5   20.05    1.00
  15   5  -5   19.80    1.10
  15   5  -5   21.08    1.06
 -15   5   5   18.83    1.05
  15   5  -5   21.45    1.27
 -15   5   5   20.96    0.96
 -15   5   5   20.36    1.45
 -13  -5   5    7.51    1.22
  13  -5  -5    8.96    0.74
  13  -5  -5    8.33    1.04
  13  -5  -5    7.89    0.52
 -13  -5   5    6.80    0.91
 -13  -5   5    7.61    0.64
  13  -5  -5    8.23    0.82
 -13   5   5    7.66    0.66
 -13   5   5   10.11    1.02
 -13   5   5    6.99    0.57
  13   5  -5    7.94    0.97
 -13   5   5    7.74    0.56
 -13   5   5    6.95    0.64
  13   5  -5    8.75    0.65
  13   5  -5    7.79    0.56
  13   5  -5    7.98    0.42
 -13   5   5    8.90    0.79
  13   5  -5    8.93    0.68
  13   5  -5    8.05    0.79
  13   5  -5    8.07    0.42
 -11  -5   5   44.84    1.92
 -11  -5   5   38.26    2.52
  11  -5  -5   42.78    1.95
 -11  -5   5   38.92    1.66
 -11  -5   5   43.26    2.18
  11  -5  -5   43.94    1.91
  11  -5  -5   43.82    2.20
  11  -5  -5   42.95    1.62
  11   5  -5   43.99    1.60
 -11   5   5   39.67    1.72
 -11   5   5   43.09    1.96
  11   5  -5   45.59    1.60
  11   5  -5   42.62    1.78
  11   5  -5   45.54    1.86
  11   5  -5   43.29    1.96
 -11   5   5   43.20    1.77
 -11   5   5   41.58    2.27
  11   5  -5   43.78    1.58
  11   5  -5   44.89    1.60
  11   5  -5   45.47    1.88
 -11   5   5   41.30    1.79
  11   5  -5   45.58    1.72
 -11   5   5   44.44    1.70
   9  -5  -5   10.20    0.87
   9  -5  -5   11.01    0.53
  -9  -5   5   10.28    1.08
  -9  -5   5   10.41    0.79
  -9  -5   5    9.38    0.53
   9  -5  -5    9.05    0.89
  -9  -5   5   10.13    0.96
   9  -5  -5   10.45    1.07
   9  -5  -5   10.47    0.88
   9   5  -5   10.09    0.58
  -9   5   5   12.00    0.90
   9   5  -5   11.11    0.55
   9   5  -5   10.98    0.57
   9   5  -5   10.90    0.53
   9   5  -5   10.80    0.59
  -9   5   5   10.28    0.67
   9   5  -5   10.45    0.86
   9   5  -5   11.33    0.77
   9   5  -5    9.54    0.80
   9   5  -5   11.61    0.63
   9   5  -5   11.04    0.62
  -9   5   5   10.35    0.97
  -9   5   5   11.51    0.74
   7  -5  -5   33.97    1.52
  -7  -5   5   32.31    1.83
  -7  -5   5   33.30    1.44
   7  -5  -5   33.49    1.26
   7  -5  -5   34.64    1.85
  -7  -5   5   33.80    1.39
   7  -5  -5   33.81    1.67
  -7  -5   5   32.36    1.73
  -7  -5   5   33.29    1.52
   7  -5  -5   32.42    1.69
   7  -5  -5   35.59    1.26
   7  -5  -5   33.92    1.66
   7   5  -5   31.02    1.49
   7   5  -5   33.78    1.49
  -7   5   5   34.15    1.28
   7   5  -5   35.29    1.34
  -7   5   5   33.47    1.50
  -7   5   5   35.90    1.70
   7   5  -5   36.35    1.36
  -7   5   5   33.33    1.45
   7   5  -5   33.79    1.59
  -7   5   5   36.04    1.74
   7   5  -5   33.90    1.40
   7   5  -5   34.60    1.59
   7   5  -5   35.20    1.37
   5  -5  -5   25.58    1.04
   5  -5  -5   25.79    1.39
   5  -5  -5   28.07    1.18
   5  -5  -5   26.17    0.97
  -5  -5   5   26.76    1.25
   5  -5  -5   23.28    1.36
   5  -5  -5   26.71    1.25
  -5  -5   5   26.46    1.51
   5  -5  -5   26.34    1.13
   5  -5  -5   26.52    1.57
  -5  -5   5   25.64    1.17
  -5  -5   5   24.43    1.03
  -5  -5   5   26.24    1.12
   5  -5  -5   28.67    1.45
  -5  -5   5   23.17    1.47
  -5   5   5   26.29    1.26
  -5   5   5   27.31    1.44
   5   5  -5   25.02    1.20
   5   5  -5   27.53    1.12
   5   5  -5   25.28    1.29
  -5   5   5   25.55    1.20
   5   5  -5   26.87    1.16
  -5   5   5   25.68    1.07
   5   5  -5   25.88    1.08
  -5   5   5   25.65    1.43
   5   5  -5   27.72    1.13
   5   5  -5   25.94    1.18
   5   5  -5   24.38    1.27
   3  -5  -5   19.00    0.88
  -3  -5   5   20.69    0.93
  -3  -5   5   20.51    1.02
   3  -5  -5   19.43    1.18
   3  -5  -5   20.30    1.05
  -3  -5   5   20.51    1.04
   3  -5  -5   19.28    1.35
  -3  -5   5   20.75    1.32
   3  -5  -5   19.62    1.17
   3  -5  -5   20.04    1.02
  -3  -5   5   19.47    1.25
  -3  -5   5   19.09    0.88
   3  -5  -5   19.57    1.19
   3  -5  -5   19.36    0.98
  -3  -5   5   19.26    0.99
   3   5  -5   20.32    1.10
  -3   5   5   20.95    1.04
   3   5  -5   20.45    1.04
   3   5  -5   20.57    0.95
  -3   5   5   22.07    0.94
  -3   5   5   20.28    1.25
  -3   5   5   20.29    1.08
   3   5  -5   20.26    1.10
   3   5  -5   21.08    1.00
  -3   5   5   21.10    1.32
   3   5  -5   20.03    1.02
  -1  -5   5   67.19    2.49
   1  -5  -5   67.57    2.60
   1  -5  -5   68.18    2.62
   1  -5  -5   64.32    2.45
  -1  -5   5   65.72    2.56
   1  -5  -5   64.46    2.75
  -1  -5   5   65.04    2.88
  -1  -5   5   68.18    2.55
  -1  -5   5   67.01    2.95
  -1  -5   5   64.57    2.46
   1  -5  -5   65.60    2.55
  -1  -5   5   67.85    2.55
  -1  -5   5   64.50    2.76
   1  -5  -5   64.42    2.69
  -1   5   5   66.43    2.60
   1   5  -5   68.69    2.57
  -1   5   5   65.25    2.29
   1   5  -5   66.23    2.63
  -1   5   5   68.17    2.81
   1   5  -5   67.23    2.62
  -1   5   5   68.00    2.65
  -1   5   5   67.37    2.50
   1   5  -5   68.65    2.64
   1   5  -5   67.52    2.55
  -1   5   5   67.69    2.83
   1   5  -5   68.16    2.51
   1  -5   5   25.35    1.55
  -1  -5  -5   25.32    1.17
   1  -5   5   25.61    1.37
  -1  -5  -5   25.70    1.26
  -1  -5  -5   25.80    1.28
   1  -5   5   25.27    1.22
   1  -5   5   26.05    1.26
   1  -5   5   26.51    1.21
  -1  -5  -5   28.19    1.35
   1  -5   5   27.04    1.19
  -1  -5  -5   27.14    1.31
  -1  -5  -5   25.84    1.43
   1  -5   5   24.78    1.67
  -1   5  -5   26.38    1.30
   1   5   5   28.35    1.23
  -1   5  -5   25.55    1.21
  -1   5  -5   26.07    1.28
  -1   5  -5   26.92    1.24
  -1   5  -5   26.45    1.35
  -1   5  -5   27.05    1.27
   1   5   5   27.42    1.50
   1   5   5   28.30    1.52
   1   5   5   28.65    1.31
   1   5   5   27.41    1.35
   1   5   5   26.37    1.36
   3  -5   5   41.70    1.76
  -3  -5  -5   39.23    1.76
  -3  -5  -5   41.38    1.82
   3  -5   5   39.79    1.68
  -3  -5  -5   38.01    1.81
   3  -5   5   40.33    1.68
  -3  -5  -5   40.70    1.76
   3  -5   5   39.30    2.04
   3  -5   5   39.32    2.22
   3  -5   5   41.39    1.71
   3  -5   5   35.54    1.53
  -3  -5  -5   40.44    1.76
  -3  -5  -5   39.56    1.95
  -3   5  -5   41.60    1.76
   3   5   5   40.45    1.52
   3   5   5   43.54    2.02
  -3   5  -5   39.26    1.73
   3   5   5   42.77    1.99
   3   5   5   40.89    1.77
  -3   5  -5   41.31    1.85
   3   5   5   37.73    1.79
  -3   5  -5   40.65    1.71
   3   5   5   40.04    1.83
   3   5   5   43.11    1.75
  -3   5  -5   42.40    1.99
  -3   5  -5   38.10    1.86
  -5  -5  -5   10.46    0.80
  -5  -5  -5   10.34    0.86
   5  -5   5    9.43    1.26
  -5  -5  -5   10.94    1.00
   5  -5   5    9.48    0.70
  -5  -5  -5    9.94    0.74
   5  -5   5    9.67    0.73
  -5  -5  -5    9.41    0.74
   5  -5   5   10.11    0.72
   5  -5   5   11.02    1.08
   5  -5   5   10.34    0.81
   5  -5   5    9.60    0.69
  -5  -5  -5   10.61    0.85
  -5   5  -5   10.98    0.83
   5   5   5   10.64    1.06
   5   5   5    9.97    0.92
   5   5   5   10.70    0.81
  -5   5  -5    9.92    0.78
   5   5   5   10.84    0.92
  -5   5  -5   11.03    0.76
   5   5   5   10.93    0.87
  -5   5  -5   10.50    0.75
  -5   5  -5    9.62    0.86
   5   5   5   10.94    0.84
  -5   5  -5   11.06    0.83
   5   5   5    9.24    0.60
  -7  -5  -5   46.94    1.92
  -7  -5  -5   47.74    2.14
   7  -5   5   46.99    2.04
  -7  -5  -5   45.04    2.27
   7  -5   5   45.78    1.95
   7  -5   5   43.62    1.89
  -7  -5  -5   46.98    2.15
  -7  -5  -5   46.84    1.99
   7  -5   5   43.84    2.30
   7  -5   5   46.32    1.95
   7  -5   5   46.27    1.98
  -7  -5  -5   48.77    2.08
   7   5   5   48.02    2.12
  -7   5  -5   46.12    1.92
  -7   5  -5   45.29    1.98
   7   5   5   47.89    2.11
   7   5   5   48.54    2.06
  -7   5  -5   47.71    1.93
  -7   5  -5   45.84    2.04
  -7   5  -5   47.11    2.00
   7   5   5   46.32    1.83
   7   5   5   46.38    2.17
   9  -5   5    6.49    1.25
  -9  -5  -5    5.22    0.97
   9  -5   5    5.70    0.72
  -9  -5  -5    4.50    0.77
  -9  -5  -5    4.94    0.83
  -9  -5  -5    5.58    0.60
   9  -5   5    4.44    0.65
   9  -5   5    5.68    0.95
   9  -5   5    4.73    0.67
  -9  -5  -5    4.71    0.71
  -9  -5  -5    4.44    0.64
   9   5   5    4.60    0.63
   9   5   5    5.77    0.82
   9   5   5    4.72    0.72
  -9   5  -5    5.19    0.72
  -9   5  -5    4.63    0.59
  -9   5  -5    4.86    0.65
   9   5   5    5.14    0.81
   9   5   5    5.88    0.73
 -11  -5  -5   18.25    1.30
  11  -5   5   18.17    1.87
  11  -5   5   17.94    1.14
  11  -5   5   19.79    1.21
  11  -5   5   18.71    1.47
 -11  -5  -5   19.17    1.36
 -11  -5  -5   18.60    1.18
  11  -5   5   17.22    1.17
 -11  -5  -5   20.38    1.33
 -11   5  -5   17.50    1.24
  11   5   5   18.53    1.41
  11   5   5   17.85    1.37
 -11   5  -5   16.95    1.17
  11   5   5   19.28    1.22
  11   5   5   19.28    1.23
 -11   5  -5   17.91    1.14
  11   5   5   19.64    1.13
 -11   5  -5   19.37    1.23
 -11   5  -5   18.34    1.01
 -13  -5  -5    6.66    1.07
  13  -5   5    6.83    0.88
 -13  -5  -5    8.28    1.07
  13  -5   5   11.22    1.53
  13  -5   5    7.03    0.85
 -13  -5  -5    6.81    1.01
  13  -5   5    8.55    1.46
  13  -5   5    7.19    1.12
 -13   5  -5    6.72    0.85
 -13   5  -5    7.18    1.02
  13   5   5    7.93    0.91
 -13   5  -5    5.78    0.88
  13   5   5    6.83    0.92
  13   5   5    6.58    0.94
  13   5   5    5.67    0.90
 -13   5  -5    6.13    0.91
  15  -5   5    6.48    0.94
 -15  -5  -5    4.00    0.79
  15  -5   5    7.75    1.49
  15  -5   5    4.87    0.72
  15  -5   5    7.47    1.12
  15  -5   5    3.19    0.75
  15   5   5    4.67    0.73
  15   5   5    4.75    0.76
 -15   5  -5    6.06    0.81
 -15   5  -5    6.34    1.01
  15   5   5    4.57    0.96
 -15   5  -5    6.24    0.88
  15   5   5    6.52    0.86
  17  -5   5    1.28    1.27
  17  -5   5    3.14    0.75
  17  -5   5    1.96    0.78
  17   5   5    2.74    0.91
 -17   5  -5    1.53    0.62
  17   5   5    3.26    0.81
  19  -5   5    3.88    0.84
  19  -5   5    3.67    1.06
  19   5   5    3.45    0.89
 -19   5  -5    2.68    0.79
  22  -6  -5    8.88    1.38
  22  -6  -5    6.50    1.03
 -22  -6   5    6.87    1.82
  22   6  -5    6.83    1.04
  22   6  -5    7.00    0.79
  22   6  -5    5.72    1.08
 -20  -6   5    8.42    1.67
  20  -6  -5    7.91    1.15
  20  -6  -5    8.48    1.27
 -20   6   5    8.74    0.97
  20   6  -5    7.53    0.87
  20   6  -5    7.58    1.05
  20   6  -5    6.98    0.94
  18  -6  -5   17.31    1.10
  18  -6  -5   20.80    1.35
 -18  -6   5   16.91    1.35
 -18  -6   5   16.35    1.27
 -18  -6   5   15.76    2.01
  18  -6  -5   21.19    1.59
  18   6  -5   19.89    1.33
  18   6  -5   17.18    1.41
  18   6  -5   17.92    1.12
  18   6  -5   18.22    1.06
  16  -6  -5   24.50    1.10
  16  -6  -5   24.90    1.23
 -16  -6   5   23.45    2.11
 -16  -6   5   21.11    1.29
  16  -6  -5   26.55    1.46
  16  -6  -5   20.59    1.29
  16  -6  -5   25.43    1.71
 -16  -6   5   24.40    1.46
  16   6  -5   24.19    1.19
 -16   6   5   22.21    1.18
 -16   6   5   23.99    1.37
  16   6  -5   25.94    1.35
  16   6  -5   22.32    0.95
  16   6  -5   25.26    1.25
  16   6  -5   24.08    1.56
 -16   6   5   23.30    1.24
  16   6  -5   26.51    1.44
 -16   6   5   22.08    1.12
 -16   6   5   24.25    1.26
 -14  -6   5   11.25    1.55
 -14  -6   5   12.48    0.90
  14  -6  -5   14.80    0.92
  14  -6  -5   13.72    1.32
  14  -6  -5   14.25    0.73
  14  -6  -5   13.43    1.00
 -14  -6   5   13.88    1.15
 -14   6   5   13.15    0.80
 -14   6   5   12.55    0.90
  14   6  -5   14.31    1.03
  14   6  -5   13.75    0.78
 -14   6   5   14.66    1.30
  14   6  -5   13.59    0.67
  14   6  -5   13.01    0.87
  14   6  -5   13.36    0.61
 -14   6   5   14.46    1.06
  14   6  -5   14.25    0.83
 -14   6   5   13.10    0.89
  14   6  -5   13.81    1.15
  14   6  -5   14.00    0.65
 -12  -6   5   47.26    2.04
  12  -6  -5   53.65    1.97
  12  -6  -5   53.19    2.34
 -12  -6   5   48.41    2.77
  12  -6  -5   55.87    2.63
 -12  -6   5   54.65    2.42
  12  -6  -5   54.94    2.26
 -12   6   5   55.72    2.51
 -12   6   5   53.51    2.15
  12   6  -5   52.21    2.20
 -12   6   5   49.91    2.32
 -12   6   5   53.19    2.05
  12   6  -5   52.67    1.96
  12   6  -5   55.12    2.27
 -12   6   5   49.98    2.17
  12   6  -5   54.62    1.95
  12   6  -5   54.22    1.97
  12   6  -5   49.95    2.15
  12   6  -5   53.52    2.37
 -12   6   5   49.23    2.14
  12   6  -5   54.04    1.95
  12   6  -5   52.50    1.98
  10  -6  -5   18.71    1.23
  10  -6  -5   20.03    0.83
  10  -6  -5   16.62    1.37
 -10  -6   5   20.87    1.36
 -10  -6   5   18.22    1.18
 -10  -6   5   16.94    0.87
 -10  -6   5   17.15    1.50
  10   6  -5   18.69    0.87
  10   6  -5   19.84    1.10
  10   6  -5   17.80    0.83
  10   6  -5   19.89    0.85
  10   6  -5   18.63    0.75
 -10   6   5   17.57    1.04
  10   6  -5   18.33    1.05
 -10   6   5   17.36    1.02
  10   6  -5   16.31    1.17
 -10   6   5   17.19    1.42
 -10   6   5   17.85    0.94
  10   6  -5   19.45    0.90
 -10   6   5   18.69    1.22
  10   6  -5   19.75    0.88
  10   6  -5   19.04    0.82
  -8  -6   5   66.55    2.92
  -8  -6   5   66.47    3.09
   8  -6  -5   67.06    2.38
   8  -6  -5   65.82    2.80
   8  -6  -5   67.45    3.04
  -8  -6   5   63.47    2.65
  -8  -6   5   59.94    2.35
   8  -6  -5   67.97    2.65
  -8   6   5   70.05    2.89
   8   6  -5   67.97    2.52
   8   6  -5   68.43    2.40
   8   6  -5   68.59    2.45
  -8   6   5   68.78    2.86
   8   6  -5   66.55    2.47
   8   6  -5   67.34    2.47
   8   6  -5   65.87    2.62
  -8   6   5   64.83    2.62
   8   6  -5   68.84    2.67
   8   6  -5   67.09    2.74
   8   6  -5   64.55    2.41
  -6  -6   5   37.25    1.54
   6  -6  -5   37.56    1.82
  -6  -6   5   36.12    1.92
  -6  -6   5   37.63    1.67
   6  -6  -5   31.56    1.79
  -6  -6   5   35.24    1.97
   6  -6  -5   33.57    1.78
   6  -6  -5   37.56    1.37
   6  -6  -5   35.55    1.99
   6  -6  -5   37.10    1.65
  -6  -6   5   35.78    1.58
  -6   6   5   37.96    1.87
   6   6  -5   36.57    1.50
  -6   6   5   35.50    1.59
  -6   6   5   37.94    1.85
   6   6  -5   34.08    1.66
   6   6  -5   38.47    1.69
  -6   6   5   36.36    1.65
  -6   6   5   37.11    1.39
   6   6  -5   35.93    1.50
   6   6  -5   36.82    1.72
   6   6  -5   37.55    1.50
   6   6  -5   36.48    1.61
   6   6  -5   38.90    1.55
   6   6  -5   35.87    1.45
   4  -6  -5   89.26    3.26
   4  -6  -5   95.74    3.51
  -4  -6   5   93.10    3.49
   4  -6  -5   95.43    3.44
   4  -6  -5   88.82    3.66
  -4  -6   5   92.31    3.80
  -4  -6   5   95.96    3.44
   4  -6  -5   91.13    3.67
   4  -6  -5   92.52    3.21
   4  -6  -5   88.35    3.38
  -4  -6   5   93.69    3.37
  -4  -6   5   92.84    3.80
   4  -6  -5   92.46    3.68
   4  -6  -5   92.94    3.87
  -4   6   5   87.11    3.35
   4   6  -5   92.22    3.53
  -4   6   5   91.09    3.51
   4   6  -5   95.89    3.46
   4   6  -5   98.52    3.44
   4   6  -5   92.82    3.37
   4   6  -5   91.99    3.53
   4   6  -5   91.98    3.33
  -4   6   5   95.08    3.70
  -4   6   5   93.04    3.77
   4   6  -5   91.29    3.39
   4   6  -5   93.49    3.37
  -4   6   5   91.84    3.46
  -2  -6   5   23.04    1.40
   2  -6  -5   22.20    0.92
  -2  -6   5   23.30    1.08
  -2  -6   5   23.30    1.19
   2  -6  -5   23.20    1.56
  -2  -6   5   23.61    1.54
   2  -6  -5   23.30    1.04
  -2  -6   5   23.44    1.15
   2  -6  -5   23.96    1.22
   2  -6  -5   23.00    1.15
   2  -6  -5   22.34    1.17
   2  -6  -5   22.56    1.38
  -2  -6   5   21.71    1.47
  -2  -6   5   23.38    0.92
   2  -6  -5   23.46    1.32
  -2   6   5   23.21    1.23
   2   6  -5   24.34    1.17
   2   6  -5   22.70    1.17
  -2   6   5   24.53    1.20
  -2   6   5   23.77    1.07
   2   6  -5   21.73    1.14
   2   6  -5   23.16    1.20
   2   6  -5   23.11    1.10
  -2   6   5   23.06    1.39
  -2   6   5   23.75    1.43
  -2   6   5   22.37    0.93
   2   6  -5   24.56    1.26
   0  -6   5  112.61    4.09
   0  -6  -5  109.87    4.21
   0  -6   5  111.07    4.05
   0  -6  -5  112.60    4.14
   0  -6   5  109.95    4.29
   0  -6   5  104.35    3.91
   0  -6  -5  106.75    4.29
   0  -6   5  104.59    4.52
   0  -6  -5  114.08    4.14
   0  -6  -5  107.35    3.97
   0  -6   5  114.18    4.09
   0  -6   5  110.27    4.00
   0  -6  -5  114.77    4.10
   0  -6   5  111.52    4.49
   0   6   5  112.04    4.03
   0   6   5  116.58    4.36
   0   6  -5  108.61    4.11
   0   6  -5  110.96    4.13
   0   6   5  108.83    3.84
   0   6  -5  114.65    4.08
   0   6   5  111.69    4.42
   0   6  -5  116.79    4.14
   0   6  -5  110.76    4.12
   0   6   5  116.30    4.13
   0   6   5  109.58    4.16
   0   6  -5  114.50    4.05
  -2  -6  -5   27.10    1.29
   2  -6   5   28.80    1.36
   2  -6   5   28.08    1.32
   2  -6   5   28.03    1.48
  -2  -6  -5   30.31    1.45
  -2  -6  -5   28.87    1.41
   2  -6   5   26.61    1.15
   2  -6   5   28.27    1.31
  -2  -6  -5   28.36    1.44
   2  -6   5   28.65    1.78
  -2  -6  -5   29.89    1.62
   2  -6   5   27.15    1.88
  -2  -6  -5   30.18    1.48
  -2   6  -5   29.59    1.38
   2   6   5   30.12    1.65
   2   6   5   29.08    1.24
  -2   6  -5   29.11    1.42
  -2   6  -5   29.26    1.42
   2   6   5   29.26    1.50
   2   6   5   31.61    1.39
   2   6   5   27.98    1.65
  -2   6  -5   28.28    1.42
  -2   6  -5   28.35    1.37
   2   6   5   30.22    1.43
  -2   6  -5   28.41    1.34
   2   6   5   29.06    1.64
   4  -6   5   43.98    1.90
  -4  -6  -5   48.12    2.20
   4  -6   5   40.17    1.98
   4  -6   5   43.85    1.78
  -4  -6  -5   45.84    1.98
   4  -6   5   47.83    3.12
  -4  -6  -5   47.02    1.94
  -4  -6  -5   49.18    2.05
   4  -6   5   45.28    2.61
   4  -6   5   47.45    1.96
  -4  -6  -5   45.52    2.07
   4  -6   5   46.23    1.92
   4   6   5   47.73    2.70
  -4   6  -5   45.16    1.94
  -4   6  -5   45.04    1.93
   4   6   5   46.51    1.77
  -4   6  -5   46.64    1.95
   4   6   5   47.80    2.08
   4   6   5   48.02    2.02
  -4   6  -5   47.47    2.00
  -4   6  -5   43.35    2.04
   4   6   5   47.87    2.03
   4   6   5   48.49    2.11
  -4   6  -5   45.36    2.01
   4   6   5   51.52    2.29
  -6  -6  -5   43.67    2.16
   6  -6   5   43.23    2.41
   6  -6   5   45.26    1.93
  -6  -6  -5   46.89    2.12
  -6  -6  -5   45.31    1.95
  -6  -6  -5   44.72    1.92
   6  -6   5   43.39    1.83
   6  -6   5   47.53    2.02
  -6  -6  -5   46.05    2.05
  -6   6  -5   47.12    2.08
  -6   6  -5   45.33    1.98
  -6   6  -5   45.14    2.20
  -6   6  -5   42.62    1.88
   6   6   5   46.67    2.11
   6   6   5   48.88    2.62
  -6   6  -5   45.15    1.97
  -6   6  -5   47.05    2.00
   6   6   5   43.47    1.77
   6   6   5   46.44    2.09
   6   6   5   47.43    2.04
   8  -6   5   27.01    1.85
   8  -6   5   25.82    1.36
  -8  -6  -5   25.66    1.40
  -8  -6  -5   28.49    1.54
   8  -6   5   25.60    1.32
   8  -6   5   27.09    1.45
   8  -6   5   24.54    2.11
  -8  -6  -5   26.64    1.30
  -8  -6  -5   29.86    1.61
   8   6   5   28.43    1.60
  -8   6  -5   27.39    1.52
   8   6   5   30.45    1.49
   8   6   5   26.81    1.48
   8   6   5   25.80    1.25
  -8   6  -5   26.67    1.47
  -8   6  -5   28.30    1.43
  -8   6  -5   26.75    1.49
 -10  -6  -5   11.55    1.18
 -10  -6  -5   13.69    0.84
 -10  -6  -5   11.85    1.19
  10  -6   5   11.62    0.97
  10  -6   5   14.61    1.84
  10  -6   5   14.12    1.02
 -10  -6  -5   13.61    1.16
  10  -6   5   12.91    0.99
  10  -6   5   13.20    1.41
 -10   6  -5   12.59    1.08
  10   6   5   12.98    1.06
 -10   6  -5   13.17    1.06
  10   6   5   12.41    0.92
 -10   6  -5   11.93    1.03
  10   6   5   12.95    1.05
  10   6   5   14.41    1.23
 -10   6  -5   12.40    0.83
  12  -6   5   17.45    1.53
 -12  -6  -5   17.37    1.74
  12  -6   5   16.41    1.98
 -12  -6  -5   18.31    1.34
  12  -6   5   14.69    1.14
 -12  -6  -5   14.79    1.31
  12  -6   5   14.81    1.21
  12  -6   5   14.43    1.08
 -12   6  -5   17.27    1.77
 -12   6  -5   13.91    1.15
  12   6   5   16.00    1.40
  12   6   5   14.00    1.15
  12   6   5   15.40    1.10
 -12   6  -5   17.77    1.26
  12   6   5   14.18    1.16
  14  -6   5    8.27    0.97
  14  -6   5   12.44    1.46
 -14  -6  -5    8.96    1.18
  14  -6   5   10.93    1.93
 -14  -6  -5    9.39    1.30
  14  -6   5   11.04    1.18
  14   6   5    7.96    1.11
  14   6   5    8.11    1.27
 -14   6  -5    8.24    1.08
  14   6   5    8.59    1.03
 -14   6  -5   10.18    1.22
  14   6   5    8.60    1.02
  16  -6   5    3.14    1.54
 -16  -6  -5    2.25    1.44
  16  -6   5    4.23    0.93
 -16  -6  -5    2.93    0.86
  16  -6   5    4.38    0.93
  16   6   5    2.57    0.76
 -16   6  -5    3.31    0.93
 -16   6  -5    3.01    0.72
  16   6   5    1.71    0.83
 -16   6  -5    2.62    0.99
  18  -6   5    7.22    1.09
  18  -6   5    6.04    1.10
 -18   6  -5    6.87    0.95
  18   6   5    5.98    0.96
 -21  -7   5    5.37    1.80
  21  -7  -5    3.33    0.99
  21  -7  -5    5.21    1.54
  21   7  -5    3.32    0.95
  21   7  -5    4.08    0.75
  21   7  -5    4.06    0.90
  19  -7  -5   16.53    1.15
  19  -7  -5   19.12    1.66
 -19  -7   5   18.67    2.46
  19  -7  -5   18.07    1.66
  19   7  -5   20.48    1.62
  19   7  -5   17.65    1.09
  19   7  -5   17.04    1.37
  17  -7  -5    8.77    1.26
  17  -7  -5    8.75    1.11
 -17  -7   5   10.52    1.92
 -17  -7   5    8.40    1.11
  17  -7  -5    8.16    0.93
  17   7  -5    9.16    1.01
  17   7  -5    8.69    1.21
  17   7  -5    9.36    0.74
 -17   7   5    8.80    0.91
 -15  -7   5   21.68    2.20
  15  -7  -5   24.01    1.76
 -15  -7   5   20.69    1.29
 -15  -7   5   24.33    1.50
  15  -7  -5   19.61    1.34
  15  -7  -5   23.37    1.20
  15  -7  -5   22.18    1.03
 -15   7   5   22.94    1.31
  15   7  -5   21.58    1.35
  15   7  -5   24.26    1.60
  15   7  -5   21.81    0.99
  15   7  -5   22.91    0.98
  15   7  -5   21.83    1.03
  15   7  -5   20.98    1.08
 -15   7   5   23.92    1.65
 -13  -7   5   22.35    2.02
  13  -7  -5   25.62    1.73
 -13  -7   5   21.90    1.20
  13  -7  -5   23.79    1.26
 -13  -7   5   23.09    1.51
  13  -7  -5   22.92    1.02
  13  -7  -5   20.04    1.35
 -13   7   5   22.64    1.14
  13   7  -5   22.64    1.04
  13   7  -5   23.99    1.35
  13   7  -5   22.55    1.02
 -13   7   5   20.23    1.24
  13   7  -5   22.33    1.06
  13   7  -5   22.75    1.12
  13   7  -5   23.40    1.06
  13   7  -5   25.05    1.51
 -13   7   5   23.13    1.56
 -13   7   5   21.34    1.25
  13   7  -5   23.72    1.01
  11  -7  -5   43.88    1.66
  11  -7  -5   39.99    2.03
 -11  -7   5   46.12    2.21
 -11  -7   5   39.99    2.55
 -11  -7   5   39.02    1.74
  11  -7  -5   44.01    2.33
  11   7  -5   43.57    1.95
  11   7  -5   43.42    1.70
 -11   7   5   42.59    1.90
  11   7  -5   42.44    2.08
  11   7  -5   44.22    1.68
  11   7  -5   43.72    1.74
  11   7  -5   43.82    1.58
  11   7  -5   43.18    1.64
 -11   7   5   46.43    2.20
 -11   7   5   40.55    1.88
  11   7  -5   43.67    1.76
 -11   7   5   41.01    1.79
   9  -7  -5   17.46    0.79
  -9  -7   5   14.42    0.83
  -9  -7   5   15.97    1.53
  -9  -7   5   17.81    1.37
   9  -7  -5   16.75    1.25
   9  -7  -5   17.69    1.43
   9   7  -5   16.20    0.71
  -9   7   5   15.20    0.99
   9   7  -5   17.22    0.84
  -9   7   5   18.69    1.29
   9   7  -5   17.11    1.22
   9   7  -5   18.90    0.96
  -9   7   5   17.48    1.08
   9   7  -5   16.38    0.87
   9   7  -5   17.72    0.92
  -9   7   5   14.98    1.30
   9   7  -5   17.04    1.08
   7  -7  -5   53.61    2.66
   7  -7  -5   54.36    2.00
   7  -7  -5   54.14    2.51
  -7  -7   5   57.19    2.61
  -7  -7   5   47.61    1.94
  -7  -7   5   48.17    2.78
   7   7  -5   53.67    2.06
   7   7  -5   54.22    2.09
   7   7  -5   57.60    2.12
  -7   7   5   54.11    1.90
   7   7  -5   54.23    2.24
   7   7  -5   54.47    2.34
   7   7  -5   51.28    1.99
   7   7  -5   55.34    2.16
  -7   7   5   52.06    2.24
  -5  -7   5   58.06    2.77
   5  -7  -5   60.22    2.15
   5  -7  -5   54.82    2.85
  -5  -7   5   62.04    2.80
   5  -7  -5   56.16    2.29
  -5  -7   5   58.92    2.38
  -5  -7   5   57.58    2.46
  -5   7   5   59.82    2.16
  -5   7   5   59.58    2.44
   5   7  -5   58.66    2.24
   5   7  -5   65.03    3.00
   5   7  -5   56.98    2.27
   5   7  -5   58.08    2.24
   5   7  -5   58.69    2.29
   5   7  -5   56.15    2.88
   5   7  -5   55.36    2.37
  -5   7   5   58.22    2.38
   5   7  -5   60.56    2.35
  -5   7   5   59.21    2.61
  -3  -7   5   31.64    1.41
  -3  -7   5   31.61    1.79
  -3  -7   5   30.66    1.78
   3  -7  -5   34.08    1.93
  -3  -7   5   32.49    1.47
   3  -7  -5   30.75    1.25
   3  -7  -5   32.88    1.46
  -3  -7   5   30.04    1.52
   3  -7  -5   29.89    2.44
  -3  -7   5   32.99    1.94
   3  -7  -5   32.09    1.49
   3  -7  -5   28.78    1.64
   3   7  -5   31.86    1.66
   3   7  -5   31.87    1.43
   3   7  -5   32.24    1.41
   3   7  -5   31.68    1.40
  -3   7   5   31.82    1.50
   3   7  -5   31.79    1.51
  -3   7   5   32.26    1.34
  -3   7   5   30.54    1.27
   3   7  -5   29.35    1.49
   3   7  -5   32.64    1.36
   3   7  -5   32.93    1.48
  -3   7   5   30.40    1.51
  -3   7   5   31.63    1.72
  -1  -7   5   50.79    2.92
   1  -7  -5   55.15    2.28
   1  -7  -5   58.93    2.81
   1  -7  -5   52.61    1.99
  -1  -7   5   53.58    2.47
  -1  -7   5   52.45    1.90
   1  -7  -5   51.06    2.20
  -1  -7   5   50.19    2.21
  -1  -7   5   52.00    2.65
  -1  -7   5   54.13    2.14
  -1  -7   5   47.98    1.92
   1  -7  -5   52.40    2.35
  -1   7   5   57.19    2.14
   1   7  -5   53.22    2.19
  -1   7   5   55.32    2.25
  -1   7   5   58.42    2.48
   1   7  -5   50.38    2.20
   1   7  -5   55.34    2.17
   1   7  -5   55.46    2.24
   1   7  -5   54.98    2.31
  -1   7   5   53.29    1.99
   1   7  -5   58.05    2.25
   1  -7   5   47.94    2.66
   1  -7   5   47.17    1.88
  -1  -7  -5   53.62    2.22
  -1  -7  -5   49.65    2.12
   1  -7   5   45.93    1.82
   1  -7   5   48.70    1.83
   1  -7   5   50.38    2.03
  -1  -7  -5   54.45    2.57
   1  -7   5   49.61    2.30
   1  -7   5   49.81    2.60
  -1  -7  -5   48.57    2.19
  -1  -7  -5   47.72    2.39
   1   7   5   53.78    2.37
   1   7   5   47.25    1.87
  -1   7  -5   52.23    2.18
  -1   7  -5   50.74    2.11
   1   7   5   49.83    2.14
  -1   7  -5   47.31    2.06
  -1   7  -5   49.77    2.13
   1   7   5   52.25    2.09
  -1   7  -5   50.29    2.12
  -1   7  -5   51.17    2.07
   3  -7   5   55.10    3.13
   3  -7   5   47.09    1.98
   3  -7   5   46.13    2.71
  -3  -7  -5   47.80    2.12
   3  -7   5   44.72    1.83
  -3  -7  -5   52.61    2.15
  -3  -7  -5   52.83    2.20
  -3  -7  -5   48.85    2.32
   3  -7   5   47.78    2.15
   3   7   5   46.87    2.08
  -3   7  -5   46.11    2.11
  -3   7  -5   43.52    2.54
   3   7   5   49.45    2.11
   3   7   5   52.91    2.24
   3   7   5   47.97    1.85
  -3   7  -5   46.65    2.21
  -3   7  -5   44.48    1.99
  -3   7  -5   49.11    2.13
  -3   7  -5   48.16    2.04
  -5  -7  -5   21.31    1.45
   5  -7   5   20.02    1.11
   5  -7   5   22.13    1.23
  -5  -7  -5   21.32    1.19
  -5  -7  -5   22.78    1.38
   5  -7   5   16.82    2.03
  -5  -7  -5   21.11    1.28
   5  -7   5   20.65    1.77
   5  -7   5   19.04    1.02
  -5   7  -5   21.24    1.18
   5   7   5   20.23    1.01
   5   7   5   21.59    1.22
  -5   7  -5   18.60    1.07
   5   7   5   20.55    1.26
   5   7   5   21.54    1.45
  -5   7  -5   18.35    1.54
   5   7   5   20.39    1.32
  -5   7  -5   19.97    1.26
  -5   7  -5   19.46    1.18
   7  -7   5   38.98    1.77
  -7  -7  -5   44.14    2.07
  -7  -7  -5   41.20    1.82
  -7  -7  -5   44.68    2.02
   7  -7   5   37.26    2.68
   7  -7   5   40.44    1.91
   7  -7   5   42.03    1.84
   7  -7   5   44.60    3.05
  -7  -7  -5   40.80    2.11
   7   7   5   41.42    2.02
   7   7   5   42.47    1.98
  -7   7  -5   38.47    1.74
  -7   7  -5   41.99    1.91
   7   7   5   45.56    2.23
   7   7   5   45.72    1.97
  -7   7  -5   38.33    1.94
   7   7   5   39.49    1.70
  -7   7  -5   40.63    1.90
  -7   7  -5   40.88    1.87
  -9  -7  -5    9.63    1.15
   9  -7   5   11.55    1.74
   9  -7   5    8.73    0.86
  -9  -7  -5    9.61    1.13
  -9  -7  -5   11.22    0.85
  -9  -7  -5    9.86    1.11
   9  -7   5   10.96    0.95
   9  -7   5    8.89    0.95
   9   7   5    7.88    0.78
   9   7   5   11.43    1.15
   9   7   5   11.55    1.00
  -9   7  -5   11.55    1.02
   9   7   5   10.80    1.02
  -9   7  -5   10.68    0.76
   9   7   5   11.00    1.24
  -9   7  -5   10.88    1.08
  -9   7  -5   10.77    1.00
 -11  -7  -5   15.22    1.35
  11  -7   5   16.12    1.11
  11  -7   5   15.29    1.23
  11  -7   5   18.38    2.15
  11  -7   5   16.50    1.25
 -11  -7  -5   17.74    1.42
  11   7   5   16.97    1.21
  11   7   5   15.88    1.36
  11   7   5   15.62    1.09
 -11   7  -5   13.89    1.21
  11   7   5   14.91    1.25
 -11   7  -5   14.97    1.24
  13  -7   5   11.33    2.16
  13  -7   5   10.04    0.97
 -13  -7  -5   10.99    1.42
 -13  -7  -5   10.01    1.29
  13  -7   5   12.42    1.28
  13  -7   5   13.00    1.55
 -13   7  -5    9.67    1.13
  13   7   5   11.64    1.31
 -13   7  -5   11.45    1.26
  13   7   5   12.30    1.10
  13   7   5   10.00    1.06
  15  -7   5    6.87    1.15
 -15  -7  -5    7.20    1.09
 -15  -7  -5    8.42    1.20
  15  -7   5    9.79    1.49
  15  -7   5    7.90    1.88
 -15   7  -5    5.31    1.01
  15   7   5    4.24    0.93
 -15   7  -5    5.62    0.82
  15   7   5    6.23    0.99
  17  -7   5    1.03    1.04
  17  -7   5    2.27    0.93
  17   7   5    3.03    0.86
 -17   7  -5    2.73    0.80
  20   8  -5    3.54    0.76
 -18  -8   5    7.53    1.83
  18  -8  -5    9.71    1.35
  18  -8  -5    8.34    1.37
  18  -8  -5    8.71    1.41
  18   8  -5    7.56    0.84
  18   8  -5    7.73    1.00
  18   8  -5   10.27    1.46
  16  -8  -5    8.37    1.42
 -16  -8   5    8.61    1.72
 -16  -8   5    8.95    1.19
  16  -8  -5    7.20    0.97
  16   8  -5    7.95    0.70
  16   8  -5    5.72    0.62
  16   8  -5    8.91    1.00
  16   8  -5    9.24    1.15
  14  -8  -5    4.87    0.79
 -14  -8   5    5.35    0.91
 -14  -8   5    5.20    1.33
  14  -8  -5    4.90    1.05
  14  -8  -5    4.35    0.52
  14   8  -5    4.70    0.54
 -14   8   5    5.69    0.91
 -14   8   5    5.19    0.81
  14   8  -5    7.07    0.90
 -14   8   5    4.38    0.78
  14   8  -5    4.83    0.59
  14   8  -5    7.84    1.12
  12  -8  -5   16.50    1.28
 -12  -8   5   18.95    1.53
  12  -8  -5   19.35    1.15
 -12  -8   5   15.76    1.91
 -12  -8   5   17.24    1.08
  12  -8  -5   18.42    1.61
  12  -8  -5   19.28    0.88
 -12   8   5   18.74    1.39
 -12   8   5   17.97    1.18
  12   8  -5   17.83    0.89
  12   8  -5   18.12    0.87
 -12   8   5   13.53    1.13
  12   8  -5   14.63    0.98
  12   8  -5   16.92    0.98
  12   8  -5   18.75    1.40
  12   8  -5   16.94    1.20
  12   8  -5   17.73    0.93
  10  -8  -5    6.67    0.97
  10  -8  -5    8.14    1.23
 -10  -8   5    7.16    0.73
 -10  -8   5    5.96    1.23
  10  -8  -5    8.40    0.54
 -10  -8   5    8.49    1.20
 -10   8   5    8.40    0.92
  10   8  -5    7.08    0.52
  10   8  -5    6.88    0.68
 -10   8   5    8.63    1.07
  10   8  -5    7.41    0.58
  10   8  -5    7.96    1.01
  10   8  -5    7.24    0.63
  10   8  -5    8.11    0.70
  10   8  -5    7.51    0.86
 -10   8   5    8.21    0.80
  -8  -8   5   17.27    0.96
   8  -8  -5   18.39    1.56
   8  -8  -5   19.23    1.38
   8  -8  -5   18.72    0.90
  -8  -8   5   22.14    1.86
  -8  -8   5   16.92    1.62
   8   8  -5   19.24    1.07
   8   8  -5   19.56    1.07
   8   8  -5   19.67    1.33
  -8   8   5   18.72    1.39
  -8   8   5   19.94    1.12
   8   8  -5   20.32    0.99
   8   8  -5   19.90    1.02
   8   8  -5   18.25    0.83
  -8   8   5   20.46    1.26
   8   8  -5   19.70    1.19
   6  -8  -5   12.43    0.68
  -6  -8   5   10.45    1.26
  -6  -8   5   11.44    0.69
  -6  -8   5   11.00    1.80
   6  -8  -5   11.47    1.12
   6  -8  -5   10.58    1.30
   6   8  -5   11.50    0.77
   6   8  -5   12.44    0.87
  -6   8   5   10.34    1.03
   6   8  -5   12.15    0.76
   6   8  -5   11.22    0.81
   6   8  -5   10.78    0.66
  -6   8   5   11.86    0.84
  -6   8   5   11.41    0.62
   6   8  -5   10.99    1.03
  -6   8   5   12.37    1.12
   6   8  -5   10.29    0.90
  -4  -8   5   26.33    1.25
   4  -8  -5   26.14    1.29
  -4  -8   5   23.18    2.38
   4  -8  -5   24.35    1.75
  -4  -8   5   23.74    1.29
  -4  -8   5   23.77    1.05
   4  -8  -5   25.04    1.10
  -4  -8   5   24.70    1.80
  -4  -8   5   24.45    1.58
   4  -8  -5   24.56    1.64
   4   8  -5   23.64    1.33
   4   8  -5   26.46    1.33
   4   8  -5   25.70    1.17
  -4   8   5   25.78    1.53
   4   8  -5   26.35    1.44
   4   8  -5   25.17    1.27
  -4   8   5   24.42    1.12
   4   8  -5   25.45    1.23
  -4   8   5   23.76    1.11
  -4   8   5   26.27    1.33
   4   8  -5   25.27    1.16
  -2  -8   5    8.06    0.58
  -2  -8   5    9.49    1.07
  -2  -8   5   10.17    1.32
   2  -8  -5    9.60    1.26
   2  -8  -5   11.23    0.85
  -2  -8   5   10.37    1.22
   2  -8  -5    9.00    0.87
   2  -8  -5    9.01    0.62
  -2  -8   5   10.91    0.75
   2  -8  -5   10.05    1.13
   2   8  -5   10.23    0.95
   2   8  -5    8.53    0.77
   2   8  -5    8.34    0.86
   2   8  -5    9.29    0.86
  -2   8   5    9.72    0.83
   2   8  -5   10.01    0.85
   2   8  -5   10.79    0.70
  -2   8   5    9.88    1.22
  -2   8   5    8.89    0.63
   2   8  -5    9.78    0.75
   2   8  -5    8.98    0.69
  -2   8   5   10.74    0.74
   0  -8  -5   34.88    1.97
   0  -8   5   35.77    1.43
   0  -8   5   36.51    1.94
   0  -8   5   38.29    1.64
   0  -8  -5   37.45    1.78
   0  -8  -5   37.04    1.50
   0  -8   5   34.38    1.41
   0  -8   5   39.49    2.33
   0  -8  -5   35.00    1.84
   0  -8   5   35.19    2.23
   0  -8  -5   36.48    1.71
   0  -8  -5   38.42    2.15
   0   8   5   36.06    1.71
   0   8  -5   38.08    1.70
   0   8  -5   36.02    1.70
   0   8  -5   35.53    1.63
   0   8   5   35.42    1.64
   0   8  -5   38.52    1.81
   0   8  -5   36.96    1.74
   0   8   5   32.46    1.46
   0   8  -5   35.04    1.67
   0   8   5   38.08    2.00
   2  -8   5    8.27    0.60
   2  -8   5    7.60    0.59
  -2  -8  -5    8.76    0.93
  -2  -8  -5   10.09    1.32
  -2  -8  -5    8.43    0.88
  -2  -8  -5    8.33    0.96
   2  -8   5    8.68    0.49
  -2  -8  -5    9.57    1.12
   2  -8   5    8.70    0.93
   2  -8   5    7.40    1.33
   2  -8   5    7.63    0.68
   2  -8   5    9.55    1.45
   2  -8   5    8.86    0.73
  -2   8  -5    8.43    0.77
   2   8   5    8.57    0.65
  -2   8  -5   10.32    0.93
  -2   8  -5    8.78    0.81
   2   8   5    9.11    1.06
  -2   8  -5    7.45    0.89
  -2   8  -5    7.37    0.73
  -2   8  -5    6.90    0.81
   2   8   5    9.44    0.87
   2   8   5    7.36    0.81
   4  -8   5   16.05    1.69
   4  -8   5   12.48    1.02
  -4  -8  -5   15.45    1.34
   4  -8   5   12.64    1.78
   4  -8   5   14.16    0.85
  -4  -8  -5   16.73    1.13
  -4  -8  -5   15.73    1.57
  -4  -8  -5   15.30    1.21
   4  -8   5   16.08    1.44
  -4  -8  -5   16.52    1.18
   4  -8   5   14.14    0.94
   4  -8   5   15.16    0.83
  -4   8  -5   14.80    1.10
  -4   8  -5   14.78    1.07
  -4   8  -5   14.17    0.95
  -4   8  -5   15.40    1.06
   4   8   5   15.02    1.11
   4   8   5   15.88    0.88
   4   8   5   14.70    1.23
   4   8   5   15.23    1.27
   4   8   5   15.58    1.05
  -4   8  -5   15.17    1.16
   6  -8   5   17.13    2.05
  -6  -8  -5   19.58    1.48
   6  -8   5   18.28    1.09
  -6  -8  -5   19.17    1.18
   6  -8   5   18.08    1.21
   6  -8   5   17.05    1.06
  -6  -8  -5   19.60    1.44
  -6  -8  -5   19.50    1.34
   6   8   5   19.61    1.20
  -6   8  -5   16.44    1.23
   6   8   5   20.68    1.40
   6   8   5   20.94    1.47
  -6   8  -5   18.23    1.17
  -6   8  -5   17.24    1.03
   6   8   5   18.63    1.03
  -6   8  -5   18.06    1.21
  -6   8  -5   16.83    1.29
   6   8   5   18.04    1.24
  -8  -8  -5   10.51    1.18
  -8  -8  -5   10.89    1.23
   8  -8   5   12.10    1.95
   8  -8   5   12.19    0.97
   8  -8   5    9.23    1.03
   8  -8   5    9.86    0.86
   8   8   5   10.88    0.86
   8   8   5   10.72    1.07
  -8   8  -5   10.38    0.95
   8   8   5   11.69    1.08
  -8   8  -5   10.58    1.03
  -8   8  -5    9.79    1.01
   8   8   5   11.88    1.22
   8   8   5   10.13    1.19
 -10  -8  -5    5.86    0.94
  10  -8   5    5.52    0.78
 -10  -8  -5    5.70    0.92
  10  -8   5    6.70    1.50
  10  -8   5    5.17    0.70
 -10   8  -5    4.43    0.73
  10   8   5    7.29    0.98
 -10   8  -5    4.82    0.73
  10   8   5    4.42    0.85
  10   8   5    5.92    0.95
  10   8   5    5.78    0.71
  12  -8   5    9.12    1.72
  12  -8   5    8.33    1.04
 -12  -8  -5    7.97    1.13
 -12  -8  -5    8.75    1.36
 -12   8  -5    7.08    1.00
  12   8   5   10.46    1.07
 -12   8  -5    7.35    0.90
  12   8   5    9.46    1.27
  12   8   5    7.69    0.99
  12   8   5    8.33    1.25
  14  -8   5    5.39    0.98
 -14  -8  -5    4.05    1.00
 -14  -8  -5    3.46    1.10
  14  -8   5    3.81    1.73
  14   8   5    2.80    1.00
  14   8   5    4.32    0.81
 -14   8  -5    3.93    0.99
 -14   8  -5    4.67    0.80
 -16  -8  -5    2.23    1.08
  16  -8   5    1.77    0.97
  16  -8   5    2.81    1.14
  16   8   5    1.79    0.81
 -16   8  -5    1.33    0.76
  17  -9  -5    6.94    1.07
  17  -9  -5    5.97    1.23
 -17  -9   5    4.77    1.84
  17   9  -5    6.31    1.11
  17   9  -5    8.29    1.18
  15  -9  -5   11.84    1.63
 -15  -9   5   11.72    2.17
  15  -9  -5   12.36    1.23
  15   9  -5   13.79    1.07
  15   9  -5    9.89    0.90
  15   9  -5   10.63    1.13
  15   9  -5   13.70    1.51
 -13  -9   5   13.00    2.04
 -13  -9   5   13.55    1.54
  13  -9  -5   12.21    1.19
  13  -9  -5   11.46    1.59
  13   9  -5   13.17    0.77
 -13   9   5   11.67    1.27
  13   9  -5   11.01    1.11
  13   9  -5   12.74    1.38
  13   9  -5   10.95    0.94
 -11  -9   5   20.70    1.72
  11  -9  -5   19.55    1.45
 -11  -9   5   16.60    2.00
  11  -9  -5   18.16    1.02
  11  -9  -5   21.37    1.74
 -11   9   5   22.66    1.52
  11   9  -5   21.04    1.35
  11   9  -5   19.85    1.19
 -11   9   5   20.03    1.43
  11   9  -5   19.79    1.49
  -9  -9   5   11.28    1.63
   9  -9  -5   12.08    1.23
  -9  -9   5   14.87    1.57
   9  -9  -5   13.07    0.75
   9  -9  -5   12.72    1.50
   9   9  -5   12.17    1.03
  -9   9   5   12.04    1.10
   9   9  -5   13.43    1.27
  -9   9   5   14.41    1.22
   9   9  -5   13.68    0.89
   9   9  -5   13.13    0.99
  -9   9   5   13.75    1.23
  -9   9   5   13.69    1.07
   9   9  -5   14.76    1.11
   7  -9  -5   22.33    1.09
   7  -9  -5   24.54    1.60
  -7  -9   5   22.94    1.85
   7  -9  -5   23.42    1.80
  -7  -9   5   27.36    1.88
  -7   9   5   26.69    1.57
  -7   9   5   24.47    1.35
   7   9  -5   24.13    1.19
   7   9  -5   23.16    1.36
   7   9  -5   23.92    1.21
   7   9  -5   24.67    1.52
   7   9  -5   25.79    1.36
  -7   9   5   20.43    1.27
   7   9  -5   21.75    1.31
  -7   9   5   23.76    1.42
  -7   9   5   23.89    1.47
   5  -9  -5   22.27    1.60
  -5  -9   5   21.70    1.10
  -5  -9   5   22.45    1.75
  -5  -9   5   24.29    1.57
   5  -9  -5   22.46    1.06
  -5  -9   5   23.12    1.85
   5  -9  -5   24.53    1.79
   5   9  -5   22.78    1.12
   5   9  -5   22.39    1.58
   5   9  -5   21.61    1.33
  -5   9   5   22.09    1.27
  -5   9   5   22.43    1.50
  -5   9   5   21.83    1.13
   5   9  -5   21.60    1.06
   5   9  -5   22.96    1.45
  -5   9   5   22.23    1.09
   5   9  -5   23.63    1.21
   5   9  -5   20.92    1.28
  -3  -9   5   17.59    1.51
   3  -9  -5   19.11    1.17
  -3  -9   5   18.35    0.97
   3  -9  -5   20.02    1.52
   3  -9  -5   19.65    1.67
  -3  -9   5   20.52    1.75
   3  -9  -5   19.29    0.96
  -3  -9   5   17.66    1.51
  -3   9   5   17.63    1.16
   3   9  -5   19.06    1.16
   3   9  -5   19.13    1.29
   3   9  -5   20.75    1.25
   3   9  -5   18.07    1.00
   3   9  -5   18.11    1.45
   3   9  -5   20.22    1.03
  -3   9   5   21.60    1.45
  -3   9   5   19.03    1.03
  -3   9   5   17.83    0.98
   3   9  -5   20.33    1.32
  -1  -9   5   31.52    2.17
   1  -9  -5   26.13    1.25
   1  -9  -5   27.33    1.77
  -1  -9   5   29.66    1.41
   1  -9  -5   30.40    2.01
  -1  -9   5   25.98    1.23
   1  -9  -5   28.94    1.73
   1  -9  -5   25.70    1.47
  -1  -9   5   26.31    1.99
   1   9  -5   28.29    1.40
   1   9  -5   27.87    1.55
   1   9  -5   28.58    1.34
  -1   9   5   30.00    1.70
   1   9  -5   27.84    1.55
  -1   9   5   26.16    1.25
  -1   9   5   29.25    1.63
  -1   9   5   25.57    1.38
   1   9  -5   27.95    1.34
   1   9  -5   27.50    1.79
   1   9  -5   27.58    1.47
   1  -9   5   24.07    1.26
  -1  -9  -5   22.34    1.40
   1  -9   5   22.93    1.10
   1  -9   5   23.46    2.09
   1  -9   5   23.68    1.55
   1  -9   5   26.53    2.13
  -1  -9  -5   22.90    1.48
  -1  -9  -5   24.26    1.68
  -1  -9  -5   23.03    1.16
  -1  -9  -5   27.16    1.89
   1  -9   5   22.92    1.15
  -1   9  -5   24.80    1.41
   1   9   5   24.53    1.59
  -1   9  -5   20.84    1.28
  -1   9  -5   24.94    1.29
  -1   9  -5   24.24    1.46
  -1   9  -5   24.55    1.46
  -1   9  -5   22.95    1.36
   1   9   5   24.06    1.34
   1   9   5   23.43    1.16
   1   9   5   23.97    1.35
  -1   9  -5   22.87    1.38
  -3  -9  -5   22.58    1.78
   3  -9   5   20.07    1.03
   3  -9   5   21.85    1.38
   3  -9   5   18.97    1.05
  -3  -9  -5   21.02    1.36
   3  -9   5   20.91    2.16
   3  -9   5   20.99    1.18
   3  -9   5   18.77    1.28
  -3  -9  -5   18.56    1.77
  -3  -9  -5   22.51    1.60
  -3  -9  -5   21.62    1.39
   3  -9   5   21.31    2.02
   3   9   5   22.88    1.31
  -3   9  -5   22.14    1.70
  -3   9  -5   20.04    1.44
  -3   9  -5   20.93    1.30
  -3   9  -5   17.88    1.16
   3   9   5   21.70    1.38
  -3   9  -5   21.26    1.34
   3   9   5   21.52    1.46
   3   9   5   21.53    1.10
  -5  -9  -5   14.10    1.14
   5  -9   5   11.71    1.08
   5  -9   5   13.74    0.96
  -5  -9  -5   13.36    1.25
   5  -9   5   12.60    1.03
   5  -9   5   10.81    1.96
  -5  -9  -5   14.96    1.59
  -5  -9  -5   13.11    1.35
   5   9   5   11.57    1.27
   5   9   5   13.04    1.04
  -5   9  -5   13.12    1.09
  -5   9  -5   12.92    1.10
  -5   9  -5   12.91    0.94
  -5   9  -5   12.30    1.15
   5   9   5   14.10    1.26
   5   9   5   14.09    1.26
   7  -9   5   16.72    2.35
   7  -9   5   16.85    1.15
  -7  -9  -5   19.16    1.53
  -7  -9  -5   19.67    1.61
   7  -9   5   18.01    1.22
  -7  -9  -5   19.35    1.82
   7   9   5   20.13    1.54
   7   9   5   17.79    1.23
  -7   9  -5   17.43    1.26
   7   9   5   20.20    1.48
   7   9   5   17.63    1.10
  -7   9  -5   17.78    1.29
  -7   9  -5   17.41    1.33
  -9  -9  -5    8.04    1.35
  -9  -9  -5    6.47    1.03
   9  -9   5    5.09    0.68
   9  -9   5    7.79    1.05
   9  -9   5    8.67    1.77
   9   9   5    7.17    0.92
  -9   9  -5    7.71    0.91
   9   9   5    7.95    1.04
  -9   9  -5    6.88    0.98
   9   9   5    7.36    1.04
   9   9   5    6.51    1.09
  -9   9  -5    6.69    0.93
  11  -9   5    8.34    0.93
 -11  -9  -5   12.22    1.56
  11  -9   5    8.98    1.30
 -11  -9  -5    7.53    1.21
  11  -9   5    9.05    2.52
  11   9   5    8.55    1.04
  11   9   5   11.71    1.19
 -11   9  -5    7.66    1.09
  11   9   5    9.88    1.29
 -11   9  -5    9.70    1.14
  11   9   5   10.49    1.42
  13  -9   5    7.18    2.83
  13  -9   5    5.44    1.04
 -13  -9  -5    5.71    1.12
  13   9   5    4.09    1.43
 -13   9  -5    4.65    0.82
  13   9   5    4.47    0.98
  16 -10  -5    9.68    1.20
 -14 -10   5   12.59    2.29
  14 -10  -5    9.70    1.75
  14 -10  -5   10.93    1.23
 -14 -10   5   14.23    1.71
  14  10  -5   10.11    1.31
 -14  10   5   11.64    1.36
  14  10  -5   12.42    1.26
 -12 -10   5   23.07    2.53
 -12 -10   5   25.41    1.95
  12 -10  -5   20.74    1.93
  12 -10  -5   20.06    1.60
  12  10  -5   19.87    1.67
  12  10  -5   21.13    1.48
 -12  10   5   23.07    1.58
  10 -10  -5   11.18    1.27
 -10 -10   5   10.12    1.81
 -10 -10   5   14.14    1.72
  10 -10  -5   12.31    1.63
  10  10  -5   12.70    1.39
 -10  10   5   12.96    1.32
  10  10  -5   12.02    1.16
 -10  10   5   14.42    1.29
   8 -10  -5   20.32    1.85
  -8 -10   5   19.52    2.00
  -8 -10   5   24.35    1.93
   8 -10  -5   21.40    1.62
   8  10  -5   22.20    1.38
   8  10  -5   22.49    1.56
  -8  10   5   21.62    1.51
  -8  10   5   19.95    1.71
  -6 -10   5   35.54    2.25
   6 -10  -5   31.23    1.92
  -6 -10   5   27.07    2.09
   6 -10  -5   27.20    2.06
   6  10  -5   28.41    1.71
   6  10  -5   28.31    1.51
   6  10  -5   28.42    1.62
  -6  10   5   33.50    1.78
  -6  10   5   27.34    1.44
  -6  10   5   29.97    1.76
  -4 -10   5   30.42    1.97
   4 -10  -5   32.49    1.98
   4 -10  -5   31.82    2.18
  -4 -10   5   30.94    2.08
   4 -10  -5   31.72    1.74
  -4 -10   5   37.41    2.39
  -4  10   5   27.89    1.45
   4  10  -5   30.52    1.74
   4  10  -5   28.97    1.61
  -4  10   5   31.50    1.81
  -4  10   5   30.97    1.86
   4  10  -5   31.36    1.53
   2 -10  -5   16.03    1.13
  -2 -10   5   16.24    1.48
  -2 -10   5   15.87    1.90
   2 -10  -5   17.93    1.74
  -2 -10   5   14.85    1.71
   2 -10  -5   17.14    1.54
  -2  10   5   14.54    1.15
   2  10  -5   16.99    1.30
   2  10  -5   14.42    0.93
   2  10  -5   13.89    1.16
  -2  10   5   12.82    0.94
   2  10  -5   16.42    1.06
  -2  10   5   16.68    1.31
  -2  10   5   16.50    1.17
   2  10  -5   15.38    1.13
   0 -10  -5   32.10    2.07
   0 -10   5   34.50    1.49
   0 -10   5   32.61    1.66
   0 -10  -5   37.74    2.34
   0 -10   5   34.70    2.06
   0 -10  -5   37.42    2.20
   0 -10   5   35.15    2.56
   0  10   5   31.81    1.55
   0  10  -5   34.74    1.84
   0  10   5   34.83    1.74
   0  10  -5   32.46    1.75
   0  10   5   37.13    1.93
   0  10  -5   34.16    1.66
   0  10  -5   33.92    1.60
   0  10   5   35.13    1.72
  -2 -10  -5   21.77    1.76
   2 -10   5   18.55    1.10
   2 -10   5   19.55    2.20
   2 -10   5   17.34    2.18
  -2 -10  -5   23.06    1.85
   2 -10   5   19.30    1.20
  -2 -10  -5   17.78    1.45
  -2  10  -5   20.56    1.17
  -2  10  -5   18.53    1.28
   2  10   5   19.66    1.63
   2  10   5   20.15    1.44
  -2  10  -5   18.75    1.36
  -2  10  -5   19.40    1.21
   2  10   5   20.49    1.27
   4 -10   5   17.76    1.13
   4 -10   5   15.85    2.26
  -4 -10  -5   20.68    1.72
  -4 -10  -5   18.59    1.54
   4 -10   5   18.79    1.16
  -4 -10  -5   22.25    1.82
   4 -10   5   17.96    1.33
  -4  10  -5   16.82    1.30
   4  10   5   17.14    1.10
   4  10   5   17.35    1.24
   4  10   5   19.91    1.46
  -4  10  -5   17.19    1.30
   6 -10   5   16.56    2.50
  -6 -10  -5   22.58    1.82
  -6 -10  -5   21.72    1.89
  -6 -10  -5   20.43    2.09
   6 -10   5   18.32    1.26
   6 -10   5   18.09    1.20
  -6  10  -5   17.70    1.36
   6  10   5   19.34    1.21
   6  10   5   21.40    1.47
   6  10   5   18.60    1.27
   6  10   5   20.98    1.62
  -6  10  -5   19.63    1.36
   8 -10   5   13.93    1.27
   8 -10   5   12.33    2.19
  -8 -10  -5   13.61    1.65
  -8 -10  -5   15.39    1.76
   8 -10   5   12.55    1.01
   8  10   5   11.04    1.25
  -8  10  -5   13.60    1.28
  -8  10  -5   12.07    1.18
   8  10   5   12.30    1.12
   8  10   5   13.16    1.48
   8  10   5   13.78    1.14
  10 -10   5    7.00    1.35
  10 -10   5    6.32    2.01
 -10 -10  -5    6.17    1.16
 -10 -10  -5    7.86    1.34
  10 -10   5    8.13    0.92
  10  10   5    6.76    1.01
  10  10   5    4.95    1.05
 -10  10  -5    4.20    0.92
  10  10   5    6.30    0.86
 -10  10  -5    6.13    0.88
 -12 -10  -5   11.47    1.86
 -12 -10  -5   10.06    2.19
  12  10   5    8.94    1.43
  12  10   5    8.80    1.26
 -12  10  -5    9.16    1.35
  15 -11  -5    3.73    0.90
 -13 -11   5    6.09    1.30
  13 -11  -5    5.77    1.04
 -13  11   5    4.46    0.91
  11 -11  -5    9.43    1.33
  11 -11  -5    7.00    1.37
 -11 -11   5    9.37    1.92
 -11 -11   5   10.02    1.68
  11  11  -5    7.94    1.16
 -11  11   5    8.92    1.16
  11  11  -5    8.67    1.25
   9 -11  -5    8.14    1.43
  -9 -11   5    7.53    1.63
   9 -11  -5    6.26    1.10
  -9 -11   5    7.51    1.31
  -9  11   5    6.04    1.08
  -9  11   5    8.85    1.13
   9  11  -5    7.12    1.08
   9  11  -5    8.69    1.07
  -7 -11   5   10.29    1.50
  -7 -11   5    8.26    1.55
   7 -11  -5   10.24    1.39
   7 -11  -5    9.54    1.59
  -7  11   5   10.38    1.35
   7  11  -5    9.99    1.25
   7  11  -5    9.92    1.16
  -7  11   5    7.75    1.14
   5 -11  -5    8.58    1.40
  -5 -11   5    7.46    1.46
   5 -11  -5    5.66    1.14
  -5 -11   5    9.54    1.42
  -5  11   5    9.35    1.32
   5  11  -5    6.13    0.87
  -5  11   5    6.68    0.92
   5  11  -5    7.58    1.00
  -5  11   5    6.61    1.01
   3 -11  -5   10.21    1.60
  -3 -11   5    8.86    1.64
   3 -11  -5   12.96    1.67
  -3 -11   5    8.47    1.31
  -3 -11   5   12.44    1.92
  -3  11   5   10.78    1.60
   3  11  -5    9.19    0.90
   3  11  -5    9.27    1.19
   3  11  -5    9.85    1.11
  -3  11   5    8.76    0.91
  -1 -11   5   12.28    1.41
   1 -11  -5   13.95    1.62
   1 -11  -5   13.03    1.70
  -1 -11   5   16.72    2.15
  -1  11   5   12.98    1.02
  -1  11   5   14.35    1.26
   1  11  -5   14.62    1.04
   1  11  -5   12.85    1.22
   1  11  -5   12.91    1.21
   1 -11   5    9.03    1.24
  -1 -11  -5   10.98    1.56
   1 -11   5    9.91    1.79
   1 -11   5   11.92    1.78
  -1 -11  -5    9.57    1.61
  -1  11  -5    7.92    1.15
  -1  11  -5    9.25    0.92
   1  11   5   11.01    0.96
  -1  11  -5    7.45    1.05
   1  11   5    8.11    1.14
   3 -11   5    6.36    1.67
   3 -11   5    8.89    1.11
  -3 -11  -5   10.06    1.52
  -3 -11  -5    9.69    1.66
   3 -11   5   10.09    1.74
  -3  11  -5    8.18    1.01
  -3  11  -5    7.25    1.07
  -3  11  -5    5.35    0.75
   3  11   5    6.29    1.05
   3  11   5    8.87    0.96
  -5 -11  -5    8.92    1.67
  -5 -11  -5    6.68    1.22
   5 -11   5    6.78    1.78
   5 -11   5    7.49    1.04
  -5  11  -5    6.29    0.91
  -5  11  -5    7.65    1.10
   5  11   5    6.62    1.07
  -7 -11  -5    9.37    1.39
  -7 -11  -5   10.22    1.72
   7 -11   5   10.53    2.13
  -7  11  -5    5.73    0.91
   7  11   5    6.65    1.14
   7  11   5    8.30    1.20
   7  11   5    8.80    1.12
  -7  11  -5    5.27    1.00
  -9 -11  -5    3.64    1.28
   9 -11   5    1.70    1.94
  -9 -11  -5    3.44    1.28
   9  11   5    4.07    0.86
  -9  11  -5    1.59    0.74
 -10 -12   5    3.63    1.36
  10 -12  -5    5.38    1.15
 -10  12   5    4.09    0.87
   8 -12  -5    4.88    1.35
   8 -12  -5    9.83    1.59
  -8 -12   5    9.40    1.50
  -8 -12   5    6.75    1.70
  -8  12   5    6.52    1.01
   8  12  -5    4.49    1.03
   6 -12  -5    8.72    1.49
  -6 -12   5   11.28    1.70
  -6 -12   5   12.27    1.82
   6 -12  -5   11.93    1.75
   6  12  -5   10.57    1.40
   6  12  -5    7.10    1.01
  -6  12   5    8.03    1.26
  -6  12   5   12.29    1.28
  -4 -12   5   13.12    1.82
   4 -12  -5   11.50    1.85
  -4 -12   5    8.84    1.57
   4 -12  -5    8.09    1.48
   4  12  -5    9.04    1.28
   4  12  -5   10.84    1.31
  -4  12   5    9.62    1.14
  -2 -12   5    6.72    1.57
   2 -12  -5    5.98    1.32
  -2 -12   5    6.83    1.28
   2 -12  -5    9.11    1.66
   2  12  -5    5.58    0.98
  -2  12   5    7.08    1.13
   2  12  -5    3.58    0.88
   0 -12   5   11.29    1.46
   0 -12   5   13.90    2.01
   0 -12   5   11.05    1.88
   0 -12  -5   11.34    1.78
   0 -12  -5    9.12    1.53
   0  12   5   11.40    1.21
   0  12  -5    8.92    1.28
   0  12  -5    9.99    0.97
   0  12  -5    9.34    1.10
  -2 -12  -5    7.07    1.67
   2 -12   5    7.18    1.86
   2 -12   5   11.12    1.95
  -2 -12  -5    7.12    1.35
   2 -12   5    6.78    1.79
  -2  12  -5    6.41    0.94
  -2  12  -5    7.32    1.18
   2  12   5    7.50    1.13
  -4 -12  -5    7.51    1.41
   4 -12   5    5.12    1.90
   4  12   5    7.51    1.18
  -4  12  -5    5.49    0.92
   6 -12   5    6.12    2.11
  -6 -12  -5    8.94    1.55
   6  12   5    6.03    1.01
  -6  12  -5    6.82    0.98
  -3 -13   5   12.28    1.81
  -3  13   5    9.02    1.44
   3  13  -5    8.42    1.29
  24   0  -6    5.24    0.76
  24   0  -6    4.15    0.83
  22   0  -6   14.65    0.98
  22   0  -6   17.86    1.15
  22   0  -6   17.01    1.27
  22   0  -6   14.22    1.06
  20   0  -6    6.88    0.68
  20   0  -6    7.80    0.95
  20   0  -6    8.26    0.94
  20   0  -6    7.78    0.79
  20   0  -6    5.74    0.63
  18   0  -6   53.03    2.13
  18   0  -6   48.23    2.08
  18   0  -6   50.79    2.05
  18   0  -6   50.94    2.21
  18   0  -6   51.35    2.19
  16   0  -6   12.62    0.91
  16   0  -6   11.28    0.85
  16   0  -6   10.21    0.72
  16   0  -6   10.74    0.78
  16   0  -6   10.15    0.81
  14   0  -6   86.75    3.45
  14   0  -6   89.52    3.32
  14   0  -6   89.67    3.26
  14   0  -6   89.96    3.48
  14   0  -6   91.16    3.44
 -14   0   6   92.04    3.56
  14   0  -6   88.96    3.25
  14   0  -6   83.35    3.53
 -14   0   6   92.45    3.61
  14   0  -6   88.04    3.48
  12   0  -6   49.81    1.98
  12   0  -6   51.20    1.95
  12   0  -6   51.49    2.22
  12   0  -6   49.78    1.98
  12   0  -6   50.67    2.19
  12   0  -6   51.57    2.19
  12   0  -6   49.16    2.22
 -12   0   6   53.42    2.35
  12   0  -6   50.79    2.19
 -12   0   6   52.06    2.29
  10   0  -6   47.03    1.77
 -10   0   6   47.92    2.39
  10   0  -6   47.30    2.05
  10   0  -6   48.52    1.85
  10   0  -6   44.72    2.04
  10   0  -6   47.55    2.07
  10   0  -6   46.30    1.78
 -10   0   6   43.85    2.29
  10   0  -6   47.87    2.09
  10   0  -6   47.70    2.05
   8   0  -6   86.93    3.38
  -8   0   6   87.16    3.43
   8   0  -6   86.68    3.15
  -8   0   6   86.05    3.17
  -8   0   6   88.94    2.99
   8   0  -6   85.00    3.38
  -8   0   6   88.44    3.03
   8   0  -6   84.81    3.36
   8   0  -6   87.25    3.36
  -8   0   6   86.52    3.38
   6   0  -6   71.46    2.86
  -6   0   6   74.02    2.70
   6   0  -6   73.42    2.53
  -6   0   6   70.51    2.90
  -6   0   6   74.70    2.57
  -6   0   6   75.20    2.62
   6   0  -6   71.64    2.58
   6   0  -6   69.78    2.54
   6   0  -6   72.56    2.87
   6   0  -6   71.60    2.91
   6   0  -6   73.78    2.69
  -6   0   6   69.73    2.92
   6   0  -6   71.97    2.50
   6   0  -6   74.47    2.92
  -4   0   6   97.69    3.78
   4   0  -6   98.20    3.78
  -4   0   6   96.20    3.38
   4   0  -6   99.34    3.55
  -4   0   6   95.35    3.77
   4   0  -6   98.75    3.35
   4   0  -6   99.82    3.46
   4   0  -6   97.44    3.43
   4   0  -6   95.78    3.44
   4   0  -6  101.94    3.80
  -4   0   6  101.83    3.49
  -4   0   6   98.26    3.53
  -4   0   6   99.04    3.57
   4   0  -6  101.57    3.74
   2   0  -6   30.76    1.45
  -2   0   6   30.08    1.52
  -2   0   6   29.29    1.13
   2   0  -6   30.74    1.26
   2   0  -6   30.63    1.28
   2   0  -6   29.68    1.50
  -2   0   6   30.71    1.32
   2   0  -6   30.57    1.19
  -2   0   6   31.17    1.56
   2   0  -6   30.79    1.10
   2   0  -6   30.21    1.32
  -2   0   6   30.01    1.27
   2   0  -6   31.95    1.54
   0   0  -6  175.67    6.11
   0   0   6  167.14    6.14
   0   0  -6  169.00    5.86
   0   0  -6  165.49    5.99
   0   0  -6  164.85    5.85
   0   0  -6  164.23    6.07
   0   0   6  162.34    5.77
   0   0  -6  163.74    5.82
   0   0   6  169.62    5.87
   0   0   6  165.50    5.85
   0   0   6  168.20    6.06
   0   0  -6  172.78    6.20
   0   0   6  169.38    5.91
   0   0  -6  167.98    5.74
   0   0   6  165.75    5.68
  -2   0  -6   15.54    1.03
   2   0   6   15.15    1.01
  -2   0  -6   16.13    0.87
  -2   0  -6   15.29    0.76
   2   0   6   16.44    0.87
   2   0   6   14.93    1.15
   2   0   6   16.11    0.84
  -2   0  -6   17.36    0.93
  -2   0  -6   14.74    1.07
  -2   0  -6   15.25    0.93
   2   0   6   15.52    0.94
   2   0   6   15.55    0.72
   2   0   6   15.42    0.87
  -4   0  -6  116.99    4.12
  -4   0  -6  111.32    4.37
   4   0   6  111.52    4.07
  -4   0  -6  110.87    4.05
   4   0   6  115.59    4.05
   4   0   6  111.10    4.13
  -4   0  -6  111.97    4.03
   4   0   6  109.30    4.05
  -4   0  -6  113.77    4.21
  -4   0  -6  107.43    4.09
   4   0   6  100.53    4.12
  -4   0  -6  111.38    3.94
   4   0   6  112.23    4.24
   6   0   6   16.48    1.05
   6   0   6   15.84    1.06
  -6   0  -6   17.42    1.07
   6   0   6   17.39    1.02
   6   0   6   17.25    1.03
  -6   0  -6   16.72    1.02
  -6   0  -6   16.78    0.98
   6   0   6   19.87    1.27
  -6   0  -6   15.77    0.86
  -6   0  -6   17.94    1.14
   6   0   6   17.08    0.84
   8   0   6   45.33    1.85
   8   0   6   47.35    2.05
  -8   0  -6   46.86    1.91
  -8   0  -6   48.89    2.06
   8   0   6   42.73    2.29
  -8   0  -6   49.88    2.14
   8   0   6   47.02    2.11
  -8   0  -6   46.05    1.99
   8   0   6   47.92    2.08
  -8   0  -6   50.02    2.12
  10   0   6   15.23    1.01
 -10   0  -6   15.54    1.15
 -10   0  -6   15.38    1.03
 -10   0  -6   16.76    1.12
 -10   0  -6   15.06    0.91
  10   0   6   15.27    1.10
  10   0   6   16.49    1.07
  10   0   6   15.21    0.88
  10   0   6   14.67    1.15
 -10   0  -6   16.10    1.13
 -12   0  -6   24.71    1.39
 -12   0  -6   26.94    1.54
  12   0   6   27.03    1.63
  12   0   6   24.91    1.33
  12   0   6   23.08    1.43
  12   0   6   26.26    1.44
 -12   0  -6   24.84    1.45
 -12   0  -6   26.08    1.44
  12   0   6   23.78    1.42
 -14   0  -6    4.18    0.64
  14   0   6    3.04    0.66
 -14   0  -6    3.96    0.72
  14   0   6    4.22    0.67
 -14   0  -6    4.06    0.69
  14   0   6    4.52    0.68
  14   0   6    4.55    0.85
 -16   0  -6    5.99    0.86
  16   0   6    5.80    0.92
 -16   0  -6    5.89    0.93
 -16   0  -6    6.64    1.02
  16   0   6    7.25    0.76
  18   0   6    5.08    0.99
 -18   0  -6    3.34    0.85
  25  -1  -6    4.74    0.93
  25  -1  -6    4.34    0.80
 -25  -1   6    3.93    1.27
  25   1  -6    4.15    0.77
  25   1  -6    4.78    0.96
  23  -1  -6    5.21    1.15
  23  -1  -6    5.45    0.87
 -23  -1   6    6.82    1.22
  23  -1  -6    4.52    0.77
  23   1  -6    5.02    0.73
  23   1  -6    5.79    0.95
  23   1  -6    7.41    0.95
 -21  -1   6    8.95    1.42
  21  -1  -6    9.17    0.95
  21  -1  -6    9.20    1.00
  21  -1  -6    8.58    0.82
  21  -1  -6    6.79    1.03
  21   1  -6    8.45    0.83
  21   1  -6    8.86    0.76
  21   1  -6   10.06    0.94
  21   1  -6    9.22    1.04
  19  -1  -6   21.23    1.97
  19  -1  -6   22.88    1.18
 -19  -1   6   26.34    1.83
  19  -1  -6   25.32    1.42
  19  -1  -6   24.73    1.13
  19  -1  -6   25.77    1.34
  19   1  -6   23.05    1.20
  19   1  -6   23.80    1.23
  19   1  -6   25.06    1.42
  19   1  -6   23.71    1.27
  17  -1  -6    8.57    0.89
  17  -1  -6    8.50    0.59
  17  -1  -6    7.91    0.72
 -17  -1   6    7.03    1.19
  17  -1  -6    6.93    0.78
  17  -1  -6    8.10    0.76
  17   1  -6    7.53    0.74
  17   1  -6    9.18    0.88
  17   1  -6    6.72    0.89
  17   1  -6    7.65    0.73
  17   1  -6    9.11    0.71
  15  -1  -6   49.49    2.18
  15  -1  -6   47.36    1.84
  15  -1  -6   46.96    2.07
 -15  -1   6   47.95    2.72
  15  -1  -6   46.39    1.97
  15  -1  -6   47.06    2.03
  15  -1  -6   49.58    1.95
 -15  -1   6   47.82    2.25
  15   1  -6   47.69    2.06
  15   1  -6   46.90    2.02
 -15   1   6   48.57    2.28
  15   1  -6   46.51    2.07
  15   1  -6   47.69    2.07
  15   1  -6   47.96    1.90
  15   1  -6   43.55    2.13
  15   1  -6   49.61    2.06
  13  -1  -6    7.91    0.62
 -13  -1   6    8.49    0.83
  13  -1  -6    7.71    0.74
  13  -1  -6    6.75    0.81
 -13  -1   6    7.20    0.92
  13  -1  -6    8.53    0.56
 -13  -1   6    9.18    1.01
  13  -1  -6    8.35    0.81
  13  -1  -6    7.47    0.61
  13  -1  -6    8.44    0.75
  13  -1  -6    8.97    0.86
  13   1  -6    8.66    0.57
  13   1  -6    7.22    0.73
  13   1  -6    7.06    0.71
  13   1  -6    8.43    0.75
  13   1  -6    8.03    0.65
 -13   1   6    8.99    0.95
  13   1  -6    8.82    0.79
  13   1  -6    7.54    0.64
  13   1  -6    7.45    0.76
  11  -1  -6   87.78    3.56
  11  -1  -6   88.65    3.46
  11  -1  -6   86.54    3.20
 -11  -1   6   91.63    3.60
 -11  -1   6   89.70    3.67
  11  -1  -6   90.13    3.51
 -11  -1   6   90.79    3.46
  11  -1  -6   89.11    3.23
  11  -1  -6   90.25    3.48
  11  -1  -6   91.90    3.22
  11  -1  -6   88.27    3.54
  11   1  -6   88.79    3.45
  11   1  -6   85.37    3.45
  11   1  -6   89.16    3.48
 -11   1   6   93.24    3.58
  11   1  -6   88.54    3.26
  11   1  -6   90.72    3.31
  11   1  -6   92.26    3.46
  11   1  -6   89.90    3.18
 -11   1   6   92.78    3.58
  11   1  -6   89.55    3.48
  -9  -1   6    4.08    0.67
   9  -1  -6    3.58    0.53
   9  -1  -6    4.67    0.64
  -9  -1   6    3.47    0.30
   9  -1  -6    4.34    0.42
   9  -1  -6    3.08    0.55
   9  -1  -6    4.46    0.71
   9  -1  -6    4.57    0.62
   9  -1  -6    3.28    0.33
  -9  -1   6    4.26    0.58
  -9  -1   6    4.29    0.27
  -9   1   6    3.65    0.44
   9   1  -6    4.11    0.53
  -9   1   6    3.46    0.29
  -9   1   6    5.25    0.73
   9   1  -6    4.17    0.50
   9   1  -6    4.55    0.34
   9   1  -6    3.64    0.53
   9   1  -6    4.52    0.67
   9   1  -6    5.06    0.59
   9   1  -6    3.75    0.38
  -9   1   6    3.60    0.58
  -9   1   6    3.35    0.34
  -7  -1   6  145.76    4.99
  -7  -1   6  138.35    4.87
   7  -1  -6  148.64    5.21
   7  -1  -6  139.84    4.89
   7  -1  -6  139.41    4.75
  -7  -1   6  141.71    4.82
  -7  -1   6  144.31    4.79
  -7  -1   6  141.73    5.12
   7  -1  -6  141.40    4.90
   7  -1  -6  138.99    5.17
  -7  -1   6  137.66    5.21
   7  -1  -6  138.34    5.16
   7  -1  -6  139.68    5.16
  -7   1   6  140.91    4.82
   7   1  -6  136.98    4.84
  -7   1   6  144.00    5.21
   7   1  -6  138.24    5.18
   7   1  -6  133.80    4.76
  -7   1   6  142.84    5.21
  -7   1   6  142.71    4.93
   7   1  -6  144.46    5.17
   7   1  -6  139.05    5.09
   7   1  -6  145.23    5.14
  -7   1   6  137.99    4.86
   7   1  -6  143.05    4.98
   7   1  -6  131.29    4.78
   5  -1  -6    3.52    0.32
   5  -1  -6    3.39    0.33
  -5  -1   6    3.55    0.55
  -5  -1   6    4.17    0.37
  -5  -1   6    3.75    0.39
   5  -1  -6    3.55    0.60
   5  -1  -6    3.51    0.57
  -5  -1   6    3.74    0.43
   5  -1  -6    4.13    0.54
   5  -1  -6    3.50    0.53
   5  -1  -6    4.13    0.44
  -5  -1   6    4.01    0.65
  -5  -1   6    3.39    0.32
   5   1  -6    3.83    0.32
   5   1  -6    3.11    0.46
   5   1  -6    3.82    0.33
   5   1  -6    3.46    0.51
   5   1  -6    3.92    0.28
  -5   1   6    3.34    0.41
   5   1  -6    3.52    0.42
   5   1  -6    3.41    0.54
  -5   1   6    3.40    0.59
   5   1  -6    4.75    0.65
  -5   1   6    3.27    0.34
  -5   1   6    3.72    0.43
  -5   1   6    4.41    0.65
   3  -1  -6   84.57    3.33
   3  -1  -6   83.50    3.03
   3  -1  -6   85.21    3.08
   3  -1  -6   88.82    3.37
  -3  -1   6   86.16    3.03
   3  -1  -6   86.42    3.29
   3  -1  -6   84.27    3.05
  -3  -1   6   87.40    3.13
  -3  -1   6   84.19    3.35
  -3  -1   6   85.49    3.09
  -3  -1   6   83.03    3.30
  -3  -1   6   82.61    2.98
  -3   1   6   86.02    3.10
  -3   1   6   82.59    3.06
  -3   1   6   82.72    3.12
   3   1  -6   84.99    2.95
   3   1  -6   83.58    3.12
   3   1  -6   89.05    3.33
  -3   1   6   81.33    3.36
   3   1  -6   83.64    3.25
   3   1  -6   85.61    3.04
  -3   1   6   85.47    3.38
   3   1  -6   83.19    3.02
   3   1  -6   84.86    2.92
   3   1  -6   85.58    3.38
   3   1  -6   84.55    3.33
  -1  -1   6   25.72    1.04
   1  -1  -6   25.10    1.16
   1  -1  -6   24.78    1.35
   1  -1  -6   26.36    1.29
   1  -1  -6   25.16    1.11
  -1  -1   6   26.05    1.12
  -1  -1   6   24.30    1.60
  -1  -1   6   25.48    1.18
  -1  -1   6   27.33    1.19
   1  -1  -6   25.39    1.14
   1  -1  -6   24.29    1.11
  -1  -1   6   25.71    1.39
  -1   1   6   25.29    1.33
   1   1  -6   26.40    1.12
  -1   1   6   23.90    1.19
   1   1  -6   25.02    1.18
  -1   1   6   25.86    1.45
   1   1  -6   25.29    1.33
  -1   1   6   25.24    1.14
   1   1  -6   25.34    0.98
  -1   1   6   25.09    1.15
   1   1  -6   25.89    1.38
   1   1  -6   27.21    1.05
   1   1  -6   25.29    1.37
   1   1  -6   24.68    1.25
   1   1  -6   24.43    1.16
  -1  -1  -6   54.52    2.49
   1  -1   6   55.73    2.17
   1  -1   6   55.71    2.40
   1  -1   6   56.51    2.06
  -1  -1  -6   57.25    2.21
   1  -1   6   55.10    2.22
  -1  -1  -6   55.84    2.16
   1  -1   6   54.67    2.06
  -1  -1  -6   54.42    2.16
   1  -1   6   57.51    2.46
  -1  -1  -6   54.71    2.37
   1  -1   6   59.29    2.20
  -1  -1  -6   55.71    2.28
  -1  -1  -6   55.89    2.11
  -1   1  -6   57.46    2.29
  -1   1  -6   57.10    2.36
   1   1   6   53.37    2.24
   1   1   6   55.76    2.33
  -1   1  -6   58.74    2.21
  -1   1  -6   56.02    2.01
   1   1   6   55.52    1.96
  -1   1  -6   55.86    2.19
  -1   1  -6   54.56    2.43
   1   1   6   54.06    2.78
  -1   1  -6   55.59    2.16
  -1   1  -6   55.12    2.38
   1   1   6   52.02    2.14
   1   1   6   57.80    2.20
   1   1   6   55.26    2.19
  -3  -1  -6   16.13    0.91
   3  -1   6   16.69    0.87
   3  -1   6   16.93    0.99
   3  -1   6   17.39    0.91
  -3  -1  -6   16.53    0.85
  -3  -1  -6   15.94    0.92
  -3  -1  -6   16.79    0.97
   3  -1   6   17.97    0.94
   3  -1   6   16.80    0.82
   3  -1   6   15.87    1.07
  -3  -1  -6   15.80    0.96
  -3  -1  -6   16.11    1.08
  -3   1  -6   17.88    0.98
   3   1   6   16.97    0.74
   3   1   6   17.12    0.92
  -3   1  -6   16.00    0.92
  -3   1  -6   17.12    1.10
   3   1   6   16.62    0.93
  -3   1  -6   16.47    0.79
   3   1   6   16.42    1.03
  -3   1  -6   17.67    1.06
   3   1   6   16.79    0.95
   3   1   6   18.26    1.26
  -3   1  -6   16.76    0.92
   3   1   6   14.95    0.96
   5  -1   6   53.20    1.95
   5  -1   6   49.47    2.16
   5  -1   6   50.47    2.22
  -5  -1  -6   52.96    2.15
  -5  -1  -6   49.84    1.99
   5  -1   6   51.42    2.08
  -5  -1  -6   48.38    2.07
  -5  -1  -6   50.33    2.20
  -5  -1  -6   49.98    2.03
   5  -1   6   48.94    2.05
  -5  -1  -6   50.44    2.09
  -5  -1  -6   48.34    2.35
   5  -1   6   51.32    2.04
  -5   1  -6   50.41    2.21
  -5   1  -6   48.64    2.05
   5   1   6   51.27    2.15
   5   1   6   44.61    2.06
   5   1   6   52.16    2.12
   5   1   6   50.93    2.17
   5   1   6   51.22    2.07
  -5   1  -6   49.15    2.19
  -5   1  -6   52.07    2.08
  -5   1  -6   49.14    2.32
  -5   1  -6   52.01    2.12
   5   1   6   51.62    2.10
  -5   1  -6   50.29    1.92
  -7  -1  -6   34.10    1.95
   7  -1   6   36.12    1.65
   7  -1   6   32.96    1.64
  -7  -1  -6   26.40    1.90
   7  -1   6   35.08    1.57
  -7  -1  -6   32.52    1.61
  -7  -1  -6   32.88    1.46
  -7  -1  -6   32.75    1.58
   7  -1   6   34.00    1.57
   7  -1   6   34.58    1.42
  -7   1  -6   34.28    1.58
  -7   1  -6   32.70    1.42
   7   1   6   32.71    1.62
   7   1   6   32.59    1.37
  -7   1  -6   34.14    1.61
  -7   1  -6   32.70    1.67
   7   1   6   34.35    1.63
   7   1   6   33.03    1.57
   7   1   6   33.82    1.58
   9  -1   6    5.67    0.68
   9  -1   6    4.62    0.55
  -9  -1  -6    5.01    0.77
  -9  -1  -6    5.52    0.78
   9  -1   6    5.65    0.83
   9  -1   6    4.61    0.65
   9  -1   6    4.34    0.71
  -9  -1  -6    5.15    0.57
  -9  -1  -6    5.14    0.72
  -9  -1  -6    4.65    0.67
   9   1   6    4.74    0.64
  -9   1  -6    4.34    0.61
   9   1   6    5.34    0.57
  -9   1  -6    6.19    0.77
  -9   1  -6    4.99    0.79
  -9   1  -6    4.14    0.53
   9   1   6    5.00    0.72
   9   1   6    4.16    0.63
  -9   1  -6    4.89    0.76
   9   1   6    5.84    0.77
 -11  -1  -6   28.09    1.53
  11  -1   6   27.13    1.50
  11  -1   6   24.16    1.27
 -11  -1  -6   25.91    1.40
 -11  -1  -6   27.56    1.50
  11  -1   6   27.10    1.44
 -11  -1  -6   26.64    1.48
  11  -1   6   26.54    1.52
  11  -1   6   25.75    1.52
  11   1   6   25.41    1.28
 -11   1  -6   25.78    1.45
  11   1   6   26.33    1.33
 -11   1  -6   26.62    1.49
 -11   1  -6   26.35    1.42
  11   1   6   26.48    1.45
 -11   1  -6   28.27    1.53
 -11   1  -6   28.42    1.30
  13  -1   6    6.40    0.92
  13  -1   6    6.59    0.84
 -13  -1  -6    5.73    0.93
 -13  -1  -6    5.49    1.13
 -13  -1  -6    6.38    0.87
  13  -1   6    7.11    0.82
 -13  -1  -6    7.61    1.00
  13  -1   6    4.49    0.70
  13   1   6    6.72    0.68
  13   1   6    6.73    0.87
 -13   1  -6    6.67    0.90
  13   1   6    6.42    0.91
 -13   1  -6    7.20    1.22
 -13   1  -6    5.91    0.73
  13   1   6    5.64    0.77
 -13   1  -6    4.45    0.66
 -15  -1  -6    5.98    0.98
  15  -1   6    5.20    0.90
  15  -1   6    6.41    0.89
 -15  -1  -6    6.75    0.90
  15  -1   6    5.36    0.76
 -15  -1  -6    4.99    0.77
  15   1   6    6.19    0.98
 -15   1  -6    6.90    0.88
 -15   1  -6    4.60    0.73
 -15   1  -6    6.27    0.99
  15   1   6    6.67    0.91
  15   1   6    6.51    0.66
  17  -1   6    2.92    0.86
 -17  -1  -6    3.75    0.77
 -17  -1  -6    3.19    0.87
 -17   1  -6    2.07    0.69
 -17   1  -6    3.22    0.89
  17   1   6    4.29    0.93
  19  -1   6    4.36    1.32
  19   1   6    3.20    1.07
  24  -2  -6    0.81    0.62
 -24  -2   6    3.14    1.20
  24  -2  -6    1.99    0.70
  24  -2  -6    1.60    0.76
  24   2  -6    3.61    0.63
  24   2  -6    2.53    0.62
  24   2  -6    4.61    0.87
 -22  -2   6   13.03    1.67
  22  -2  -6   11.79    1.08
  22  -2  -6   10.66    1.13
  22  -2  -6   12.35    1.17
  22   2  -6   12.91    1.17
  22   2  -6   13.19    1.04
  22   2  -6   11.17    1.01
  20  -2  -6    5.59    0.72
  20  -2  -6    4.62    0.59
  20  -2  -6    4.53    0.76
  20  -2  -6    4.10    0.62
  20  -2  -6    6.49    1.16
 -20  -2   6    5.56    1.12
  20   2  -6    4.47    0.63
  20   2  -6    4.64    0.75
  20   2  -6    5.16    0.55
  20   2  -6    3.11    0.62
  20   2  -6    5.02    0.65
  18  -2  -6   30.40    1.48
  18  -2  -6   28.75    1.59
  18  -2  -6   30.01    1.50
  18  -2  -6   28.15    1.38
  18  -2  -6   28.03    1.20
 -18  -2   6   30.21    2.01
  18  -2  -6   28.69    1.67
  18   2  -6   27.98    1.30
  18   2  -6   31.64    1.56
  18   2  -6   29.65    1.39
  18   2  -6   28.58    1.42
  16  -2  -6    3.42    0.65
 -16  -2   6    4.06    0.74
  16  -2  -6    3.33    0.54
  16  -2  -6    4.52    0.61
  16  -2  -6    3.67    0.71
 -16  -2   6    4.22    0.93
  16  -2  -6    3.12    0.52
  16  -2  -6    3.57    0.40
  16   2  -6    2.81    0.54
  16   2  -6    4.43    0.65
  16   2  -6    3.79    0.57
  16   2  -6    4.17    0.63
  16   2  -6    3.27    0.51
  16   2  -6    2.55    0.56
 -16   2   6    4.59    0.82
  16   2  -6    4.74    0.57
  14  -2  -6   51.38    1.99
  14  -2  -6   51.16    2.19
 -14  -2   6   52.72    2.39
  14  -2  -6   54.11    2.40
  14  -2  -6   52.44    2.23
  14  -2  -6   54.25    2.11
  14  -2  -6   51.26    2.08
  14   2  -6   52.69    2.21
  14   2  -6   49.19    2.23
  14   2  -6   54.07    2.14
  14   2  -6   53.25    2.01
  14   2  -6   52.84    2.15
  14   2  -6   51.47    2.15
  14   2  -6   51.37    2.25
 -14   2   6   52.52    2.42
  12  -2  -6   24.07    1.92
  12  -2  -6   21.43    1.33
 -12  -2   6   22.01    1.37
  12  -2  -6   22.84    0.96
  12  -2  -6   21.96    1.22
  12  -2  -6   20.58    1.43
  12  -2  -6   21.44    1.02
 -12  -2   6   21.92    1.21
  12  -2  -6   23.11    1.08
 -12  -2   6   21.37    1.46
  12  -2  -6   23.19    1.40
  12   2  -6   22.56    1.27
 -12   2   6   22.38    1.39
  12   2  -6   20.78    1.18
  12   2  -6   23.79    1.39
  12   2  -6   22.40    0.97
 -12   2   6   21.98    0.92
  12   2  -6   22.62    1.18
  12   2  -6   21.31    1.09
  12   2  -6   21.35    1.13
  12   2  -6   22.11    1.15
 -12   2   6   21.06    0.89
 -10  -2   6   22.92    1.36
  10  -2  -6   24.83    1.27
 -10  -2   6   23.17    1.20
  10  -2  -6   21.79    1.25
  10  -2  -6   22.77    1.07
  10  -2  -6   22.73    0.97
  10  -2  -6   23.11    1.37
 -10  -2   6   22.41    1.44
  10  -2  -6   22.55    1.27
 -10  -2   6   22.07    0.87
  10  -2  -6   21.57    1.28
 -10  -2   6   22.89    0.91
  10   2  -6   22.22    1.17
  10   2  -6   22.36    1.40
  10   2  -6   22.44    1.23
 -10   2   6   23.27    1.39
 -10   2   6   22.46    0.96
  10   2  -6   22.74    1.14
  10   2  -6   21.53    1.18
  10   2  -6   23.04    1.06
 -10   2   6   22.21    0.90
   8  -2  -6   42.26    2.04
   8  -2  -6   43.11    1.63
   8  -2  -6   41.04    1.90
   8  -2  -6   45.71    1.96
   8  -2  -6   41.16    1.51
  -8  -2   6   42.35    1.58
  -8  -2   6   40.93    2.05
   8  -2  -6   42.63    1.94
   8  -2  -6   44.78    1.71
   8  -2  -6   41.43    1.91
   8  -2  -6   42.45    1.48
  -8  -2   6   40.82    1.98
  -8  -2   6   42.75    1.70
  -8  -2   6   41.72    1.81
  -8  -2   6   43.12    1.54
  -8   2   6   43.26    1.99
  -8   2   6   42.58    1.64
  -8   2   6   41.03    1.66
   8   2  -6   41.14    1.65
   8   2  -6   42.05    1.94
   8   2  -6   40.88    1.80
  -8   2   6   44.02    1.97
  -8   2   6   40.84    1.59
   8   2  -6   42.96    1.77
  -6  -2   6   18.73    0.99
   6  -2  -6   20.09    1.19
   6  -2  -6   19.85    1.23
  -6  -2   6   18.54    0.92
   6  -2  -6   20.40    0.90
   6  -2  -6   19.92    1.13
  -6  -2   6   19.00    1.07
   6  -2  -6   20.36    0.82
  -6  -2   6   20.77    1.24
   6  -2  -6   17.99    1.14
  -6  -2   6   20.34    0.88
  -6  -2   6   19.44    0.83
   6  -2  -6   20.72    0.83
   6  -2  -6   20.40    0.95
  -6   2   6   18.57    0.88
   6   2  -6   19.14    1.10
  -6   2   6   18.44    0.93
  -6   2   6   20.29    1.20
   6   2  -6   19.89    1.12
   6   2  -6   19.37    1.01
   6   2  -6   20.09    1.08
  -6   2   6   19.03    1.20
   6   2  -6   20.20    0.81
  -6   2   6   19.11    0.92
   6   2  -6   19.21    1.18
   6   2  -6   19.43    0.89
  -6   2   6   20.45    1.15
   6   2  -6   19.95    0.80
  -4  -2   6   39.29    1.93
  -4  -2   6   42.15    1.59
   4  -2  -6   41.81    1.62
   4  -2  -6   41.82    1.63
   4  -2  -6   41.78    1.62
   4  -2  -6   42.31    1.93
   4  -2  -6   40.53    1.64
  -4  -2   6   42.62    1.82
  -4  -2   6   42.93    1.72
   4  -2  -6   41.23    1.85
  -4  -2   6   41.73    1.64
   4  -2  -6   39.70    1.89
   4   2  -6   41.78    1.79
  -4   2   6   42.22    1.66
   4   2  -6   41.62    1.86
  -4   2   6   41.21    1.65
  -4   2   6   40.72    1.95
   4   2  -6   41.76    1.81
   4   2  -6   40.27    1.90
   4   2  -6   42.88    1.59
  -4   2   6   37.54    1.81
   4   2  -6   42.11    1.87
   4   2  -6   43.21    1.62
   4   2  -6   42.35    1.61
  -4   2   6   43.60    1.92
  -4   2   6   42.59    1.93
   2  -2  -6   19.62    0.91
   2  -2  -6   18.18    0.90
  -2  -2   6   17.26    1.18
  -2  -2   6   17.66    0.87
   2  -2  -6   19.22    1.15
   2  -2  -6   18.60    0.96
  -2  -2   6   19.36    0.96
   2  -2  -6   17.88    0.90
  -2  -2   6   17.81    0.93
   2  -2  -6   19.95    1.09
  -2  -2   6   17.69    1.10
  -2   2   6   19.18    1.00
   2   2  -6   19.42    0.90
  -2   2   6   18.66    0.92
   2   2  -6   19.55    1.00
  -2   2   6   18.53    1.11
  -2   2   6   17.97    0.92
   2   2  -6   19.06    1.03
   2   2  -6   18.54    1.15
  -2   2   6   18.43    1.10
  -2   2   6   21.48    1.54
   2   2  -6   19.24    1.13
   2   2  -6   19.28    0.83
   2   2  -6   18.73    1.09
   0  -2   6   97.57    3.52
   0  -2  -6   94.33    3.50
   0  -2   6   97.21    3.41
   0  -2  -6   95.47    3.46
   0  -2   6   96.40    3.59
   0  -2  -6   94.60    3.62
   0  -2   6   93.91    3.74
   0  -2  -6   95.85    3.70
   0  -2   6   99.56    3.46
   0  -2   6   93.82    3.68
   0  -2  -6   92.41    3.43
   0  -2  -6   95.26    3.45
   0   2  -6   95.44    3.65
   0   2   6   98.63    3.65
   0   2  -6   92.68    3.57
   0   2  -6   95.78    3.34
   0   2  -6   92.70    3.23
   0   2  -6   95.86    3.71
   0   2   6   94.92    3.48
   0   2  -6   95.03    3.45
   0   2   6   92.15    3.80
   0   2   6   93.63    3.55
   0   2   6   95.54    3.50
   0   2   6   94.35    3.71
   0   2   6   95.54    3.50
   0   2  -6   94.90    3.73
   0   2  -6   98.80    3.50
   0   2  -6   96.07    3.51
   2  -2   6    1.29    0.36
   2  -2   6    1.42    0.29
  -2  -2  -6    1.61    0.32
  -2  -2  -6    1.41    0.43
  -2  -2  -6    1.37    0.38
  -2  -2  -6    0.93    0.44
   2  -2   6    1.21    0.45
   2  -2   6    1.49    0.33
   2  -2   6    0.75    0.44
  -2  -2  -6    1.29    0.38
   2  -2   6    1.01    0.31
  -2  -2  -6    1.25    0.33
  -2  -2  -6    1.35    0.33
   2  -2   6    0.94    0.28
   2   2   6    1.28    0.36
   2   2   6    1.64    0.20
  -2   2  -6    1.27    0.26
  -2   2  -6    1.51    0.36
   2   2   6    1.17    0.38
  -2   2  -6    0.94    0.35
   2   2   6    1.16    0.36
   2   2   6    1.00    0.53
  -2   2  -6    1.44    0.36
   2   2   6    0.91    0.42
   2   2   6    1.09    0.38
  -2   2  -6    1.49    0.44
   2   2   6    1.31    0.22
  -2   2  -6    1.54    0.42
  -2   2  -6    1.61    0.21
   2   2   6    1.20    0.30
  -2   2  -6    1.30    0.43
  -4  -2  -6   70.76    2.86
  -4  -2  -6   66.51    2.73
  -4  -2  -6   68.16    2.65
  -4  -2  -6   69.02    2.66
   4  -2   6   69.91    2.76
   4  -2   6   69.73    2.69
   4  -2   6   70.44    2.91
   4  -2   6   66.83    2.67
  -4  -2  -6   65.45    3.00
   4  -2   6   70.01    2.60
  -4  -2  -6   69.88    2.76
   4  -2   6   68.75    2.59
  -4  -2  -6   71.06    2.72
  -4   2  -6   72.23    2.75
   4   2   6   68.49    2.73
  -4   2  -6   70.44    2.82
  -4   2  -6   70.20    2.96
  -4   2  -6   68.12    2.69
  -4   2  -6   71.73    2.70
   4   2   6   70.38    2.76
   4   2   6   79.60    3.15
   4   2   6   66.99    2.78
  -4   2  -6   70.28    2.87
   4   2   6   73.11    2.72
   4   2   6   69.82    3.06
  -4   2  -6   67.35    2.50
   4   2   6   68.02    2.47
  -6  -2  -6   10.82    0.88
   6  -2   6   10.77    0.69
   6  -2   6    7.63    0.90
  -6  -2  -6   11.04    0.85
   6  -2   6   10.48    0.77
  -6  -2  -6   10.59    0.72
   6  -2   6    9.86    0.78
   6  -2   6   10.23    0.81
  -6  -2  -6    9.36    0.91
  -6  -2  -6    9.31    0.77
  -6  -2  -6    9.29    0.74
  -6   2  -6    9.85    0.94
  -6   2  -6   10.72    0.84
  -6   2  -6   10.51    0.81
   6   2   6    9.93    0.79
  -6   2  -6    9.62    0.81
   6   2   6    9.62    0.60
  -6   2  -6   10.64    0.62
  -6   2  -6   10.15    0.84
   6   2   6   11.08    1.24
   6   2   6   10.14    0.80
   6   2   6    9.33    0.82
   8  -2   6   25.99    1.25
  -8  -2  -6   27.22    1.43
   8  -2   6   26.39    1.38
  -8  -2  -6   26.86    1.49
  -8  -2  -6   26.88    1.32
   8  -2   6   26.22    1.37
   8  -2   6   26.75    1.50
  -8  -2  -6   27.32    1.49
   8  -2   6   27.32    1.44
  -8  -2  -6   27.12    1.35
   8   2   6   26.49    1.32
  -8   2  -6   28.28    1.51
   8   2   6   28.04    1.50
   8   2   6   27.39    1.21
  -8   2  -6   27.53    1.20
  -8   2  -6   28.47    1.40
  -8   2  -6   26.38    1.46
  -8   2  -6   27.08    1.42
  -8   2  -6   27.81    1.41
   8   2   6   28.20    1.42
  10  -2   6    9.26    0.85
 -10  -2  -6    8.77    0.84
  10  -2   6    8.75    1.39
  10  -2   6    8.67    0.88
 -10  -2  -6   10.21    0.96
 -10  -2  -6    8.94    0.97
  10  -2   6    8.57    0.92
 -10  -2  -6    8.55    0.93
  10  -2   6    9.17    0.93
  10  -2   6    7.86    0.75
 -10   2  -6    8.00    0.64
 -10   2  -6    7.35    0.90
  10   2   6    8.65    0.86
  10   2   6    8.91    1.40
  10   2   6    8.69    0.72
 -10   2  -6    9.00    0.94
 -10   2  -6    7.15    0.83
 -10   2  -6    7.92    0.86
  10   2   6    9.29    0.95
 -10   2  -6   10.06    0.94
  10   2   6    8.75    0.88
 -12  -2  -6   17.95    1.25
  12  -2   6   19.54    1.90
 -12  -2  -6   17.19    1.17
  12  -2   6   18.26    1.33
  12  -2   6   17.27    1.23
  12  -2   6   18.42    1.19
 -12  -2  -6   17.45    1.25
  12  -2   6   15.90    1.20
 -12  -2  -6   17.42    1.34
 -12   2  -6   17.40    1.24
  12   2   6   20.30    1.42
 -12   2  -6   18.14    1.22
  12   2   6   16.36    1.05
  12   2   6   17.56    1.24
 -12   2  -6   16.74    1.32
  12   2   6   18.95    1.21
 -12   2  -6   17.69    1.25
  12   2   6   18.94    1.01
 -12   2  -6   19.01    1.19
 -14  -2  -6    2.91    0.68
 -14  -2  -6    2.79    0.72
  14  -2   6    2.33    0.76
  14  -2   6    2.24    0.55
 -14  -2  -6    1.61    0.67
  14  -2   6    1.28    0.71
  14  -2   6    2.15    1.02
  14   2   6    1.88    0.73
  14   2   6    2.30    0.42
 -14   2  -6    3.07    0.65
 -14   2  -6    2.31    0.60
  14   2   6    1.66    0.55
  14   2   6    1.73    0.77
 -14   2  -6    1.71    0.62
  16  -2   6    4.65    1.25
  16  -2   6    4.34    0.67
 -16  -2  -6    4.90    0.80
 -16  -2  -6    3.36    0.86
  16  -2   6    4.39    0.69
 -16  -2  -6    4.90    0.79
  16  -2   6    4.71    0.90
  16   2   6    6.81    0.96
 -16   2  -6    5.81    0.81
 -16   2  -6    3.22    0.71
  16   2   6    5.01    0.95
 -16   2  -6    6.03    0.91
  16   2   6    3.48    0.78
  18  -2   6    4.29    1.55
  18  -2   6    4.17    1.07
  18   2   6    2.75    1.01
 -18   2  -6    3.48    0.83
  18   2   6    4.32    0.89
 -23  -3   6    7.42    1.49
  23  -3  -6    6.93    0.95
  23  -3  -6    8.30    1.07
  23  -3  -6    6.04    0.88
  23   3  -6    6.88    0.92
  23   3  -6    5.72    0.85
  23   3  -6    6.94    0.95
  21  -3  -6    7.45    1.08
  21  -3  -6   11.19    1.03
  21  -3  -6    9.07    1.01
 -21  -3   6    8.58    1.61
  21   3  -6   10.12    1.03
  21   3  -6    8.31    0.88
  21   3  -6    7.00    1.18
  19  -3  -6   26.90    1.54
  19  -3  -6   28.11    1.43
 -19  -3   6   28.23    2.13
  19  -3  -6   31.00    1.34
  19  -3  -6   31.48    1.54
  19  -3  -6   28.48    1.37
  19  -3  -6   30.55    1.72
  19   3  -6   30.32    1.59
 -19   3   6   23.87    1.35
  19   3  -6   29.35    1.58
  19   3  -6   29.00    1.38
  19   3  -6   26.89    1.25
  19   3  -6   28.55    1.54
  17  -3  -6   18.06    1.35
 -17  -3   6   15.89    1.30
  17  -3  -6   16.36    1.01
  17  -3  -6   16.54    1.03
 -17  -3   6   16.84    1.65
  17  -3  -6   18.03    1.11
  17  -3  -6   15.91    0.71
  17  -3  -6   17.10    1.03
  17   3  -6   15.74    1.10
  17   3  -6   16.21    1.12
 -17   3   6   15.10    0.84
  17   3  -6   16.06    1.06
  17   3  -6   16.77    0.93
 -17   3   6   15.69    0.73
  17   3  -6   15.63    1.13
  17   3  -6   15.99    0.82
  15  -3  -6   51.61    2.19
  15  -3  -6   50.77    1.86
  15  -3  -6   50.20    1.93
 -15  -3   6   55.50    2.42
  15  -3  -6   46.57    2.90
  15  -3  -6   53.09    2.17
 -15  -3   6   52.32    2.68
  15  -3  -6   53.23    2.22
  15  -3  -6   50.29    2.09
  15   3  -6   49.44    2.14
 -15   3   6   46.29    2.05
 -15   3   6   49.99    1.86
  15   3  -6   52.79    2.25
  15   3  -6   49.36    2.50
  15   3  -6   52.49    2.18
 -15   3   6   56.59    2.52
  15   3  -6   52.91    2.01
 -15   3   6   50.56    1.81
  15   3  -6   50.44    2.21
  15   3  -6   52.00    2.01
  13  -3  -6   20.34    1.39
 -13  -3   6   19.43    1.33
  13  -3  -6   21.16    1.15
  13  -3  -6   20.18    1.17
  13  -3  -6   18.93    0.85
  13  -3  -6   19.32    0.82
  13  -3  -6   19.27    0.97
 -13  -3   6   20.52    1.52
 -13   3   6   19.52    1.41
  13   3  -6   18.91    1.07
  13   3  -6   20.44    1.10
 -13   3   6   19.86    0.80
  13   3  -6   20.07    0.90
  13   3  -6   18.82    0.99
  13   3  -6   19.81    1.14
  13   3  -6   18.01    1.09
 -13   3   6   19.20    0.85
 -13   3   6   19.07    0.87
  13   3  -6   20.96    1.23
 -13   3   6   18.37    0.93
  11  -3  -6   90.63    3.64
  11  -3  -6   94.64    3.47
  11  -3  -6   97.42    3.87
  11  -3  -6   95.12    3.28
 -11  -3   6  100.84    3.54
 -11  -3   6   95.59    3.97
  11  -3  -6  100.37    3.70
 -11  -3   6   93.84    3.77
 -11  -3   6   93.62    3.53
  11  -3  -6   88.58    3.55
 -11   3   6   91.74    3.40
 -11   3   6   93.29    3.31
 -11   3   6   97.90    3.82
  11   3  -6   96.27    3.58
  11   3  -6   93.21    3.56
 -11   3   6   92.35    3.34
  11   3  -6   95.28    3.50
  11   3  -6   97.01    3.60
  11   3  -6   95.24    3.54
  11   3  -6   94.48    3.53
 -11   3   6   95.35    3.65
   9  -3  -6   11.58    0.90
   9  -3  -6   11.06    0.90
   9  -3  -6   10.27    1.01
  -9  -3   6   10.96    0.99
  -9  -3   6   11.03    0.55
   9  -3  -6   10.35    0.56
   9  -3  -6   10.63    0.92
  -9  -3   6   10.99    0.77
   9  -3  -6   11.14    0.86
  -9  -3   6   11.12    0.75
  -9  -3   6   10.52    0.60
   9  -3  -6   10.87    0.46
  -9  -3   6    9.49    1.00
   9   3  -6   11.44    0.81
  -9   3   6   10.10    0.67
  -9   3   6   11.72    0.63
   9   3  -6   10.98    0.84
   9   3  -6   10.52    0.78
  -9   3   6   10.34    0.61
   9   3  -6   11.40    0.76
  -9   3   6   10.94    0.84
   9   3  -6   11.20    0.50
   9   3  -6    9.98    0.66
   9   3  -6   11.63    0.77
  -9   3   6   11.17    1.01
   7  -3  -6  184.88    6.27
   7  -3  -6  165.30    6.22
   7  -3  -6  169.16    6.21
  -7  -3   6  170.29    5.86
  -7  -3   6  168.88    6.34
  -7  -3   6  173.88    5.82
  -7  -3   6  169.70    5.99
   7  -3  -6  168.88    6.18
   7  -3  -6  166.70    5.83
   7  -3  -6  167.19    5.97
  -7  -3   6  165.28    5.96
   7  -3  -6  167.38    6.35
  -7  -3   6  166.81    6.31
   7  -3  -6  171.74    5.79
  -7   3   6  171.71    5.87
  -7   3   6  175.11    6.27
   7   3  -6  171.57    6.09
   7   3  -6  168.56    5.78
  -7   3   6  171.34    6.19
   7   3  -6  174.10    6.00
   7   3  -6  173.40    6.03
   7   3  -6  168.20    5.77
   7   3  -6  169.37    5.77
   7   3  -6  170.13    5.77
  -7   3   6  171.38    5.90
   7   3  -6  168.39    5.91
   7   3  -6  170.08    6.15
   7   3  -6  168.74    6.09
  -5  -3   6   30.21    1.32
  -5  -3   6   28.05    1.27
  -5  -3   6   27.51    1.57
   5  -3  -6   28.04    1.45
   5  -3  -6   27.73    1.49
   5  -3  -6   28.68    1.19
   5  -3  -6   29.01    1.30
  -5  -3   6   28.77    1.17
  -5  -3   6   27.30    1.24
  -5  -3   6   28.60    1.58
  -5  -3   6   27.70    1.33
   5  -3  -6   29.50    1.52
   5  -3  -6   29.74    1.20
   5  -3  -6   29.41    1.19
  -5   3   6   28.11    1.25
  -5   3   6   29.88    1.24
   5   3  -6   29.55    1.19
  -5   3   6   27.90    1.30
   5   3  -6   29.17    1.42
   5   3  -6   29.44    1.39
   5   3  -6   30.48    1.37
   5   3  -6   30.54    1.18
  -5   3   6   28.78    1.48
   5   3  -6   29.05    1.24
  -5   3   6   30.38    1.61
  -5   3   6   29.24    1.48
   3  -3  -6   78.61    2.98
   3  -3  -6   78.15    3.16
   3  -3  -6   77.97    2.94
   3  -3  -6   79.38    3.22
  -3  -3   6   81.60    3.01
  -3  -3   6   79.17    3.29
   3  -3  -6   79.41    2.92
  -3  -3   6   81.13    2.90
   3  -3  -6   79.60    2.90
  -3  -3   6   78.99    2.95
  -3  -3   6   80.94    2.95
  -3  -3   6   80.40    3.06
  -3   3   6   81.01    3.17
   3   3  -6   77.91    3.07
   3   3  -6   83.10    2.95
  -3   3   6   79.71    2.94
  -3   3   6   82.51    3.26
   3   3  -6   80.30    2.91
   3   3  -6   80.36    3.16
   3   3  -6   81.05    3.15
  -3   3   6   82.29    3.30
   3   3  -6   81.23    3.04
  -3   3   6   80.65    3.03
   3   3  -6   81.01    2.90
  -3   3   6   78.71    2.98
   1  -3  -6   30.21    1.34
  -1  -3   6   31.04    1.35
  -1  -3   6   27.51    1.59
   1  -3  -6   29.58    1.35
   1  -3  -6   29.37    1.56
  -1  -3   6   29.94    1.30
  -1  -3   6   29.72    1.47
   1  -3  -6   28.30    1.45
  -1  -3   6   28.82    1.33
   1  -3  -6   29.92    1.27
   1  -3  -6   29.71    1.31
  -1  -3   6   30.22    1.28
   1   3  -6   31.60    1.35
  -1   3   6   30.36    1.32
   1   3  -6   30.86    1.26
   1   3  -6   31.43    1.53
   1   3  -6   30.25    1.48
  -1   3   6   29.74    1.64
   1   3  -6   29.53    1.39
  -1   3   6   29.76    1.55
  -1   3   6   30.04    1.41
   1   3  -6   30.88    1.30
  -1   3   6   30.95    1.50
  -1   3   6   31.98    1.38
   1  -3   6   93.03    3.83
  -1  -3  -6   95.27    3.55
   1  -3   6   95.15    3.50
  -1  -3  -6   93.13    3.50
  -1  -3  -6   97.45    3.76
   1  -3   6   96.18    3.55
  -1  -3  -6   92.23    3.65
   1  -3   6   96.86    3.51
  -1  -3  -6   98.62    3.55
  -1  -3  -6   97.56    3.62
   1  -3   6   93.09    3.72
   1  -3   6   96.69    3.57
  -1   3  -6   96.82    3.68
   1   3   6   97.19    3.68
   1   3   6   97.45    3.59
   1   3   6   94.41    3.79
  -1   3  -6  101.12    3.70
  -1   3  -6   98.09    3.59
   1   3   6   93.97    3.64
   1   3   6   88.67    3.57
  -1   3  -6   98.85    3.53
  -1   3  -6  103.59    3.87
  -1   3  -6   95.32    3.43
   1   3   6   96.38    3.54
   1   3   6  102.78    3.94
   3  -3   6   40.86    1.64
  -3  -3  -6   36.91    1.70
  -3  -3  -6   39.39    2.00
  -3  -3  -6   38.00    1.80
  -3  -3  -6   38.76    1.85
   3  -3   6   34.65    1.47
  -3  -3  -6   37.39    1.64
   3  -3   6   36.62    1.90
  -3  -3  -6   36.77    1.60
   3  -3   6   38.70    1.59
  -3  -3  -6   36.53    1.66
   3  -3   6   37.41    1.64
   3  -3   6   37.81    1.69
  -3   3  -6   38.20    1.68
  -3   3  -6   37.17    1.63
   3   3   6   40.18    1.73
   3   3   6   40.14    1.67
   3   3   6   39.79    2.04
   3   3   6   37.47    1.74
   3   3   6   37.77    1.38
   3   3   6   38.72    1.73
   3   3   6   36.87    1.67
  -3   3  -6   40.10    1.87
  -3   3  -6   37.20    1.52
  -3   3  -6   36.75    1.73
   3   3   6   36.10    1.83
  -3   3  -6   40.71    1.71
   5  -3   6   46.32    2.26
  -5  -3  -6   46.84    1.97
  -5  -3  -6   49.20    2.19
  -5  -3  -6   46.78    2.02
   5  -3   6   50.00    1.95
   5  -3   6   45.40    1.90
  -5  -3  -6   49.35    2.12
   5  -3   6   48.80    2.01
  -5  -3  -6   50.25    2.07
  -5  -3  -6   47.60    2.20
   5   3   6   47.04    1.79
  -5   3  -6   50.85    2.22
   5   3   6   48.06    2.04
   5   3   6   48.89    1.81
   5   3   6   49.03    2.03
   5   3   6   46.51    2.20
   5   3   6   49.06    2.45
  -5   3  -6   40.86    1.88
   5   3   6   51.50    2.13
  -5   3  -6   49.02    2.04
  -5   3  -6   48.86    2.01
  -5   3  -6   50.40    2.09
  -5   3  -6   49.19    2.09
   5   3   6   48.74    2.06
  -7  -3  -6   35.68    1.73
  -7  -3  -6   40.17    1.81
  -7  -3  -6   33.25    1.60
   7  -3   6   34.60    1.72
  -7  -3  -6   34.17    1.63
   7  -3   6   36.07    1.89
  -7  -3  -6   35.89    1.64
   7  -3   6   40.38    2.40
   7  -3   6   36.30    1.66
  -7  -3  -6   38.28    1.83
   7  -3   6   36.87    1.64
   7  -3   6   38.23    1.59
   7   3   6   37.75    1.52
   7   3   6   36.00    1.61
   7   3   6   34.92    1.80
  -7   3  -6   39.51    1.76
  -7   3  -6   36.05    1.82
  -7   3  -6   34.67    1.67
  -7   3  -6   35.99    1.68
   7   3   6   37.02    1.71
   7   3   6   38.32    1.82
   7   3   6   35.30    1.75
  -7   3  -6   37.39    1.71
  -7   3  -6   33.43    1.44
   9  -3   6   10.54    1.17
  -9  -3  -6   11.21    0.97
   9  -3   6    8.82    1.46
  -9  -3  -6   10.89    1.02
   9  -3   6    9.53    0.85
   9  -3   6    9.69    0.92
  -9  -3  -6   10.51    1.03
   9  -3   6   10.38    0.79
   9  -3   6    9.52    0.89
  -9  -3  -6   10.01    0.86
   9   3   6   10.78    0.91
   9   3   6    9.05    0.88
  -9   3  -6   10.94    0.91
  -9   3  -6    8.67    0.84
  -9   3  -6    9.52    0.65
  -9   3  -6   11.19    0.96
  -9   3  -6   11.48    1.01
   9   3   6   10.43    0.80
   9   3   6   10.22    0.75
  -9   3  -6   10.76    1.04
  11  -3   6   24.67    1.40
 -11  -3  -6   26.90    1.43
  11  -3   6   26.40    1.50
 -11  -3  -6   26.50    1.61
 -11  -3  -6   27.58    1.56
  11  -3   6   25.73    1.50
  11  -3   6   28.25    2.23
  11  -3   6   26.27    1.62
 -11  -3  -6   25.76    1.53
 -11   3  -6   27.18    1.55
 -11   3  -6   26.22    1.41
 -11   3  -6   26.63    1.52
  11   3   6   22.81    1.48
  11   3   6   27.87    1.24
 -11   3  -6   26.42    1.47
  11   3   6   27.67    1.63
 -11   3  -6   27.46    1.45
  11   3   6   27.05    1.36
 -11   3  -6   25.11    1.21
  11   3   6   23.84    1.55
  13  -3   6    9.48    1.08
  13  -3   6    6.45    1.00
  13  -3   6    8.89    1.57
 -13  -3  -6    7.17    0.97
  13  -3   6    9.47    0.93
 -13  -3  -6    8.48    1.12
 -13  -3  -6    8.35    1.44
  13  -3   6    7.59    0.99
  13   3   6    8.65    1.07
  13   3   6    9.57    1.00
  13   3   6    8.03    0.64
 -13   3  -6   10.11    1.08
  13   3   6    9.77    0.99
 -13   3  -6    8.73    1.03
 -13   3  -6    9.03    1.01
 -15  -3  -6    7.08    0.90
  15  -3   6   10.19    1.86
  15  -3   6    8.27    1.06
 -15  -3  -6    7.08    0.96
  15  -3   6    8.77    0.97
  15  -3   6    6.74    1.00
 -15  -3  -6    7.35    1.16
 -15   3  -6    5.28    0.89
 -15   3  -6    7.23    1.02
  15   3   6    6.70    0.94
  15   3   6    8.26    1.07
 -15   3  -6    6.92    0.99
  15   3   6    7.33    1.08
  17  -3   6    1.88    0.68
 -17  -3  -6    2.51    0.79
  17  -3   6    4.12    0.95
  17  -3   6    4.54    1.46
 -17   3  -6    3.46    1.00
  17   3   6    3.59    0.86
 -17   3  -6    1.53    0.73
  17   3   6    3.61    1.00
  24   4  -6    2.85    0.67
  22  -4  -6   13.19    1.22
 -22  -4   6   13.42    2.09
  22  -4  -6   13.66    1.25
  22  -4  -6   12.60    1.29
  22   4  -6    8.57    1.21
  22   4  -6   12.93    1.26
  22   4  -6   11.76    0.98
 -20  -4   6    8.55    1.52
  20  -4  -6   10.40    0.99
  20  -4  -6    7.51    1.09
  20  -4  -6    7.48    0.98
  20   4  -6    7.33    0.91
  20   4  -6    6.82    0.92
 -20   4   6    6.40    0.84
  20   4  -6    7.26    0.99
  20   4  -6    7.04    0.80
  18  -4  -6   24.82    1.42
  18  -4  -6   24.80    1.28
  18  -4  -6   24.88    1.10
 -18  -4   6   24.66    1.57
 -18  -4   6   23.50    2.07
  18  -4  -6   26.43    1.64
  18  -4  -6   22.59    1.27
  18   4  -6   25.20    1.43
  18   4  -6   23.53    1.34
 -18   4   6   22.41    1.22
  18   4  -6   23.54    1.45
  18   4  -6   23.66    1.20
 -18   4   6   23.11    1.06
  18   4  -6   23.24    1.15
  16  -4  -6    7.60    0.78
 -16  -4   6    7.59    1.29
  16  -4  -6    5.49    0.73
  16  -4  -6    6.49    0.50
  16  -4  -6    6.50    0.99
  16  -4  -6    5.18    0.80
 -16  -4   6    6.61    1.04
  16   4  -6    7.63    0.85
  16   4  -6    6.40    0.57
 -16   4   6    5.81    0.46
  16   4  -6    8.27    0.86
  16   4  -6    5.64    0.84
  16   4  -6    8.15    0.75
  16   4  -6    7.13    0.51
  16   4  -6    5.90    0.60
 -16   4   6    8.45    1.16
 -16   4   6    5.08    0.65
 -14  -4   6   49.91    2.73
  14  -4  -6   51.83    1.89
  14  -4  -6   53.54    2.50
  14  -4  -6   52.34    2.21
 -14  -4   6   51.27    2.38
  14  -4  -6   48.76    2.17
  14   4  -6   50.04    2.12
  14   4  -6   49.81    2.24
 -14   4   6   47.65    2.00
 -14   4   6   49.90    1.86
 -14   4   6   47.22    2.18
 -14   4   6   47.65    1.93
  14   4  -6   55.20    2.19
  14   4  -6   51.97    1.97
  14   4  -6   49.62    1.92
  14   4  -6   50.25    2.13
  14   4  -6   53.08    1.94
 -14   4   6   52.91    2.46
 -12  -4   6   27.87    1.85
 -12  -4   6   28.19    1.42
  12  -4  -6   28.30    1.46
  12  -4  -6   26.76    2.26
  12  -4  -6   29.15    1.50
  12  -4  -6   28.99    1.12
  12  -4  -6   27.87    1.07
 -12  -4   6   28.93    1.64
 -12   4   6   28.69    1.69
 -12   4   6   27.14    1.22
  12   4  -6   28.96    1.16
 -12   4   6   29.59    1.50
 -12   4   6   27.05    1.25
  12   4  -6   28.94    1.71
  12   4  -6   29.59    1.39
  12   4  -6   29.20    1.36
 -12   4   6   29.85    1.18
  12   4  -6   27.94    1.37
 -12   4   6   28.02    1.29
  12   4  -6   28.91    1.26
  10  -4  -6   32.98    1.66
 -10  -4   6   32.00    1.38
 -10  -4   6   34.14    1.45
  10  -4  -6   32.23    1.32
  10  -4  -6   34.24    1.24
 -10  -4   6   33.58    1.55
  10  -4  -6   36.17    1.69
  10  -4  -6   34.23    1.90
  10  -4  -6   34.21    1.36
 -10  -4   6   33.39    1.80
  10   4  -6   33.64    1.54
 -10   4   6   31.91    1.40
  10   4  -6   33.79    1.47
 -10   4   6   33.22    1.46
  10   4  -6   32.90    1.48
 -10   4   6   34.28    1.67
  10   4  -6   33.31    1.52
  10   4  -6   35.91    1.63
  10   4  -6   33.86    1.21
   8  -4  -6   53.76    2.27
   8  -4  -6   51.51    2.24
   8  -4  -6   51.37    2.43
   8  -4  -6   51.80    2.04
  -8  -4   6   48.07    1.90
  -8  -4   6   48.59    1.94
  -8  -4   6   47.27    2.40
  -8  -4   6   47.06    2.04
   8  -4  -6   45.42    2.35
   8  -4  -6   50.86    2.47
  -8  -4   6   49.43    1.86
  -8  -4   6   50.16    2.50
   8  -4  -6   49.82    1.82
   8   4  -6   47.91    2.07
   8   4  -6   52.37    2.05
   8   4  -6   50.27    1.80
   8   4  -6   50.21    1.80
  -8   4   6   51.95    2.34
   8   4  -6   47.87    2.28
   8   4  -6   49.32    1.81
   8   4  -6   50.73    1.81
  -8   4   6   49.62    1.96
  -8   4   6   48.85    2.21
   8   4  -6   48.84    1.99
   8   4  -6   49.86    2.11
   8   4  -6   49.49    1.97
  -8   4   6   50.09    2.02
   6  -4  -6   23.85    1.16
   6  -4  -6   23.60    1.39
   6  -4  -6   23.83    1.03
   6  -4  -6   21.44    1.31
  -6  -4   6   25.94    1.51
  -6  -4   6   23.84    1.11
   6  -4  -6   24.34    1.06
   6  -4  -6   23.22    1.37
  -6  -4   6   23.47    1.07
   6  -4  -6   25.26    1.02
  -6  -4   6   22.92    1.02
   6  -4  -6   24.28    1.54
  -6  -4   6   22.54    1.46
  -6  -4   6   22.88    1.16
   6   4  -6   24.25    1.28
   6   4  -6   23.95    1.21
   6   4  -6   25.11    1.19
  -6   4   6   24.90    1.37
  -6   4   6   24.56    1.06
   6   4  -6   24.33    1.01
  -6   4   6   24.62    1.14
  -6   4   6   23.30    1.18
   6   4  -6   26.99    1.04
   6   4  -6   24.30    0.99
   6   4  -6   24.17    1.25
   6   4  -6   23.47    1.12
  -6   4   6   22.72    1.47
   4  -4  -6   46.03    1.77
  -4  -4   6   46.15    2.20
  -4  -4   6   46.39    1.92
  -4  -4   6   46.58    1.86
  -4  -4   6   46.23    1.90
   4  -4  -6   46.79    1.85
  -4  -4   6   45.95    2.23
   4  -4  -6   46.19    1.91
  -4  -4   6   48.74    1.80
   4  -4  -6   46.96    2.14
   4  -4  -6   46.24    2.10
  -4  -4   6   44.13    1.86
   4  -4  -6   45.69    1.82
  -4   4   6   46.85    1.82
  -4   4   6   46.36    2.14
   4   4  -6   44.56    2.02
  -4   4   6   49.34    2.23
  -4   4   6   45.98    1.89
   4   4  -6   46.01    1.80
   4   4  -6   47.10    2.00
   4   4  -6   48.43    1.85
  -4   4   6   46.77    1.96
   4   4  -6   47.79    1.86
   4   4  -6   47.23    1.98
   2  -4  -6   44.44    2.07
  -2  -4   6   42.90    1.84
  -2  -4   6   44.49    1.83
  -2  -4   6   45.26    2.18
  -2  -4   6   44.73    1.81
  -2  -4   6   43.15    1.83
   2  -4  -6   45.02    1.74
  -2  -4   6   44.26    2.09
   2  -4  -6   44.90    1.84
   2  -4  -6   43.56    1.85
   2  -4  -6   42.71    1.98
  -2  -4   6   44.69    1.75
   2  -4  -6   44.68    1.80
  -2   4   6   44.74    2.09
   2   4  -6   44.20    1.96
  -2   4   6   44.67    2.15
  -2   4   6   45.16    1.86
   2   4  -6   46.24    1.91
   2   4  -6   44.83    1.77
   2   4  -6   45.00    1.79
   2   4  -6   46.59    1.99
  -2   4   6   44.95    1.92
   2   4  -6   44.63    1.82
  -2   4   6   43.55    1.78
   0  -4   6   89.25    3.21
   0  -4  -6   85.75    3.17
   0  -4  -6   86.68    3.28
   0  -4  -6   90.91    3.31
   0  -4  -6   87.58    3.41
   0  -4  -6   84.64    3.24
   0  -4   6   83.07    3.32
   0  -4   6   87.51    3.27
   0  -4   6   86.75    3.24
   0  -4  -6   87.24    3.49
   0  -4   6   87.09    3.26
   0  -4   6   86.05    3.62
   0   4  -6   86.84    3.31
   0   4   6   87.11    3.30
   0   4  -6   89.41    3.44
   0   4  -6   86.29    3.21
   0   4   6   88.97    3.25
   0   4  -6   86.99    3.18
   0   4  -6   84.75    3.36
   0   4   6   90.78    3.62
   0   4   6   87.80    3.36
   0   4   6   85.42    3.53
   0   4  -6   91.50    3.29
  -2  -4  -6    2.57    0.46
   2  -4   6    3.57    0.73
   2  -4   6    2.44    0.45
   2  -4   6    3.40    0.49
   2  -4   6    2.24    0.43
   2  -4   6    2.90    0.33
  -2  -4  -6    2.82    0.49
  -2  -4  -6    3.53    0.60
  -2  -4  -6    3.13    0.51
  -2  -4  -6    3.17    0.43
  -2  -4  -6    3.24    0.51
   2  -4   6    3.12    0.43
   2   4   6    2.22    0.54
   2   4   6    3.37    0.52
  -2   4  -6    3.47    0.59
  -2   4  -6    3.26    0.47
  -2   4  -6    2.79    0.43
  -2   4  -6    2.95    0.54
  -2   4  -6    2.28    0.46
   2   4   6    2.47    0.49
   2   4   6    2.52    0.50
  -2   4  -6    3.42    0.54
   2   4   6    2.66    0.50
   2   4   6    2.75    0.65
   2   4   6    4.01    0.51
  -4  -4  -6   68.54    2.86
   4  -4   6   66.07    2.59
  -4  -4  -6   64.24    2.65
  -4  -4  -6   62.97    2.64
   4  -4   6   62.73    2.92
   4  -4   6   68.87    3.38
  -4  -4  -6   66.98    2.64
  -4  -4  -6   64.30    2.56
  -4  -4  -6   67.44    2.72
   4  -4   6   67.65    2.57
   4   4   6   65.98    2.62
   4   4   6   59.44    3.81
  -4   4  -6   67.12    2.54
  -4   4  -6   65.90    2.67
  -4   4  -6   69.92    3.08
   4   4   6   65.63    2.91
  -4   4  -6   63.43    2.65
   4   4   6   67.23    2.68
   4   4   6   66.64    2.36
  -4   4  -6   67.01    2.61
   4   4   6   65.11    2.63
   4   4   6   71.38    2.76
  -4   4  -6   68.46    2.68
   6  -4   6   18.88    1.03
  -6  -4  -6   20.05    1.32
   6  -4   6   20.18    1.11
  -6  -4  -6   19.58    1.18
   6  -4   6   20.60    1.07
  -6  -4  -6   19.03    1.23
   6  -4   6   16.98    1.72
  -6  -4  -6   21.03    1.12
  -6  -4  -6   19.16    1.16
  -6   4  -6   20.99    1.21
   6   4   6   18.20    0.91
  -6   4  -6   19.66    1.17
   6   4   6   20.69    1.29
   6   4   6   15.41    1.14
   6   4   6   19.12    1.16
  -6   4  -6   19.60    1.14
   6   4   6   19.15    1.05
   6   4   6   20.70    1.55
  -6   4  -6   19.53    1.13
   8  -4   6   24.22    1.39
  -8  -4  -6   23.94    1.25
  -8  -4  -6   26.36    1.49
   8  -4   6   23.18    1.58
   8  -4   6   24.88    1.32
  -8  -4  -6   24.62    1.41
  -8  -4  -6   24.72    1.69
   8  -4   6   26.66    2.06
   8  -4   6   30.70    1.90
  -8  -4  -6   25.19    1.32
   8  -4   6   22.62    1.29
  -8   4  -6   24.21    1.42
   8   4   6   24.41    1.20
   8   4   6   27.98    1.41
   8   4   6   28.57    1.66
   8   4   6   24.89    1.43
   8   4   6   24.82    1.18
  -8   4  -6   24.70    1.37
  -8   4  -6   25.80    1.36
  -8   4  -6   25.22    1.33
  10  -4   6   10.68    1.59
  10  -4   6   10.05    0.96
 -10  -4  -6    8.67    1.23
  10  -4   6    8.54    0.95
 -10  -4  -6   10.07    0.91
  10  -4   6    8.97    0.91
  10  -4   6   10.09    1.14
 -10  -4  -6   10.00    1.04
 -10  -4  -6   11.34    1.18
  10   4   6   10.78    1.18
  10   4   6   10.80    0.83
  10   4   6   11.01    0.95
 -10   4  -6    9.62    1.15
 -10   4  -6    9.23    0.88
 -10   4  -6   10.27    1.07
 -10   4  -6   10.57    0.96
 -10   4  -6   10.80    1.00
  10   4   6    8.88    0.99
  12  -4   6   14.75    1.24
  12  -4   6   15.83    1.29
 -12  -4  -6   16.99    1.30
 -12  -4  -6   16.01    1.19
 -12  -4  -6   16.10    1.30
  12  -4   6   13.72    1.94
  12  -4   6   20.80    1.45
  12  -4   6   15.57    1.16
  12   4   6   19.21    1.47
  12   4   6   16.23    1.13
 -12   4  -6   17.00    1.22
  12   4   6   17.25    1.21
  12   4   6   19.50    1.29
 -12   4  -6   18.30    1.28
 -12   4  -6   15.48    2.13
  14  -4   6    3.47    0.72
  14  -4   6    2.54    0.86
  14  -4   6    3.60    1.38
  14  -4   6    2.88    0.59
 -14  -4  -6    2.83    0.77
 -14  -4  -6    3.23    0.73
 -14  -4  -6    2.23    0.63
 -14   4  -6    1.93    0.74
  14   4   6    3.04    0.81
 -14   4  -6    2.65    0.72
  14   4   6    2.93    0.63
  14   4   6    3.82    0.73
 -14   4  -6    2.90    0.67
 -16  -4  -6    4.64    0.89
 -16  -4  -6    3.93    0.83
 -16  -4  -6    3.83    0.95
  16  -4   6    4.09    1.50
  16  -4   6    4.63    0.93
 -16   4  -6    4.80    0.85
 -16   4  -6    4.08    0.90
  16   4   6    4.72    1.13
  16   4   6    3.63    1.03
 -16   4  -6    3.27    0.77
  18  -4   6    3.23    0.80
  18  -4   6    4.30    1.03
 -18   4  -6    2.60    0.83
  18   4   6    3.26    0.89
 -23  -5   6    3.16    1.72
  23  -5  -6    3.62    0.98
  23   5  -6    3.30    0.98
  23   5  -6    3.58    0.68
  23   5  -6    3.35    1.01
 -21  -5   6    5.40    1.44
  21  -5  -6    5.83    0.96
  21  -5  -6    4.33    0.82
  21   5  -6    4.63    0.84
  21   5  -6    5.53    0.88
  21   5  -6    3.69    0.71
 -19  -5   6   13.10    1.88
  19  -5  -6   16.07    1.40
  19  -5  -6   11.81    0.91
  19  -5  -6   13.47    1.17
 -19   5   6   11.57    1.02
  19   5  -6   11.37    0.87
  19   5  -6   13.45    1.26
  19   5  -6   16.37    1.35
 -17  -5   6    7.41    0.98
  17  -5  -6    6.67    0.56
  17  -5  -6    8.49    0.78
 -17  -5   6    7.12    1.38
  17  -5  -6    7.80    1.16
  17  -5  -6    5.93    0.81
  17  -5  -6    6.09    0.88
 -17   5   6    6.46    0.57
  17   5  -6    7.52    0.82
 -17   5   6    5.69    0.67
  17   5  -6    6.76    0.76
 -17   5   6    6.08    0.78
  17   5  -6    9.11    0.95
  17   5  -6    6.57    0.91
 -17   5   6    8.56    0.92
  15  -5  -6   22.13    0.95
  15  -5  -6   21.82    1.21
 -15  -5   6   20.38    1.49
 -15  -5   6   19.54    1.80
  15  -5  -6   22.07    1.54
  15  -5  -6   21.62    1.29
 -15   5   6   22.56    1.62
  15   5  -6   22.09    1.15
  15   5  -6   19.04    0.97
  15   5  -6   19.68    1.25
 -15   5   6   21.33    0.98
 -15   5   6   20.86    1.29
  15   5  -6   21.49    1.38
 -15   5   6   18.66    1.11
  13  -5  -6    7.13    1.07
  13  -5  -6    7.04    0.75
  13  -5  -6    7.53    0.84
 -13  -5   6    6.19    1.08
  13  -5  -6    6.54    0.46
 -13  -5   6    6.43    0.91
 -13   5   6    7.28    0.66
  13   5  -6    6.67    0.48
 -13   5   6    7.30    0.55
  13   5  -6    6.85    0.83
 -13   5   6    7.00    0.86
 -13   5   6    7.64    1.08
  13   5  -6    6.46    0.46
  13   5  -6    6.40    0.47
  13   5  -6    7.11    0.63
 -13   5   6    5.59    0.68
 -11  -5   6   34.44    1.69
 -11  -5   6   33.70    2.10
  11  -5  -6   36.91    1.75
  11  -5  -6   37.36    2.04
  11  -5  -6   35.84    1.76
  11  -5  -6   34.95    1.34
 -11  -5   6   35.57    1.91
 -11   5   6   38.10    1.95
 -11   5   6   33.07    1.75
  11   5  -6   33.62    1.33
  11   5  -6   36.08    1.61
 -11   5   6   33.43    1.52
 -11   5   6   33.04    1.43
  11   5  -6   38.04    1.76
  11   5  -6   33.93    1.31
 -11   5   6   32.66    1.50
  11   5  -6   35.45    1.43
  11   5  -6   36.50    1.51
  11   5  -6   35.31    1.31
 -11   5   6   35.54    1.59
  -9  -5   6    4.04    0.59
   9  -5  -6    4.15    0.30
   9  -5  -6    3.68    0.67
  -9  -5   6    3.43    0.84
   9  -5  -6    4.42    0.60
   9  -5  -6    3.48    0.32
   9  -5  -6    4.22    0.84
  -9  -5   6    3.82    0.50
   9  -5  -6    4.30    0.67
  -9  -5   6    3.96    0.78
  -9   5   6    3.10    0.62
   9   5  -6    4.24    0.36
   9   5  -6    4.13    0.49
   9   5  -6    3.80    0.80
   9   5  -6    3.57    0.34
  -9   5   6    3.90    0.37
   9   5  -6    3.74    0.37
  -9   5   6    4.58    0.53
   9   5  -6    3.85    0.54
  -9   5   6    3.57    0.50
   9   5  -6    3.63    0.50
  -9   5   6    3.82    0.68
   7  -5  -6   59.38    3.17
  -7  -5   6   64.20    2.36
  -7  -5   6   62.21    2.86
  -7  -5   6   64.59    2.56
  -7  -5   6   63.65    2.44
   7  -5  -6   68.75    2.56
   7  -5  -6   62.23    2.73
   7  -5  -6   67.73    2.48
  -7  -5   6   61.58    2.96
  -7  -5   6   66.13    2.39
   7   5  -6   65.24    2.36
  -7   5   6   63.22    2.78
   7   5  -6   64.54    2.33
   7   5  -6   65.09    2.50
   7   5  -6   63.14    2.49
  -7   5   6   62.67    2.55
   7   5  -6   65.82    2.40
  -7   5   6   63.67    3.15
   7   5  -6   63.77    2.66
   7   5  -6   63.93    2.35
   5  -5  -6    6.57    0.54
   5  -5  -6    6.82    0.84
  -5  -5   6    6.22    0.57
   5  -5  -6    6.65    0.85
   5  -5  -6    6.59    1.00
   5  -5  -6    6.48    0.64
   5  -5  -6    6.43    0.47
   5  -5  -6    6.72    0.57
  -5  -5   6    6.02    0.64
  -5  -5   6    6.68    0.97
  -5  -5   6    6.41    0.89
  -5  -5   6    6.22    0.51
   5   5  -6    5.20    0.67
  -5   5   6    6.65    0.89
   5   5  -6    6.63    0.55
  -5   5   6    7.12    0.52
   5   5  -6    5.23    0.72
   5   5  -6    6.15    0.49
   5   5  -6    6.50    0.51
  -5   5   6    5.96    0.67
   5   5  -6    6.26    0.62
  -3  -5   6   26.93    1.21
  -3  -5   6   25.26    1.26
  -3  -5   6   28.30    1.33
  -3  -5   6   26.66    1.69
   3  -5  -6   27.37    1.33
  -3  -5   6   28.30    1.59
   3  -5  -6   27.39    1.48
  -3  -5   6   27.91    1.28
   3  -5  -6   26.53    1.26
   3  -5  -6   27.93    1.19
   3  -5  -6   28.06    1.30
   3  -5  -6   30.04    1.59
   3   5  -6   28.63    1.28
   3   5  -6   28.53    1.24
   3   5  -6   27.86    1.35
  -3   5   6   27.97    1.24
  -3   5   6   29.73    1.64
  -3   5   6   27.07    1.32
  -3   5   6   29.10    1.41
   3   5  -6   28.05    1.36
  -3   5   6   28.54    1.80
   3   5  -6   26.57    1.40
   3   5  -6   27.21    1.40
  -1  -5   6   11.14    0.77
   1  -5  -6   10.05    0.79
  -1  -5   6   11.32    1.01
  -1  -5   6    9.49    1.11
   1  -5  -6   11.18    1.04
   1  -5  -6   11.06    0.92
   1  -5  -6   11.80    0.77
   1  -5  -6   10.17    0.90
   1  -5  -6   10.89    0.69
  -1  -5   6   11.66    0.70
  -1  -5   6   10.73    0.76
  -1  -5   6   11.15    0.78
   1   5  -6   11.34    0.73
   1   5  -6   11.70    0.78
   1   5  -6   11.12    0.83
   1   5  -6   10.87    0.84
   1   5  -6   12.10    0.89
   1   5  -6   11.32    0.95
  -1   5   6   10.80    0.79
  -1   5   6   11.15    0.83
  -1   5   6   10.84    0.73
  -1   5   6   11.11    1.07
  -1  -5  -6   35.87    1.63
  -1  -5  -6   34.05    1.84
  -1  -5  -6   33.52    1.47
   1  -5   6   35.31    1.50
   1  -5   6   33.64    1.53
   1  -5   6   35.31    2.13
   1  -5   6   38.53    1.64
  -1  -5  -6   35.77    1.57
  -1  -5  -6   33.91    1.57
   1  -5   6   28.95    2.07
  -1  -5  -6   33.95    1.65
  -1   5  -6   34.00    1.57
   1   5   6   35.53    1.61
   1   5   6   33.22    1.53
  -1   5  -6   33.70    1.51
  -1   5  -6   34.11    1.64
  -1   5  -6   33.52    1.49
  -1   5  -6   33.24    1.60
  -1   5  -6   34.61    1.67
   1   5   6   34.57    2.00
   1   5   6   35.03    1.68
   3  -5   6   11.79    1.50
  -3  -5  -6   12.60    0.93
  -3  -5  -6   12.66    0.92
  -3  -5  -6   12.38    0.82
   3  -5   6   11.51    0.71
   3  -5   6   14.22    0.88
   3  -5   6   12.52    0.82
  -3  -5  -6   13.52    0.98
   3  -5   6   11.15    1.26
  -3  -5  -6   13.07    0.92
   3   5   6   13.93    0.89
  -3   5  -6   12.76    1.03
   3   5   6   13.20    1.02
   3   5   6   13.29    0.95
  -3   5  -6   13.52    0.91
  -3   5  -6   13.51    0.84
  -3   5  -6   12.47    1.30
  -3   5  -6   14.06    0.87
   3   5   6   12.92    0.63
  -3   5  -6   12.80    0.91
   3   5   6   13.33    1.23
   5  -5   6   20.65    1.09
  -5  -5  -6   22.35    1.23
   5  -5   6   23.77    1.63
  -5  -5  -6   22.70    1.35
  -5  -5  -6   22.02    1.29
   5  -5   6   23.45    1.19
  -5  -5  -6   22.51    1.50
   5  -5   6   23.02    1.21
   5  -5   6   23.65    1.96
  -5  -5  -6   22.41    1.44
   5   5   6   22.96    1.67
   5   5   6   22.48    0.98
  -5   5  -6   22.53    1.22
   5   5   6   23.48    1.61
  -5   5  -6   22.53    1.29
  -5   5  -6   22.33    1.22
  -5   5  -6   21.68    1.14
  -5   5  -6   23.12    1.57
   5   5   6   24.26    1.29
  -7  -5  -6   15.30    1.13
  -7  -5  -6   15.93    1.00
   7  -5   6   15.73    1.81
  -7  -5  -6   14.84    1.40
   7  -5   6   15.27    1.00
   7  -5   6   15.90    1.08
   7  -5   6   14.73    0.97
   7  -5   6   13.27    1.35
  -7  -5  -6   14.81    1.03
  -7  -5  -6   16.11    1.22
   7   5   6   15.65    1.15
  -7   5  -6   17.10    1.08
  -7   5  -6   15.69    1.13
   7   5   6   15.80    1.07
  -7   5  -6   15.51    1.11
   7   5   6   15.98    0.86
   7   5   6   17.66    1.49
   7   5   6   16.59    1.25
  -7   5  -6   14.72    1.01
   9  -5   6    4.14    0.67
  -9  -5  -6    4.42    0.60
  -9  -5  -6    3.76    0.68
  -9  -5  -6    4.47    0.65
   9  -5   6    6.32    0.99
   9  -5   6    5.08    0.64
   9  -5   6    4.34    0.65
   9  -5   6    5.30    1.24
  -9  -5  -6    4.99    0.83
  -9  -5  -6    4.70    0.82
   9   5   6    5.45    0.86
  -9   5  -6    4.27    0.73
  -9   5  -6    5.14    0.73
   9   5   6    5.63    0.75
   9   5   6    4.84    0.58
   9   5   6    4.93    0.73
  -9   5  -6    4.99    0.70
  -9   5  -6    4.53    0.67
  11  -5   6   14.71    1.90
  11  -5   6   15.19    1.09
 -11  -5  -6   13.78    1.27
  11  -5   6   13.84    1.16
  11  -5   6   13.69    1.25
 -11  -5  -6   13.15    1.10
  11  -5   6   13.04    1.35
 -11  -5  -6   14.51    1.28
  11   5   6   15.35    1.14
 -11   5  -6   13.18    1.18
 -11   5  -6   15.35    1.18
 -11   5  -6   12.42    1.28
  11   5   6   14.13    1.00
  11   5   6   16.15    1.39
  11   5   6   14.70    1.21
 -13  -5  -6    6.03    0.93
  13  -5   6    5.88    0.87
  13  -5   6    5.31    1.39
  13  -5   6    3.28    0.61
 -13  -5  -6    4.47    0.84
 -13  -5  -6    4.68    0.75
  13  -5   6    5.52    0.90
 -13   5  -6    4.58    0.73
  13   5   6    4.79    0.68
 -13   5  -6    4.16    0.83
  13   5   6    6.15    1.03
 -13   5  -6    5.83    0.89
  15  -5   6    2.24    0.74
 -15  -5  -6    4.22    0.88
 -15  -5  -6    3.51    0.94
  15  -5   6    5.41    0.94
  15  -5   6    4.75    0.90
  15  -5   6    1.88    1.46
  15   5   6    3.40    0.78
  15   5   6    3.43    0.97
 -15   5  -6    3.22    0.81
 -15   5  -6    4.87    0.79
 -15   5  -6    2.71    0.87
  17  -5   6    4.61    0.88
  17  -5   6    2.26    0.93
 -17   5  -6    2.06    0.80
  17   5   6    2.64    0.84
  22  -6  -6    7.96    1.41
  22   6  -6    6.17    1.24
  22   6  -6    6.07    1.09
 -20  -6   6    5.22    1.25
 -20  -6   6    7.43    1.71
  20  -6  -6    7.13    1.00
  20  -6  -6    8.53    1.32
 -20   6   6    4.43    0.79
  20   6  -6    5.33    0.97
  20   6  -6    8.12    0.82
  20   6  -6    7.39    1.00
 -18  -6   6   18.76    2.15
  18  -6  -6   17.18    1.21
  18  -6  -6   21.08    1.38
  18  -6  -6   19.93    1.65
  18   6  -6   20.59    1.51
  18   6  -6   18.95    1.30
  18   6  -6   20.63    1.06
  16  -6  -6    8.30    1.26
  16  -6  -6    7.45    1.43
 -16  -6   6    9.75    1.68
  16  -6  -6   10.46    0.83
  16   6  -6    8.61    0.64
  16   6  -6    8.94    1.08
  16   6  -6   10.78    0.98
 -16   6   6    7.49    0.88
 -16   6   6    7.86    1.13
 -14  -6   6   36.78    2.47
 -14  -6   6   35.34    2.42
  14  -6  -6   37.62    2.60
  14  -6  -6   37.25    1.47
  14  -6  -6   39.60    1.81
  14   6  -6   36.52    1.91
  14   6  -6   40.72    1.64
 -14   6   6   36.32    1.66
  14   6  -6   40.26    1.82
 -14   6   6   38.52    2.10
  14   6  -6   38.30    1.96
 -14   6   6   34.36    1.70
 -14   6   6   33.75    1.63
  14   6  -6   37.90    1.37
 -14   6   6   37.98    1.57
  12  -6  -6   27.45    1.82
 -12  -6   6   29.25    1.90
 -12  -6   6   26.62    1.98
  12  -6  -6   29.91    1.50
  12  -6  -6   26.89    1.11
  12   6  -6   27.37    1.43
 -12   6   6   27.52    1.24
  12   6  -6   27.53    1.07
 -12   6   6   29.57    1.77
  12   6  -6   25.64    1.13
 -12   6   6   27.95    1.36
  12   6  -6   27.25    1.10
 -12   6   6   25.06    1.37
  12   6  -6   28.19    1.23
  12   6  -6   27.06    1.14
  12   6  -6   26.22    1.05
  12   6  -6   28.60    1.13
  12   6  -6   26.97    1.57
 -10  -6   6   22.69    1.77
  10  -6  -6   27.67    1.47
  10  -6  -6   26.77    1.77
  10  -6  -6   24.55    0.99
 -10  -6   6   23.88    1.71
  10   6  -6   25.49    1.46
 -10   6   6   25.81    1.61
  10   6  -6   24.87    1.06
 -10   6   6   23.39    1.27
  10   6  -6   24.88    1.03
  10   6  -6   23.48    1.05
  10   6  -6   22.79    1.22
 -10   6   6   24.58    1.16
  10   6  -6   23.41    1.05
   8  -6  -6   33.25    1.43
   8  -6  -6   35.02    2.15
  -8  -6   6   37.60    1.64
   8  -6  -6   40.09    2.20
   8  -6  -6   38.88    1.38
  -8  -6   6   36.43    2.13
  -8  -6   6   36.31    1.75
  -8  -6   6   35.36    2.17
  -8   6   6   38.00    1.98
   8   6  -6   38.19    1.49
   8   6  -6   39.57    1.52
   8   6  -6   37.39    1.69
   8   6  -6   38.51    1.55
  -8   6   6   36.74    1.42
   8   6  -6   38.88    1.85
  -8   6   6   36.74    1.71
   8   6  -6   38.90    1.52
   8   6  -6   38.02    1.55
   6  -6  -6   38.95    2.16
  -6  -6   6   35.63    2.11
  -6  -6   6   34.10    2.75
  -6  -6   6   35.49    1.70
   6  -6  -6   37.07    1.55
   6  -6  -6   35.31    1.43
  -6  -6   6   37.60    1.62
   6  -6  -6   35.73    2.04
   6   6  -6   38.39    1.67
   6   6  -6   39.38    1.58
  -6   6   6   36.80    1.48
  -6   6   6   38.61    1.95
   6   6  -6   37.53    1.49
   6   6  -6   38.01    1.60
   6   6  -6   37.56    1.79
  -6   6   6   37.75    1.72
   6   6  -6   36.77    1.54
   6   6  -6   37.26    1.53
  -4  -6   6   36.13    2.01
  -4  -6   6   38.18    1.72
   4  -6  -6   35.90    1.50
   4  -6  -6   39.34    1.90
   4  -6  -6   39.20    2.17
  -4  -6   6   39.32    1.66
  -4  -6   6   36.19    1.44
   4  -6  -6   36.89    1.65
   4  -6  -6   38.87    1.98
   4  -6  -6   35.63    1.60
   4   6  -6   37.63    1.80
   4   6  -6   38.48    1.69
   4   6  -6   40.14    1.60
   4   6  -6   38.30    1.58
  -4   6   6   36.76    1.99
  -4   6   6   38.37    1.55
  -4   6   6   39.69    1.76
   4   6  -6   37.50    1.86
   4   6  -6   39.36    1.68
   2  -6  -6   27.08    1.22
   2  -6  -6   28.29    1.87
   2  -6  -6   28.24    1.57
   2  -6  -6   26.80    1.36
  -2  -6   6   27.98    1.38
  -2  -6   6   28.91    1.27
  -2  -6   6   26.28    1.18
   2  -6  -6   25.87    1.54
  -2  -6   6   28.05    1.34
   2  -6  -6   27.55    1.34
  -2  -6   6   27.38    1.80
  -2  -6   6   28.14    1.66
   2  -6  -6   28.47    1.64
  -2   6   6   28.12    1.46
   2   6  -6   29.29    1.36
  -2   6   6   28.65    1.73
   2   6  -6   28.33    1.38
  -2   6   6   28.80    1.29
   2   6  -6   28.23    1.48
  -2   6   6   29.29    1.40
   2   6  -6   28.78    1.36
   2   6  -6   27.07    1.42
   2   6  -6   29.62    1.30
   0  -6   6   59.74    2.66
   0  -6   6   60.32    2.34
   0  -6  -6   62.60    2.44
   0  -6   6   58.38    3.00
   0  -6  -6   59.35    2.32
   0  -6  -6   63.29    2.50
   0  -6  -6   57.24    2.56
   0  -6   6   55.14    2.30
   0  -6   6   59.26    2.42
   0  -6   6   60.25    2.90
   0  -6  -6   60.68    2.68
   0   6  -6   56.01    2.45
   0   6  -6   59.44    2.37
   0   6   6   62.41    2.48
   0   6   6   60.33    2.38
   0   6  -6   56.84    2.46
   0   6  -6   63.95    2.42
   0   6  -6   59.09    2.50
   0   6  -6   60.96    2.43
   0   6   6   62.52    2.76
  -2  -6  -6   12.77    0.97
  -2  -6  -6   12.82    1.15
   2  -6   6   12.44    0.83
  -2  -6  -6   13.42    1.00
   2  -6   6   11.60    0.91
  -2  -6  -6   11.68    0.82
   2  -6   6   11.68    1.46
   2  -6   6   13.38    1.37
  -2  -6  -6   14.33    0.96
   2  -6   6   11.99    0.90
  -2   6  -6   13.92    0.95
  -2   6  -6   12.88    0.89
   2   6   6   12.94    0.92
  -2   6  -6   12.68    0.90
  -2   6  -6   12.44    0.87
   2   6   6   12.11    0.63
  -2   6  -6   13.19    1.00
   2   6   6   12.11    0.90
  -2   6  -6   11.90    0.98
   2   6   6   14.50    1.28
  -4  -6  -6   46.70    2.00
   4  -6   6   40.15    2.64
  -4  -6  -6   43.59    2.02
  -4  -6  -6   45.12    2.19
   4  -6   6   41.14    2.37
  -4  -6  -6   42.73    1.94
  -4  -6  -6   42.28    1.90
   4  -6   6   43.49    1.86
   4   6   6   42.56    1.65
  -4   6  -6   41.85    1.96
   4   6   6   44.84    2.29
  -4   6  -6   43.91    1.97
  -4   6  -6   43.20    1.90
  -4   6  -6   42.72    2.12
  -4   6  -6   40.60    1.88
   4   6   6   45.94    2.08
   4   6   6   44.82    1.97
  -6  -6  -6   15.21    1.04
  -6  -6  -6   16.10    1.33
  -6  -6  -6   17.90    1.18
   6  -6   6   14.73    1.82
   6  -6   6   17.78    1.58
   6  -6   6   13.41    1.05
  -6  -6  -6   15.46    1.03
   6  -6   6   14.74    1.00
   6  -6   6   13.25    0.92
  -6  -6  -6   16.34    1.23
  -6   6  -6   17.38    1.20
   6   6   6   15.17    0.83
  -6   6  -6   16.11    1.02
   6   6   6   19.49    1.52
   6   6   6   16.07    1.15
   6   6   6   16.00    1.26
  -6   6  -6   15.75    1.00
  -6   6  -6   15.11    1.14
   6   6   6   17.72    1.13
  -6   6  -6   15.23    1.07
  -8  -6  -6   19.77    1.35
   8  -6   6   18.10    1.15
  -8  -6  -6   21.06    1.23
   8  -6   6   18.72    1.24
  -8  -6  -6   20.59    1.55
   8  -6   6   16.98    1.13
  -8  -6  -6   18.87    1.43
   8  -6   6   18.90    1.63
  -8  -6  -6   18.63    1.13
   8  -6   6   21.26    2.03
   8   6   6   19.42    1.36
   8   6   6   19.24    1.01
  -8   6  -6   19.69    1.12
  -8   6  -6   20.13    1.31
  -8   6  -6   22.27    1.30
  -8   6  -6   17.65    1.34
   8   6   6   19.77    1.27
   8   6   6   20.45    1.44
   8   6   6   20.43    1.66
  10  -6   6   11.43    1.80
  10  -6   6   10.08    0.92
 -10  -6  -6    9.85    0.99
  10  -6   6   11.08    1.39
 -10  -6  -6   10.13    1.21
 -10  -6  -6   11.02    1.21
  10  -6   6    9.48    1.03
 -10   6  -6   10.98    1.12
  10   6   6   10.76    0.87
  10   6   6   12.26    1.29
 -10   6  -6   10.54    1.11
  10   6   6   11.55    1.05
 -12  -6  -6   14.52    1.40
  12  -6   6   12.75    1.96
  12  -6   6   12.74    1.27
  12  -6   6    9.67    1.02
  12  -6   6   10.69    2.04
 -12  -6  -6   11.69    1.32
  12   6   6   13.22    1.08
  12   6   6   15.22    1.16
 -12   6  -6   12.05    1.17
 -12   6  -6   11.46    1.30
  12   6   6   12.44    1.38
 -14  -6  -6    4.44    1.22
  14  -6   6    4.13    1.58
 -14  -6  -6    3.28    1.00
  14  -6   6    2.58    0.84
  14  -6   6    4.24    0.92
  14   6   6    2.15    0.74
  14   6   6    2.75    0.94
 -14   6  -6    3.91    1.06
 -14   6  -6    2.32    0.74
 -14   6  -6    4.42    0.90
  14   6   6    3.06    0.74
 -16  -6  -6    2.70    0.91
  16  -6   6    5.57    1.06
  16  -6   6    4.08    1.01
  16   6   6    4.72    0.90
 -16   6  -6    1.96    0.78
 -19  -7   6   14.12    2.35
  19  -7  -6   12.99    1.57
  19  -7  -6   13.02    1.39
  19  -7  -6   11.20    1.08
 -19  -7   6   13.58    1.74
  19   7  -6   13.41    1.24
  19   7  -6   12.64    1.50
 -17  -7   6    9.24    1.37
  17  -7  -6   10.64    1.01
 -17  -7   6    8.48    1.74
  17  -7  -6   10.00    1.44
  17  -7  -6    8.50    1.16
  17   7  -6   10.71    1.07
 -17   7   6    8.04    1.02
  17   7  -6   10.60    1.28
 -15  -7   6   21.01    2.21
  15  -7  -6   21.80    1.72
  15  -7  -6   20.48    1.59
 -15  -7   6   22.15    1.65
  15   7  -6   22.42    1.08
 -15   7   6   19.33    1.27
  15   7  -6   21.39    1.54
  15   7  -6   23.88    1.38
 -15   7   6   22.55    1.71
  15   7  -6   21.70    0.92
  15   7  -6   21.94    0.93
 -13  -7   6   12.96    1.73
  13  -7  -6   15.06    1.18
  13  -7  -6   16.33    1.09
  13  -7  -6   14.97    1.52
  13  -7  -6   14.53    0.92
  13   7  -6   14.88    0.73
 -13   7   6   14.91    1.08
  13   7  -6   11.47    1.24
  13   7  -6   15.61    0.74
  13   7  -6   15.28    0.75
  13   7  -6   15.99    1.12
  13   7  -6   14.11    0.77
  11  -7  -6   36.24    1.94
  11  -7  -6   36.36    1.41
  11  -7  -6   36.01    2.18
 -11  -7   6   36.06    2.39
 -11  -7   6   39.56    2.19
 -11   7   6   37.31    1.73
  11   7  -6   37.58    1.91
  11   7  -6   36.15    1.49
  11   7  -6   36.68    1.75
  11   7  -6   35.99    1.45
  11   7  -6   35.24    1.49
 -11   7   6   37.25    1.59
  11   7  -6   33.60    1.33
 -11   7   6   36.30    2.02
  11   7  -6   35.11    1.48
  -9  -7   6   20.60    1.62
   9  -7  -6   18.15    0.81
   9  -7  -6   17.56    1.35
  -9  -7   6   18.59    1.64
   9  -7  -6   19.44    1.61
   9   7  -6   18.85    1.31
  -9   7   6   18.29    1.38
   9   7  -6   14.91    0.95
   9   7  -6   17.41    1.12
   9   7  -6   18.11    0.95
   9   7  -6   18.73    0.87
   9   7  -6   16.26    0.91
   9   7  -6   18.97    0.91
  -9   7   6   17.44    1.16
   7  -7  -6   52.70    2.70
   7  -7  -6   50.18    1.86
  -7  -7   6   52.00    2.69
   7  -7  -6   50.21    2.43
  -7  -7   6   55.67    2.68
  -7  -7   6   51.60    2.15
  -7   7   6   50.48    2.22
  -7   7   6   51.32    1.90
   7   7  -6   50.32    1.99
   7   7  -6   49.22    1.99
   7   7  -6   51.09    2.03
   7   7  -6   52.06    2.32
  -7   7   6   52.60    2.50
   7   7  -6   50.42    2.18
   7   7  -6   52.27    2.09
   7   7  -6   51.85    2.04
   5  -7  -6   15.38    1.27
   5  -7  -6   14.42    0.88
   5  -7  -6   13.17    1.38
   5  -7  -6   13.55    0.64
  -5  -7   6   14.81    0.94
  -5  -7   6   13.55    1.33
  -5  -7   6   12.62    1.40
   5   7  -6   13.65    0.84
   5   7  -6   14.92    0.90
   5   7  -6   14.57    1.53
   5   7  -6   14.88    0.81
   5   7  -6   15.50    0.85
  -5   7   6   14.69    0.79
   5   7  -6   14.97    0.88
  -5   7   6   15.59    1.25
  -5   7   6   13.83    1.01
   5   7  -6   14.71    1.13
   3  -7  -6   39.79    1.83
   3  -7  -6   44.67    1.90
  -3  -7   6   36.45    2.58
   3  -7  -6   43.77    2.39
  -3  -7   6   44.73    2.46
  -3  -7   6   37.20    1.94
  -3  -7   6   43.00    1.87
   3  -7  -6   42.82    2.18
  -3   7   6   44.04    2.07
  -3   7   6   43.35    2.19
  -3   7   6   44.86    1.92
   3   7  -6   40.75    1.81
   3   7  -6   43.44    1.81
   3   7  -6   43.31    1.86
  -3   7   6   43.79    1.76
   3   7  -6   43.70    1.79
   3   7  -6   42.18    2.00
  -1  -7   6   31.39    2.07
   1  -7  -6   30.89    1.79
  -1  -7   6   30.80    1.80
  -1  -7   6   32.29    1.44
  -1  -7   6   32.03    2.05
   1  -7  -6   30.99    1.52
   1  -7  -6   30.48    1.56
   1  -7  -6   35.60    2.08
   1   7  -6   28.00    1.80
   1   7  -6   29.46    1.48
   1   7  -6   33.65    1.66
   1   7  -6   32.20    1.53
   1   7  -6   31.38    1.47
  -1   7   6   30.63    1.44
  -1   7   6   32.43    1.56
  -1   7   6   31.80    1.83
  -1  -7  -6   28.70    1.35
   1  -7   6   26.89    1.34
   1  -7   6   26.57    1.27
   1  -7   6   30.93    2.07
  -1  -7  -6   31.24    1.52
  -1  -7  -6   26.92    1.56
   1  -7   6   29.18    1.67
  -1  -7  -6   29.63    1.53
  -1  -7  -6   28.08    1.73
   1  -7   6   29.91    2.17
  -1   7  -6   30.92    1.51
   1   7   6   27.76    1.43
   1   7   6   26.17    1.15
   1   7   6   31.69    1.81
   1   7   6   33.40    1.53
  -1   7  -6   27.91    1.45
  -1   7  -6   30.40    1.48
  -1   7  -6   29.21    1.56
  -1   7  -6   28.00    1.41
  -1   7  -6   27.65    1.54
  -3  -7  -6   14.53    1.01
   3  -7   6   14.77    0.84
  -3  -7  -6   15.55    1.12
   3  -7   6   15.09    0.73
   3  -7   6   17.67    1.88
   3  -7   6   16.81    0.98
  -3  -7  -6   15.87    1.22
   3  -7   6   15.69    1.63
  -3  -7  -6   15.13    1.31
  -3  -7  -6   16.26    1.17
  -3   7  -6   16.65    1.07
   3   7   6   15.30    0.79
  -3   7  -6   16.46    1.07
   3   7   6   17.86    1.10
  -3   7  -6   15.62    1.13
  -3   7  -6   16.39    1.18
   3   7   6   16.19    1.29
   3   7   6   18.96    1.43
  -3   7  -6   14.96    1.01
  -5  -7  -6   32.61    1.69
   5  -7   6   29.35    2.42
  -5  -7  -6   30.21    1.71
   5  -7   6   31.40    2.17
   5  -7   6   29.12    1.40
  -5  -7  -6   30.31    1.86
   5  -7   6   29.11    1.47
  -5  -7  -6   31.43    1.59
  -5   7  -6   30.39    1.65
  -5   7  -6   28.39    1.47
  -5   7  -6   30.83    1.55
  -5   7  -6   31.55    1.58
   5   7   6   32.78    1.94
   5   7   6   30.63    1.70
   5   7   6   31.26    1.31
   5   7   6   35.06    1.65
  -5   7  -6   29.59    1.65
   5   7   6   31.43    1.73
   7  -7   6   18.03    1.11
   7  -7   6   18.01    1.79
  -7  -7  -6   20.57    1.41
  -7  -7  -6   16.98    1.45
  -7  -7  -6   17.65    1.17
   7  -7   6   16.89    1.10
   7  -7   6   16.34    2.12
   7  -7   6   17.78    1.75
   7   7   6   16.85    1.40
  -7   7  -6   19.74    1.30
  -7   7  -6   17.80    1.27
   7   7   6   18.98    1.54
  -7   7  -6   17.27    1.15
   7   7   6   20.10    1.28
  -7   7  -6   18.14    1.11
   7   7   6   20.06    1.12
   9  -7   6    7.23    1.20
  -9  -7  -6    6.25    0.95
   9  -7   6    4.79    1.45
   9  -7   6    5.87    0.84
   9  -7   6    8.60    1.04
  -9  -7  -6    6.88    1.19
  -9   7  -6    6.92    1.01
  -9   7  -6    6.53    0.89
   9   7   6   10.08    1.19
   9   7   6    6.86    0.75
   9   7   6    9.00    1.24
   9   7   6    9.24    1.02
  11  -7   6   11.49    1.04
  11  -7   6   13.50    2.18
  11  -7   6   13.89    1.64
 -11  -7  -6   10.49    1.46
 -11  -7  -6   11.41    1.37
  11  -7   6   12.85    1.30
 -11   7  -6   13.34    1.37
  11   7   6   14.37    1.42
 -11   7  -6   11.47    1.20
  11   7   6   12.62    1.51
  11   7   6   13.12    1.03
  11   7   6   14.50    1.19
 -13  -7  -6    5.64    0.98
  13  -7   6    3.14    1.65
  13  -7   6    5.27    1.19
  13  -7   6    4.41    0.67
  13  -7   6    5.87    1.03
  13   7   6    5.07    0.80
  13   7   6    4.75    0.81
 -13   7  -6    6.81    0.90
  13   7   6    6.28    1.12
  15  -7   6    3.88    1.18
 -15  -7  -6    2.79    0.98
  15  -7   6    2.65    1.08
 -15   7  -6    2.27    0.93
 -15   7  -6    2.38    0.84
  15   7   6    3.41    0.89
  18  -8  -6    9.65    1.44
  18  -8  -6    9.30    1.36
 -18  -8   6    7.10    2.56
 -18  -8   6    9.95    1.93
  18  -8  -6   10.33    1.62
  18   8  -6    8.22    1.20
  18   8  -6   10.82    1.53
  16  -8  -6    3.76    0.71
 -16  -8   6    5.40    1.02
 -16  -8   6    2.31    1.44
  16  -8  -6    5.11    1.18
  16   8  -6    2.64    0.86
 -16   8   6    5.79    1.07
  16   8  -6    5.07    0.83
 -14  -8   6   11.72    1.98
  14  -8  -6   16.38    1.64
 -14  -8   6   14.71    1.57
  14  -8  -6   13.44    1.19
  14   8  -6   13.38    1.15
  14   8  -6   13.72    0.86
 -14   8   6   14.54    1.44
  14   8  -6   13.34    1.40
 -12  -8   6    9.87    1.66
  12  -8  -6   10.29    1.10
 -12  -8   6   11.12    1.49
  12  -8  -6   10.21    1.49
  12   8  -6   10.08    1.00
 -12   8   6    9.89    0.99
 -12   8   6   12.61    1.30
  12   8  -6    8.44    0.70
  12   8  -6    9.79    1.21
  10  -8  -6    9.38    1.08
 -10  -8   6    7.85    1.49
 -10  -8   6    9.15    1.41
  10  -8  -6    7.22    1.34
 -10   8   6    6.43    0.80
 -10   8   6    9.16    1.18
  10   8  -6    8.26    0.90
  10   8  -6    7.85    0.71
 -10   8   6   10.44    1.04
  10   8  -6    7.62    0.70
  10   8  -6    8.47    1.11
  -8  -8   6   15.11    1.58
   8  -8  -6   13.01    1.48
   8  -8  -6   13.07    0.70
  -8  -8   6   11.75    1.64
   8  -8  -6   14.75    1.25
   8   8  -6   14.00    1.22
   8   8  -6   14.13    0.79
   8   8  -6   13.72    0.90
  -8   8   6   10.72    1.00
   8   8  -6   14.76    1.05
   8   8  -6   14.01    0.83
  -8   8   6   14.46    1.26
   8   8  -6   12.60    0.71
   8   8  -6   12.01    0.89
  -6  -8   6   16.64    1.59
   6  -8  -6   16.27    1.33
  -6  -8   6   11.99    1.38
   6  -8  -6   13.62    0.71
   6  -8  -6   13.90    1.50
  -6  -8   6   11.69    1.38
   6   8  -6   14.52    0.96
  -6   8   6   14.28    1.28
   6   8  -6   15.10    0.89
   6   8  -6   13.24    1.19
  -6   8   6   14.99    1.11
   6   8  -6   13.72    0.80
  -6   8   6   14.49    0.84
   6   8  -6   12.61    0.92
   6   8  -6   15.28    0.86
   6   8  -6   13.56    1.04
  -4  -8   6   11.73    1.47
   4  -8  -6   12.56    1.41
  -4  -8   6    9.34    0.76
   4  -8  -6   10.27    0.90
   4  -8  -6   10.03    0.60
   4  -8  -6   10.09    1.21
  -4  -8   6    8.41    1.06
  -4  -8   6    9.74    1.24
   4  -8  -6    8.23    0.82
   4   8  -6   11.00    0.79
   4   8  -6   11.16    0.74
   4   8  -6   12.22    0.88
   4   8  -6   12.34    0.91
  -4   8   6   12.41    0.97
  -4   8   6   11.92    0.78
   4   8  -6    9.75    1.07
   4   8  -6   10.47    0.73
  -4   8   6   10.17    0.88
   4   8  -6   10.08    0.92
  -4   8   6   11.57    1.14
   2  -8  -6   10.09    1.25
   2  -8  -6    8.74    0.85
  -2  -8   6    9.39    1.42
   2  -8  -6   11.89    1.39
  -2  -8   6    9.25    1.42
  -2  -8   6    9.47    0.76
  -2  -8   6    9.95    1.14
   2  -8  -6    7.55    0.90
   2   8  -6   11.09    0.90
   2   8  -6    9.19    0.88
  -2   8   6   10.21    0.88
   2   8  -6    9.70    0.90
   2   8  -6    9.63    0.75
   2   8  -6    8.71    1.03
  -2   8   6   10.37    0.80
   2   8  -6    9.39    0.70
  -2   8   6   10.57    1.18
   2   8  -6    8.70    0.79
   0  -8  -6   17.17    1.21
   0  -8  -6   20.64    1.58
   0  -8   6   18.93    1.89
   0  -8  -6   22.08    1.73
   0  -8   6   20.49    1.11
   0  -8   6   17.46    1.83
   0  -8  -6   18.75    1.30
   0   8   6   21.58    1.48
   0   8  -6   18.90    1.16
   0   8   6   18.02    0.89
   0   8  -6   20.53    1.21
   0   8  -6   19.38    1.25
   0   8  -6   20.58    1.32
   0   8   6   17.50    1.19
   0   8   6   19.22    1.15
   0   8  -6   20.79    1.31
   2  -8   6    4.64    0.62
  -2  -8  -6    5.10    0.81
  -2  -8  -6    7.05    1.18
   2  -8   6    8.02    1.38
  -2  -8  -6    4.14    0.71
   2  -8   6    5.76    1.35
   2  -8   6    5.43    0.93
   2  -8   6    5.88    0.69
   2   8   6    7.83    1.08
  -2   8  -6    4.62    0.73
   2   8   6    5.60    0.55
  -2   8  -6    7.20    0.83
  -2   8  -6    6.98    0.84
   2   8   6    6.07    0.76
  -2   8  -6    5.55    0.79
  -2   8  -6    4.72    0.90
   4  -8   6   13.21    0.96
   4  -8   6   18.36    1.95
  -4  -8  -6   15.81    1.19
   4  -8   6   13.41    1.98
  -4  -8  -6   17.55    1.31
  -4  -8  -6   18.11    1.46
   4  -8   6   13.37    0.96
  -4   8  -6   13.14    0.99
   4   8   6   18.36    1.46
   4   8   6   15.29    1.35
  -4   8  -6   17.33    1.14
  -4   8  -6   14.52    1.15
   4   8   6   16.30    0.87
   4   8   6   15.16    1.12
  -4   8  -6   15.01    1.21
   6  -8   6    5.06    1.21
   6  -8   6    7.28    0.83
  -6  -8  -6    6.18    1.01
  -6  -8  -6    5.49    0.87
   6  -8   6    6.64    0.75
   6  -8   6    5.72    1.54
   6   8   6    6.53    0.69
  -6   8  -6    6.82    1.12
   6   8   6    7.25    1.00
  -6   8  -6    5.79    0.82
  -6   8  -6    4.55    0.74
   6   8   6    7.85    1.18
  -6   8  -6    7.12    0.89
   6   8   6    7.50    0.94
  -8  -8  -6    7.57    1.10
   8  -8   6    9.71    1.50
  -8  -8  -6    8.49    1.25
   8  -8   6    7.71    1.74
   8  -8   6    6.71    0.74
   8  -8   6    7.23    0.96
  -8   8  -6    7.41    0.92
   8   8   6    6.26    0.98
   8   8   6    8.02    1.24
  -8   8  -6    7.35    0.93
   8   8   6    9.52    0.85
   8   8   6    7.02    1.00
  10  -8   6    6.60    1.26
  10  -8   6    4.20    0.69
  10  -8   6    5.01    1.63
  10  -8   6    6.45    0.90
 -10  -8  -6    7.91    1.29
  10   8   6    6.38    0.75
  10   8   6    4.22    0.71
  10   8   6    5.07    0.91
 -10   8  -6    4.75    0.79
  10   8   6    5.09    1.00
  12  -8   6    4.11    0.77
  12  -8   6    5.49    1.93
 -12  -8  -6    5.92    1.03
  12  -8   6    7.91    1.43
 -12   8  -6    4.41    0.82
  12   8   6    6.03    1.17
  12   8   6    5.62    1.13
  12   8   6    5.54    0.88
 -14  -8  -6    1.87    1.05
 -14   8  -6    1.03    0.78
  17  -9  -6    7.68    1.29
  17   9  -6    6.24    1.19
 -15  -9   6   10.51    1.63
  15  -9  -6   10.62    1.19
  15  -9  -6    8.70    1.63
 -15  -9   6    8.73    2.02
  15   9  -6   12.13    1.23
  15   9  -6   11.31    1.57
 -15   9   6   11.60    1.51
  13  -9  -6   11.22    1.18
 -13  -9   6   14.38    1.68
 -13  -9   6    9.48    1.79
  13  -9  -6   10.62    1.64
  13   9  -6   10.46    0.85
  13   9  -6    9.89    1.40
  13   9  -6   10.98    1.10
 -13   9   6   10.47    1.31
 -11  -9   6   14.65    1.98
  11  -9  -6   16.79    1.38
 -11  -9   6   15.39    1.70
  11  -9  -6   15.40    1.74
 -11   9   6   17.41    1.46
  11   9  -6   14.98    1.04
  11   9  -6   15.64    1.22
  11   9  -6   14.91    1.43
   9  -9  -6    9.40    1.18
   9  -9  -6    8.04    1.50
  -9  -9   6   12.06    1.61
  -9  -9   6    7.96    1.49
  -9   9   6   10.65    1.22
   9   9  -6   10.52    1.22
   9   9  -6   10.03    0.89
   9   9  -6   11.92    1.04
  -9   9   6   10.87    1.25
  -7  -9   6   23.30    1.94
   7  -9  -6   22.10    1.93
  -7  -9   6   28.84    2.08
   7  -9  -6   26.17    1.71
   7   9  -6   24.62    1.43
   7   9  -6   25.86    1.61
   7   9  -6   22.43    1.45
  -7   9   6   27.44    1.69
   7   9  -6   23.87    1.38
   5  -9  -6   12.33    1.33
  -5  -9   6   13.49    1.44
   5  -9  -6   11.66    1.59
  -5  -9   6   12.12    1.64
  -5   9   6   10.03    1.18
   5   9  -6   10.14    0.99
   5   9  -6   11.55    0.88
   5   9  -6   10.18    0.89
   5   9  -6   11.02    1.02
   5   9  -6   11.47    1.17
  -3  -9   6   18.96    1.88
   3  -9  -6   19.02    1.71
  -3  -9   6   17.24    1.53
   3  -9  -6   20.72    1.60
  -3  -9   6   18.00    1.71
  -3   9   6   23.13    1.86
  -3   9   6   15.30    1.09
   3   9  -6   16.12    1.18
   3   9  -6   19.83    1.54
  -3   9   6   15.78    1.01
   3   9  -6   16.44    1.33
  -3   9   6   18.63    1.49
   3   9  -6   16.26    0.97
  -1  -9   6   12.36    1.32
  -1  -9   6   17.27    1.88
   1  -9  -6   16.27    1.47
  -1  -9   6   12.89    1.75
  -1  -9   6   14.44    1.04
   1  -9  -6   16.23    1.64
   1   9  -6   13.21    1.21
   1   9  -6   14.54    1.10
   1   9  -6   13.70    0.98
  -1   9   6   12.16    0.79
  -1   9   6   14.47    1.13
  -1   9   6   17.56    1.40
  -1   9   6   12.47    1.02
  -1  -9  -6   20.02    1.82
   1  -9   6   17.09    1.41
  -1  -9  -6   15.88    1.58
   1  -9   6   15.65    1.09
   1  -9   6   16.67    1.98
   1  -9   6   19.45    2.09
   1   9   6   16.60    0.94
  -1   9  -6   15.99    1.16
  -1   9  -6   16.64    1.30
   1   9   6   17.57    1.42
   1   9   6   18.07    1.23
   3  -9   6   10.45    1.99
   3  -9   6    9.31    0.97
   3  -9   6   13.64    2.02
  -3  -9  -6   11.46    1.43
  -3  -9  -6   13.24    1.61
   3   9   6   11.39    1.03
   3   9   6    9.40    0.78
   3   9   6   10.46    1.19
  -3   9  -6    9.33    1.11
  -3   9  -6   10.79    1.02
   5  -9   6   13.14    2.30
  -5  -9  -6   14.44    1.54
   5  -9   6   13.59    2.14
  -5  -9  -6   18.41    1.83
   5  -9   6   11.92    1.16
   5   9   6   15.51    1.22
   5   9   6   16.36    1.46
  -5   9  -6   13.46    1.22
   5   9   6   15.91    0.97
  -5   9  -6   14.34    1.18
   5   9   6   14.56    1.42
  -7  -9  -6   11.89    1.72
  -7  -9  -6   10.40    1.40
   7  -9   6   12.60    1.87
   7  -9   6    9.51    1.92
   7   9   6   10.01    1.38
   7   9   6   10.94    1.19
  -7   9  -6    9.73    1.05
   7   9   6   10.35    0.92
  -7   9  -6    8.70    1.12
   7   9   6    8.83    1.24
  -9  -9  -6    5.85    1.10
   9  -9   6    5.20    1.47
   9  -9   6    2.96    1.72
   9   9   6    5.64    1.05
  -9   9  -6    5.35    0.87
   9   9   6    6.03    1.05
   9   9   6    5.14    1.17
 -11  -9  -6    7.02    1.23
  11  -9   6    6.71    3.17
  11   9   6    5.70    1.10
 -11   9  -6    7.10    1.13
  16 -10  -6    9.55    1.56
  14 -10  -6   11.72    1.45
 -14 -10   6   12.50    1.86
  14  10  -6   13.96    1.38
 -14  10   6   15.82    1.61
 -12 -10   6   12.02    2.22
  12 -10  -6   12.40    1.33
 -12 -10   6   15.37    1.89
  12 -10  -6   12.42    1.82
  12  10  -6   12.88    1.62
 -12  10   6   12.95    1.45
  12  10  -6   12.41    1.28
 -10 -10   6   15.48    2.03
  10 -10  -6   14.52    1.39
 -10 -10   6   20.06    1.92
  10 -10  -6   12.06    1.72
 -10  10   6   13.81    1.41
  10  10  -6   14.67    1.50
  10  10  -6   12.98    1.21
  -8 -10   6   17.98    1.96
   8 -10  -6   17.01    1.79
  -8 -10   6   17.05    1.91
   8 -10  -6   19.68    1.62
   8  10  -6   16.33    1.30
   8  10  -6   18.24    1.49
  -8  10   6   17.81    1.48
  -8  10   6   19.30    1.66
  -6 -10   6   14.14    1.64
   6 -10  -6   16.66    1.79
   6 -10  -6   18.54    1.57
  -6 -10   6   17.16    1.91
  -6  10   6   15.03    1.38
   6  10  -6   17.67    1.66
   6  10  -6   14.85    1.24
  -4 -10   6   14.30    1.56
   4 -10  -6   16.58    1.84
   4 -10  -6   16.86    1.58
  -4 -10   6   21.26    2.07
   4  10  -6   15.97    1.37
   4  10  -6   14.53    1.18
  -4  10   6   16.45    1.40
  -2 -10   6   23.84    2.13
   2 -10  -6   22.65    1.79
  -2 -10   6   23.07    2.28
   2 -10  -6   22.56    1.95
  -2 -10   6   24.91    2.32
   2  10  -6   22.46    1.55
   2  10  -6   20.58    1.29
  -2  10   6   20.30    1.54
   2  10  -6   19.97    1.38
   0 -10   6   15.52    2.15
   0 -10  -6   21.03    1.92
   0 -10   6   18.16    1.57
   0 -10   6   25.85    2.46
   0 -10  -6   19.61    1.73
   0  10  -6   19.83    1.35
   0  10  -6   17.11    1.44
   0  10  -6   21.14    1.23
   0  10   6   21.33    1.61
   2 -10   6   14.65    2.28
  -2 -10  -6    9.25    1.59
   2 -10   6    7.58    1.69
  -2 -10  -6    9.35    1.50
   2 -10   6   10.33    1.29
  -2  10  -6    8.22    1.13
   2  10   6    9.16    1.23
  -2  10  -6    9.00    0.90
  -2  10  -6    7.44    1.05
   4 -10   6   19.16    2.66
  -4 -10  -6   17.21    1.88
  -4 -10  -6   16.97    1.76
   4 -10   6   14.21    2.44
  -4  10  -6   15.95    1.29
   4  10   6   17.17    1.45
  -4  10  -6   14.47    1.34
  -6 -10  -6   10.40    1.67
   6 -10   6    9.11    2.01
  -6 -10  -6   13.41    1.83
   6 -10   6   12.16    1.96
  -6  10  -6   11.48    1.29
   6  10   6   10.30    1.31
   6  10   6   10.24    1.48
  -6  10  -6    8.36    1.18
  -8 -10  -6    8.04    1.28
  -8 -10  -6    7.57    1.42
   8 -10   6    7.44    2.15
  -8  10  -6    6.55    1.01
  -8  10  -6    9.89    1.26
   8  10   6    8.19    1.38
 -10 -10  -6    7.30    1.50
  10  10   6    6.88    1.19
 -10  10  -6    5.04    0.94
  13 -11  -6    5.26    1.09
 -11 -11   6    8.93    1.54
  11 -11  -6    5.87    1.09
 -11  11   6    6.83    1.12
   9 -11  -6    5.08    1.29
  -9 -11   6    7.09    1.42
   9 -11  -6    3.99    1.01
  -9 -11   6    3.98    1.51
  -9  11   6    6.05    1.00
   9  11  -6    3.85    0.85
   9  11  -6    3.55    1.00
  -7 -11   6   11.46    1.68
   7 -11  -6   11.13    1.75
   7 -11  -6    9.43    1.56
  -7 -11   6   10.73    1.85
  -7  11   6   11.98    1.33
   7  11  -6    8.94    1.20
   7  11  -6    6.97    1.07
   5 -11  -6    6.00    1.18
   5 -11  -6    6.47    1.32
  -5 -11   6    6.48    1.29
  -5 -11   6    8.54    1.54
   5  11  -6    6.60    0.91
  -5  11   6    6.39    1.12
   5  11  -6    7.02    1.08
  -5  11   6    7.23    1.03
  -3 -11   6    6.69    1.26
   3 -11  -6    6.33    1.43
  -3 -11   6    6.64    1.57
  -3 -11   6    6.45    1.48
   3 -11  -6    6.68    1.39
  -3  11   6    5.33    0.89
   3  11  -6    4.59    0.92
   3  11  -6    5.32    0.89
  -1 -11   6    5.48    1.51
  -1 -11   6    6.62    1.55
   1 -11  -6    4.67    1.12
  -1 -11   6    7.67    1.21
   1  11  -6    4.46    0.83
   1  11  -6    5.88    0.95
  -1  11   6    5.32    0.92
  -1 -11  -6    7.26    1.29
   1 -11   6    7.89    2.02
   1 -11   6   10.41    1.89
  -1 -11  -6    8.59    1.50
   1 -11   6    9.00    1.31
  -1  11  -6    7.61    1.04
   1  11   6    8.36    1.20
  -1  11  -6    7.30    1.03
   3 -11   6    7.63    2.36
   3 -11   6    5.80    1.84
   3 -11   6    8.15    1.27
  -3 -11  -6    6.92    1.34
  -3 -11  -6    5.25    1.26
   3  11   6    4.52    0.96
  -3  11  -6    6.51    0.94
  -3  11  -6    2.99    0.83
  -3  11  -6    4.87    0.88
  -5 -11  -6    6.43    1.39
   5 -11   6    5.06    2.90
  -5  11  -6    4.35    0.90
   5  11   6    5.86    0.99
  -7 -11  -6    3.97    1.41
   7 -11   6    2.93    2.12
  -7  11  -6    2.40    0.85
   7  11   6    4.63    0.97
  -6 -12   6    3.99    1.40
  -6 -12   6    5.25    1.55
  -6  12   6    5.71    1.03
   4 -12  -6    6.18    1.52
  -4 -12   6    4.26    1.27
  -4 -12   6    2.88    1.58
   4  12  -6    5.74    1.59
  -4  12   6    4.90    0.95
  -2 -12   6    8.14    1.44
   2 -12  -6    5.81    1.42
  -2  12   6    8.19    1.15
   2  12  -6    7.50    1.13
   0 -12   6    6.48    2.29
   0 -12   6    7.99    1.45
   0 -12  -6    5.08    1.38
   0  12  -6    4.02    0.99
   0  12   6    5.66    1.01
   2 -12   6    4.49    1.87
   2 -12   6    3.59    1.14
  -2  12  -6    4.94    0.98
   2  12   6    2.87    0.87
  24   0  -7    1.83    0.66
  24   0  -7    2.57    0.82
  22   0  -7   14.83    1.14
  22   0  -7   16.99    1.32
  22   0  -7   15.40    1.11
  22   0  -7   14.35    1.13
  20   0  -7    8.64    0.82
  20   0  -7    8.73    0.88
  20   0  -7    7.97    0.74
  20   0  -7    9.77    1.06
  18   0  -7   26.67    1.37
  18   0  -7   25.31    1.43
  18   0  -7   23.15    1.20
  18   0  -7   23.16    1.33
  18   0  -7   26.88    1.31
  16   0  -7    9.24    0.88
  16   0  -7    9.18    0.88
  16   0  -7    8.03    0.68
  16   0  -7    7.88    0.74
  16   0  -7    8.82    0.72
  14   0  -7   85.80    3.19
 -14   0   7   83.89    3.55
  14   0  -7   86.15    3.43
 -14   0   7   88.37    3.61
  14   0  -7   87.30    3.47
  14   0  -7   83.44    3.18
  14   0  -7   87.15    3.15
 -12   0   7   11.06    1.05
  12   0  -7    8.92    1.03
  12   0  -7   10.55    0.72
  12   0  -7   11.04    0.98
 -12   0   7   12.37    1.17
  12   0  -7   11.36    0.66
  12   0  -7   11.76    0.99
  12   0  -7   10.61    0.66
 -10   0   7  117.72    4.41
  10   0  -7  108.27    3.99
  10   0  -7  115.19    4.00
  10   0  -7  117.08    4.11
 -10   0   7  117.78    3.94
  10   0  -7  116.31    4.40
  10   0  -7  106.76    4.34
 -10   0   7  115.28    3.89
  -8   0   7   30.67    1.20
  -8   0   7   31.54    1.70
  -8   0   7   30.49    1.38
  -8   0   7   31.40    1.27
  -8   0   7   31.49    1.66
   8   0  -7   29.76    1.54
   8   0  -7   32.29    1.40
   8   0  -7   30.71    1.63
   8   0  -7   31.04    1.19
   6   0  -7   85.28    2.98
   6   0  -7   85.45    3.00
  -6   0   7   86.55    3.05
   6   0  -7   85.66    3.20
  -6   0   7   86.96    3.45
  -6   0   7   86.24    3.11
   6   0  -7   83.32    3.03
   6   0  -7   83.99    3.45
   6   0  -7   85.42    2.99
  -6   0   7   86.91    3.19
  -6   0   7   86.72    3.49
   4   0  -7   26.99    1.47
   4   0  -7   25.37    1.37
  -4   0   7   25.03    0.99
   4   0  -7   26.79    1.14
  -4   0   7   27.12    1.15
   4   0  -7   25.31    1.48
  -4   0   7   25.72    1.22
   4   0  -7   25.98    1.11
  -4   0   7   26.08    1.49
   4   0  -7   26.98    1.09
   4   0  -7   27.06    0.96
  -4   0   7   26.19    1.51
   4   0  -7   27.31    1.24
  -4   0   7   26.67    1.21
   2   0  -7   95.59    3.75
   2   0  -7   95.60    3.47
  -2   0   7   91.27    3.23
  -2   0   7   94.61    3.74
  -2   0   7   97.47    3.89
   2   0  -7   91.70    3.39
  -2   0   7   98.62    3.50
   2   0  -7   90.98    3.62
   2   0  -7   93.98    3.31
   2   0  -7   92.99    3.42
  -2   0   7   92.61    3.42
   2   0  -7   92.20    3.82
  -2   0   7   94.71    3.50
   2   0  -7   94.67    3.74
   0   0   7   35.76    1.87
   0   0  -7   34.01    1.48
   0   0  -7   32.31    1.44
   0   0   7   31.74    1.52
   0   0  -7   34.95    1.62
   0   0  -7   32.34    1.79
   0   0   7   34.17    1.50
   0   0   7   32.64    1.46
   0   0   7   32.71    1.27
   0   0  -7   33.49    1.50
   0   0   7   33.32    1.72
   0   0  -7   32.96    1.73
  -2   0  -7   23.62    1.27
   2   0   7   23.96    1.40
   2   0   7   24.60    1.27
  -2   0  -7   23.88    1.22
   2   0   7   26.22    1.64
  -2   0  -7   23.85    1.06
   2   0   7   23.21    1.19
   2   0   7   23.37    1.02
   2   0   7   22.04    1.14
  -2   0  -7   24.83    1.23
  -2   0  -7   23.49    1.41
  -2   0  -7   25.56    1.21
  -2   0  -7   24.17    1.43
   4   0   7   56.48    2.66
  -4   0  -7   49.90    2.38
  -4   0  -7   56.89    2.73
   4   0   7   51.50    1.99
   4   0   7   49.79    2.16
  -4   0  -7   52.25    2.01
  -4   0  -7   51.75    2.21
  -4   0  -7   54.66    2.17
   4   0   7   51.16    2.32
   4   0   7   48.79    2.12
  -4   0  -7   50.48    2.15
  -6   0  -7   14.29    1.01
  -6   0  -7   14.98    1.01
   6   0   7   14.60    0.99
   6   0   7   14.91    1.07
  -6   0  -7   15.27    0.85
  -6   0  -7   15.53    1.07
   6   0   7   15.80    0.84
   6   0   7   15.21    1.12
   8   0   7   20.59    1.27
  -8   0  -7   21.83    1.21
   8   0   7   19.74    1.26
   8   0   7   18.75    1.03
  -8   0  -7   18.46    1.23
  -8   0  -7   20.60    1.31
  -8   0  -7   18.09    1.00
   8   0   7   20.59    1.30
   8   0   7   19.07    1.18
  -8   0  -7   20.40    1.37
 -10   0  -7    7.87    1.02
  10   0   7   10.22    1.12
  10   0   7    6.27    0.87
 -10   0  -7    7.51    1.07
  10   0   7    8.53    0.77
 -10   0  -7    8.54    0.92
  10   0   7    7.90    0.94
  10   0   7    7.85    0.90
 -12   0  -7   15.47    1.32
 -12   0  -7   15.67    1.32
  12   0   7   15.04    1.15
  12   0   7   16.66    1.15
 -12   0  -7   14.29    1.16
  12   0   7   15.87    1.43
  14   0   7    2.85    0.85
 -14   0  -7    2.38    0.73
  14   0   7    2.35    0.61
  14   0   7    1.99    0.63
 -14   0  -7    2.83    0.83
 -14   0  -7    2.31    0.64
 -16   0  -7    4.54    1.36
  23  -1  -7    0.66    0.57
  23  -1  -7    2.03    0.76
  23  -1  -7    0.53    0.57
  23   1  -7    1.92    0.63
  23   1  -7    1.83    0.70
  23   1  -7    0.95    0.54
  21  -1  -7   11.59    1.06
  21  -1  -7   11.11    1.13
  21  -1  -7   12.45    1.04
  21   1  -7   13.34    1.14
  21   1  -7   12.69    0.98
  21   1  -7   14.09    1.01
  21   1  -7   10.77    0.91
  19  -1  -7    6.19    0.60
 -19  -1   7    7.26    1.36
  19  -1  -7    6.07    0.92
  19  -1  -7    7.22    0.95
  19  -1  -7    6.67    1.06
  19  -1  -7    6.51    0.72
  19   1  -7    6.28    0.71
  19   1  -7    6.32    0.73
  19   1  -7    5.68    0.76
  19   1  -7    6.60    0.81
  17  -1  -7   21.33    1.16
  17  -1  -7   22.15    1.19
  17  -1  -7   20.82    1.29
  17  -1  -7   22.21    1.06
  17   1  -7   21.86    1.10
  17   1  -7   21.57    1.23
  17   1  -7   20.59    1.22
  17   1  -7   20.66    1.16
  17   1  -7   21.62    1.29
  15  -1  -7   17.73    0.91
  15  -1  -7   17.53    0.96
  15  -1  -7   17.36    1.15
 -15  -1   7   17.08    1.40
 -15  -1   7   16.60    1.58
  15  -1  -7   17.21    0.98
  15  -1  -7   17.55    1.24
 -15   1   7   18.41    1.39
  15   1  -7   18.63    1.15
  15   1  -7   18.23    0.93
  15   1  -7   17.08    1.02
  15   1  -7   17.06    1.01
  15   1  -7   17.16    1.17
  13  -1  -7   32.98    1.67
 -13  -1   7   32.89    1.85
 -13  -1   7   31.71    1.70
  13  -1  -7   32.16    1.37
  13  -1  -7   32.78    1.39
  13  -1  -7   33.50    1.77
  13  -1  -7   32.31    1.41
  13   1  -7   32.49    1.42
  13   1  -7   32.50    1.34
  13   1  -7   32.54    1.48
  13   1  -7   30.94    1.63
 -13   1   7   34.29    1.83
  13   1  -7   34.72    1.72
  13   1  -7   32.21    1.75
 -11  -1   7   24.50    2.23
 -11  -1   7   27.03    1.05
  11  -1  -7   27.25    1.21
 -11  -1   7   25.69    1.50
  11  -1  -7   25.92    1.11
  11  -1  -7   26.76    1.57
  11  -1  -7   27.07    1.19
  11  -1  -7   28.14    1.52
  11   1  -7   27.20    1.43
  11   1  -7   27.47    1.30
 -11   1   7   28.22    1.08
  11   1  -7   28.79    1.13
  11   1  -7   26.06    1.17
  11   1  -7   27.66    1.54
 -11   1   7   29.96    1.65
  11   1  -7   27.26    1.48
 -11   1   7   27.32    1.00
 -11   1   7   28.86    1.63
   9  -1  -7   20.01    0.97
  -9  -1   7   21.67    1.29
   9  -1  -7   20.78    1.00
  -9  -1   7   21.30    0.84
   9  -1  -7   20.83    0.83
   9  -1  -7   17.97    1.23
  -9  -1   7   19.39    1.39
  -9  -1   7   20.65    0.89
   9  -1  -7   20.55    1.30
  -9   1   7   20.57    1.37
  -9   1   7   20.61    1.03
   9   1  -7   20.62    0.87
   9   1  -7   20.79    0.92
   9   1  -7   21.14    1.07
   9   1  -7   20.49    0.94
  -9   1   7   21.33    0.86
   9   1  -7   20.95    1.18
   9   1  -7   21.73    1.32
  -9   1   7   21.27    0.94
  -7  -1   7   80.53    3.34
  -7  -1   7   81.57    3.24
  -7  -1   7   82.32    3.05
   7  -1  -7   79.96    2.93
   7  -1  -7   80.84    2.80
   7  -1  -7   75.32    3.23
   7  -1  -7   87.67    3.48
   7  -1  -7   82.22    3.30
  -7  -1   7   81.99    2.86
   7  -1  -7   81.27    2.98
  -7  -1   7   79.05    2.90
  -7   1   7   82.28    3.33
   7   1  -7   80.73    2.79
  -7   1   7   81.62    3.01
   7   1  -7   81.69    3.31
   7   1  -7   76.97    2.79
  -7   1   7   81.34    2.89
   7   1  -7   78.67    2.81
   7   1  -7   81.77    2.86
  -7   1   7   79.33    3.31
  -7   1   7   79.14    2.94
   7   1  -7   81.12    3.04
   7   1  -7   80.63    3.17
   5  -1  -7    7.76    0.51
   5  -1  -7    7.86    0.62
   5  -1  -7    7.85    0.49
  -5  -1   7    6.86    0.57
  -5  -1   7    7.32    0.87
  -5  -1   7    7.99    0.50
   5  -1  -7    7.01    0.53
  -5  -1   7    8.32    0.93
   5  -1  -7    6.69    0.77
   5  -1  -7    7.66    0.88
  -5  -1   7    7.16    0.60
   5  -1  -7    6.84    0.76
  -5  -1   7    6.85    0.49
   5   1  -7    7.56    0.49
  -5   1   7    7.56    0.60
  -5   1   7    7.53    0.91
  -5   1   7    7.40    0.52
   5   1  -7    7.01    0.78
   5   1  -7    7.21    0.78
   5   1  -7    7.75    0.87
   5   1  -7    7.16    0.40
  -5   1   7    7.37    0.86
   5   1  -7    6.24    0.69
   5   1  -7    7.17    0.66
  -5   1   7    6.82    0.61
   5   1  -7    7.60    0.48
   3  -1  -7   81.28    2.93
  -3  -1   7   80.88    2.91
  -3  -1   7   77.65    3.27
  -3  -1   7   82.02    2.98
  -3  -1   7   76.09    2.82
   3  -1  -7   78.17    2.89
   3  -1  -7   77.80    3.16
   3  -1  -7   79.24    2.89
  -3  -1   7   80.61    3.01
   3  -1  -7   80.39    3.31
   3  -1  -7   79.16    2.96
   3  -1  -7   81.20    3.26
  -3  -1   7   82.10    3.27
   3   1  -7   78.12    3.22
   3   1  -7   79.15    2.89
  -3   1   7   77.38    3.00
  -3   1   7   80.47    3.24
  -3   1   7   80.25    3.44
   3   1  -7   78.87    2.75
   3   1  -7   79.63    3.00
   3   1  -7   77.15    3.14
   3   1  -7   81.19    2.92
  -3   1   7   79.52    2.94
   3   1  -7   80.04    3.29
   3   1  -7   79.11    3.26
  -3   1   7   79.68    2.99
   1  -1  -7    8.16    0.76
   1  -1  -7    8.38    0.62
   1  -1  -7    7.75    0.89
   1  -1  -7    8.92    0.67
  -1  -1   7    7.40    0.91
  -1  -1   7    9.47    0.71
  -1  -1   7    8.17    0.54
   1  -1  -7    8.76    0.67
  -1  -1   7    9.17    1.00
   1  -1  -7    7.66    0.91
  -1  -1   7    7.87    0.69
  -1  -1   7    8.52    0.62
   1  -1  -7    8.32    0.58
  -1   1   7    9.26    0.90
  -1   1   7    8.81    0.63
  -1   1   7    7.87    0.71
   1   1  -7    8.83    0.88
   1   1  -7    8.58    0.65
   1   1  -7    8.75    0.73
  -1   1   7    9.21    1.06
   1   1  -7    8.38    0.46
  -1   1   7    8.19    0.65
   1   1  -7    7.81    0.91
   1   1  -7    8.92    0.63
   1   1  -7    9.01    0.80
   1   1  -7    8.40    0.85
   1  -1   7   47.73    2.26
   1  -1   7   44.77    1.88
  -1  -1  -7   46.40    1.82
  -1  -1  -7   46.19    2.16
   1  -1   7   46.91    1.97
   1  -1   7   45.10    1.76
  -1  -1  -7   47.69    1.96
  -1  -1  -7   44.88    1.88
  -1  -1  -7   45.80    1.89
   1  -1   7   45.10    2.16
  -1  -1  -7   46.70    2.03
  -1   1  -7   44.98    1.70
   1   1   7   44.33    2.07
  -1   1  -7   47.20    2.16
  -1   1  -7   47.66    2.13
  -1   1  -7   43.65    2.00
  -1   1  -7   46.44    1.93
   1   1   7   45.68    1.89
   1   1   7   46.59    1.92
  -1   1  -7   46.33    1.94
   1   1   7   46.75    2.31
   1   1   7   44.15    1.90
  -1   1  -7   47.88    2.37
   1   1   7   44.40    1.97
   1   1   7   43.85    1.63
  -1   1  -7   43.88    1.87
   3  -1   7    6.36    0.61
   3  -1   7    7.19    1.03
   3  -1   7    7.08    0.65
  -3  -1  -7    5.46    0.78
   3  -1   7    6.66    0.57
  -3  -1  -7    5.91    0.67
  -3  -1  -7    7.12    0.71
  -3  -1  -7    7.43    0.58
   3  -1   7    5.97    0.85
  -3  -1  -7    6.67    0.89
  -3  -1  -7    6.49    0.69
  -3   1  -7    6.05    0.75
   3   1   7    5.27    0.63
  -3   1  -7    7.35    0.73
  -3   1  -7    6.34    0.87
  -3   1  -7    5.74    0.47
  -3   1  -7    6.20    0.66
   3   1   7    6.45    1.08
   3   1   7    6.59    0.79
  -3   1  -7    6.58    0.85
   3   1   7    6.47    0.48
   3   1   7    5.94    0.69
  -5  -1  -7   43.23    1.82
   5  -1   7   40.40    2.00
  -5  -1  -7   41.01    1.88
  -5  -1  -7   37.18    1.81
   5  -1   7   39.06    1.77
  -5  -1  -7   39.75    1.83
   5  -1   7   41.42    1.69
   5  -1   7   40.52    1.82
  -5  -1  -7   40.48    1.70
  -5   1  -7   40.50    1.82
  -5   1  -7   39.77    1.62
  -5   1  -7   40.94    1.83
   5   1   7   44.07    2.30
   5   1   7   40.19    1.91
   5   1   7   42.61    1.88
  -5   1  -7   39.58    1.97
  -5   1  -7   42.43    1.89
   5   1   7   42.30    1.85
   5   1   7   41.94    1.61
   7  -1   7    4.31    0.51
  -7  -1  -7    3.43    0.59
  -7  -1  -7    3.47    0.47
   7  -1   7    2.93    0.57
  -7  -1  -7    2.93    0.57
   7  -1   7    3.64    0.57
  -7  -1  -7    2.89    0.60
   7  -1   7    2.69    0.63
  -7  -1  -7    2.85    0.68
  -7   1  -7    1.95    0.54
  -7   1  -7    2.90    0.56
  -7   1  -7    2.77    0.68
   7   1   7    2.61    0.58
   7   1   7    2.91    0.67
   7   1   7    3.73    0.47
  -7   1  -7    2.52    0.40
   7   1   7    2.23    0.46
  -7   1  -7    2.44    0.50
   9  -1   7   18.62    1.29
  -9  -1  -7   18.05    1.18
  -9  -1  -7   19.99    1.37
   9  -1   7   19.33    1.05
  -9  -1  -7   17.00    1.32
   9  -1   7   17.22    1.22
   9  -1   7   19.10    1.18
  -9  -1  -7   18.82    1.27
   9   1   7   17.50    1.18
  -9   1  -7   18.15    1.23
  -9   1  -7   18.86    1.34
  -9   1  -7   18.71    1.36
  -9   1  -7   19.95    1.25
  -9   1  -7   18.92    1.00
   9   1   7   19.15    1.02
   9   1   7   16.73    1.22
   9   1   7   19.77    1.19
   9   1   7   19.19    1.37
 -11  -1  -7    8.24    1.11
  11  -1   7    9.44    1.23
  11  -1   7    8.95    0.98
 -11  -1  -7    9.09    1.10
 -11  -1  -7    7.48    0.94
  11  -1   7    9.89    0.93
  11   1   7    7.52    0.83
  11   1   7    9.01    1.20
  11   1   7    9.12    0.87
  11   1   7   10.21    0.98
 -11   1  -7   10.29    1.04
 -11   1  -7    9.59    1.12
 -11   1  -7    9.82    1.10
  13  -1   7    3.39    0.67
 -13  -1  -7    2.07    0.80
 -13  -1  -7    3.10    1.03
  13  -1   7    3.35    0.85
  13  -1   7    3.63    0.67
 -13  -1  -7    3.51    0.71
  13   1   7    1.97    0.64
 -13   1  -7    2.67    0.65
 -13   1  -7    4.00    0.79
  13   1   7    4.00    0.86
 -13   1  -7    3.53    0.82
  13   1   7    2.37    0.51
 -15  -1  -7    3.18    0.80
  15  -1   7    6.23    1.03
 -15  -1  -7    3.94    0.81
  15  -1   7    2.56    0.64
  15  -1   7    2.36    0.64
  15   1   7    3.04    0.65
  15   1   7    3.19    0.92
 -15   1  -7    4.13    0.85
 -15   1  -7    2.99    0.71
  17  -1   7    1.95    1.03
  17   1   7    2.75    1.07
  22  -2  -7    8.15    1.06
  22  -2  -7    7.85    1.03
  22  -2  -7    8.13    1.11
 -22  -2   7    8.65    1.66
  22   2  -7    9.13    1.05
  22   2  -7    7.37    0.91
  22   2  -7    8.79    1.10
  20  -2  -7    6.74    0.91
  20  -2  -7    5.24    0.71
  20  -2  -7    4.21    0.72
 -20  -2   7    4.80    1.08
  20  -2  -7    4.99    0.82
  20   2  -7    5.25    0.70
  20   2  -7    6.91    0.84
  20   2  -7    4.97    0.73
  20   2  -7    4.62    0.69
  18  -2  -7   17.94    0.89
  18  -2  -7   18.84    1.17
 -18  -2   7   21.23    1.57
 -18  -2   7   18.55    1.73
  18  -2  -7   19.46    1.18
  18  -2  -7   20.87    1.45
  18  -2  -7   19.47    1.17
  18   2  -7   18.51    1.05
  18   2  -7   19.20    1.21
  18   2  -7   18.01    1.19
  18   2  -7   19.57    1.23
  18   2  -7   16.85    1.11
 -16  -2   7    3.86    1.00
  16  -2  -7    4.40    0.69
 -16  -2   7    5.20    0.88
  16  -2  -7    3.70    0.74
  16  -2  -7    4.48    0.63
  16  -2  -7    3.47    0.44
  16  -2  -7    4.04    0.64
  16   2  -7    3.72    0.53
  16   2  -7    3.64    0.61
  16   2  -7    4.13    0.68
 -16   2   7    3.22    0.81
  16   2  -7    3.18    0.53
  16   2  -7    4.16    0.61
 -14  -2   7   48.26    2.17
 -14  -2   7   46.48    2.51
 -14  -2   7   48.93    2.38
  14  -2  -7   44.90    2.60
  14  -2  -7   49.31    2.18
  14  -2  -7   47.41    1.84
  14  -2  -7   48.24    1.98
  14  -2  -7   46.48    1.89
  14   2  -7   49.54    1.86
  14   2  -7   49.14    2.09
  14   2  -7   50.37    2.23
  14   2  -7   48.73    2.11
  14   2  -7   44.10    2.12
 -14   2   7   52.81    2.44
  14   2  -7   47.86    1.99
 -12  -2   7    3.33    0.37
 -12  -2   7    3.55    0.77
 -12  -2   7    3.69    0.62
  12  -2  -7    3.63    0.39
  12  -2  -7    3.29    0.62
  12  -2  -7    3.30    0.39
  12  -2  -7    3.76    0.76
 -12  -2   7    4.15    0.90
  12  -2  -7    3.95    0.49
  12   2  -7    2.88    0.64
 -12   2   7    3.35    0.69
  12   2  -7    3.69    0.50
  12   2  -7    3.44    0.54
  12   2  -7    3.19    0.61
  12   2  -7    3.36    0.38
  12   2  -7    3.72    0.57
 -12   2   7    2.94    0.40
 -12   2   7    3.39    0.29
  10  -2  -7   68.21    2.39
 -10  -2   7   70.43    2.82
  10  -2  -7   68.92    2.91
  10  -2  -7   67.54    2.43
  10  -2  -7   69.58    3.05
 -10  -2   7   68.47    2.43
  10  -2  -7   69.82    2.56
  10  -2  -7   68.06    2.64
 -10  -2   7   69.42    2.48
 -10   2   7   72.68    3.01
  10   2  -7   68.65    2.44
  10   2  -7   69.26    2.59
 -10   2   7   68.02    2.47
  10   2  -7   70.05    2.79
  10   2  -7   70.55    2.72
  10   2  -7   72.44    2.98
  -8  -2   7   11.82    0.95
  -8  -2   7   12.43    0.66
  -8  -2   7   12.07    0.75
   8  -2  -7   11.19    0.78
   8  -2  -7   12.42    0.71
  -8  -2   7   11.49    1.13
  -8  -2   7   12.44    0.60
   8  -2  -7   11.17    1.02
   8  -2  -7   12.88    0.53
   8   2  -7   11.48    0.92
   8   2  -7   12.45    0.84
  -8   2   7   12.48    0.65
   8   2  -7   13.25    1.07
  -8   2   7   12.11    0.74
   8   2  -7   11.26    0.66
  -8   2   7   11.45    0.73
  -8   2   7   11.72    1.09
   8   2  -7   13.54    0.87
  -6  -2   7   49.78    2.20
   6  -2  -7   49.22    2.30
   6  -2  -7   52.11    2.01
   6  -2  -7   51.06    1.90
   6  -2  -7   51.68    1.90
  -6  -2   7   50.45    1.99
  -6  -2   7   52.56    1.93
  -6  -2   7   51.95    2.10
  -6  -2   7   50.64    2.41
   6  -2  -7   53.16    2.35
  -6  -2   7   52.03    1.98
   6  -2  -7   51.49    2.00
  -6   2   7   55.85    2.38
  -6   2   7   50.34    2.04
   6   2  -7   49.53    2.26
   6   2  -7   50.98    2.11
   6   2  -7   51.23    1.89
  -6   2   7   50.20    1.97
   6   2  -7   53.79    1.95
   6   2  -7   52.19    2.37
   6   2  -7   52.32    1.89
  -6   2   7   50.43    2.03
  -6   2   7   54.11    2.41
   4  -2  -7    8.75    0.64
  -4  -2   7    9.08    0.62
   4  -2  -7    9.21    1.06
   4  -2  -7    9.34    0.58
   4  -2  -7   10.27    0.62
  -4  -2   7    7.46    0.84
   4  -2  -7    9.41    0.64
  -4  -2   7    8.77    0.64
   4  -2  -7    8.71    0.84
   4  -2  -7    8.60    0.94
  -4  -2   7    8.91    0.56
  -4  -2   7    7.94    0.95
  -4  -2   7    7.67    0.66
   4   2  -7    8.81    0.93
  -4   2   7    9.43    0.66
  -4   2   7    8.68    0.92
   4   2  -7    9.56    0.89
   4   2  -7    9.61    0.83
   4   2  -7    8.84    0.57
   4   2  -7    9.61    0.53
  -4   2   7    7.90    0.99
   4   2  -7    9.54    0.77
   4   2  -7    8.40    0.58
  -4   2   7    7.64    0.66
  -4   2   7    8.52    0.61
   2  -2  -7   42.34    1.73
   2  -2  -7   42.25    1.71
   2  -2  -7   41.39    2.02
   2  -2  -7   41.49    1.71
  -2  -2   7   41.65    1.79
  -2  -2   7   43.81    2.02
  -2  -2   7   40.41    2.07
   2  -2  -7   41.61    1.74
   2  -2  -7   41.88    1.94
  -2  -2   7   36.10    1.64
  -2  -2   7   42.46    1.76
   2   2  -7   40.51    1.80
  -2   2   7   39.99    1.81
   2   2  -7   43.22    1.59
   2   2  -7   42.23    2.05
  -2   2   7   45.50    2.18
   2   2  -7   48.47    2.50
   2   2  -7   42.93    1.73
   2   2  -7   40.99    1.69
  -2   2   7   42.10    1.99
  -2   2   7   42.65    1.76
   2   2  -7   41.62    2.00
   2   2  -7   43.58    1.99
   0  -2   7   17.99    1.28
   0  -2  -7   16.70    1.07
   0  -2   7   17.18    0.90
   0  -2   7   16.89    1.21
   0  -2   7   16.48    0.96
   0  -2  -7   17.47    0.93
   0  -2  -7   16.51    1.21
   0  -2  -7   16.37    0.95
   0  -2  -7   16.43    0.90
   0  -2  -7   17.23    0.93
   0  -2   7   16.38    0.86
   0   2   7   15.57    0.92
   0   2   7   13.66    1.27
   0   2  -7   16.88    1.01
   0   2   7   16.50    0.94
   0   2  -7   16.90    1.23
   0   2  -7   16.36    0.65
   0   2  -7   17.10    0.94
   0   2   7   16.91    1.13
   0   2  -7   16.33    0.91
   0   2  -7   15.69    1.08
   0   2   7   15.79    1.00
   0   2  -7   17.07    0.77
   0   2  -7   16.22    1.15
  -2  -2  -7   17.72    1.05
  -2  -2  -7   16.75    0.98
  -2  -2  -7   15.09    1.47
   2  -2   7   17.71    0.92
   2  -2   7   16.66    1.27
  -2  -2  -7   17.45    0.94
  -2  -2  -7   18.41    1.02
   2  -2   7   17.33    1.12
  -2  -2  -7   18.06    1.08
   2  -2   7   17.75    1.33
   2  -2   7   16.71    0.89
   2  -2   7   17.06    0.97
  -2   2  -7   19.27    1.05
  -2   2  -7   16.58    1.14
   2   2   7   17.27    1.03
   2   2   7   18.09    1.05
  -2   2  -7   18.09    1.20
  -2   2  -7   17.54    0.74
  -2   2  -7   16.89    0.99
  -2   2  -7   19.55    1.38
   2   2   7   17.41    1.16
   2   2   7   18.68    1.76
   2   2   7   17.17    1.01
  -4  -2  -7   27.69    1.42
   4  -2   7   26.74    1.23
   4  -2   7   26.87    1.33
  -4  -2  -7   23.66    1.78
  -4  -2  -7   24.67    1.31
  -4  -2  -7   25.18    1.25
   4  -2   7   25.58    1.23
  -4  -2  -7   25.78    1.34
  -4  -2  -7   26.46    1.39
   4  -2   7   26.60    1.77
  -4   2  -7   27.93    1.50
  -4   2  -7   27.86    1.35
  -4   2  -7   28.44    1.41
  -4   2  -7   26.72    1.10
   4   2   7   26.05    1.15
   4   2   7   25.64    1.08
  -4   2  -7   27.70    1.48
   4   2   7   26.31    1.35
   4   2   7   26.39    1.50
   4   2   7   26.50    1.43
   4   2   7   31.38    1.98
  -6  -2  -7    5.28    0.71
  -6  -2  -7    4.74    0.77
  -6  -2  -7    5.95    0.73
   6  -2   7    4.79    0.69
   6  -2   7    5.20    1.03
   6  -2   7    4.91    0.63
   6  -2   7    4.98    0.70
  -6  -2  -7    5.53    0.81
  -6  -2  -7    5.44    0.77
  -6  -2  -7    4.07    0.54
  -6   2  -7    5.91    0.79
  -6   2  -7    4.79    0.64
  -6   2  -7    5.47    0.49
  -6   2  -7    4.27    0.80
   6   2   7    6.14    0.81
  -6   2  -7    5.87    0.94
   6   2   7    4.52    0.73
   6   2   7    4.29    0.59
  -6   2  -7    5.30    0.75
   6   2   7    6.36    0.53
   8  -2   7   12.95    1.05
   8  -2   7   11.45    0.95
  -8  -2  -7   14.40    1.22
  -8  -2  -7   12.11    1.05
   8  -2   7   11.62    0.87
   8  -2   7   14.35    1.05
  -8  -2  -7   13.42    0.97
  -8  -2  -7   14.82    1.16
   8  -2   7   11.58    1.13
  -8   2  -7   13.12    1.12
   8   2   7   10.90    1.02
   8   2   7   13.75    0.83
   8   2   7   14.33    0.98
  -8   2  -7   14.04    1.11
  -8   2  -7   13.39    1.18
   8   2   7   13.68    1.20
  -8   2  -7   15.14    0.78
   8   2   7   14.49    1.03
  -8   2  -7   14.66    1.06
  -8   2  -7   14.18    1.07
  10  -2   7    5.38    1.05
 -10  -2  -7    5.36    0.73
  10  -2   7    6.12    0.82
 -10  -2  -7    6.21    0.83
  10  -2   7    5.98    0.93
 -10  -2  -7    7.32    1.08
  10  -2   7    4.92    0.81
 -10   2  -7    6.39    0.93
 -10   2  -7    6.64    1.01
  10   2   7    6.83    0.76
  10   2   7    6.84    0.73
 -10   2  -7    5.43    0.81
 -10   2  -7    7.10    0.62
  10   2   7    3.57    0.86
  10   2   7    4.91    0.93
  10   2   7    5.83    0.73
 -12  -2  -7    8.30    0.98
 -12  -2  -7   10.16    1.15
  12  -2   7    8.43    0.97
  12  -2   7    8.87    1.26
  12  -2   7   10.18    1.13
 -12  -2  -7    9.26    1.19
 -12   2  -7    8.75    1.07
  12   2   7   10.33    1.30
  12   2   7   10.67    1.02
  12   2   7    9.57    0.83
 -12   2  -7   11.25    1.18
 -12   2  -7   12.45    1.24
  14  -2   7    2.44    0.64
 -14  -2  -7    2.58    1.34
  14  -2   7    1.64    0.84
 -14  -2  -7    2.60    0.75
 -14  -2  -7    0.96    0.62
  14  -2   7    1.78    0.61
 -14   2  -7    1.44    0.69
  14   2   7    1.89    0.85
  14   2   7    1.88    0.58
 -14   2  -7    2.10    0.65
  14   2   7    2.30    0.71
  16  -2   7    4.90    0.79
  16  -2   7    6.01    1.05
 -16   2  -7    2.81    0.94
  16   2   7    6.37    1.14
  16   2   7    4.73    0.89
  23  -3  -7    3.28    0.79
  23  -3  -7    2.53    0.75
  23  -3  -7    2.46    0.74
 -23  -3   7    1.91    1.55
  23   3  -7    2.27    1.17
  23   3  -7    1.62    0.65
  23   3  -7    1.55    0.85
  21  -3  -7   17.83    1.21
  21  -3  -7   15.03    1.34
  21  -3  -7   14.00    1.81
 -21  -3   7   14.66    1.89
  21   3  -7   15.85    1.07
  21   3  -7   16.48    1.25
  21   3  -7   15.78    1.21
  19  -3  -7    8.40    0.95
 -19  -3   7    6.64    1.33
  19  -3  -7    7.23    0.80
 -19  -3   7    7.37    1.02
  19  -3  -7    8.52    0.87
  19  -3  -7    7.31    1.13
  19   3  -7    6.60    0.91
  19   3  -7    9.48    0.94
  19   3  -7    6.72    0.88
  19   3  -7    7.55    0.72
 -17  -3   7   22.20    1.85
  17  -3  -7   22.58    1.25
 -17  -3   7   22.69    1.60
  17  -3  -7   19.88    1.25
  17  -3  -7   19.23    0.87
  17  -3  -7   20.66    1.48
  17   3  -7   22.10    1.48
  17   3  -7   20.06    1.05
  17   3  -7   19.58    1.02
  17   3  -7   20.64    1.35
 -17   3   7   20.61    1.66
  17   3  -7   20.67    1.26
  15  -3  -7   25.82    1.11
  15  -3  -7   26.52    1.39
 -15  -3   7   26.26    1.72
  15  -3  -7   29.52    1.52
  15  -3  -7   29.67    1.74
  15  -3  -7   26.08    1.25
  15  -3  -7   26.92    1.09
  15   3  -7   27.08    1.17
 -15   3   7   27.11    1.14
  15   3  -7   26.69    1.30
  15   3  -7   26.81    1.58
  15   3  -7   26.65    1.37
  15   3  -7   26.30    1.41
  15   3  -7   29.08    1.47
 -15   3   7   25.75    1.07
 -15   3   7   27.24    1.74
  13  -3  -7   43.20    1.71
  13  -3  -7   44.01    1.67
  13  -3  -7   44.16    1.65
  13  -3  -7   43.47    2.06
 -13  -3   7   43.23    2.40
 -13  -3   7   43.46    2.25
  13  -3  -7   47.33    2.32
  13   3  -7   47.18    2.20
  13   3  -7   45.08    1.98
  13   3  -7   43.88    1.93
  13   3  -7   43.78    1.66
  13   3  -7   46.04    1.93
 -13   3   7   42.81    1.72
  13   3  -7   43.76    1.96
 -13   3   7   41.64    1.69
 -13   3   7   43.59    1.62
  13   3  -7   44.69    1.89
 -13   3   7   49.82    2.33
 -13   3   7   42.53    1.62
 -11  -3   7   35.85    1.94
 -11  -3   7   34.99    1.62
 -11  -3   7   33.97    2.01
  11  -3  -7   35.55    1.97
  11  -3  -7   33.91    1.29
  11  -3  -7   34.46    1.24
  11  -3  -7   33.03    1.74
 -11  -3   7   33.20    1.36
  11  -3  -7   35.09    1.37
  11   3  -7   34.48    1.60
  11   3  -7   35.59    1.87
  11   3  -7   32.76    1.60
 -11   3   7   32.59    1.34
  11   3  -7   33.76    1.27
  11   3  -7   32.88    1.49
 -11   3   7   34.03    1.44
 -11   3   7   36.45    1.95
  -9  -3   7   34.71    1.62
   9  -3  -7   35.32    1.80
  -9  -3   7   35.26    1.35
  -9  -3   7   33.68    1.40
  -9  -3   7   35.93    2.01
   9  -3  -7   34.32    1.52
   9  -3  -7   34.99    1.40
  -9  -3   7   35.86    1.56
   9   3  -7   33.51    1.47
   9   3  -7   34.62    1.65
   9   3  -7   36.82    1.65
   9   3  -7   35.55    1.60
  -9   3   7   34.10    1.45
  -9   3   7   35.91    1.91
  -9   3   7   32.18    1.40
   9   3  -7   35.86    1.86
  -9   3   7   36.68    1.51
   7  -3  -7   83.32    3.15
  -7  -3   7   84.61    3.05
   7  -3  -7   85.25    3.45
  -7  -3   7   84.43    3.00
  -7  -3   7   84.11    3.14
  -7  -3   7   81.56    3.22
   7  -3  -7   87.22    2.99
   7  -3  -7   83.68    3.04
   7  -3  -7   83.46    2.97
   7   3  -7   82.08    2.96
  -7   3   7   82.56    3.14
  -7   3   7   81.79    3.08
   7   3  -7   84.30    3.08
  -7   3   7   82.94    3.09
   7   3  -7   84.11    2.95
   7   3  -7   82.49    3.50
   7   3  -7   86.61    3.24
  -7   3   7   87.59    3.70
   7   3  -7   88.59    3.03
   7   3  -7   85.05    3.33
   5  -3  -7   15.45    0.80
  -5  -3   7   14.76    1.57
   5  -3  -7   14.77    1.15
  -5  -3   7   15.11    0.83
  -5  -3   7   14.77    0.75
  -5  -3   7   15.43    0.88
  -5  -3   7   13.84    0.98
   5  -3  -7   14.90    0.86
   5  -3  -7   15.34    0.78
   5  -3  -7   14.88    0.78
   5   3  -7   14.60    0.80
  -5   3   7   13.37    0.86
  -5   3   7   15.61    0.85
   5   3  -7   15.14    1.02
   5   3  -7   14.58    1.20
   5   3  -7   14.63    0.77
   5   3  -7   16.07    1.00
  -5   3   7   16.27    1.27
  -5   3   7   15.03    1.15
  -5   3   7   15.27    0.92
   5   3  -7   15.48    0.76
   3  -3  -7   96.56    4.27
   3  -3  -7  103.03    3.77
   3  -3  -7  103.32    3.74
   3  -3  -7  105.68    3.75
  -3  -3   7  103.06    3.92
  -3  -3   7  102.58    4.62
   3  -3  -7  100.86    3.72
   3  -3  -7   96.71    4.02
  -3  -3   7  107.91    3.78
  -3  -3   7   97.06    3.73
   3   3  -7  104.62    3.71
  -3   3   7  104.11    3.77
   3   3  -7  101.19    4.40
   3   3  -7  107.06    4.02
  -3   3   7  103.67    3.86
   3   3  -7  105.91    3.87
   3   3  -7   94.28    4.35
   3   3  -7  107.79    3.75
   3   3  -7  107.06    3.68
  -3   3   7  108.99    4.22
  -3   3   7  105.89    4.04
   1  -3  -7   25.48    1.20
   1  -3  -7   25.38    1.22
   1  -3  -7   25.56    1.18
  -1  -3   7   26.05    1.24
   1  -3  -7   25.55    1.24
  -1  -3   7   24.74    1.18
   1  -3  -7   23.19    1.36
  -1  -3   7   26.24    1.45
   1   3  -7   24.14    1.42
  -1   3   7   25.19    1.32
  -1   3   7   25.80    1.22
   1   3  -7   23.54    1.38
   1   3  -7   25.86    1.10
  -1   3   7   22.16    1.92
   1   3  -7   24.79    1.81
  -1   3   7   25.31    1.43
   1   3  -7   23.97    1.17
   1   3  -7   26.83    1.23
  -1  -3  -7   37.39    1.63
  -1  -3  -7   36.76    1.77
  -1  -3  -7   36.02    1.60
  -1  -3  -7   38.83    1.70
   1  -3   7   39.41    1.62
   1  -3   7   38.22    1.60
  -1  -3  -7   37.92    1.66
   1  -3   7   37.90    1.69
   1  -3   7   38.88    1.92
  -1  -3  -7   35.75    1.95
   1  -3   7   31.73    2.23
  -1   3  -7   37.66    1.50
   1   3   7   39.15    2.16
  -1   3  -7   36.80    1.81
   1   3   7   33.24    1.69
  -1   3  -7   38.08    1.72
  -1   3  -7   31.38    2.12
   1   3   7   37.07    1.65
   1   3   7   38.41    1.76
   1   3   7   39.93    1.83
  -1   3  -7   36.87    1.66
  -1   3  -7   38.60    1.64
   1   3   7   40.94    1.71
  -3  -3  -7   10.67    0.78
  -3  -3  -7    9.96    0.85
  -3  -3  -7    9.92    0.88
   3  -3   7    9.89    1.12
   3  -3   7   10.93    0.78
   3  -3   7    8.00    1.08
   3  -3   7    9.59    0.76
  -3  -3  -7   10.87    0.89
  -3  -3  -7   11.53    1.10
   3  -3   7   10.38    0.64
  -3   3  -7   10.38    0.89
   3   3   7   10.88    0.83
   3   3   7   11.58    1.27
  -3   3  -7   11.37    0.85
   3   3   7   11.22    0.96
  -3   3  -7   12.23    0.97
  -3   3  -7   11.71    1.09
  -3   3  -7   10.47    0.81
   3   3   7   10.80    0.91
  -5  -3  -7   55.53    2.29
  -5  -3  -7   53.48    2.30
  -5  -3  -7   57.99    2.60
   5  -3   7   57.30    2.34
  -5  -3  -7   57.64    2.56
  -5  -3  -7   53.80    2.38
  -5  -3  -7   56.56    2.38
   5  -3   7   56.49    2.66
   5  -3   7   59.12    2.28
   5  -3   7   51.90    2.19
  -5   3  -7   57.42    2.35
  -5   3  -7   58.86    2.59
   5   3   7   58.20    2.40
  -5   3  -7   55.48    2.45
  -5   3  -7   52.15    2.06
   5   3   7   56.74    2.10
   5   3   7   58.67    2.47
   5   3   7   62.93    2.92
  -5   3  -7   58.00    2.38
  -5   3  -7   59.66    2.43
   5   3   7   55.06    2.06
   5   3   7   54.50    2.38
   7  -3   7    5.69    0.79
  -7  -3  -7    6.65    0.88
  -7  -3  -7    6.19    0.75
   7  -3   7    6.90    0.97
   7  -3   7    5.98    0.74
  -7  -3  -7    6.49    0.76
   7  -3   7    7.91    0.78
  -7  -3  -7    6.37    1.00
  -7  -3  -7    7.25    0.97
   7   3   7    6.56    0.76
  -7   3  -7    5.85    0.51
  -7   3  -7    7.70    1.01
  -7   3  -7    7.19    1.03
   7   3   7    7.50    0.82
  -7   3  -7    7.29    0.90
   7   3   7    7.68    1.18
  -7   3  -7    7.06    0.85
  -7   3  -7    6.61    0.89
   7   3   7    5.64    0.61
   7   3   7    7.51    0.60
   9  -3   7   16.17    1.09
   9  -3   7   14.91    1.28
  -9  -3  -7   16.85    1.29
  -9  -3  -7   18.24    1.34
  -9  -3  -7   16.22    1.11
   9  -3   7   15.60    1.20
   9  -3   7   15.09    1.45
  -9   3  -7   18.36    1.25
   9   3   7   16.52    1.03
   9   3   7   15.62    1.13
   9   3   7   16.47    1.00
  -9   3  -7   17.29    1.34
   9   3   7   15.87    1.28
  -9   3  -7   15.50    1.20
   9   3   7   18.24    1.40
  -9   3  -7   16.37    0.86
   9   3   7   16.17    0.95
  -9   3  -7   15.27    1.19
 -11  -3  -7    9.35    1.02
  11  -3   7   11.47    1.00
 -11  -3  -7   10.41    1.20
  11  -3   7   10.53    1.16
 -11  -3  -7   12.43    1.25
  11  -3   7   10.89    1.14
 -11   3  -7    9.29    1.14
 -11   3  -7   13.30    1.57
 -11   3  -7   10.73    1.17
  11   3   7   10.89    1.06
  11   3   7   10.58    0.99
 -11   3  -7   11.77    1.05
 -11   3  -7   10.01    1.07
  11   3   7    8.77    1.33
  11   3   7   10.78    0.82
  13  -3   7    4.77    0.82
 -13  -3  -7    2.49    0.99
 -13  -3  -7    3.76    0.80
  13  -3   7    2.52    0.86
  13  -3   7    3.71    0.68
 -13  -3  -7    3.23    0.71
  13   3   7    2.94    0.64
  13   3   7    4.23    0.82
  13   3   7    3.74    0.91
 -13   3  -7    2.98    0.71
 -13   3  -7    4.11    0.79
  15  -3   7    5.16    0.80
 -15  -3  -7    4.06    1.34
 -15  -3  -7    3.69    0.85
  15  -3   7    2.85    0.98
  15  -3   7    4.31    1.02
 -15   3  -7    4.84    0.89
  15   3   7    4.62    0.92
  15   3   7    1.74    0.95
 -15   3  -7    3.59    0.78
  22  -4  -7    7.13    1.05
 -22  -4   7    6.08    1.63
  22   4  -7    4.34    0.84
  22   4  -7    6.30    0.93
  20  -4  -7    6.99    1.00
  20  -4  -7    7.26    0.99
 -20  -4   7    6.26    1.04
  20  -4  -7    5.77    0.95
  20  -4  -7    5.10    0.72
 -20  -4   7    6.11    1.49
  20   4  -7    6.41    0.84
  20   4  -7    5.62    0.80
  20   4  -7    5.35    0.83
  20   4  -7    5.77    0.73
  18  -4  -7   18.41    1.43
  18  -4  -7   18.51    1.18
 -18  -4   7   17.73    1.97
 -18  -4   7   21.08    1.60
  18  -4  -7   22.32    1.31
  18  -4  -7   21.54    1.56
 -18   4   7   18.46    1.07
  18   4  -7   19.84    1.34
  18   4  -7   20.62    1.34
  18   4  -7   20.26    1.35
  18   4  -7   19.80    1.14
 -16  -4   7    7.44    1.07
  16  -4  -7    7.56    0.69
  16  -4  -7    7.89    1.15
  16  -4  -7    8.06    0.86
 -16  -4   7    6.29    1.21
  16   4  -7    7.76    0.84
  16   4  -7    6.34    0.55
  16   4  -7    7.61    0.98
 -16   4   7    7.28    0.60
  16   4  -7    6.60    0.55
  16   4  -7    7.02    0.90
 -16   4   7    7.77    1.11
 -16   4   7    7.70    0.74
  16   4  -7    6.75    0.80
  14  -4  -7   36.81    1.58
  14  -4  -7   41.68    2.19
 -14  -4   7   37.59    2.33
 -14  -4   7   38.90    2.13
  14  -4  -7   37.16    1.44
  14  -4  -7   39.32    1.47
  14   4  -7   42.72    2.04
  14   4  -7   41.35    1.91
  14   4  -7   38.89    1.64
  14   4  -7   39.56    1.77
 -14   4   7   39.14    2.15
  14   4  -7   39.16    1.67
 -14   4   7   38.37    1.49
 -14   4   7   36.65    1.64
  14   4  -7   38.49    1.49
  12  -4  -7    8.25    1.15
  12  -4  -7    7.53    0.47
 -12  -4   7    7.74    1.16
 -12  -4   7    8.79    1.10
  12  -4  -7    7.62    0.43
 -12  -4   7    7.48    0.84
  12  -4  -7    7.84    1.23
  12   4  -7    8.23    0.44
  12   4  -7    8.15    0.68
 -12   4   7    5.98    0.56
  12   4  -7    6.87    0.85
  12   4  -7    9.30    0.74
  12   4  -7    7.82    0.69
 -12   4   7    8.58    1.16
 -12   4   7    7.96    0.70
  12   4  -7    8.29    0.72
 -12   4   7    7.92    0.56
 -10  -4   7   63.33    2.58
 -10  -4   7   64.58    2.35
 -10  -4   7   64.15    2.51
  10  -4  -7   63.22    2.54
 -10  -4   7   62.91    3.04
 -10  -4   7   61.23    2.39
 -10  -4   7   62.95    2.92
  10  -4  -7   65.25    2.32
  10  -4  -7   66.72    3.02
  10  -4  -7   57.99    2.99
  10   4  -7   63.63    2.50
  10   4  -7   67.24    2.68
 -10   4   7   61.86    2.42
 -10   4   7   69.10    2.95
 -10   4   7   64.35    2.51
 -10   4   7   64.07    2.38
  10   4  -7   64.85    2.57
  10   4  -7   66.38    2.54
  -8  -4   7   21.59    1.16
  -8  -4   7   20.12    1.51
   8  -4  -7   19.12    1.40
  -8  -4   7   20.79    1.52
   8  -4  -7   21.11    0.94
  -8  -4   7   21.04    0.94
   8  -4  -7   19.83    1.10
  -8  -4   7   19.76    1.10
  -8  -4   7   21.07    1.01
   8  -4  -7   21.58    1.57
   8   4  -7   22.81    1.27
  -8   4   7   21.60    1.01
   8   4  -7   22.79    0.88
   8   4  -7   21.74    1.16
  -8   4   7   21.78    1.04
  -8   4   7   20.95    1.46
  -8   4   7   19.62    1.10
   8   4  -7   22.07    0.88
   8   4  -7   19.59    1.15
   8   4  -7   21.35    0.89
  -6  -4   7   53.85    2.12
   6  -4  -7   55.25    2.06
   6  -4  -7   53.67    2.06
  -6  -4   7   53.79    2.60
  -6  -4   7   58.17    2.11
   6  -4  -7   53.33    2.20
   6  -4  -7   54.41    2.66
  -6  -4   7   51.66    2.60
   6  -4  -7   56.51    2.09
   6  -4  -7   51.51    2.48
  -6  -4   7   51.88    2.19
  -6  -4   7   52.21    2.19
   6   4  -7   56.96    2.07
   6   4  -7   58.00    2.16
  -6   4   7   56.40    2.59
   6   4  -7   54.90    2.31
  -6   4   7   51.90    2.23
  -6   4   7   54.85    2.12
   6   4  -7   53.50    2.04
   6   4  -7   54.21    2.03
   6   4  -7   56.78    2.33
   4  -4  -7   14.33    0.93
  -4  -4   7   14.70    0.90
   4  -4  -7   14.89    0.84
   4  -4  -7   14.46    0.80
  -4  -4   7   15.36    0.87
   4  -4  -7   14.63    0.86
  -4  -4   7   13.84    0.96
  -4  -4   7   16.13    1.35
   4  -4  -7   15.08    1.18
   4   4  -7   16.37    1.05
  -4   4   7   15.33    1.30
   4   4  -7   15.66    0.83
  -4   4   7   15.68    1.00
   4   4  -7   16.26    0.87
   4   4  -7   16.59    0.86
   4   4  -7   15.85    1.02
  -4   4   7   15.20    0.86
   2  -4  -7   39.08    1.95
   2  -4  -7   37.76    1.64
   2  -4  -7   39.37    1.60
  -2  -4   7   38.74    1.68
  -2  -4   7   37.86    1.77
   2  -4  -7   38.74    1.68
   2  -4  -7   37.51    1.68
  -2  -4   7   38.35    1.67
  -2  -4   7   35.71    2.05
  -2   4   7   38.56    1.66
   2   4  -7   39.26    1.76
   2   4  -7   38.73    1.79
  -2   4   7   39.24    1.78
   2   4  -7   39.94    1.86
  -2   4   7   38.34    2.07
   2   4  -7   40.43    1.61
   2   4  -7   38.09    1.63
   0  -4  -7   24.16    1.23
   0  -4  -7   22.51    1.19
   0  -4  -7   24.07    1.13
   0  -4   7   22.51    1.17
   0  -4  -7   22.01    1.45
   0  -4   7   21.84    1.33
   0  -4  -7   23.27    1.22
   0  -4   7   23.14    1.12
   0  -4   7   22.64    1.19
   0  -4  -7   20.86    1.33
   0  -4   7   22.66    1.61
   0   4  -7   24.22    1.10
   0   4   7   23.42    1.31
   0   4   7   22.92    1.21
   0   4  -7   22.22    1.34
   0   4  -7   22.84    1.16
   0   4   7   23.44    1.34
   0   4  -7   21.83    1.39
   0   4  -7   24.21    1.31
   0   4  -7   22.45    1.18
   0   4   7   26.03    1.66
   0   4   7   22.56    1.17
   2  -4   7   26.59    1.32
  -2  -4  -7   27.68    1.67
  -2  -4  -7   25.93    1.35
  -2  -4  -7   28.63    1.40
  -2  -4  -7   24.96    1.30
   2  -4   7   27.20    1.31
   2  -4   7   27.26    1.60
  -2  -4  -7   24.94    1.44
  -2  -4  -7   30.01    1.46
   2  -4   7   28.02    1.78
  -2   4  -7   27.54    1.44
   2   4   7   27.53    1.52
   2   4   7   26.47    1.39
   2   4   7   29.16    1.47
  -2   4  -7   28.54    1.36
  -2   4  -7   26.93    1.48
  -2   4  -7   29.16    1.42
   2   4   7   31.08    1.86
  -2   4  -7   27.44    1.26
   4  -4   7   23.73    1.26
  -4  -4  -7   25.30    1.36
  -4  -4  -7   23.56    1.26
  -4  -4  -7   25.22    1.39
   4  -4   7   23.74    1.66
  -4  -4  -7   24.88    1.40
  -4  -4  -7   23.85    1.53
   4  -4   7   22.37    1.23
   4  -4   7   24.16    1.26
   4   4   7   27.68    1.50
   4   4   7   27.46    1.79
  -4   4  -7   24.03    1.28
   4   4   7   23.46    0.97
   4   4   7   25.55    1.38
   4   4   7   24.06    1.01
  -4   4  -7   24.76    1.40
   4   4   7   24.84    1.34
  -4   4  -7   26.56    1.38
  -4   4  -7   24.25    1.39
  -6  -4  -7    5.00    0.76
   6  -4   7    6.35    0.99
  -6  -4  -7    7.61    0.89
   6  -4   7    5.17    0.69
   6  -4   7    6.07    0.79
  -6  -4  -7    5.66    0.74
  -6  -4  -7    4.87    0.83
   6  -4   7    6.28    0.72
  -6  -4  -7    4.56    0.76
   6   4   7    5.95    0.71
  -6   4  -7    7.86    1.07
  -6   4  -7    6.11    0.81
  -6   4  -7    5.91    0.88
   6   4   7    7.12    1.02
  -6   4  -7    4.48    0.64
   6   4   7    5.76    0.77
   6   4   7    5.52    0.52
  -6   4  -7    5.61    0.83
   6   4   7    7.67    1.29
  -8  -4  -7   14.11    1.07
   8  -4   7   15.18    1.25
   8  -4   7   13.61    1.06
   8  -4   7   13.93    1.31
  -8  -4  -7   13.94    1.18
  -8  -4  -7   15.96    1.33
   8  -4   7   14.57    1.06
  -8  -4  -7   14.80    1.02
   8   4   7   14.10    1.31
  -8   4  -7   14.25    1.17
  -8   4  -7   14.59    1.12
  -8   4  -7   13.90    1.12
   8   4   7   14.26    1.28
   8   4   7   14.88    0.96
   8   4   7   14.63    0.88
  -8   4  -7   14.54    1.31
   8   4   7   14.24    1.09
   8   4   7   15.21    0.96
   8   4   7   17.00    1.66
 -10  -4  -7    6.64    0.90
 -10  -4  -7    6.48    0.89
  10  -4   7    7.21    0.90
  10  -4   7    7.08    1.52
  10  -4   7    8.30    1.15
  10  -4   7    6.98    0.90
 -10  -4  -7    8.60    1.15
 -10   4  -7    8.64    1.04
  10   4   7    6.89    0.95
  10   4   7    8.86    1.20
 -10   4  -7    8.33    1.15
 -10   4  -7    7.98    1.11
  10   4   7    7.98    0.83
 -12  -4  -7    6.69    1.14
  12  -4   7    6.80    0.95
 -12  -4  -7    9.69    1.07
  12  -4   7    8.18    1.70
  12  -4   7    9.10    1.20
  12   4   7    7.71    1.09
  12   4   7   10.38    1.05
  12   4   7    7.39    0.99
 -12   4  -7    7.70    1.10
 -12   4  -7    7.47    1.14
  14  -4   7    2.08    0.88
 -14  -4  -7    2.57    0.73
 -14  -4  -7    2.67    1.16
  14  -4   7    2.26    1.54
  14  -4   7    1.00    0.58
  14  -4   7    1.99    0.73
 -14   4  -7    2.87    0.78
  14   4   7    1.26    0.95
  14   4   7    2.03    0.74
  14   4   7    2.77    0.70
 -14   4  -7    1.06    0.73
  16  -4   7    4.26    1.10
  21  -5  -7   10.08    1.37
 -21  -5   7    5.12    1.17
 -21  -5   7    5.38    1.71
  21  -5  -7    7.63    0.99
  21   5  -7    7.94    1.15
  21   5  -7    6.91    1.05
  19  -5  -7    2.37    0.71
  19  -5  -7    4.00    0.71
  19  -5  -7    3.22    0.67
 -19  -5   7    3.40    1.36
 -19  -5   7    3.72    0.94
  19  -5  -7    5.26    0.99
  19   5  -7    4.13    0.76
  19   5  -7    4.44    0.75
  19   5  -7    2.91    0.66
 -17  -5   7    9.53    1.35
  17  -5  -7    9.90    1.25
  17  -5  -7    8.69    0.96
 -17  -5   7   10.19    1.76
  17  -5  -7    7.44    1.07
  17  -5  -7    9.68    1.01
 -17   5   7   10.21    0.93
 -17   5   7   10.25    1.49
  17   5  -7    9.46    1.09
  17   5  -7    8.27    0.77
  17   5  -7    9.67    1.27
  17   5  -7    9.11    1.05
  15  -5  -7   12.35    1.36
  15  -5  -7   10.32    0.79
 -15  -5   7   11.26    1.62
 -15  -5   7   12.31    1.38
  15  -5  -7   14.21    1.12
 -15   5   7   14.68    1.42
  15   5  -7   11.52    0.64
  15   5  -7   10.65    1.10
  15   5  -7   11.30    0.98
 -15   5   7   10.50    0.80
 -15   5   7   11.31    0.92
  15   5  -7   11.67    0.91
 -15   5   7   12.04    0.72
  13  -5  -7   20.29    1.56
  13  -5  -7   19.62    1.29
 -13  -5   7   20.70    1.59
 -13  -5   7   18.55    1.71
  13  -5  -7   16.57    0.92
 -13   5   7   22.15    1.55
  13   5  -7   18.83    1.15
  13   5  -7   18.46    0.80
 -13   5   7   18.43    1.00
  13   5  -7   20.38    1.09
  13   5  -7   19.60    1.32
 -13   5   7   19.07    1.09
  13   5  -7   19.82    0.98
 -13   5   7   18.45    1.12
 -13   5   7   19.74    0.95
  13   5  -7   18.86    1.08
  11  -5  -7   11.02    0.58
  11  -5  -7   13.39    1.12
 -11  -5   7   12.27    1.39
  11  -5  -7   12.81    0.54
  11  -5  -7   13.15    1.33
  11  -5  -7   12.60    0.67
 -11  -5   7   12.16    1.35
  11   5  -7   14.13    0.81
  11   5  -7   11.11    1.02
 -11   5   7   12.63    0.91
  11   5  -7   12.39    0.80
 -11   5   7   12.41    1.26
  11   5  -7   11.90    0.90
  -9  -5   7   11.95    0.78
  -9  -5   7   12.57    1.35
  -9  -5   7   13.07    1.02
  -9  -5   7   12.54    1.34
   9  -5  -7   11.94    0.63
  -9  -5   7   13.37    0.81
   9  -5  -7   12.52    1.15
   9  -5  -7   14.17    1.42
  -9   5   7   13.85    1.29
   9   5  -7   12.81    1.06
  -9   5   7   13.53    0.75
  -9   5   7   12.47    0.91
   9   5  -7   13.65    0.66
   9   5  -7   12.83    0.88
   9   5  -7   12.81    0.64
   9   5  -7   13.53    0.87
   9   5  -7   13.23    0.77
   7  -5  -7   32.75    1.36
   7  -5  -7   34.78    1.73
  -7  -5   7   32.61    1.45
  -7  -5   7   31.73    2.40
   7  -5  -7   34.51    2.06
  -7  -5   7   32.27    1.47
   7  -5  -7   35.70    1.87
   7  -5  -7   34.13    1.41
  -7  -5   7   35.30    2.03
  -7  -5   7   30.48    1.58
  -7   5   7   33.61    1.92
   7   5  -7   35.06    1.59
  -7   5   7   33.13    1.47
   7   5  -7   36.98    1.57
   7   5  -7   35.17    1.36
   7   5  -7   36.35    1.86
   7   5  -7   33.71    1.38
   7   5  -7   34.57    1.40
   7   5  -7   37.12    1.43
  -7   5   7   33.08    1.61
   5  -5  -7    5.45    0.96
   5  -5  -7    5.63    0.57
   5  -5  -7    5.88    1.10
  -5  -5   7    6.07    0.62
   5  -5  -7    5.67    0.50
  -5  -5   7    5.44    0.93
   5  -5  -7    5.21    0.56
  -5  -5   7    5.50    1.00
  -5  -5   7    5.83    0.60
   5  -5  -7    4.67    0.67
  -5  -5   7    6.70    0.70
   5   5  -7    5.96    0.51
  -5   5   7    7.29    0.62
   5   5  -7    6.51    0.84
   5   5  -7    6.98    0.58
  -5   5   7    6.12    1.03
   5   5  -7    6.70    0.55
   5   5  -7    5.56    0.68
   5   5  -7    4.98    0.62
  -5   5   7    5.26    0.68
  -3  -5   7   39.82    2.21
   3  -5  -7   37.75    1.78
   3  -5  -7   39.98    1.73
   3  -5  -7   40.14    1.71
   3  -5  -7   38.00    2.04
  -3  -5   7   38.82    1.75
  -3  -5   7   41.88    1.74
   3  -5  -7   39.43    1.64
  -3  -5   7   37.32    1.70
   3   5  -7   40.72    1.72
   3   5  -7   41.55    1.71
   3   5  -7   40.21    1.68
  -3   5   7   39.84    1.69
   3   5  -7   40.45    1.88
   3   5  -7   41.45    1.86
  -3   5   7   41.65    1.87
  -3   5   7   40.61    2.16
  -1  -5   7    8.40    0.83
   1  -5  -7    8.98    0.77
  -1  -5   7    8.37    1.20
  -1  -5   7    8.81    0.75
   1  -5  -7    9.44    1.07
   1  -5  -7   10.43    0.81
  -1  -5   7    8.52    0.79
   1  -5  -7    8.38    0.68
   1  -5  -7    9.48    0.82
  -1   5   7    8.80    0.84
   1   5  -7    9.24    0.92
   1   5  -7    9.28    0.72
  -1   5   7    9.24    0.74
   1   5  -7    8.84    0.73
   1   5  -7    8.75    0.74
  -1   5   7    8.93    0.79
  -1   5   7    9.78    1.15
   1   5  -7    8.97    0.84
  -1  -5  -7   15.64    1.27
   1  -5   7   14.25    0.88
   1  -5   7   13.74    0.97
  -1  -5  -7   14.72    1.02
   1  -5   7   13.25    1.46
  -1  -5  -7   14.51    1.16
   1  -5   7   13.94    1.07
  -1  -5  -7   16.24    0.92
  -1  -5  -7   15.43    1.00
  -1   5  -7   14.09    1.06
  -1   5  -7   15.87    1.00
   1   5   7   14.09    1.00
   1   5   7   14.67    1.00
  -1   5  -7   14.41    0.88
  -1   5  -7   15.46    0.96
   1   5   7   16.13    1.42
   3  -5   7    6.10    0.80
  -3  -5  -7    5.37    0.63
  -3  -5  -7    6.13    0.99
  -3  -5  -7    5.45    0.69
   3  -5   7    4.06    0.75
  -3  -5  -7    4.89    0.86
  -3  -5  -7    5.41    0.82
   3  -5   7    4.05    0.53
   3  -5   7    4.04    0.89
   3   5   7    4.57    0.79
   3   5   7    4.80    0.89
  -3   5  -7    5.80    0.78
  -3   5  -7    4.85    0.78
   3   5   7    6.11    0.75
  -3   5  -7    5.41    0.72
  -3   5  -7    4.35    0.67
  -3   5  -7    4.65    0.60
  -5  -5  -7   25.98    1.62
  -5  -5  -7   23.76    1.29
  -5  -5  -7   24.89    1.52
   5  -5   7   21.87    1.14
   5  -5   7   25.55    2.14
   5  -5   7   23.78    1.74
   5  -5   7   24.60    1.30
  -5  -5  -7   22.21    1.38
  -5  -5  -7   23.26    1.42
   5   5   7   26.35    1.58
  -5   5  -7   25.12    1.45
  -5   5  -7   24.62    1.40
  -5   5  -7   26.58    1.40
   5   5   7   24.78    1.83
   5   5   7   27.82    1.43
   5   5   7   24.52    1.05
  -5   5  -7   26.93    1.46
   7  -5   7    2.81    0.86
  -7  -5  -7    3.16    0.61
   7  -5   7    2.75    0.55
   7  -5   7    4.37    1.29
  -7  -5  -7    3.08    0.75
   7  -5   7    2.97    0.56
  -7  -5  -7    3.06    0.56
  -7  -5  -7    3.26    0.70
  -7   5  -7    3.18    0.63
   7   5   7    3.96    0.63
   7   5   7    3.03    0.73
  -7   5  -7    4.84    0.74
   7   5   7    3.63    0.46
  -7   5  -7    3.13    0.65
   7   5   7    2.75    0.91
   9  -5   7    8.66    1.28
   9  -5   7    6.78    0.87
   9  -5   7    7.53    1.02
  -9  -5  -7    8.68    1.21
  -9  -5  -7    8.36    1.17
   9  -5   7    9.99    1.74
  -9  -5  -7    9.58    0.96
   9   5   7    8.68    1.34
   9   5   7    8.74    0.96
  -9   5  -7    9.74    1.10
  -9   5  -7    8.80    1.08
   9   5   7    9.32    0.79
   9   5   7   11.35    1.28
  -9   5  -7    7.74    1.22
 -11  -5  -7    5.38    0.91
  11  -5   7    7.00    1.06
  11  -5   7    4.51    0.73
  11  -5   7    3.84    1.43
  11  -5   7    5.93    0.91
 -11  -5  -7    6.27    0.83
  11   5   7    5.65    1.01
  11   5   7    7.73    0.97
 -11   5  -7    4.93    0.82
 -11   5  -7    6.07    0.93
  11   5   7    5.92    0.72
  13  -5   7    0.49    1.47
  13  -5   7    2.67    0.90
  13  -5   7    3.54    0.88
 -13  -5  -7    2.85    0.73
 -13  -5  -7    2.59    0.82
  13  -5   7    4.08    0.94
  13   5   7    2.40    0.91
  13   5   7    2.27    0.91
  13   5   7    3.16    0.71
 -13   5  -7    2.04    0.75
 -13   5  -7    2.24    0.82
 -15  -5  -7    2.66    0.91
  15  -5   7    2.80    0.98
 -15   5  -7    3.73    1.04
 -15   5  -7    2.17    0.92
  20  -6  -7    6.40    1.14
  20  -6  -7    5.29    0.92
 -20  -6   7    6.57    1.14
  20   6  -7    5.31    0.86
  20   6  -7    5.03    1.00
  20   6  -7    6.56    1.08
 -18  -6   7   12.88    2.11
  18  -6  -7   11.30    1.19
  18  -6  -7   10.86    1.45
  18  -6  -7   13.14    1.08
 -18  -6   7   12.45    1.53
 -18   6   7   12.92    1.66
  18   6  -7   11.47    1.29
  18   6  -7   12.54    1.13
 -18   6   7    9.67    1.11
  16  -6  -7    8.05    1.27
 -16  -6   7    8.51    1.56
  16  -6  -7    7.46    1.00
 -16  -6   7    9.07    1.20
 -16   6   7    8.73    1.20
  16   6  -7    7.11    1.06
  16   6  -7    8.32    0.95
  14  -6  -7   29.88    1.73
 -14  -6   7   31.67    2.01
  14  -6  -7   30.38    1.97
 -14  -6   7   30.87    2.69
  14   6  -7   32.19    1.62
 -14   6   7   34.22    2.07
  14   6  -7   32.49    1.81
 -12  -6   7   12.03    1.42
  12  -6  -7   11.16    1.42
  12  -6  -7    9.83    1.07
 -12  -6   7   10.12    1.50
 -12   6   7   10.66    1.33
 -12   6   7    9.33    0.83
 -12   6   7   10.82    1.23
  12   6  -7    9.80    0.53
  12   6  -7   10.43    0.68
  12   6  -7   12.28    1.14
 -12   6   7   10.83    1.00
 -12   6   7    9.77    0.93
  12   6  -7    9.27    0.90
 -10  -6   7   41.95    2.52
  10  -6  -7   44.64    2.21
  10  -6  -7   46.15    2.53
 -10  -6   7   44.44    2.46
 -10   6   7   43.87    1.94
 -10   6   7   46.76    2.38
  10   6  -7   46.51    1.70
  10   6  -7   45.78    1.98
  10   6  -7   46.50    1.70
  10   6  -7   44.43    2.13
  10   6  -7   44.46    1.87
 -10   6   7   43.16    2.01
  10   6  -7   44.33    1.72
  -8  -6   7   21.52    1.71
   8  -6  -7   24.32    1.79
   8  -6  -7   20.86    0.93
  -8  -6   7   23.33    1.75
   8  -6  -7   21.81    1.49
  -8  -6   7   21.00    1.14
  -8   6   7   22.36    1.27
   8   6  -7   22.96    1.13
  -8   6   7   22.27    1.61
   8   6  -7   22.91    1.02
   8   6  -7   22.26    0.99
   8   6  -7   22.30    1.09
   8   6  -7   22.39    1.41
   8   6  -7   22.08    1.04
  -8   6   7   22.37    1.03
  -6  -6   7   33.98    2.10
  -6  -6   7   30.98    1.98
   6  -6  -7   33.91    2.07
  -6  -6   7   31.93    1.34
   6  -6  -7   32.53    1.46
   6  -6  -7   30.55    1.45
  -6  -6   7   33.26    1.51
   6  -6  -7   32.18    1.82
   6  -6  -7   31.40    1.34
  -6   6   7   34.07    1.44
   6   6  -7   34.70    1.38
  -6   6   7   34.21    1.95
   6   6  -7   33.92    1.76
   6   6  -7   34.79    1.55
  -6   6   7   33.66    1.83
   6   6  -7   33.49    1.56
   6   6  -7   32.92    1.43
   6   6  -7   35.46    1.48
   6   6  -7   32.75    1.41
   4  -6  -7   18.97    1.61
   4  -6  -7   19.01    1.37
   4  -6  -7   17.31    1.01
  -4  -6   7   17.42    1.59
  -4  -6   7   16.16    0.87
  -4  -6   7   15.79    1.19
   4  -6  -7   16.89    0.88
  -4  -6   7   16.64    1.43
   4  -6  -7   16.49    1.00
   4   6  -7   17.02    0.99
  -4   6   7   18.58    1.48
  -4   6   7   18.33    0.98
   4   6  -7   17.99    0.98
   4   6  -7   17.31    1.06
   4   6  -7   18.99    1.07
   4   6  -7   17.12    1.23
   2  -6  -7   39.13    1.67
  -2  -6   7   38.63    2.14
   2  -6  -7   41.89    2.13
   2  -6  -7   43.35    1.84
  -2  -6   7   40.50    2.04
  -2  -6   7   37.73    1.66
  -2  -6   7   40.26    2.34
   2  -6  -7   42.66    1.81
   2   6  -7   40.49    1.88
   2   6  -7   41.54    1.79
   2   6  -7   40.60    1.94
  -2   6   7   39.80    1.84
   2   6  -7   42.14    1.81
  -2   6   7   42.15    2.21
   2   6  -7   37.76    1.75
  -2   6   7   38.25    1.74
   0  -6   7   18.10    1.62
   0  -6  -7   20.64    1.20
   0  -6  -7   18.47    1.01
   0  -6  -7   18.53    1.41
   0  -6  -7   18.19    1.15
   0  -6   7   17.28    1.00
   0  -6   7   16.09    1.08
   0   6   7   19.31    1.12
   0   6   7   17.95    1.13
   0   6  -7   19.27    1.27
   0   6  -7   18.74    1.11
   0   6   7   20.07    1.54
   0   6  -7   19.03    1.14
   0   6  -7   18.07    1.10
   2  -6   7   18.91    1.66
  -2  -6  -7   18.23    1.16
   2  -6   7   16.14    1.16
  -2  -6  -7   18.13    1.22
  -2  -6  -7   15.13    1.10
   2  -6   7   15.84    0.99
  -2  -6  -7   18.54    1.39
  -2   6  -7   16.78    1.20
  -2   6  -7   14.69    1.04
  -2   6  -7   16.60    1.06
  -2   6  -7   18.01    1.17
   2   6   7   17.59    1.14
   2   6   7   18.94    1.60
  -4  -6  -7   20.85    1.26
  -4  -6  -7   25.55    1.88
   4  -6   7   22.03    1.81
  -4  -6  -7   24.04    1.62
  -4  -6  -7   23.23    1.42
   4  -6   7   22.45    2.22
   4  -6   7   21.56    1.21
  -4  -6  -7   22.48    1.40
   4   6   7   25.12    1.78
  -4   6  -7   23.60    1.42
   4   6   7   22.70    0.97
   4   6   7   23.54    1.53
   4   6   7   22.70    1.34
  -4   6  -7   20.34    1.21
  -4   6  -7   24.15    1.70
  -4   6  -7   21.61    1.30
   6  -6   7    6.50    1.08
  -6  -6  -7    9.70    1.14
  -6  -6  -7    9.58    0.90
  -6  -6  -7    9.24    1.02
   6  -6   7    7.74    0.82
  -6  -6  -7    8.49    1.26
   6  -6   7    7.84    0.85
   6  -6   7    9.33    1.71
   6   6   7   10.04    0.68
  -6   6  -7    9.03    0.93
   6   6   7    9.39    1.34
  -6   6  -7    9.78    1.17
   6   6   7   10.19    0.96
  -6   6  -7   11.06    1.10
   6   6   7    9.73    1.21
  -8  -6  -7   11.04    1.30
   8  -6   7    9.83    1.05
  -8  -6  -7    9.22    0.95
   8  -6   7   11.48    2.04
   8  -6   7    9.09    1.39
   8  -6   7    9.33    0.93
   8   6   7   10.03    1.44
   8   6   7    9.44    1.26
   8   6   7    9.22    0.76
   8   6   7   11.81    1.08
  -8   6  -7    9.87    1.10
  10  -6   7    5.47    1.06
 -10  -6  -7    8.29    1.23
  10  -6   7    6.29    1.15
  10  -6   7    6.43    0.90
 -10  -6  -7    7.54    0.97
  10  -6   7    5.99    1.66
  10   6   7    6.15    1.26
  10   6   7    9.68    1.36
 -10   6  -7    8.31    1.19
  10   6   7    6.96    0.86
  12  -6   7    6.78    1.14
  12  -6   7    5.50    1.90
 -12  -6  -7    5.17    0.87
 -12  -6  -7    4.86    0.96
 -12   6  -7    5.50    1.01
  12   6   7    7.23    1.17
  12   6   7    5.51    1.32
 -12   6  -7    5.28    0.91
  14  -6   7    3.29    1.08
 -14  -6  -7    2.79    0.94
 -14   6  -7    2.34    0.90
 -14   6  -7    1.71    0.90
  19  -7  -7    6.46    1.10
 -19  -7   7    7.61    1.24
  19  -7  -7    5.40    0.85
  19   7  -7    6.62    0.92
  17  -7  -7   10.11    1.58
 -17  -7   7   10.53    1.93
 -17  -7   7   13.17    2.10
  17  -7  -7   10.55    1.10
 -17   7   7   10.03    1.67
  17   7  -7   11.73    1.10
  17   7  -7   11.24    1.41
  15  -7  -7   13.34    1.26
 -15  -7   7   12.89    1.56
  15  -7  -7   13.21    1.51
 -15  -7   7   11.01    1.96
 -15   7   7   14.56    1.52
 -15   7   7   10.90    1.17
  15   7  -7   13.37    1.10
  15   7  -7   13.48    1.34
 -13  -7   7   20.54    2.07
  13  -7  -7   20.94    1.46
 -13  -7   7   20.39    1.75
  13  -7  -7   21.04    1.79
  13   7  -7   20.26    1.52
 -13   7   7   21.86    1.74
  13   7  -7   20.61    1.27
 -13   7   7   18.15    1.30
  13   7  -7   20.60    0.99
 -11  -7   7   15.22    1.74
  11  -7  -7   17.84    1.40
  11  -7  -7   18.93    1.66
 -11  -7   7   17.15    1.72
  11   7  -7   17.19    1.16
  11   7  -7   17.93    1.38
 -11   7   7   18.62    1.57
 -11   7   7   16.94    1.18
  11   7  -7   16.45    0.85
  11   7  -7   18.09    0.85
   9  -7  -7   20.46    1.76
   9  -7  -7   20.36    1.46
  -9  -7   7   17.95    1.72
  -9  -7   7   22.67    1.84
   9   7  -7   20.08    1.24
  -9   7   7   17.03    1.24
   9   7  -7   20.46    1.00
   9   7  -7   18.77    1.04
   9   7  -7   18.94    1.42
   9   7  -7   19.90    0.94
  -9   7   7   22.10    1.59
  -7  -7   7   35.84    2.26
  -7  -7   7   36.77    2.29
   7  -7  -7   37.34    2.27
   7  -7  -7   37.50    1.97
  -7   7   7   33.49    1.77
   7   7  -7   35.14    1.49
   7   7  -7   33.65    1.54
   7   7  -7   34.86    1.88
   7   7  -7   35.93    1.56
   7   7  -7   35.43    1.70
  -7   7   7   38.03    2.10
   7   7  -7   34.18    1.55
  -7   7   7   35.06    1.49
   7   7  -7   35.68    1.51
  -5  -7   7   16.24    1.65
  -5  -7   7   16.82    1.47
   5  -7  -7   15.53    1.58
   5  -7  -7   14.81    0.98
  -5  -7   7   14.83    1.09
   5  -7  -7   17.03    0.85
   5  -7  -7   18.27    1.40
   5  -7  -7   17.44    1.04
   5   7  -7   15.17    1.27
   5   7  -7   17.23    1.11
   5   7  -7   15.66    0.99
   5   7  -7   16.61    0.97
   5   7  -7   17.45    1.01
  -5   7   7   14.83    1.13
   5   7  -7   15.88    0.93
  -5   7   7   18.35    0.96
   5   7  -7   16.57    0.89
  -5   7   7   18.81    1.68
  -3  -7   7   30.65    2.15
   3  -7  -7   30.78    1.37
   3  -7  -7   30.10    1.55
   3  -7  -7   34.47    2.14
  -3  -7   7   31.60    1.93
  -3  -7   7   29.94    1.24
   3  -7  -7   27.28    1.52
  -3  -7   7   30.45    1.50
   3  -7  -7   30.49    1.85
   3   7  -7   32.49    1.52
   3   7  -7   31.58    1.57
  -3   7   7   31.60    1.45
   3   7  -7   30.97    1.71
   3   7  -7   28.53    1.46
  -3   7   7   33.20    1.97
   3   7  -7   32.09    1.43
  -3   7   7   28.40    1.64
  -3   7   7   32.00    1.59
   3   7  -7   30.70    1.49
   1  -7  -7   14.00    1.35
   1  -7  -7   14.51    0.89
  -1  -7   7   15.24    1.03
  -1  -7   7   13.25    1.63
  -1  -7   7   14.07    0.91
  -1  -7   7   15.01    1.33
  -1  -7   7   13.75    0.83
   1  -7  -7   17.75    1.63
   1  -7  -7   13.65    1.09
   1  -7  -7   14.40    1.11
   1   7  -7   14.98    1.06
  -1   7   7   15.79    1.45
   1   7  -7   15.17    1.03
   1   7  -7   12.45    1.00
  -1   7   7   13.56    1.49
  -1   7   7   14.30    1.04
   1   7  -7   14.90    1.21
  -1   7   7   15.43    1.00
   1  -7   7   20.04    1.17
   1  -7   7   20.21    1.17
  -1  -7  -7   22.87    1.42
  -1  -7  -7   24.11    1.64
   1  -7   7   22.75    1.93
  -1  -7  -7   23.41    1.58
  -1   7  -7   22.54    1.29
   1   7   7   21.91    1.32
  -1   7  -7   21.18    1.43
  -1   7  -7   27.15    1.97
   1   7   7   26.05    1.74
  -1   7  -7   21.47    1.43
   3  -7   7   11.82    1.67
  -3  -7  -7   11.74    0.95
   3  -7   7   11.29    1.03
   3  -7   7   12.87    1.93
   3  -7   7   13.02    0.91
  -3  -7  -7   13.60    1.39
   3   7   7   10.51    1.02
  -3   7  -7   11.97    1.15
  -3   7  -7   10.27    0.94
   3   7   7   12.24    1.39
   5  -7   7   14.72    1.23
  -5  -7  -7   17.69    1.49
   5  -7   7   17.44    2.23
  -5  -7  -7   18.38    1.17
   5  -7   7   19.19    1.84
   5   7   7   17.35    1.46
  -5   7  -7   17.33    1.33
   5   7   7   21.03    1.68
   5   7   7   17.86    1.31
  -5   7  -7   17.62    1.13
  -7  -7  -7    5.52    0.99
   7  -7   7    5.14    1.10
   7  -7   7    4.80    1.53
  -7  -7  -7    4.43    0.70
   7   7   7    6.54    1.11
  -7   7  -7    3.81    0.78
   7   7   7    5.13    0.84
   7   7   7    4.85    0.91
  -9  -7  -7    8.63    1.18
   9  -7   7   11.42    1.68
   9  -7   7    8.26    1.85
   9   7   7   12.15    1.78
  -9   7  -7    9.23    1.19
   9   7   7    9.78    1.56
  11  -7   7    3.41    1.91
 -11  -7  -7    4.54    1.03
  11  -7   7    7.15    1.32
  11   7   7    7.64    1.40
  11   7   7    4.98    1.09
 -11   7  -7    5.03    0.89
 -13  -7  -7    2.60    0.95
 -13   7  -7    2.58    0.91
 -13   7  -7    2.64    0.99
  18  -8  -7    3.06    0.77
 -18  -8   7    6.08    1.43
  18   8  -7    3.03    0.94
  16  -8  -7    4.52    0.78
  16  -8  -7    4.05    1.28
 -16  -8   7    5.56    1.14
 -16   8   7    3.98    1.27
  16   8  -7    5.32    0.85
  16   8  -7    2.94    0.96
 -14  -8   7   10.68    2.04
  14  -8  -7   11.92    1.22
 -14  -8   7   13.08    1.71
  14  -8  -7   10.49    1.67
 -14   8   7   11.84    1.60
  14   8  -7   11.80    1.44
  14   8  -7   12.76    1.11
  12  -8  -7    4.76    1.19
  12  -8  -7    4.20    0.80
 -12  -8   7    7.13    1.19
 -12  -8   7    4.91    1.41
  12   8  -7    6.14    0.97
  12   8  -7    5.91    0.82
 -12   8   7    5.96    1.01
  12   8  -7    5.35    0.56
  10  -8  -7   15.29    1.72
  10  -8  -7   16.33    1.41
 -10  -8   7   17.18    1.85
 -10  -8   7   17.24    1.87
 -10   8   7   15.74    1.52
  10   8  -7   15.44    1.39
  10   8  -7   16.61    0.99
  10   8  -7   17.57    1.19
  -8  -8   7    9.93    1.37
   8  -8  -7    8.42    1.19
  -8  -8   7    8.70    1.37
   8  -8  -7    8.02    1.43
  -8   8   7   10.20    1.27
   8   8  -7    8.99    1.18
   8   8  -7    7.73    0.78
   8   8  -7    9.18    1.16
  -6  -8   7   12.26    1.63
  -6  -8   7    8.91    1.37
   6  -8  -7    9.87    1.25
   6  -8  -7   11.61    1.61
   6   8  -7    9.99    1.17
   6   8  -7   12.42    0.93
   6   8  -7   10.24    0.97
  -6   8   7   10.33    1.28
   4  -8  -7    7.03    0.89
   4  -8  -7    6.72    1.19
  -4  -8   7    8.72    1.21
  -4  -8   7    8.09    1.35
   4  -8  -7    8.40    1.33
   4   8  -7    7.53    0.73
   4   8  -7    7.95    0.88
   4   8  -7    6.96    0.70
   4   8  -7    6.70    0.90
   4   8  -7    7.33    0.87
  -4   8   7    8.67    1.20
   2  -8  -7   19.08    1.73
  -2  -8   7   16.54    1.83
  -2  -8   7   14.43    1.45
   2  -8  -7   16.06    1.48
   2   8  -7   16.56    1.31
   2   8  -7   15.78    1.03
  -2   8   7   15.38    1.07
   2   8  -7   15.21    1.11
  -2   8   7   18.21    1.50
   0  -8  -7    7.02    1.27
   0  -8  -7    6.22    1.04
   0  -8   7    8.32    1.42
   0  -8   7    7.27    1.11
   0   8  -7    8.34    1.00
   0   8   7    6.41    1.02
   0   8  -7    7.59    0.95
  -2  -8  -7    7.53    1.44
   2  -8   7    7.04    1.57
  -2  -8  -7    6.03    1.02
   2  -8   7    5.14    1.26
  -2   8  -7    5.85    0.81
  -2   8  -7    7.37    0.93
   2   8   7    9.07    1.25
   4  -8   7    8.67    1.78
  -4  -8  -7    9.02    1.35
   4  -8   7    8.72    1.53
  -4   8  -7    9.86    1.17
  -4   8  -7   10.16    0.99
   4   8   7   10.32    1.40
   6  -8   7    4.37    1.30
   6  -8   7    3.71    1.54
  -6  -8  -7    5.33    1.08
   6   8   7    4.56    0.98
  -6   8  -7    5.44    0.76
  -6   8  -7    3.85    0.81
   6   8   7    5.15    0.97
   8  -8   7    5.56    1.78
   8  -8   7    3.78    1.29
  -8  -8  -7    4.71    1.03
   8   8   7    3.77    1.03
  -8   8  -7    4.06    0.85
   8   8   7    4.89    0.97
 -10  -8  -7    4.84    1.07
  10  -8   7    3.00    3.15
  10  -8   7    2.95    1.46
 -10   8  -7    4.12    0.90
  10   8   7    3.75    1.19
  10   8   7    3.73    1.23
  15  -9  -7    7.31    1.03
 -15  -9   7    8.42    1.43
  15   9  -7   10.17    1.22
  13  -9  -7   11.46    1.78
 -13  -9   7    7.43    1.78
  13  -9  -7    9.65    1.26
 -13  -9   7   12.09    1.91
 -13   9   7    8.73    1.27
  13   9  -7   11.42    1.17
  13   9  -7   13.92    1.57
 -11  -9   7    9.63    1.40
 -11  -9   7    9.29    1.76
  11  -9  -7    8.45    1.25
  11  -9  -7   10.09    1.55
  11   9  -7    9.76    1.10
  11   9  -7   10.56    1.43
 -11   9   7    9.77    1.46
  11   9  -7   11.03    0.88
  -9  -9   7   13.20    1.84
  -9  -9   7   11.79    1.74
   9  -9  -7   12.25    1.77
   9  -9  -7   11.12    1.36
   9   9  -7   11.46    1.56
   9   9  -7   11.48    1.11
  -9   9   7   16.03    1.51
   9   9  -7   12.97    1.29
   7  -9  -7   17.91    1.57
   7  -9  -7   18.12    1.94
  -7  -9   7   19.58    2.00
  -7  -9   7   14.76    1.72
   7   9  -7   18.43    1.53
   7   9  -7   15.70    1.20
  -7   9   7   17.52    1.58
  -5  -9   7    9.66    1.57
  -5  -9   7    8.10    1.38
   5  -9  -7   10.54    1.97
   5  -9  -7   11.24    1.41
   5   9  -7    6.91    0.91
  -5   9   7   10.24    1.33
   5   9  -7   11.07    1.28
   3  -9  -7   17.17    1.68
  -3  -9   7   17.63    1.61
   3  -9  -7   16.11    1.77
  -3  -9   7   17.03    2.04
   3   9  -7   16.76    1.18
  -3   9   7   17.36    1.51
   3   9  -7   17.81    1.50
   1  -9  -7   10.03    1.47
   1  -9  -7   12.77    1.74
  -1  -9   7   12.95    1.40
  -1  -9   7   13.95    1.94
  -1   9   7   11.30    1.39
   1   9  -7    9.83    1.00
   1   9  -7   10.71    1.41
   1   9  -7    9.92    1.19
  -1  -9  -7   10.84    1.69
   1  -9   7    6.42    1.41
   1  -9   7   11.71    2.13
  -1  -9  -7   11.39    1.50
  -1   9  -7   10.34    1.21
  -1   9  -7    9.48    1.00
   1   9   7   10.02    1.36
   3  -9   7    7.85    1.69
  -3  -9  -7   11.60    1.70
  -3  -9  -7    7.35    1.18
   3  -9   7    6.74    1.70
   3   9   7    8.33    1.40
  -3   9  -7    7.78    0.97
  -3   9  -7    8.00    1.18
  -5  -9  -7    8.83    1.29
  -5  -9  -7   11.40    1.88
   5  -9   7    8.53    1.97
   5  -9   7    8.92    1.71
   5   9   7   10.71    1.48
  -5   9  -7   10.24    1.30
  -5   9  -7   11.05    1.10
   7  -9   7    5.22    2.20
   7  -9   7    3.88    1.91
  -7  -9  -7    3.97    1.06
  -7   9  -7    3.47    0.74
  -7   9  -7    3.38    0.85
   7   9   7    2.41    0.92
   7   9   7    3.03    1.03
  -9  -9  -7    3.66    1.10
  -9   9  -7    3.73    0.90
 -12 -10   7   10.94    1.65
  12 -10  -7    9.32    1.45
  12  10  -7   11.46    1.31
 -10 -10   7   13.77    2.10
 -10 -10   7   12.56    2.14
  10 -10  -7   13.42    1.60
  10  10  -7   14.61    1.34
 -10  10   7   17.41    1.70
  -8 -10   7   12.43    1.85
   8 -10  -7   13.43    1.87
  -8 -10   7   12.74    2.04
   8 -10  -7   12.57    1.56
   8  10  -7   10.99    1.54
  -8  10   7    9.67    1.45
   8  10  -7   10.24    1.17
   6 -10  -7   15.99    1.66
  -6 -10   7   17.23    2.29
   6 -10  -7   17.60    1.97
  -6 -10   7   14.80    1.83
   6  10  -7   15.49    1.52
  -6  10   7   18.45    1.64
   6  10  -7   13.98    1.23
   4 -10  -7   13.88    1.65
   4 -10  -7   12.42    1.98
  -4 -10   7   13.53    2.15
  -4 -10   7   11.19    1.52
  -4  10   7   13.32    1.49
   4  10  -7    9.82    1.10
   4  10  -7    9.18    1.37
  -2 -10   7   13.67    1.53
   2 -10  -7   16.44    1.79
  -2 -10   7   15.74    2.25
   2 -10  -7   14.58    1.87
  -2  10   7   13.54    1.49
   2  10  -7   13.68    1.19
   2  10  -7   13.14    1.46
   0 -10  -7    9.19    1.36
   0 -10   7    9.19    1.40
   0 -10  -7   10.54    1.61
   0 -10   7    9.07    1.65
   0 -10   7    9.05    1.82
   0  10  -7    9.28    1.17
   0  10  -7   10.77    1.13
   0  10   7    9.65    1.35
   2 -10   7   12.31    2.16
  -2 -10  -7   15.45    2.00
   2 -10   7   16.33    2.54
  -2 -10  -7   11.43    1.75
   2  10   7   11.74    1.48
  -2  10  -7    9.60    1.37
  -2  10  -7    8.22    1.13
  -4 -10  -7   11.96    1.92
  -4 -10  -7    8.54    2.02
   4 -10   7    8.39    2.13
  -4  10  -7    7.30    1.08
   4  10   7    9.18    1.44
  -4  10  -7    8.93    1.20
  -6 -10  -7    5.15    1.46
   6 -10   7    5.26    2.18
   6  10   7    5.76    1.38
  -6  10  -7    3.64    0.95
  -9 -11   7    7.19    1.60
  -7 -11   7    4.96    1.64
  -7 -11   7    8.02    1.68
  -7  11   7   11.16    1.59
  -5 -11   7    1.74    1.54
  -5 -11   7    4.47    1.33
  -5  11   7    4.22    1.00
   5  11  -7    5.68    0.98
  -3 -11   7    8.72    1.46
   3 -11  -7    6.99    1.65
  -3 -11   7    9.92    2.83
   3  11  -7    5.99    0.96
  -3  11   7    8.86    1.45
  -1 -11   7    5.74    1.21
   1 -11  -7    5.98    1.60
  -1  11   7    3.12    0.91
   1  11  -7    4.59    1.02
  -1 -11  -7    4.14    1.39
   1 -11   7    4.03    1.01
   1 -11   7    4.86    1.74
   1  11   7    3.98    0.94
  -1  11  -7    2.51    1.33
  22   0  -8    3.41    0.75
  22   0  -8    3.21    0.62
  20   0  -8   12.98    1.65
  20   0  -8   10.35    1.04
  20   0  -8   10.91    1.31
  20   0  -8   10.45    0.90
  20   0  -8   11.54    1.10
  18   0  -8   13.40    1.39
  18   0  -8   13.14    1.16
  18   0  -8   14.23    0.92
  18   0  -8   12.10    1.10
  18   0  -8   12.97    0.96
  16   0  -8   17.69    1.03
  16   0  -8   18.84    1.35
  16   0  -8   18.95    1.12
 -16   0   8   18.76    1.52
  16   0  -8   19.21    1.31
  16   0  -8   17.88    1.32
  14   0  -8   21.33    1.42
 -14   0   8   23.15    1.67
  14   0  -8   21.99    1.05
  14   0  -8   23.68    1.17
 -14   0   8   22.62    1.57
  14   0  -8   22.61    1.07
 -12   0   8   14.54    1.40
 -12   0   8   13.40    1.29
  12   0  -8   14.19    1.22
  12   0  -8   14.83    1.21
  12   0  -8   14.66    0.80
  12   0  -8   14.40    0.90
  12   0  -8   14.91    0.93
  12   0  -8   15.31    0.77
 -12   0   8   11.51    0.83
  10   0  -8   64.62    2.78
  10   0  -8   60.07    2.29
 -10   0   8   61.73    2.19
  10   0  -8   62.00    2.42
 -10   0   8   60.89    2.25
 -10   0   8   54.57    3.08
 -10   0   8   67.50    2.90
  10   0  -8   61.25    2.22
  10   0  -8   61.34    2.27
   8   0  -8   18.04    0.88
   8   0  -8   19.05    1.05
  -8   0   8   17.35    1.05
  -8   0   8   18.93    0.84
  -8   0   8   20.22    1.46
  -8   0   8   18.59    1.39
  -8   0   8   18.86    0.93
   8   0  -8   19.07    1.36
   8   0  -8   19.28    0.76
   6   0  -8   77.13    2.77
  -6   0   8   77.06    2.88
  -6   0   8   73.03    2.97
   6   0  -8   77.31    3.26
  -6   0   8   79.75    2.81
  -6   0   8   79.71    3.30
   6   0  -8   75.23    2.74
   6   0  -8   76.31    2.77
   6   0  -8   78.59    2.95
  -6   0   8   74.97    3.29
   4   0  -8   14.62    1.26
  -4   0   8   16.67    1.35
  -4   0   8   16.22    0.95
   4   0  -8   16.80    0.85
  -4   0   8   17.31    1.33
   4   0  -8   15.66    0.77
   4   0  -8   16.54    1.00
   4   0  -8   15.64    0.82
  -2   0   8   68.14    2.71
  -2   0   8   70.93    3.12
   2   0  -8   69.71    2.62
  -2   0   8   66.55    2.99
   2   0  -8   70.02    2.64
   2   0  -8   68.52    3.00
   2   0  -8   67.32    2.83
   0   0   8    9.31    1.83
   0   0  -8   10.45    0.78
   0   0  -8    9.28    1.06
   0   0  -8   10.09    0.84
   0   0   8    7.96    0.80
   0   0   8   10.73    0.55
   0   0   8    8.10    1.05
   0   0  -8    9.52    0.61
   0   0  -8   10.78    0.78
   2   0   8   47.81    2.07
  -2   0  -8   50.49    2.12
   2   0   8   47.11    1.99
   2   0   8   52.97    2.62
   2   0   8   50.17    2.36
  -2   0  -8   46.03    1.87
  -2   0  -8   49.32    2.08
   2   0   8   43.70    1.83
  -2   0  -8   51.34    2.11
  -2   0  -8   50.47    2.36
   4   0   8   11.30    1.12
   4   0   8   11.57    0.91
  -4   0  -8   11.96    0.96
  -4   0  -8   12.18    0.96
  -4   0  -8   12.38    1.21
   4   0   8   10.86    0.76
  -4   0  -8   11.95    1.00
  -4   0  -8   11.87    0.72
   4   0   8   11.99    0.93
   4   0   8   12.32    1.53
  -6   0  -8   15.45    1.08
   6   0   8   14.52    0.90
   6   0   8   13.40    1.65
   6   0   8   11.41    1.13
  -6   0  -8   12.72    0.82
   6   0   8   13.79    1.10
  -6   0  -8   13.00    1.11
   6   0   8   12.92    0.97
  -6   0  -8   14.45    1.29
  -8   0  -8    7.84    1.16
   8   0   8   10.05    1.17
   8   0   8    8.87    0.95
   8   0   8   10.52    1.07
  -8   0  -8    9.59    0.76
  -8   0  -8    9.80    1.00
 -10   0  -8    9.73    1.22
  10   0   8   10.22    1.07
 -10   0  -8    9.41    1.07
  10   0   8   10.36    1.35
  12   0   8    3.26    0.67
  12   0   8    2.90    0.89
 -12   0  -8    2.77    0.68
 -12   0  -8    3.25    0.82
 -14   0  -8    2.24    0.84
  14   0   8    3.28    0.99
  21  -1  -8   13.82    1.07
  21  -1  -8   12.75    1.19
  21  -1  -8   12.28    1.30
  21   1  -8   13.44    1.04
  21   1  -8   11.84    1.00
  21   1  -8   13.70    1.20
  19  -1  -8    1.53    0.60
  19  -1  -8    0.94    0.38
  19  -1  -8    0.39    0.48
  19  -1  -8    1.28    0.50
  19  -1  -8    1.73    0.50
  19   1  -8    1.36    0.53
  19   1  -8    1.25    0.56
  19   1  -8    0.88    0.56
  19   1  -8    1.11    0.48
  19   1  -8    2.15    0.48
  17  -1  -8   16.03    1.05
  17  -1  -8   16.85    0.93
  17  -1  -8   18.03    1.25
  17  -1  -8   16.83    1.33
  17  -1  -8   14.70    1.53
 -17  -1   8   18.99    1.57
  17   1  -8   17.14    1.19
  17   1  -8   17.20    1.28
  17   1  -8   16.05    1.05
  17   1  -8   16.94    1.08
  17   1  -8   17.51    0.95
 -17   1   8   19.41    1.57
  15  -1  -8    6.57    0.92
  15  -1  -8    6.54    0.66
  15  -1  -8    5.44    0.56
  15  -1  -8    5.81    0.88
 -15  -1   8    5.80    0.87
  15  -1  -8    5.88    0.61
 -15  -1   8    5.96    1.03
  15   1  -8    5.18    0.73
 -15   1   8    6.39    0.95
  15   1  -8    6.98    0.55
  15   1  -8    5.87    0.84
  15   1  -8    4.97    0.62
  15   1  -8    5.49    0.97
  13  -1  -8   35.86    1.51
  13  -1  -8   37.82    1.98
  13  -1  -8   35.42    1.50
 -13  -1   8   38.74    2.07
 -13  -1   8   35.85    1.90
  13  -1  -8   34.05    1.84
  13  -1  -8   33.02    1.37
 -13   1   8   32.96    1.98
  13   1  -8   33.94    1.87
 -13   1   8   32.51    1.94
  13   1  -8   35.26    1.82
  13   1  -8   32.87    1.45
  13   1  -8   33.49    1.39
  11  -1  -8    6.49    0.99
 -11  -1   8    5.53    0.46
  11  -1  -8    5.24    0.51
 -11  -1   8    5.38    0.35
  11  -1  -8    6.92    0.55
 -11  -1   8    5.79    0.86
  11  -1  -8    5.16    0.81
 -11  -1   8    6.68    1.00
  11  -1  -8    4.22    0.38
  11  -1  -8    5.39    0.59
 -11   1   8    4.98    0.36
 -11   1   8    6.00    0.95
  11   1  -8    5.55    0.93
  11   1  -8    5.90    0.45
 -11   1   8    5.51    0.90
  11   1  -8    6.21    0.87
  11   1  -8    5.99    0.48
 -11   1   8    5.04    0.47
   9  -1  -8   54.89    2.10
  -9  -1   8   52.58    1.91
  -9  -1   8   54.21    2.57
   9  -1  -8   52.56    2.04
   9  -1  -8   52.53    2.45
  -9  -1   8   51.84    1.98
  -9  -1   8   54.28    2.43
  -9   1   8   51.79    2.14
   9   1  -8   53.48    1.95
  -9   1   8   51.58    2.01
  -9   1   8   52.59    1.94
   9   1  -8   52.84    2.20
  -9   1   8   53.31    2.52
   9   1  -8   51.05    1.91
   9   1  -8   48.72    2.27
  -9   1   8   51.77    2.51
   9   1  -8   51.85    2.48
  -7  -1   8    9.71    1.14
   7  -1  -8    9.47    0.51
  -7  -1   8   10.02    1.06
   7  -1  -8    9.78    0.51
  -7  -1   8   10.63    0.59
   7  -1  -8    9.90    1.09
  -7  -1   8   10.27    0.68
   7  -1  -8   10.52    0.67
   7  -1  -8   10.98    0.76
   7   1  -8   10.28    0.50
   7   1  -8    9.44    0.51
  -7   1   8   10.19    0.73
   7   1  -8    8.87    0.86
   7   1  -8    9.48    1.08
  -7   1   8    9.78    1.15
  -7   1   8    9.36    0.60
   7   1  -8   10.92    1.18
   7   1  -8   10.04    0.52
  -7   1   8    8.07    1.10
   7   1  -8    9.35    0.47
  -7   1   8    9.47    0.75
  -5  -1   8   30.72    1.70
  -5  -1   8   26.78    1.17
  -5  -1   8   27.12    1.30
   5  -1  -8   29.36    1.21
   5  -1  -8   29.09    1.35
  -5  -1   8   29.81    1.24
   5  -1  -8   29.66    1.21
   5  -1  -8   28.88    1.69
  -5  -1   8   26.77    1.71
   5  -1  -8   31.10    1.25
  -5   1   8   29.55    1.73
  -5   1   8   26.86    2.14
   5   1  -8   29.21    1.22
  -5   1   8   27.68    1.34
  -5   1   8   28.87    1.38
   5   1  -8   28.16    1.19
  -5   1   8   27.49    1.36
   5   1  -8   27.16    1.68
   5   1  -8   28.49    1.08
   3  -1  -8   35.43    1.95
  -3  -1   8   37.05    1.64
   3  -1  -8   37.53    1.64
  -3  -1   8   36.49    2.01
  -3  -1   8   38.26    1.99
  -3  -1   8   36.46    1.44
   3  -1  -8   36.41    1.54
   3  -1  -8   37.26    1.51
   3  -1  -8   37.45    1.57
   3   1  -8   35.84    1.35
  -3   1   8   36.08    2.12
   3   1  -8   38.65    1.55
   3   1  -8   37.73    1.69
  -3   1   8   36.05    1.67
   3   1  -8   37.12    1.55
  -3   1   8   39.74    2.00
   3   1  -8   35.78    1.94
  -1  -1   8   16.39    1.03
  -1  -1   8   16.16    1.36
   1  -1  -8   16.09    1.27
  -1  -1   8   16.74    0.84
   1  -1  -8   18.64    0.99
   1  -1  -8   16.89    0.88
  -1  -1   8   16.52    1.43
   1  -1  -8   16.65    0.95
   1  -1  -8   16.32    1.07
   1   1  -8   17.13    1.29
   1   1  -8   16.96    1.09
  -1   1   8   16.81    1.29
   1   1  -8   17.39    0.97
   1   1  -8   17.36    0.96
  -1   1   8   17.59    1.47
   1   1  -8   15.76    0.73
  -1   1   8   17.58    1.07
  -1  -1  -8   21.09    1.03
  -1  -1  -8   20.97    1.14
  -1  -1  -8   23.40    1.22
  -1  -1  -8   22.94    1.47
   1  -1   8   19.15    1.00
   1  -1   8   21.43    1.85
  -1  -1  -8   21.21    1.19
   1  -1   8   21.05    1.12
   1  -1   8   21.33    1.49
   1   1   8   21.42    1.43
  -1   1  -8   20.01    0.93
   1   1   8   23.45    1.72
  -1   1  -8   21.27    1.19
  -1   1  -8   22.99    1.25
  -1   1  -8   20.75    1.15
   1   1   8   20.91    1.16
  -1   1  -8   22.14    1.47
  -3  -1  -8   11.63    0.92
   3  -1   8   12.65    1.20
  -3  -1  -8   12.94    1.36
   3  -1   8   12.53    1.43
   3  -1   8    9.65    0.80
  -3  -1  -8   11.71    0.93
  -3  -1  -8   13.18    0.78
  -3  -1  -8   12.84    1.22
   3  -1   8   12.20    0.87
   3  -1   8   12.57    0.81
  -3   1  -8   10.36    0.65
   3   1   8   10.63    0.64
  -3   1  -8   12.99    1.21
  -3   1  -8   12.17    0.93
   3   1   8   11.87    0.92
   3   1   8   12.79    1.46
   3   1   8   11.42    1.10
   3   1   8   12.69    0.92
  -3   1  -8   12.30    0.98
  -3   1  -8   13.79    1.12
   5  -1   8   17.11    1.09
   5  -1   8   19.38    1.73
  -5  -1  -8   15.61    1.20
  -5  -1  -8   17.51    1.17
   5  -1   8   17.99    0.99
  -5  -1  -8   17.83    1.39
   5  -1   8   15.20    1.07
   5  -1   8   15.64    1.40
  -5  -1  -8   16.58    1.12
  -5  -1  -8   16.35    0.95
   5   1   8   19.71    1.74
  -5   1  -8   17.99    1.16
   5   1   8   19.38    1.21
   5   1   8   16.78    1.12
  -5   1  -8   15.91    0.86
   5   1   8   17.75    0.92
  -5   1  -8   17.14    1.17
  -5   1  -8   17.29    1.22
  -5   1  -8   16.99    1.39
   5   1   8   18.25    1.23
  -7  -1  -8    2.97    0.66
   7  -1   8    2.78    0.71
   7  -1   8    2.40    0.52
  -7  -1  -8    2.72    0.46
  -7  -1  -8    2.94    0.62
  -7  -1  -8    2.88    0.74
   7  -1   8    4.85    0.62
   7  -1   8    1.62    1.08
   7   1   8    2.79    0.61
   7   1   8    2.93    0.56
   7   1   8    2.21    0.89
  -7   1  -8    2.26    0.57
  -7   1  -8    2.50    0.65
   7   1   8    3.55    0.75
  -7   1  -8    2.58    0.71
  -7   1  -8    3.04    0.43
  -9  -1  -8   14.34    1.35
   9  -1   8   13.12    1.13
   9  -1   8   12.94    1.23
  -9  -1  -8   13.34    1.09
   9  -1   8   13.63    1.31
   9   1   8   14.37    1.38
  -9   1  -8   13.58    1.36
   9   1   8   13.88    1.11
   9   1   8   13.88    1.16
  -9   1  -8   15.25    1.20
 -11  -1  -8    1.99    0.73
  11  -1   8    2.16    0.84
 -11  -1  -8    1.43    0.60
  11  -1   8    2.21    0.64
 -11   1  -8    1.99    0.74
  11   1   8    0.87    0.83
  11   1   8    2.53    0.67
 -11   1  -8    0.72    0.61
  13  -1   8    4.67    0.79
  13  -1   8    3.88    1.67
 -13  -1  -8    2.66    0.82
  13   1   8    5.45    1.01
 -13   1  -8    3.89    0.90
 -13   1  -8    3.11    0.88
  22  -2  -8    4.12    0.83
  22  -2  -8    2.32    0.66
  22   2  -8    1.30    0.61
  22   2  -8    2.16    0.69
  20  -2  -8    6.77    0.91
  20  -2  -8    7.63    0.94
  20  -2  -8    5.79    1.09
  20   2  -8    6.87    0.82
  20   2  -8    6.24    1.00
  20   2  -8    6.88    0.89
  18  -2  -8    7.08    1.39
  18  -2  -8    5.69    0.74
  18  -2  -8    5.96    0.72
  18  -2  -8    6.50    0.91
 -18  -2   8    4.95    1.03
  18   2  -8    4.72    0.78
 -18   2   8    5.51    1.03
  18   2  -8    6.78    0.83
  18   2  -8    5.84    0.75
  18   2  -8    6.57    0.65
  18   2  -8    5.99    0.81
  16  -2  -8    9.63    1.14
 -16  -2   8   11.81    1.39
  16  -2  -8    9.69    0.66
  16  -2  -8   10.32    0.89
  16  -2  -8   10.43    1.13
  16  -2  -8   10.81    0.73
 -16   2   8   11.79    1.35
  16   2  -8   10.57    0.92
  16   2  -8   10.37    0.94
  16   2  -8   10.91    0.69
  16   2  -8    8.76    0.84
  16   2  -8    9.71    1.22
  14  -2  -8   15.20    0.78
  14  -2  -8   15.70    1.36
 -14  -2   8   15.77    1.29
 -14  -2   8   17.63    1.56
  14  -2  -8   15.52    1.01
  14  -2  -8   14.87    0.83
  14  -2  -8   14.72    1.20
  14   2  -8   16.13    0.78
 -14   2   8   18.95    1.50
  14   2  -8   14.79    0.92
  14   2  -8   16.26    1.06
  14   2  -8   15.76    1.26
  14   2  -8   15.66    1.11
 -12  -2   8    4.96    0.47
  12  -2  -8    5.69    1.25
  12  -2  -8    6.02    0.58
  12  -2  -8    6.12    0.62
  12  -2  -8    6.20    0.41
  12  -2  -8    6.34    0.94
  12  -2  -8    5.28    0.60
  12  -2  -8    5.83    0.35
 -12  -2   8    7.29    1.05
 -12  -2   8    6.68    0.98
 -12   2   8    5.34    0.39
  12   2  -8    6.91    0.45
  12   2  -8    6.26    0.56
  12   2  -8    6.97    0.85
 -12   2   8    6.86    1.15
  12   2  -8    6.88    1.05
  12   2  -8    6.80    0.85
 -12   2   8    5.91    0.53
  12   2  -8    5.86    0.43
  12   2  -8    7.92    1.04
  10  -2  -8   33.18    1.81
  10  -2  -8   33.61    1.96
 -10  -2   8   33.74    1.27
  10  -2  -8   32.34    1.42
 -10  -2   8   33.05    1.34
 -10  -2   8   33.54    1.72
  10  -2  -8   32.12    1.45
 -10  -2   8   35.21    1.97
 -10   2   8   32.24    1.40
  10   2  -8   32.58    1.57
  10   2  -8   32.65    1.38
  10   2  -8   32.42    1.70
  10   2  -8   32.59    1.63
 -10   2   8   35.12    1.92
 -10   2   8   32.49    1.48
  10   2  -8   34.37    1.90
 -10   2   8   31.62    1.30
 -10   2   8   31.93    1.93
   8  -2  -8    9.00    0.65
   8  -2  -8    8.23    0.45
  -8  -2   8    8.36    1.16
  -8  -2   8    8.90    0.64
   8  -2  -8    8.81    0.67
  -8  -2   8    8.34    0.53
  -8  -2   8    8.98    0.97
  -8  -2   8    7.65    0.69
   8  -2  -8    8.55    1.03
   8   2  -8    8.65    1.08
  -8   2   8   10.28    1.17
  -8   2   8    9.08    0.72
  -8   2   8    7.47    0.60
  -8   2   8    7.68    0.69
   8   2  -8    7.72    0.80
   8   2  -8    9.60    0.47
   8   2  -8    9.13    0.87
  -8   2   8    9.02    1.15
   8   2  -8    8.88    0.58
   6  -2  -8   43.29    1.73
   6  -2  -8   45.03    1.73
  -6  -2   8   46.98    2.13
  -6  -2   8   43.87    1.85
   6  -2  -8   43.91    1.82
  -6  -2   8   44.52    2.32
  -6  -2   8   43.44    1.79
  -6  -2   8   44.83    1.82
   6  -2  -8   45.31    1.85
   6  -2  -8   45.99    2.23
   6   2  -8   46.30    1.98
  -6   2   8   49.14    2.30
   6   2  -8   44.86    1.72
   6   2  -8   42.83    2.13
   6   2  -8   46.88    1.73
   6   2  -8   45.56    1.71
   6   2  -8   47.22    2.30
  -6   2   8   47.69    2.34
  -6   2   8   45.86    1.91
  -6   2   8   44.15    1.97
  -6   2   8   43.96    1.89
   4  -2  -8    7.15    0.68
   4  -2  -8    7.44    0.59
  -4  -2   8    7.62    0.62
   4  -2  -8    6.30    0.97
   4  -2  -8    6.22    0.58
  -4  -2   8    6.74    0.98
  -4  -2   8    7.87    0.68
   4  -2  -8    7.09    0.59
  -4  -2   8    7.12    1.11
  -4   2   8    8.28    0.74
   4   2  -8    7.13    0.57
   4   2  -8    7.62    0.48
  -4   2   8    7.60    0.71
  -4   2   8    6.91    1.00
  -4   2   8    6.65    1.12
   4   2  -8    7.09    0.57
   4   2  -8    7.86    0.78
   4   2  -8    7.76    1.02
  -2  -2   8   46.31    1.86
  -2  -2   8   47.70    2.29
   2  -2  -8   47.38    2.00
   2  -2  -8   47.28    1.95
   2  -2  -8   47.69    1.95
   2  -2  -8   47.51    2.28
  -2  -2   8   46.19    1.98
   2  -2  -8   45.68    1.90
  -2  -2   8   44.20    2.36
  -2   2   8   52.23    2.50
   2   2  -8   48.98    2.35
   2   2  -8   45.42    1.92
   2   2  -8   46.36    1.91
  -2   2   8   44.86    2.03
   2   2  -8   46.21    1.75
   2   2  -8   47.08    2.04
  -2   2   8   49.82    2.29
   0  -2   8    4.25    0.83
   0  -2   8    4.09    0.80
   0  -2  -8    2.64    0.47
   0  -2   8    3.72    0.49
   0  -2  -8    3.27    0.46
   0  -2  -8    3.31    0.52
   0  -2  -8    4.30    0.62
   0  -2  -8    2.99    0.68
   0   2  -8    2.95    0.72
   0   2  -8    2.75    0.48
   0   2   8    3.42    0.91
   0   2   8    3.09    0.71
   0   2  -8    3.59    0.59
   0   2  -8    3.13    0.48
  -2  -2  -8   27.51    1.37
   2  -2   8   26.34    1.33
   2  -2   8   27.89    1.85
  -2  -2  -8   27.84    1.43
  -2  -2  -8   27.80    1.67
  -2  -2  -8   24.79    1.36
  -2  -2  -8   26.69    1.28
   2  -2   8   25.77    1.27
   2  -2   8   26.63    1.70
   2   2   8   26.38    1.44
   2   2   8   31.36    1.98
  -2   2  -8   28.31    1.45
   2   2   8   28.00    1.60
  -2   2  -8   26.87    1.41
  -2   2  -8   25.89    1.05
  -2   2  -8   27.61    1.68
  -2   2  -8   25.86    1.36
   2   2   8   26.04    1.37
  -4  -2  -8    8.65    1.14
   4  -2   8   10.52    0.77
  -4  -2  -8    8.32    0.73
   4  -2   8    7.75    0.80
   4  -2   8    7.35    1.08
   4  -2   8    7.82    0.72
  -4  -2  -8    8.14    0.83
   4  -2   8    9.74    1.37
  -4  -2  -8    8.85    0.90
  -4  -2  -8    8.06    0.95
  -4   2  -8    9.64    1.15
  -4   2  -8    7.97    0.91
  -4   2  -8    9.00    0.91
   4   2   8    7.19    0.82
   4   2   8    8.36    0.96
  -4   2  -8    8.34    0.88
   4   2   8    7.95    0.97
  -4   2  -8    8.36    0.54
   4   2   8    8.13    1.21
   4   2   8    7.56    0.54
   4   2   8    8.21    0.57
   6  -2   8    9.14    1.25
   6  -2   8   10.43    1.16
   6  -2   8   10.20    0.89
   6  -2   8    9.84    0.88
  -6  -2  -8   12.28    1.21
  -6  -2  -8   10.10    1.04
  -6  -2  -8    9.02    0.92
   6   2   8    9.85    0.95
  -6   2  -8   11.67    1.06
   6   2   8   11.26    1.03
   6   2   8   12.43    1.62
   6   2   8   11.02    1.15
  -6   2  -8   10.80    1.19
  -6   2  -8   12.05    1.07
   6   2   8    9.70    0.71
  -6   2  -8   10.15    0.74
   8  -2   8    6.47    1.01
   8  -2   8    5.38    0.91
   8  -2   8    4.92    0.70
  -8  -2  -8    6.73    1.17
   8  -2   8    5.27    0.74
  -8  -2  -8    5.25    0.73
   8   2   8    4.05    1.11
   8   2   8    5.61    0.93
  -8   2  -8    4.88    0.74
   8   2   8    4.32    0.67
   8   2   8    4.36    0.73
   8   2   8    4.91    0.61
  -8   2  -8    5.38    0.92
 -10  -2  -8    5.93    0.91
  10  -2   8    5.25    0.85
  10  -2   8    5.98    0.93
 -10  -2  -8    6.70    0.93
  10   2   8    6.59    1.03
  10   2   8    6.83    0.86
  10   2   8    5.89    0.88
 -10   2  -8    5.38    0.81
 -10   2  -8    5.15    0.90
  12  -2   8    3.48    1.00
  12  -2   8    1.64    0.66
 -12  -2  -8    1.93    0.77
 -12  -2  -8    1.96    0.67
 -12   2  -8    3.27    0.85
  12   2   8    2.76    0.96
 -12   2  -8    2.91    0.78
  12   2   8    3.26    0.72
  14  -2   8    2.16    1.06
 -14  -2  -8    1.05    0.83
  14  -2   8    2.03    0.74
 -14   2  -8    1.03    0.77
  14   2   8   -0.22    1.00
 -21  -3   8    7.96    1.59
  21  -3  -8   12.35    1.12
  21  -3  -8   13.54    1.34
  21   3  -8   11.21    1.15
  21   3  -8    9.43    1.13
  19  -3  -8    5.76    1.18
  19  -3  -8    2.99    0.79
  19  -3  -8    2.77    0.62
 -19  -3   8    3.48    1.15
 -19  -3   8    2.74    0.96
  19   3  -8    3.64    0.71
  19   3  -8    4.45    0.71
  19   3  -8    3.11    0.67
  17  -3  -8   21.57    1.58
 -17  -3   8   20.74    1.75
  17  -3  -8   21.88    1.41
  17  -3  -8   24.39    1.33
 -17  -3   8   22.72    2.02
  17   3  -8   21.45    1.46
 -17   3   8   25.07    1.86
  17   3  -8   21.55    1.28
  17   3  -8   23.32    1.38
  17   3  -8   21.75    1.44
  15  -3  -8    6.97    1.13
  15  -3  -8    7.20    0.97
  15  -3  -8    6.14    0.53
 -15  -3   8    8.52    1.16
  15  -3  -8    7.44    0.81
 -15  -3   8    5.15    1.07
  15  -3  -8    6.21    0.55
 -15   3   8    8.95    1.34
  15   3  -8    5.69    0.99
  15   3  -8    5.66    0.73
  15   3  -8    6.97    0.59
 -15   3   8    7.74    0.56
  15   3  -8    6.98    0.75
  15   3  -8    7.85    0.88
 -13  -3   8   32.70    2.02
  13  -3  -8   33.17    1.77
  13  -3  -8   32.21    1.25
 -13  -3   8   33.18    1.69
  13  -3  -8   34.35    2.00
  13  -3  -8   31.94    1.34
 -13  -3   8   31.17    2.10
  13   3  -8   34.11    1.64
  13   3  -8   31.08    1.23
 -13   3   8   31.81    1.39
  13   3  -8   32.49    1.61
 -13   3   8   29.84    1.27
  13   3  -8   31.63    1.93
 -13   3   8   37.59    2.07
  13   3  -8   34.18    1.65
  13   3  -8   34.02    1.64
  13   3  -8   31.69    1.57
 -11  -3   8   16.00    1.13
 -11  -3   8   13.05    1.40
  11  -3  -8   14.44    0.89
  11  -3  -8   14.68    1.21
  11  -3  -8   14.91    1.40
  11  -3  -8   13.63    0.76
 -11  -3   8   14.47    0.77
 -11   3   8   13.10    0.84
  11   3  -8   14.00    0.86
  11   3  -8   14.25    1.28
  11   3  -8   12.85    0.95
 -11   3   8   13.60    1.35
  11   3  -8   15.51    1.02
  11   3  -8   14.50    1.05
  -9  -3   8   58.43    2.53
   9  -3  -8   59.82    2.92
  -9  -3   8   60.40    2.88
   9  -3  -8   58.82    2.72
  -9  -3   8   58.94    2.40
  -9  -3   8   60.56    2.28
   9  -3  -8   60.78    2.39
   9  -3  -8   61.16    2.30
   9   3  -8   62.16    2.34
   9   3  -8   58.19    2.56
   9   3  -8   61.82    2.53
   9   3  -8   61.88    2.81
  -9   3   8   64.93    2.90
  -9   3   8   58.01    2.36
  -9   3   8   61.18    2.36
   7  -3  -8   15.40    1.26
  -7  -3   8   16.76    0.97
   7  -3  -8   15.41    0.76
   7  -3  -8   17.36    0.90
   7  -3  -8   15.86    0.86
   7  -3  -8   13.90    0.90
  -7  -3   8   16.80    0.88
  -7  -3   8   16.66    1.46
  -7  -3   8   15.19    1.15
   7   3  -8   15.07    1.09
   7   3  -8   16.36    1.35
  -7   3   8   14.86    0.93
  -7   3   8   14.41    0.96
  -7   3   8   17.00    1.41
   7   3  -8   15.60    1.08
   7   3  -8   15.90    0.75
  -7   3   8   17.87    1.34
   7   3  -8   16.32    0.85
   7   3  -8   15.24    0.73
  -5  -3   8   37.62    2.13
   5  -3  -8   35.18    1.95
   5  -3  -8   37.55    1.54
  -5  -3   8   36.34    1.60
  -5  -3   8   37.57    1.63
  -5  -3   8   34.48    1.83
   5  -3  -8   36.62    1.56
   5  -3  -8   38.44    1.59
   5  -3  -8   35.25    1.61
   5   3  -8   38.68    1.53
   5   3  -8   36.99    1.52
   5   3  -8   37.00    2.05
  -5   3   8   40.88    2.00
  -5   3   8   36.95    1.70
  -5   3   8   38.39    1.65
  -5   3   8   38.60    2.15
   5   3  -8   37.24    1.91
   5   3  -8   39.06    1.78
   5   3  -8   37.65    1.52
   3  -3  -8   39.95    1.69
   3  -3  -8   38.07    1.69
  -3  -3   8   40.11    1.73
   3  -3  -8   39.01    1.66
   3  -3  -8   41.39    1.81
   3  -3  -8   37.73    2.05
  -3  -3   8   38.74    2.19
  -3  -3   8   38.73    1.69
  -3  -3   8   40.10    1.97
   3   3  -8   38.05    1.57
   3   3  -8   41.22    2.14
  -3   3   8   37.63    1.80
  -3   3   8   42.60    2.07
  -3   3   8   38.38    1.75
  -3   3   8   43.41    2.25
   3   3  -8   38.85    1.66
   3   3  -8   40.38    1.84
   3   3  -8   38.59    1.66
  -1  -3   8   21.53    1.63
   1  -3  -8   19.44    1.64
  -1  -3   8   23.84    1.52
   1  -3  -8   22.86    1.15
   1  -3  -8   21.69    1.18
   1  -3  -8   22.63    1.49
  -1  -3   8   22.15    1.14
   1  -3  -8   22.14    1.18
   1   3  -8   21.60    1.15
  -1   3   8   19.89    1.65
   1   3  -8   23.04    1.53
   1   3  -8   21.08    1.14
   1   3  -8   22.13    1.00
  -1   3   8   21.84    1.45
   1   3  -8   21.59    1.28
   1  -3   8   32.10    1.50
  -1  -3  -8   31.87    1.60
  -1  -3  -8   34.00    1.55
  -1  -3  -8   33.83    1.88
   1  -3   8   33.90    1.94
  -1  -3  -8   33.88    1.52
  -1  -3  -8   33.29    1.62
   1  -3   8   30.75    1.49
   1  -3   8   31.66    1.96
   1   3   8   34.16    1.78
  -1   3  -8   34.91    1.91
  -1   3  -8   34.24    1.68
   1   3   8   35.65    2.13
  -1   3  -8   31.61    1.57
  -1   3  -8   32.46    1.56
   1   3   8   31.06    1.57
  -3  -3  -8   18.13    1.09
  -3  -3  -8   20.09    1.20
   3  -3   8   18.12    1.08
   3  -3   8   16.64    1.59
   3  -3   8   18.64    1.49
   3  -3   8   16.81    0.88
  -3  -3  -8   17.98    1.06
  -3  -3  -8   18.51    1.23
   3  -3   8   17.23    1.05
  -3  -3  -8   17.57    1.38
  -3   3  -8   18.45    1.20
  -3   3  -8   19.05    1.42
   3   3   8   17.33    1.24
  -3   3  -8   18.38    1.22
   3   3   8   19.63    1.29
   3   3   8   19.02    1.75
  -3   3  -8   17.26    1.14
   3   3   8   15.44    1.09
   5  -3   8   12.02    0.87
  -5  -3  -8   13.09    1.29
  -5  -3  -8   12.76    0.96
   5  -3   8   12.16    0.96
   5  -3   8   13.62    1.54
   5  -3   8   12.43    0.97
  -5  -3  -8   12.51    1.30
   5  -3   8   11.45    1.26
   5   3   8   13.26    1.08
  -5   3  -8   12.87    1.11
  -5   3  -8   13.40    1.13
   5   3   8   14.12    1.65
   5   3   8   12.85    0.69
  -5   3  -8   13.65    1.29
   5   3   8   13.34    1.02
   7  -3   8    5.40    0.87
  -7  -3  -8    4.40    0.67
   7  -3   8    4.18    0.70
  -7  -3  -8    4.34    0.83
   7  -3   8    4.47    0.71
   7   3   8    4.50    0.86
   7   3   8    4.70    1.11
   7   3   8    4.47    0.54
   7   3   8    6.04    0.93
  -7   3  -8    4.76    0.88
  -7   3  -8    4.78    0.81
   7   3   8    3.59    0.69
   9  -3   8   15.54    1.32
  -9  -3  -8   16.09    1.19
   9  -3   8   17.33    1.43
  -9  -3  -8   17.63    1.45
  -9   3  -8   16.83    1.33
  -9   3  -8   15.43    1.42
   9   3   8   19.83    1.57
   9   3   8   19.82    2.04
  11  -3   8    2.40    1.07
 -11  -3  -8    2.86    0.82
  11  -3   8    1.93    0.72
 -11  -3  -8    2.16    0.70
 -11   3  -8    2.23    0.71
  11   3   8    3.15    0.90
  11   3   8    2.59    0.65
 -11   3  -8    2.05    0.72
  13  -3   8    3.35    0.77
 -13  -3  -8    4.63    0.94
  13   3   8    2.71    1.04
 -13   3  -8    2.67    0.87
  20  -4  -8    6.60    0.89
 -20  -4   8    6.58    1.61
 -20  -4   8    8.32    1.24
  20  -4  -8    7.13    1.34
  20   4  -8    6.80    1.01
  20   4  -8    6.73    1.07
  20   4  -8    6.36    0.85
  18  -4  -8    5.27    0.97
  18  -4  -8    4.64    0.72
 -18  -4   8    2.65    1.26
  18  -4  -8    4.75    0.73
 -18  -4   8    5.24    1.07
  18   4  -8    5.36    0.79
  18   4  -8    5.83    0.86
  18   4  -8    7.60    0.91
 -18   4   8    3.49    1.05
  16  -4  -8   13.02    1.09
 -16  -4   8    9.42    1.45
  16  -4  -8   11.94    1.12
 -16  -4   8   13.41    1.76
  16  -4  -8   12.90    1.34
  16   4  -8   10.81    0.96
 -16   4   8   12.24    1.48
  16   4  -8   12.44    1.23
  16   4  -8   11.15    1.08
 -16   4   8   11.03    0.80
  14  -4  -8   18.91    0.85
 -14  -4   8   19.36    1.78
 -14  -4   8   20.17    1.69
  14  -4  -8   19.34    1.35
  14  -4  -8   19.48    1.61
  14   4  -8   19.92    1.46
 -14   4   8   20.13    1.65
 -14   4   8   16.95    0.91
  14   4  -8   19.03    1.15
  14   4  -8   19.58    1.11
 -14   4   8   18.26    0.88
 -14   4   8   18.31    1.04
  14   4  -8   18.91    1.28
 -12  -4   8    9.18    0.70
 -12  -4   8   10.56    1.41
  12  -4  -8    8.73    0.57
 -12  -4   8    9.54    1.39
  12  -4  -8    8.00    1.06
  12  -4  -8    9.42    1.26
 -12  -4   8    9.12    0.92
  12   4  -8    9.30    0.90
  12   4  -8   10.07    0.80
  12   4  -8    9.30    0.79
  12   4  -8    8.91    0.98
  12   4  -8    9.20    1.14
 -12   4   8    9.82    1.28
 -12   4   8    8.26    0.62
 -12   4   8    8.91    0.78
 -10  -4   8   28.29    1.47
 -10  -4   8   29.42    1.45
 -10  -4   8   24.88    1.17
  10  -4  -8   29.47    1.20
  10  -4  -8   27.17    1.89
 -10  -4   8   28.55    1.92
 -10  -4   8   27.93    1.25
  10  -4  -8   28.05    1.70
 -10  -4   8   27.16    1.92
 -10   4   8   24.02    1.22
 -10   4   8   30.07    1.30
  10   4  -8   30.21    1.79
  10   4  -8   27.91    1.34
  10   4  -8   29.04    1.45
 -10   4   8   25.95    1.35
  10   4  -8   29.64    1.55
 -10   4   8   28.93    1.87
  -8  -4   8   14.19    1.00
  -8  -4   8   15.37    0.86
  -8  -4   8   14.45    1.49
   8  -4  -8   16.28    1.50
  -8  -4   8   14.85    1.02
   8  -4  -8   15.36    0.95
   8  -4  -8   14.03    0.79
  -8  -4   8   14.92    0.87
   8  -4  -8   14.73    1.25
   8  -4  -8   14.97    0.74
   8   4  -8   15.04    0.66
   8   4  -8   15.09    0.68
  -8   4   8   13.80    0.90
   8   4  -8   14.67    1.10
   8   4  -8   14.40    0.71
  -8   4   8   14.10    0.86
  -8   4   8   13.86    0.97
   8   4  -8   15.73    0.91
   8   4  -8   14.50    1.01
  -8   4   8   15.88    1.43
   8   4  -8   15.17    1.35
   8   4  -8   14.68    0.67
  -6  -4   8   46.65    2.44
   6  -4  -8   41.94    1.86
   6  -4  -8   43.06    1.82
   6  -4  -8   43.68    1.75
  -6  -4   8   43.36    1.89
   6  -4  -8   40.77    1.72
  -6  -4   8   42.45    1.79
  -6  -4   8   42.87    1.93
   6  -4  -8   42.58    2.18
   6   4  -8   43.05    1.71
   6   4  -8   43.23    2.01
   6   4  -8   41.35    1.71
   6   4  -8   46.00    2.02
  -6   4   8   41.76    1.91
   6   4  -8   45.04    1.79
   6   4  -8   44.48    2.30
   6   4  -8   43.34    1.71
  -6   4   8   45.72    2.35
  -6   4   8   41.36    1.81
  -4  -4   8   12.64    0.90
  -4  -4   8   11.21    1.00
  -4  -4   8   11.65    0.89
   4  -4  -8   13.15    0.82
   4  -4  -8   13.23    0.84
   4  -4  -8   12.63    0.83
  -4  -4   8   13.32    1.41
   4  -4  -8   12.96    1.21
   4  -4  -8   11.38    0.87
   4   4  -8   13.01    0.80
   4   4  -8   12.95    0.80
   4   4  -8   12.81    0.79
   4   4  -8   12.99    1.06
  -4   4   8   13.71    0.90
   4   4  -8   12.57    1.31
  -4   4   8   12.98    1.37
   2  -4  -8   43.56    1.81
   2  -4  -8   42.82    1.86
  -2  -4   8   44.35    2.43
  -2  -4   8   40.37    2.01
   2  -4  -8   43.98    1.88
  -2  -4   8   41.68    1.86
   2  -4  -8   44.54    2.21
   2  -4  -8   42.35    1.87
   2   4  -8   45.50    2.02
  -2   4   8   43.67    2.09
   2   4  -8   43.84    1.86
   2   4  -8   43.43    1.76
  -2   4   8   43.08    2.13
   2   4  -8   42.42    1.83
   2   4  -8   45.75    2.31
   0  -4   8    5.01    0.76
   0  -4   8    5.76    0.76
   0  -4  -8    6.48    0.96
   0  -4   8    5.64    0.85
   0  -4  -8    5.16    0.74
   0  -4  -8    5.58    0.76
   0  -4  -8    5.00    0.67
   0  -4   8    5.32    0.62
   0  -4  -8    5.66    0.84
   0  -4   8    5.58    1.03
   0   4   8    5.91    0.92
   0   4  -8    5.85    0.96
   0   4  -8    5.70    0.74
   0   4   8    6.59    0.85
   0   4  -8    6.70    0.82
   0   4  -8    6.47    0.58
   0   4   8    5.38    1.00
   0   4  -8    5.43    0.72
   0   4   8    6.38    0.72
   2  -4   8   23.68    1.60
  -2  -4  -8   24.25    1.59
   2  -4   8   22.54    1.26
   2  -4   8   24.30    1.77
  -2  -4  -8   20.82    1.31
   2  -4   8   21.44    1.19
  -2  -4  -8   22.46    1.22
  -2  -4  -8   23.79    1.38
   2   4   8   22.99    1.39
   2   4   8   20.66    1.29
   2   4   8   23.59    1.81
  -2   4  -8   22.56    1.33
  -2   4  -8   20.54    1.27
  -2   4  -8   22.31    1.10
  -2   4  -8   22.08    1.38
  -2   4  -8   23.14    1.63
   4  -4   8   12.20    1.35
  -4  -4  -8   11.77    1.27
   4  -4   8    9.85    0.72
   4  -4   8   10.86    1.39
   4  -4   8   10.29    0.93
   4  -4   8   11.07    0.99
  -4  -4  -8   11.59    0.91
   4   4   8   10.91    1.01
   4   4   8   13.11    1.18
  -4   4  -8   11.70    1.32
   4   4   8   13.01    1.55
   4   4   8   11.02    1.00
  -4   4  -8   12.44    1.09
   6  -4   8   11.71    1.34
   6  -4   8   14.11    1.41
  -6  -4  -8   12.44    0.99
  -6  -4  -8   13.71    1.34
   6  -4   8   11.76    1.01
  -6   4  -8   11.95    1.35
   6   4   8   11.76    1.31
   6   4   8   12.87    1.21
  -6   4  -8   11.93    1.16
   6   4   8   15.33    1.69
   6   4   8   11.13    1.03
   8  -4   8    3.48    0.87
  -8  -4  -8    5.03    0.75
  -8  -4  -8    4.43    0.89
   8   4   8    3.22    1.07
  -8   4  -8    3.54    0.75
  -8   4  -8    3.92    0.88
   8   4   8    4.84    0.95
  10  -4   8    5.29    0.97
 -10  -4  -8    4.73    0.76
 -10  -4  -8    4.73    0.91
  10   4   8    5.66    1.38
  10   4   8    5.70    1.02
 -10   4  -8    4.04    0.80
 -10   4  -8    5.39    0.95
  12  -4   8    2.55    0.90
 -12  -4  -8    3.49    0.87
 -12   4  -8    2.43    0.96
  12   4   8    2.57    1.00
 -12   4  -8    3.07    0.86
 -19  -5   8    2.19    0.99
 -19  -5   8   -1.08    1.98
  19  -5  -8    1.17    0.88
  19  -5  -8    0.07    0.66
  19  -5  -8    1.69    0.74
  19   5  -8    1.45    0.67
  19   5  -8    1.69    0.73
  19   5  -8    1.95    0.62
  17  -5  -8   13.06    1.47
  17  -5  -8   11.09    1.43
  17  -5  -8   10.93    1.06
 -17  -5   8    7.76    1.61
 -17  -5   8    9.94    1.53
  17   5  -8   10.51    1.18
  17   5  -8    8.63    0.96
  17   5  -8    9.17    1.21
 -17   5   8    8.83    1.35
 -15  -5   8    3.61    1.19
  15  -5  -8    4.42    0.99
  15  -5  -8    5.19    0.89
 -15  -5   8    3.92    0.95
  15   5  -8    3.50    0.64
  15   5  -8    4.10    0.82
 -15   5   8    4.31    1.02
  15   5  -8    3.16    0.69
 -15   5   8    3.92    0.61
  13  -5  -8   15.45    1.55
  13  -5  -8   14.49    1.24
 -13  -5   8   12.80    1.61
 -13  -5   8   16.13    1.65
  13   5  -8   15.21    1.17
  13   5  -8   15.44    1.22
  13   5  -8   15.34    0.97
 -13   5   8   14.46    1.07
 -13   5   8   18.12    1.63
  11  -5  -8    4.80    0.46
  11  -5  -8    6.93    1.02
 -11  -5   8    7.30    1.32
 -11  -5   8    6.19    1.12
 -11  -5   8    5.54    0.66
  11  -5  -8    6.68    1.17
  11   5  -8    6.09    0.85
 -11   5   8    5.55    0.76
 -11   5   8    5.34    1.04
  11   5  -8    5.43    0.75
   9  -5  -8   29.49    1.73
  -9  -5   8   28.25    1.53
   9  -5  -8   27.04    1.15
  -9  -5   8   31.99    2.23
  -9  -5   8   28.83    1.96
  -9  -5   8   26.80    1.28
   9  -5  -8   27.67    1.94
  -9  -5   8   24.62    1.21
  -9  -5   8   24.98    1.90
  -9   5   8   26.68    1.27
   9   5  -8   26.02    1.12
   9   5  -8   26.99    1.10
   9   5  -8   26.38    1.23
  -9   5   8   25.33    1.37
   9   5  -8   26.18    1.55
   9   5  -8   28.30    1.39
  -9   5   8   27.09    1.96
   9   5  -8   30.24    1.91
  -9   5   8   29.20    1.85
  -7  -5   8    6.18    0.57
  -7  -5   8    5.95    1.14
   7  -5  -8    7.13    1.08
   7  -5  -8    5.33    0.51
  -7  -5   8    6.31    1.14
   7  -5  -8    4.86    0.55
  -7  -5   8    5.26    0.71
   7  -5  -8    7.44    1.32
  -7  -5   8    6.10    0.85
  -7   5   8    5.63    0.90
  -7   5   8    6.40    0.68
   7   5  -8    5.23    0.58
   7   5  -8    5.43    0.74
   7   5  -8    5.67    0.78
   7   5  -8    5.06    0.54
   7   5  -8    6.30    0.48
   7   5  -8    6.38    0.54
   7   5  -8    5.87    0.69
  -5  -5   8   15.14    1.01
   5  -5  -8   16.96    1.51
  -5  -5   8   12.93    1.01
  -5  -5   8   15.11    1.54
   5  -5  -8   13.71    0.83
   5  -5  -8   15.31    1.57
   5  -5  -8   14.82    0.92
   5  -5  -8   14.46    0.88
   5   5  -8   14.86    1.08
   5   5  -8   16.23    1.21
   5   5  -8   16.42    0.89
  -5   5   8   14.75    0.95
   5   5  -8   14.17    0.89
  -5   5   8   15.16    1.46
   5   5  -8   15.35    0.94
   3  -5  -8   21.01    1.49
  -3  -5   8   18.53    1.16
  -3  -5   8   19.20    1.66
   3  -5  -8   17.32    1.09
   3  -5  -8   17.10    0.99
  -3  -5   8   18.10    1.14
   3  -5  -8   18.45    1.08
  -3  -5   8   16.41    1.29
  -3   5   8   18.29    1.23
   3   5  -8   20.01    1.07
   3   5  -8   19.38    1.03
   3   5  -8   17.84    1.06
  -3   5   8   18.80    1.59
  -3   5   8   17.61    1.08
   3   5  -8   17.48    1.27
  -1  -5   8   11.64    0.89
  -1  -5   8    8.78    0.93
   1  -5  -8   10.27    0.91
   1  -5  -8    9.78    1.22
   1  -5  -8   10.10    1.11
  -1  -5   8    9.62    0.81
  -1  -5   8    9.92    1.43
  -1  -5   8    9.73    0.98
  -1   5   8   10.16    1.03
   1   5  -8    9.14    0.85
   1   5  -8   11.51    1.05
  -1   5   8   11.91    1.37
   1   5  -8   10.10    0.77
   1   5  -8    9.32    0.93
  -1   5   8    9.96    0.91
   1  -5   8   13.18    0.93
   1  -5   8   16.15    1.55
  -1  -5  -8   13.22    1.38
  -1  -5  -8   11.44    0.90
  -1  -5  -8   12.71    1.06
   1  -5   8   12.95    1.31
   1  -5   8   11.07    1.19
   1  -5   8   14.16    1.21
  -1   5  -8   13.41    1.04
  -1   5  -8   13.02    1.14
  -1   5  -8   14.12    0.89
   1   5   8   15.60    1.58
   1   5   8   12.34    1.04
   3  -5   8    9.35    1.21
  -3  -5  -8    9.56    1.26
  -3  -5  -8    7.80    0.83
   3  -5   8   11.84    1.41
   3   5   8   12.50    1.24
  -3   5  -8    8.14    0.88
  -3   5  -8    8.51    1.08
   3   5   8    8.06    1.28
   3   5   8   11.07    1.52
  -5  -5  -8    6.79    0.82
   5  -5   8    6.91    1.17
   5  -5   8    4.99    1.20
  -5  -5  -8    9.35    1.27
   5   5   8    6.77    1.20
   5   5   8    6.76    0.97
  -5   5  -8    6.21    1.01
  -5   5  -8    5.71    0.81
  -7  -5  -8    2.21    0.56
   7  -5   8    3.03    0.94
  -7  -5  -8    3.36    0.82
   7   5   8    2.83    0.95
   7   5   8    2.84    0.83
  -7   5  -8    1.61    0.72
  -7   5  -8    3.23    0.86
   9  -5   8    6.20    1.08
  -9  -5  -8    9.13    1.07
  -9  -5  -8    8.91    1.29
  -9   5  -8    8.28    1.34
   9   5   8   10.64    1.40
   9   5   8    8.99    1.50
  -9   5  -8    8.73    1.25
 -11  -5  -8    1.82    0.95
 -11  -5  -8    2.91    1.20
  11  -5   8    1.53    0.88
  11   5   8    1.03    0.94
 -11   5  -8    1.11    0.78
 -11   5  -8    1.40    0.81
  18  -6  -8    5.59    0.87
  18  -6  -8    6.80    1.22
 -18  -6   8    8.21    1.30
  18  -6  -8    8.75    1.22
  18   6  -8    7.55    1.07
  18   6  -8    7.39    1.18
  18   6  -8    7.12    1.00
 -16  -6   8   10.44    1.58
  16  -6  -8    9.24    1.15
  16  -6  -8   11.51    1.50
 -16  -6   8    9.30    1.77
 -16   6   8    7.44    1.09
  16   6  -8    8.99    0.96
  16   6  -8   11.26    1.25
 -16   6   8    8.39    1.36
 -14  -6   8   11.50    1.61
  14  -6  -8   14.16    1.54
  14  -6  -8   13.01    1.20
 -14  -6   8    7.96    1.44
  14   6  -8   11.49    1.25
  14   6  -8   12.12    1.05
 -14   6   8   10.14    1.05
 -14   6   8   15.46    2.17
  12  -6  -8   10.49    1.50
 -12  -6   8    9.88    1.58
  12  -6  -8   11.30    1.14
 -12  -6   8   11.68    1.55
 -12   6   8   10.97    1.48
  12   6  -8   11.77    0.96
  12   6  -8    9.92    1.15
 -10  -6   8   23.60    1.91
  10  -6  -8   21.62    1.00
 -10  -6   8   25.95    1.95
  10  -6  -8   23.94    1.60
  10  -6  -8   26.77    1.95
  10   6  -8   23.13    1.04
  10   6  -8   25.27    1.20
 -10   6   8   25.15    1.86
  10   6  -8   23.81    1.53
  10   6  -8   24.49    1.33
  10   6  -8   22.64    0.96
 -10   6   8   21.73    1.37
  -8  -6   8   16.04    1.74
   8  -6  -8   15.61    1.31
   8  -6  -8   14.06    0.74
  -8  -6   8   13.86    1.54
  -8  -6   8   13.81    0.85
  -8  -6   8   11.36    0.96
   8  -6  -8   15.79    1.67
   8   6  -8   14.33    1.05
  -8   6   8   13.02    1.11
   8   6  -8   14.13    1.24
   8   6  -8   13.95    1.01
   8   6  -8   14.75    0.79
  -8   6   8   15.26    1.55
   6  -6  -8   30.20    1.50
  -6  -6   8   29.23    1.35
  -6  -6   8   29.79    1.45
  -6  -6   8   28.29    2.13
   6  -6  -8   32.38    2.12
  -6  -6   8   31.98    2.02
   6  -6  -8   25.95    1.33
   6  -6  -8   31.54    1.85
   6   6  -8   30.45    1.37
   6   6  -8   29.33    1.49
  -6   6   8   26.48    1.58
  -6   6   8   31.31    1.97
   6   6  -8   33.35    1.76
   6   6  -8   31.14    1.48
  -6   6   8   29.63    1.42
  -4  -6   8   13.37    0.91
  -4  -6   8   12.47    0.96
   4  -6  -8   14.57    1.37
   4  -6  -8   13.11    0.82
   4  -6  -8   16.09    1.68
   4  -6  -8   12.95    0.95
  -4  -6   8   14.82    1.67
   4   6  -8   13.74    0.98
   4   6  -8   13.12    0.93
  -4   6   8   12.41    1.50
  -4   6   8   13.37    0.96
  -4   6   8   13.82    1.17
   4   6  -8   12.83    1.21
  -2  -6   8   26.64    2.03
   2  -6  -8   26.97    1.29
   2  -6  -8   24.36    1.43
   2  -6  -8   28.54    1.81
  -2  -6   8   24.85    1.33
   2   6  -8   26.63    1.60
  -2   6   8   30.15    1.99
   2   6  -8   25.87    1.41
   2   6  -8   27.75    1.37
   0  -6   8    8.49    0.94
   0  -6  -8    8.73    0.79
   0  -6  -8    8.31    1.27
   0  -6   8    9.77    1.42
   0   6   8    9.55    1.29
   0   6  -8    8.33    0.79
   0   6  -8    7.28    1.04
  -2  -6  -8   21.07    1.62
  -2  -6  -8   17.80    1.14
   2  -6   8   19.68    1.81
   2  -6   8   19.36    1.92
  -2   6  -8   20.17    1.16
  -2   6  -8   20.54    1.45
   2   6   8   24.23    1.88
  -4  -6  -8    7.98    0.87
   4  -6   8    9.53    1.39
   4  -6   8    8.02    1.26
  -4  -6  -8    7.71    1.24
  -4   6  -8    8.26    1.14
  -4   6  -8    8.23    0.80
   4   6   8    8.86    1.32
   4   6   8    8.51    1.36
  -6  -6  -8    9.52    1.34
   6  -6   8    8.05    1.31
  -6  -6  -8    9.61    0.96
   6   6   8    8.73    1.23
   6   6   8    5.78    1.19
  -6   6  -8    7.29    0.94
  -8  -6  -8    6.47    1.08
  -8  -6  -8    6.00    0.80
   8  -6   8    4.50    1.10
   8   6   8    6.06    1.06
  -8   6  -8    5.52    1.07
  -8   6  -8    4.83    0.90
   8   6   8    5.52    1.24
 -10  -6  -8    2.96    0.78
  10  -6   8    4.81    1.12
 -10  -6  -8    4.62    0.97
 -10   6  -8    4.94    1.05
  10   6   8    5.71    1.12
 -10   6  -8    3.87    1.01
 -17  -7   8    7.48    1.33
  17  -7  -8    9.33    1.19
  17   7  -8    8.84    1.14
  15  -7  -8   10.01    1.23
 -15  -7   8    8.71    1.35
  15  -7  -8    8.90    1.64
 -15  -7   8    5.47    2.02
 -15   7   8    7.16    1.45
  15   7  -8    6.73    0.96
  15   7  -8    7.42    1.04
 -13  -7   8   16.03    1.87
 -13  -7   8   17.17    2.09
  13  -7  -8   13.81    1.39
  13  -7  -8   14.47    1.73
  13   7  -8   15.95    1.12
 -13   7   8   16.88    1.77
  13   7  -8   14.28    1.45
  11  -7  -8    8.96    1.51
 -11  -7   8    6.70    1.29
 -11  -7   8    9.23    1.38
  11  -7  -8   10.50    1.19
 -11   7   8    8.87    1.40
  11   7  -8    7.53    1.02
  11   7  -8   11.60    1.01
   9  -7  -8   24.25    1.67
  -9  -7   8   22.13    1.94
  -9  -7   8   25.36    2.10
   9  -7  -8   24.87    2.09
   9   7  -8   23.64    1.61
   9   7  -8   23.84    1.37
   9   7  -8   23.63    1.13
  -9   7   8   25.49    1.92
  -7  -7   8   10.49    1.69
   7  -7  -8   11.50    1.26
   7  -7  -8   14.06    1.66
   7  -7  -8   11.10    0.68
  -7  -7   8   10.52    1.48
  -7   7   8   12.89    1.52
   7   7  -8   11.44    0.95
   7   7  -8    8.26    1.23
   7   7  -8   10.07    1.00
  -5  -7   8   18.55    1.63
   5  -7  -8   18.06    0.95
  -5  -7   8   21.56    1.99
   5  -7  -8   20.96    1.62
   5  -7  -8   19.02    1.78
   5  -7  -8   17.13    1.12
   5   7  -8   17.39    1.10
   5   7  -8   17.47    1.40
   5   7  -8   17.41    1.14
  -5   7   8   17.00    1.58
   3  -7  -8   25.93    2.10
  -3  -7   8   20.66    2.07
   3  -7  -8   21.66    1.14
   3  -7  -8   22.93    1.74
   3   7  -8   22.83    1.52
  -3   7   8   21.74    1.81
   3   7  -8   21.55    1.27
  -1  -7   8   13.76    1.87
   1  -7  -8   16.05    1.75
   1  -7  -8   14.26    0.97
   1  -7  -8   13.18    1.45
  -1   7   8   14.69    1.59
   1   7  -8   12.65    1.01
   1   7  -8   13.58    1.28
  -1  -7  -8   14.02    1.48
   1  -7   8   10.91    1.58
   1  -7   8   11.05    1.57
  -1  -7  -8   11.73    0.94
   1   7   8   13.11    1.56
  -1   7  -8   11.18    1.18
  -1   7  -8    9.55    0.91
   3  -7   8   10.59    1.57
  -3  -7  -8   10.47    0.96
   3  -7   8    8.10    1.43
  -3  -7  -8   12.58    1.49
   3   7   8   12.88    1.62
  -3   7  -8    9.34    1.20
  -3   7  -8    8.60    1.00
   5  -7   8    7.61    1.38
  -5  -7  -8    8.85    0.98
   5  -7   8   10.30    1.61
  -5  -7  -8    9.96    1.44
  -5   7  -8    7.75    0.85
   5   7   8    9.88    1.61
  -5   7  -8    7.71    1.01
   5   7   8    8.91    1.22
   7  -7   8    3.87    1.23
  -7  -7  -8    4.12    0.74
  -7  -7  -8    3.65    0.98
   7   7   8    5.89    1.27
  -7   7  -8    2.98    0.84
   7   7   8    5.29    1.05
  -9  -7  -8    4.45    1.11
  -9  -7  -8    5.29    0.86
  -9   7  -8    5.23    1.41
   9   7   8    7.13    1.26
  -9   7  -8    3.94    1.14
 -14  -8   8    5.67    1.47
  14  -8  -8    3.59    0.89
  14   8  -8    4.55    0.78
  12  -8  -8    5.33    1.28
 -12  -8   8    6.01    1.34
 -12  -8   8    4.87    1.47
  12  -8  -8    4.59    0.93
  12   8  -8    7.34    0.97
 -12   8   8    2.58    1.06
  12   8  -8    3.91    0.97
  10  -8  -8    7.51    1.15
  10  -8  -8   10.88    1.84
 -10  -8   8   13.01    1.91
 -10  -8   8   11.48    1.79
  10   8  -8   10.27    1.01
  10   8  -8    9.18    1.47
 -10   8   8   10.14    1.57
  10   8  -8    9.98    1.17
  -8  -8   8    7.62    1.37
   8  -8  -8    6.23    1.08
  -8  -8   8   12.50    1.87
   8  -8  -8    6.53    1.47
   8   8  -8    8.29    1.09
   8   8  -8    6.07    0.80
   8   8  -8    7.85    0.91
  -8   8   8    6.03    1.18
   6  -8  -8   10.88    1.69
  -6  -8   8   11.30    1.65
  -6  -8   8   11.67    1.59
   6  -8  -8    9.41    1.36
   6   8  -8   11.88    1.35
   6   8  -8   10.62    0.99
  -6   8   8   11.58    1.45
  -4  -8   8    8.88    1.50
   4  -8  -8    6.89    1.32
  -4  -8   8    9.04    1.35
   4  -8  -8    4.89    1.01
   4   8  -8    5.76    0.99
  -4   8   8    7.03    1.14
   4   8  -8    6.17    0.86
   2  -8  -8   11.49    1.56
   2  -8  -8   11.70    1.73
  -2  -8   8   14.45    2.09
   2   8  -8   10.34    0.99
   2   8  -8   12.97    1.32
  -2   8   8   11.78    1.56
   0  -8  -8    4.13    1.06
   0  -8   8    3.16    1.29
   0  -8  -8    6.20    1.38
   0   8  -8    4.52    0.67
   0   8  -8    5.02    0.93
   0   8   8    4.31    1.05
  -2  -8  -8    8.07    1.24
   2  -8   8    6.18    1.44
  -2   8  -8    8.47    0.96
  -2   8  -8    8.67    1.05
   2   8   8   12.41    1.60
   4  -8   8    5.28    1.47
  -4  -8  -8    4.03    1.10
  -4   8  -8    3.53    0.86
  -4   8  -8    4.13    0.68
   4   8   8    4.20    1.07
   6  -8   8    3.68    1.82
  -6  -8  -8    1.28    1.00
   6   8   8    3.59    1.06
  -6   8  -8    3.43    0.97
  13  -9  -8    8.49    1.41
 -13  -9   8    5.52    1.47
  13   9  -8    8.72    1.19
  11  -9  -8    8.83    1.41
 -11  -9   8    5.90    1.41
  11   9  -8    6.36    0.91
  -9  -9   8   16.48    2.35
   9  -9  -8   13.04    1.57
  -9  -9   8   10.71    1.96
   9   9  -8   11.13    1.13
  -9   9   8    9.91    1.66
  -7  -9   8    8.20    1.63
   7  -9  -8    5.83    1.18
   7  -9  -8    8.13    1.56
  -7  -9   8    6.22    1.31
   7   9  -8    3.45    0.99
  -7   9   8    6.14    1.12
   7   9  -8    6.30    0.84
   5  -9  -8   10.18    1.66
  -5  -9   8    9.60    1.61
   5  -9  -8   10.16    1.63
  -5  -9   8   11.30    1.77
   5   9  -8    8.70    1.02
  -5   9   8   10.65    1.58
   5   9  -8   10.24    1.50
  -3  -9   8    9.08    1.49
   3  -9  -8   12.23    1.96
   3  -9  -8    9.57    1.63
  -3  -9   8   14.83    2.34
   3   9  -8    9.42    1.37
  -3   9   8   10.39    1.54
   3   9  -8    8.90    1.02
   1  -9  -8    7.39    1.45
  -1  -9   8    6.68    1.74
   1  -9  -8    6.88    1.46
  -1   9   8    6.06    1.15
   1   9  -8    6.88    0.86
   1   9  -8    7.72    1.10
  -1  -9  -8    4.89    1.43
  -1  -9  -8    8.03    1.51
   1   9   8    8.68    1.31
  -1   9  -8    6.14    0.84
  -1   9  -8    7.35    1.09
  -3  -9  -8    7.17    1.52
  -3   9  -8    6.94    0.92
  -3   9  -8    4.54    1.11
   5  -9   8    5.65    2.08
  -5  -9  -8    4.96    1.69
  -5   9  -8    3.02    0.76
   8  10  -8    8.93    1.20
  -6 -10   8   11.48    1.85
   6  10  -8    8.47    1.14
  -4 -10   8   10.17    1.79
   4  10  -8    8.87    1.16
  -2 -10   8   11.07    1.93
   2  10  -8   11.00    1.19
   0  10  -8    6.31    0.93
  20   0  -9   12.70    1.67
  20   0  -9    9.69    1.22
  18   0  -9    2.23    0.68
  18   0  -9    1.47    0.62
  18   0  -9    1.54    0.49
  16   0  -9   23.48    1.44
 -16   0   9   23.56    1.77
  16   0  -9   24.13    1.56
  16   0  -9   25.08    1.60
  16   0  -9   23.87    1.27
  14   0  -9    9.48    1.16
  14   0  -9    7.66    0.80
 -14   0   9    8.40    1.25
  14   0  -9    9.35    0.66
 -14   0   9    8.32    1.34
  14   0  -9    7.61    1.08
 -12   0   9   22.48    1.66
 -12   0   9   23.81    1.79
 -12   0   9   21.07    0.97
  12   0  -9   21.30    1.06
  12   0  -9   21.20    1.53
  12   0  -9   21.88    1.19
  12   0  -9   21.25    1.54
  10   0  -9   10.45    0.83
  10   0  -9   10.95    0.56
 -10   0   9   12.25    1.44
 -10   0   9   10.45    0.59
  10   0  -9   11.42    0.62
 -10   0   9   11.39    1.33
  10   0  -9   12.63    1.25
 -10   0   9   10.65    0.71
   8   0  -9   23.15    1.24
  -8   0   9   23.35    1.65
  -8   0   9   23.07    1.74
  -8   0   9   22.50    1.12
   8   0  -9   23.18    0.96
  -8   0   9   21.62    1.02
   8   0  -9   24.24    1.59
  -6   0   9   20.35    1.60
  -6   0   9   19.27    1.02
   6   0  -9   22.24    0.94
  -6   0   9   20.96    1.13
  -6   0   9   21.03    1.60
   6   0  -9   20.41    0.95
   6   0  -9   20.85    1.52
   6   0  -9   21.41    1.22
   4   0  -9   20.78    1.09
   4   0  -9   22.97    1.61
   4   0  -9   22.70    1.08
  -4   0   9   20.97    1.75
  -4   0   9   24.28    1.75
   4   0  -9   23.37    1.26
  -2   0   9   33.66    2.10
   2   0  -9   30.72    1.51
   2   0  -9   28.46    1.32
   2   0  -9   29.03    1.39
   2   0  -9   29.24    1.56
  -2   0   9   28.21    1.49
  -2   0   9   29.24    1.97
   2   0  -9   30.70    1.87
   0   0  -9    9.53    0.85
   0   0   9    8.06    0.94
   0   0  -9    6.83    1.17
   0   0  -9    8.76    0.90
   0   0   9    8.00    1.22
   0   0   9    6.93    1.13
  -2   0  -9   27.70    1.46
   2   0   9   26.86    2.04
  -2   0  -9   28.14    1.84
   2   0   9   25.42    1.69
   4   0   9    5.99    0.94
  -4   0  -9    6.80    0.90
   4   0   9    5.63    0.74
  -4   0  -9    6.43    0.97
   4   0   9    5.74    1.17
  -6   0  -9   13.41    1.16
   6   0   9   12.24    1.29
   6   0   9   11.21    1.80
  -6   0  -9   12.33    1.39
   6   0   9   13.33    1.21
  -8   0  -9    5.10    0.83
   8   0   9    4.66    0.81
  -8   0  -9    5.93    1.01
   8   0   9    5.32    1.37
  10   0   9    6.20    1.10
 -10   0  -9    5.50    1.01
  10   0   9    4.71    0.79
  19  -1  -9    3.36    0.72
  19  -1  -9    4.71    0.88
  19   1  -9    3.27    0.74
  19   1  -9    4.92    0.66
  17  -1  -9   13.09    1.19
  17  -1  -9   10.67    1.23
 -17  -1   9   14.52    1.66
  17  -1  -9   12.15    1.08
  17   1  -9   12.94    0.97
  17   1  -9   12.11    1.37
  17   1  -9   11.00    1.22
 -17   1   9    9.40    1.48
  15  -1  -9    3.06    0.50
 -15  -1   9    3.93    0.87
  15  -1  -9    2.61    0.78
  15  -1  -9    3.22    0.71
 -15  -1   9    2.93    0.93
  15   1  -9    2.19    0.67
  15   1  -9    3.55    0.79
  15   1  -9    2.50    0.54
 -15   1   9    3.50    0.91
  13  -1  -9   13.05    1.32
  13  -1  -9   12.90    1.20
 -13  -1   9   12.61    1.33
  13  -1  -9   14.30    0.88
 -13  -1   9   13.72    1.55
  13  -1  -9   12.89    1.31
 -13   1   9   14.86    1.50
  13   1  -9   14.19    0.99
  13   1  -9   13.30    0.76
 -13   1   9   12.42    1.44
  13   1  -9   14.22    1.35
  13   1  -9   14.14    1.30
 -13   1   9   13.45    0.70
 -11  -1   9    7.00    0.43
  11  -1  -9    6.57    0.55
 -11  -1   9    6.67    1.13
 -11  -1   9    5.35    0.57
 -11  -1   9    5.63    0.92
  11  -1  -9    5.87    1.01
  11  -1  -9    7.24    1.17
  11  -1  -9    8.34    1.17
 -11   1   9    6.28    0.59
 -11   1   9    6.04    0.45
  11   1  -9    6.03    0.51
  11   1  -9    6.35    0.77
 -11   1   9    6.66    1.09
  11   1  -9    6.29    1.06
 -11   1   9    7.50    1.22
  11   1  -9    6.48    0.49
  -9  -1   9   28.93    1.29
  -9  -1   9   28.17    1.19
  -9  -1   9   29.79    1.82
   9  -1  -9   29.06    1.65
  -9  -1   9   28.84    1.95
   9  -1  -9   31.09    1.44
   9  -1  -9   29.65    1.79
   9   1  -9   28.95    1.46
  -9   1   9   31.39    1.95
   9   1  -9   28.27    1.10
   9   1  -9   28.35    1.14
  -9   1   9   30.35    1.92
  -9   1   9   27.77    1.21
   9   1  -9   29.77    1.81
  -9   1   9   28.19    1.31
   7  -1  -9    2.67    0.38
   7  -1  -9    1.55    0.70
  -7  -1   9    2.55    0.74
  -7  -1   9    2.36    0.80
   7  -1  -9    2.42    0.33
  -7  -1   9    1.88    0.41
   7  -1  -9    2.15    0.47
  -7  -1   9    2.26    0.36
   7  -1  -9    2.58    0.39
   7   1  -9    2.77    0.53
  -7   1   9    2.68    0.44
  -7   1   9    1.87    0.74
   7   1  -9    2.60    0.72
  -7   1   9    1.86    0.37
   7   1  -9    2.72    0.37
  -7   1   9    2.22    0.77
  -5  -1   9   35.89    2.06
   5  -1  -9   37.44    2.01
   5  -1  -9   35.10    1.45
   5  -1  -9   34.75    1.60
  -5  -1   9   37.11    2.12
   5  -1  -9   34.63    1.45
   5  -1  -9   34.37    1.45
  -5  -1   9   31.68    1.47
  -5   1   9   35.80    2.12
  -5   1   9   31.76    1.50
   5   1  -9   32.88    1.43
  -5   1   9   35.70    2.10
   5   1  -9   34.46    1.66
   5   1  -9   34.29    1.43
   5   1  -9   37.06    2.04
  -3  -1   9    3.70    0.88
   3  -1  -9    3.94    0.53
   3  -1  -9    5.35    0.72
  -3  -1   9    4.85    0.94
   3  -1  -9    6.42    0.99
   3  -1  -9    5.50    0.62
   3  -1  -9    5.38    0.65
   3   1  -9    4.95    0.62
  -3   1   9    5.64    1.05
   3   1  -9    4.76    0.60
  -3   1   9    6.01    1.06
   3   1  -9    6.29    0.74
   3   1  -9    4.45    0.91
   1  -1  -9   22.79    1.22
   1  -1  -9   21.10    1.16
   1  -1  -9   20.18    1.00
  -1  -1   9   21.37    1.25
  -1  -1   9   18.67    1.58
  -1  -1   9   21.49    1.77
   1  -1  -9   22.36    1.55
   1   1  -9   19.54    1.24
  -1   1   9   18.35    1.49
   1   1  -9   20.54    1.56
  -1   1   9   17.98    1.23
  -1   1   9   24.01    1.84
   1   1  -9   19.58    1.13
  -1  -1  -9   10.08    0.94
  -1  -1  -9   10.84    0.98
   1  -1   9   11.71    1.50
  -1  -1  -9   11.50    1.27
  -1  -1  -9   10.22    0.80
   1  -1   9   11.52    1.32
  -1   1  -9   11.42    0.97
  -1   1  -9   11.37    1.01
   1   1   9    9.48    1.17
  -1   1  -9   10.59    1.26
   1   1   9   11.98    1.54
   3  -1   9   14.95    0.96
   3  -1   9   12.49    1.32
  -3  -1  -9   12.56    1.38
   3  -1   9   12.41    1.67
  -3  -1  -9   13.55    1.04
   3   1   9   17.88    1.82
  -3   1  -9   14.91    1.36
   3   1   9   12.94    1.11
   3   1   9   13.13    1.27
  -3   1  -9   14.40    1.14
   5  -1   9    5.02    1.18
  -5  -1  -9    4.54    0.91
   5  -1   9    3.83    0.68
  -5  -1  -9    5.57    0.73
   5  -1   9    3.78    0.81
   5   1   9    5.86    1.10
   5   1   9    5.41    0.81
  -5   1  -9    4.70    0.74
  -5   1  -9    4.82    0.89
   5   1   9    5.38    1.20
   7  -1   9    6.98    0.94
   7  -1   9    5.74    0.94
  -7  -1  -9    6.50    1.01
   7  -1   9    7.27    1.37
  -7  -1  -9    5.49    0.78
  -7   1  -9    7.32    1.04
   7   1   9    5.69    0.86
  -7   1  -9    5.56    1.01
   7   1   9    7.48    1.14
   7   1   9    6.25    1.35
  -9  -1  -9    3.09    0.69
   9  -1   9    5.87    0.94
  -9  -1  -9    4.56    0.93
   9   1   9    6.36    1.09
   9   1   9    2.67    1.31
  -9   1  -9    4.67    0.80
   9   1   9    4.92    0.78
  -9   1  -9    4.56    0.93
  11  -1   9    1.89    0.73
 -11  -1  -9    0.80    0.85
  11   1   9    2.41    1.04
 -11   1  -9    1.87    0.89
  11   1   9    0.44    0.66
  20  -2  -9    8.37    1.02
  20   2  -9    8.71    1.04
  20   2  -9    7.32    1.04
 -18  -2   9    2.07    0.99
  18  -2  -9    1.81    0.55
  18  -2  -9    1.17    0.59
  18  -2  -9    1.80    0.71
  18   2  -9    0.61    0.64
  18   2  -9    1.02    0.70
 -18   2   9    1.04    0.96
  18   2  -9    1.52    0.60
  16  -2  -9   16.35    1.44
  16  -2  -9   16.19    1.07
 -16  -2   9   15.02    1.75
  16  -2  -9   13.65    0.96
  16  -2  -9   15.86    1.27
 -16   2   9   16.69    1.66
  16   2  -9   14.01    0.96
  16   2  -9   12.86    1.06
  16   2  -9   13.62    1.30
  16   2  -9   14.28    1.20
 -14  -2   9    3.77    0.93
  14  -2  -9    3.43    0.46
 -14  -2   9    3.39    0.79
  14  -2  -9    2.79    0.68
  14  -2  -9    3.62    0.54
  14  -2  -9    2.36    0.81
 -14   2   9    2.71    0.86
  14   2  -9    3.46    0.72
  14   2  -9    3.32    0.76
  14   2  -9    3.05    0.45
  14   2  -9    3.28    0.69
  12  -2  -9   12.68    0.89
  12  -2  -9   13.07    0.85
 -12  -2   9   13.72    1.29
 -12  -2   9   12.91    0.64
 -12  -2   9   15.13    1.57
 -12  -2   9   13.97    0.76
  12  -2  -9   13.58    1.34
  12  -2  -9   14.52    1.27
  12   2  -9   13.13    1.30
  12   2  -9   13.13    1.20
  12   2  -9   13.90    1.01
 -12   2   9   14.13    1.48
 -12   2   9   13.06    0.65
 -12   2   9   12.75    0.79
  12   2  -9   12.59    0.79
 -10  -2   9    7.01    0.51
 -10  -2   9    6.12    1.10
  10  -2  -9    7.33    1.10
 -10  -2   9    7.16    1.13
  10  -2  -9    7.28    1.11
 -10  -2   9    7.11    0.62
  10  -2  -9    8.66    0.71
  10  -2  -9    7.98    0.73
  10   2  -9    6.93    1.11
 -10   2   9    6.56    0.93
  10   2  -9    7.20    0.86
 -10   2   9    8.65    1.32
 -10   2   9    6.57    0.56
 -10   2   9    7.75    1.09
 -10   2   9    7.04    0.67
  10   2  -9    7.24    0.56
  -8  -2   9    8.56    1.63
  -8  -2   9   11.62    0.77
   8  -2  -9   10.57    0.95
   8  -2  -9   12.21    1.22
  -8  -2   9   10.66    0.67
   8  -2  -9   10.86    0.56
  -8  -2   9   10.59    1.42
   8  -2  -9    9.08    0.74
  -8   2   9   11.38    0.82
  -8   2   9   10.97    0.73
   8   2  -9   11.42    0.54
   8   2  -9   11.16    0.63
  -8   2   9   12.47    1.44
  -8   2   9   10.44    1.33
   8   2  -9   11.28    0.95
   8   2  -9   12.12    1.27
  -6  -2   9   10.03    1.37
   6  -2  -9    9.11    1.18
   6  -2  -9   12.09    0.74
   6  -2  -9    9.23    0.80
   6  -2  -9    9.00    0.65
  -6  -2   9    9.21    0.72
   6  -2  -9   10.01    0.67
  -6   2   9   11.44    1.38
  -6   2   9   11.04    1.33
   6   2  -9   10.49    0.92
   6   2  -9   11.22    0.63
   6   2  -9    9.60    0.63
   6   2  -9    9.80    0.58
   6   2  -9   11.27    1.30
  -6   2   9   10.57    0.82
   4  -2  -9   14.56    0.88
  -4  -2   9   13.43    1.48
   4  -2  -9   15.05    1.37
   4  -2  -9   13.94    0.85
   4  -2  -9   12.98    1.02
   4  -2  -9   13.59    0.94
   4   2  -9   14.42    1.41
   4   2  -9   14.20    0.83
  -4   2   9   16.35    1.59
   4   2  -9   14.45    1.07
   4   2  -9   14.00    0.90
   4   2  -9   15.46    0.70
  -4   2   9   14.73    1.41
   2  -2  -9   17.59    1.10
   2  -2  -9   19.21    1.08
   2  -2  -9   16.76    1.44
   2  -2  -9   19.07    1.00
  -2  -2   9   19.54    1.65
  -2  -2   9   17.61    1.13
  -2  -2   9   20.06    1.59
   2   2  -9   17.45    1.04
  -2   2   9   20.18    1.49
   2   2  -9   17.77    1.50
  -2   2   9   17.92    1.19
   2   2  -9   17.22    1.18
  -2   2   9   19.09    1.70
   0  -2  -9    4.52    0.63
   0  -2   9    5.45    1.01
   0  -2  -9    4.93    0.67
   0  -2  -9    4.56    0.90
   0  -2  -9    5.00    0.75
   0  -2   9    4.28    0.93
   0   2   9    5.19    1.14
   0   2  -9    4.05    0.93
   0   2  -9    4.18    0.68
   0   2  -9    5.74    0.77
   0   2   9    5.91    0.91
  -2  -2  -9   15.72    1.01
   2  -2   9   18.02    1.55
   2  -2   9   19.66    1.77
  -2  -2  -9   18.51    1.19
  -2  -2  -9   18.39    1.51
  -2   2  -9   20.18    1.57
   2   2   9   19.44    1.42
   2   2   9   21.34    1.90
  -2   2  -9   20.72    1.32
  -4  -2  -9    2.94    0.59
   4  -2   9    3.63    0.84
   4  -2   9    2.67    1.03
  -4  -2  -9    3.35    0.84
  -4   2  -9    3.91    0.75
   4   2   9    3.78    1.07
   4   2   9    2.86    0.73
   4   2   9    2.27    0.72
  -4   2  -9    2.22    0.74
  -6  -2  -9   10.05    1.32
   6  -2   9    9.14    1.44
   6  -2   9    7.61    1.08
  -6  -2  -9    7.86    0.97
   6   2   9   10.15    1.27
   6   2   9    9.98    1.08
   6   2   9   10.63    1.73
  -6   2  -9    9.79    1.13
  -6   2  -9    6.97    1.04
   8  -2   9    4.65    0.88
  -8  -2  -9    3.98    0.75
   8  -2   9    4.21    1.29
  -8  -2  -9    3.94    0.91
   8   2   9    4.44    0.75
   8   2   9    5.44    1.01
  -8   2  -9    2.77    0.78
  -8   2  -9    3.96    0.92
   8   2   9    6.24    1.44
 -10  -2  -9    3.80    0.96
  10  -2   9    2.29    0.82
 -10   2  -9    4.62    1.02
  10   2   9    3.94    0.96
  10   2   9    4.54    1.11
  19  -3  -9    6.65    1.06
 -19  -3   9    3.64    1.08
  19  -3  -9    5.17    0.74
  19  -3  -9    4.69    1.11
  19   3  -9    3.73    0.74
  19   3  -9    5.59    0.89
  19   3  -9    5.14    0.80
  17  -3  -9   12.75    1.20
  17  -3  -9   13.30    1.40
 -17  -3   9   11.25    1.43
  17  -3  -9   12.31    1.03
  17   3  -9   11.40    1.13
  17   3  -9   12.51    0.99
 -17   3   9   12.32    1.68
  17   3  -9   11.80    1.29
  15  -3  -9    7.55    0.85
  15  -3  -9    6.71    1.07
 -15  -3   9    7.24    1.24
  15  -3  -9    6.76    1.22
  15   3  -9    6.26    0.83
 -15   3   9   10.15    1.51
  15   3  -9    6.44    0.90
  15   3  -9    7.44    1.13
  13  -3  -9   18.05    1.57
  13  -3  -9   16.63    1.34
 -13  -3   9   18.23    1.36
 -13  -3   9   19.03    1.72
 -13  -3   9   14.90    0.90
  13  -3  -9   15.59    0.90
  13   3  -9   18.11    1.29
 -13   3   9   19.03    1.73
  13   3  -9   17.40    1.21
  13   3  -9   19.08    1.46
  13   3  -9   16.09    0.97
 -13   3   9   17.43    0.94
  11  -3  -9    7.50    1.06
 -11  -3   9    5.83    0.61
  11  -3  -9    7.57    0.64
  11  -3  -9    6.27    1.09
 -11  -3   9    7.21    1.17
  11   3  -9    7.81    1.17
 -11   3   9    7.50    1.12
  11   3  -9    5.59    0.63
 -11   3   9    6.10    0.71
  11   3  -9    8.31    0.90
   9  -3  -9   31.49    2.05
   9  -3  -9   27.84    1.79
   9  -3  -9   29.10    1.36
  -9  -3   9   29.13    1.35
   9  -3  -9   30.39    1.42
  -9  -3   9   30.63    1.70
  -9  -3   9   31.91    2.09
   9   3  -9   29.96    1.32
   9   3  -9   32.62    1.94
  -9   3   9   33.64    2.09
  -9   3   9   26.90    1.45
  -9   3   9   30.97    1.49
   9   3  -9   31.35    1.58
   7  -3  -9    7.22    0.70
  -7  -3   9    8.17    1.18
   7  -3  -9    7.72    0.59
   7  -3  -9    7.87    0.54
  -7  -3   9    7.72    1.09
   7  -3  -9    7.47    1.09
   7  -3  -9    8.21    0.74
   7   3  -9    7.43    0.90
   7   3  -9    7.79    0.58
   7   3  -9    7.62    0.56
  -7   3   9    9.06    1.21
   7   3  -9    7.71    1.17
   7   3  -9    7.18    0.50
  -7   3   9    8.77    1.26
   5  -3  -9   36.11    1.63
  -5  -3   9   36.08    1.95
  -5  -3   9   38.48    2.31
   5  -3  -9   37.23    1.57
   5  -3  -9   37.97    1.63
   5  -3  -9   36.52    2.06
   5   3  -9   36.12    1.48
  -5   3   9   30.98    1.78
  -5   3   9   38.23    2.07
   5   3  -9   36.79    1.53
  -5   3   9   41.79    2.34
   5   3  -9   37.73    1.81
   5   3  -9   37.92    2.18
  -3  -3   9    8.10    1.18
   3  -3  -9    7.42    0.77
  -3  -3   9    7.88    0.82
   3  -3  -9    7.79    0.74
  -3  -3   9    8.31    1.06
   3  -3  -9    7.04    0.74
   3  -3  -9    8.34    1.16
   3   3  -9    8.58    0.97
  -3   3   9    8.53    1.40
   3   3  -9    7.78    1.21
   3   3  -9    8.28    0.73
  -3   3   9    7.83    1.15
   3   3  -9    8.53    0.56
  -3   3   9    7.99    0.94
   1  -3  -9   22.95    1.25
   1  -3  -9   22.74    1.29
   1  -3  -9   23.49    1.22
   1  -3  -9   22.67    1.67
  -1  -3   9   23.26    2.73
  -1  -3   9   22.93    1.82
   1   3  -9   23.33    1.03
  -1   3   9   24.98    1.90
  -1   3   9   23.96    1.57
   1   3  -9   22.84    1.75
   1   3  -9   25.39    1.45
   1   3  -9   22.76    1.28
  -1  -3  -9   12.55    0.98
   1  -3   9   13.68    1.44
   1  -3   9   12.54    1.49
  -1  -3  -9   13.09    1.38
  -1   3  -9   12.64    1.41
  -1   3  -9   11.25    1.13
   1   3   9   13.46    1.24
   1   3   9   14.87    1.70
   3  -3   9   16.17    1.70
   3  -3   9   15.24    1.55
  -3  -3  -9   14.62    1.07
  -3  -3  -9   15.83    1.46
  -3   3  -9   15.16    1.24
  -3   3  -9   16.02    1.54
   3   3   9   17.07    1.87
   3   3   9   17.63    1.34
   5  -3   9    8.29    1.30
  -5  -3  -9    8.91    1.29
  -5  -3  -9    6.04    0.86
   5  -3   9    7.14    1.25
  -5   3  -9    7.07    0.91
  -5   3  -9    8.40    1.30
   5   3   9    7.83    1.42
   5   3   9   10.05    1.08
   5   3   9    7.11    0.98
  -7  -3  -9    6.73    0.99
   7  -3   9    5.45    1.00
  -7  -3  -9    9.41    1.32
   7  -3   9    5.94    1.36
  -7   3  -9    7.07    0.94
  -7   3  -9    6.25    1.01
   7   3   9    6.71    1.39
   7   3   9    7.65    1.00
   7   3   9    7.41    1.10
  -9  -3  -9    2.90    0.95
  -9  -3  -9    4.35    0.98
   9  -3   9    3.66    0.91
   9   3   9    3.46    1.01
  -9   3  -9    4.73    0.97
   9   3   9    4.00    0.74
  18  -4  -9    3.29    0.72
  18  -4  -9    3.22    0.70
 -18  -4   9    2.44    1.10
  18  -4  -9    2.52    0.97
  18   4  -9    3.32    0.77
  18   4  -9    1.71    0.77
  18   4  -9    2.04    0.62
 -16  -4   9   10.73    1.71
  16  -4  -9   14.30    1.11
 -16  -4   9   12.66    1.93
  16  -4  -9   13.19    1.24
  16  -4  -9   12.76    1.50
 -16   4   9   17.98    1.82
  16   4  -9   10.56    1.20
  16   4  -9   13.06    1.39
  16   4  -9   15.12    1.04
  14  -4  -9    4.16    1.00
 -14  -4   9    3.38    1.08
  14  -4  -9    3.13    0.74
  14   4  -9    3.62    0.69
  14   4  -9    3.32    0.57
  14   4  -9    3.38    0.70
 -14   4   9    3.61    1.04
  14   4  -9    3.09    0.78
 -14   4   9    4.24    0.55
  12  -4  -9   14.44    1.41
 -12  -4   9   15.74    1.23
  12  -4  -9   16.98    1.64
 -12  -4   9   21.60    1.83
 -12  -4   9   14.73    0.95
 -12   4   9   17.22    1.67
  12   4  -9   16.45    1.49
  12   4  -9   15.37    1.00
  12   4  -9   17.93    1.24
  10  -4  -9   11.02    1.25
  10  -4  -9   11.60    1.44
 -10  -4   9   13.01    1.55
 -10  -4   9   10.70    1.06
  10  -4  -9   10.97    0.73
  10   4  -9   11.32    0.82
  10   4  -9   12.41    1.10
  10   4  -9   11.77    1.32
 -10   4   9   11.24    1.51
   8  -4  -9   11.46    1.50
  -8  -4   9    9.60    1.52
   8  -4  -9   10.68    0.76
  -8  -4   9    9.14    1.25
   8  -4  -9   12.86    1.28
  -8   4   9    8.56    0.93
  -8   4   9   13.19    1.55
   8   4  -9   12.11    1.34
   8   4  -9    9.53    0.66
   8   4  -9   11.04    0.67
   8   4  -9   11.85    0.93
   8   4  -9   11.84    1.08
  -8   4   9   15.02    1.34
  -6  -4   9    9.58    1.06
   6  -4  -9    9.85    0.78
  -6  -4   9    9.73    1.38
  -6  -4   9   11.12    0.84
   6  -4  -9   10.88    0.71
   6  -4  -9   11.05    1.25
  -6   4   9    9.13    0.97
   6   4  -9   10.60    0.68
   6   4  -9    9.54    1.04
   6   4  -9    9.66    1.34
  -6   4   9   10.80    1.41
   6   4  -9   10.36    0.73
  -4  -4   9   17.29    1.79
   4  -4  -9   17.05    1.03
   4  -4  -9   17.69    1.03
   4  -4  -9   16.37    1.49
  -4  -4   9   16.81    1.10
  -4  -4   9   17.08    1.29
   4   4  -9   17.03    0.91
  -4   4   9   19.42    1.75
   4   4  -9   16.64    0.98
   4   4  -9   17.87    1.26
   4   4  -9   19.03    1.62
  -4   4   9   16.16    1.29
   2  -4  -9   16.66    1.12
   2  -4  -9   17.94    1.06
  -2  -4   9   18.91    1.82
  -2  -4   9   17.02    1.40
   2  -4  -9   18.76    1.54
   2   4  -9   17.36    1.09
  -2   4   9   17.31    1.36
   2   4  -9   18.07    0.94
  -2   4   9   18.46    1.77
   2   4  -9   15.98    1.28
   2   4  -9   19.72    1.63
   0  -4  -9    6.35    1.01
   0  -4  -9    6.74    0.76
   0  -4   9    7.77    1.14
   0  -4   9    6.81    1.20
   0   4  -9    5.57    1.03
   0   4  -9    8.18    1.06
   0   4   9    8.10    1.28
   0   4  -9    7.90    0.70
   0   4   9    7.65    1.05
  -2  -4  -9   19.40    1.59
   2  -4   9   18.78    1.69
   2  -4   9   19.53    1.71
  -2  -4  -9   17.04    1.13
   2   4   9   21.91    1.75
  -2   4  -9   17.37    1.35
  -2   4  -9   17.77    1.62
   2   4   9   20.06    1.93
   4  -4   9    3.91    1.02
   4  -4   9    2.79    1.02
  -4  -4  -9    3.05    0.58
  -4  -4  -9    3.25    0.92
  -4   4  -9    5.50    0.99
  -4   4  -9    3.81    0.96
   4   4   9    3.96    0.88
   4   4   9    4.70    0.74
   4   4   9    5.45    1.22
   6  -4   9    5.92    1.27
  -6  -4  -9    7.07    1.10
   6  -4   9    5.65    1.03
  -6  -4  -9    6.45    0.89
   6   4   9    7.63    0.98
  -6   4  -9    5.79    1.04
   6   4   9    7.42    1.03
   6   4   9    7.01    1.46
  -6   4  -9    6.12    1.05
   8  -4   9    3.83    1.29
   8  -4   9    3.66    0.91
  -8  -4  -9    4.63    1.04
  -8  -4  -9    4.28    0.77
  -8   4  -9    4.87    1.03
   8   4   9    3.99    0.71
  -8   4  -9    3.78    1.44
   8   4   9    4.09    1.03
 -10  -4  -9    2.64    1.07
 -10   4  -9    2.46    0.95
  10   4   9    4.87    1.13
  17  -5  -9    6.94    1.09
  17  -5  -9    4.41    1.14
  17  -5  -9    7.08    1.05
 -17  -5   9    4.71    1.23
  17   5  -9    6.35    0.99
  17   5  -9    7.98    0.95
  17   5  -9    5.02    1.13
  15  -5  -9    4.39    1.14
  15  -5  -9    3.09    0.71
 -15  -5   9    2.27    1.09
 -15  -5   9    2.74    1.58
 -15   5   9    3.21    1.14
  15   5  -9    2.26    0.84
  15   5  -9    2.26    0.76
  15   5  -9    3.20    0.61
 -13  -5   9    8.36    1.55
  13  -5  -9    7.64    1.13
 -13  -5   9    7.87    1.36
  13  -5  -9    7.79    1.49
 -13   5   9    5.83    1.21
  13   5  -9    7.82    0.85
 -13   5   9    6.53    0.89
  13   5  -9    7.86    1.11
  13   5  -9    9.44    1.32
 -11  -5   9    4.26    0.56
  11  -5  -9    4.82    1.10
 -11  -5   9    4.17    0.67
  11  -5  -9    3.66    0.79
 -11  -5   9    3.94    1.06
  11   5  -9    4.82    0.81
 -11   5   9    3.19    0.63
  11   5  -9    3.85    0.63
  11   5  -9    4.36    0.94
 -11   5   9    4.88    1.09
   9  -5  -9   12.06    0.77
  -9  -5   9   14.62    1.76
  -9  -5   9   12.88    1.05
   9  -5  -9   13.28    1.56
   9  -5  -9   15.56    1.42
  -9  -5   9   13.31    0.93
  -9   5   9   13.96    1.64
   9   5  -9   13.86    1.52
  -9   5   9   12.87    1.13
   9   5  -9   14.40    1.21
   9   5  -9   12.78    1.11
   7  -5  -9    4.20    0.54
   7  -5  -9    3.45    0.87
  -7  -5   9    4.77    1.11
  -7  -5   9    2.94    0.56
  -7  -5   9    3.24    0.64
   7  -5  -9    3.92    1.08
  -7   5   9    3.37    0.89
   7   5  -9    4.33    0.51
   7   5  -9    3.64    0.73
   7   5  -9    3.39    0.90
   7   5  -9    3.80    0.58
   5  -5  -9   15.67    1.03
  -5  -5   9   16.19    1.27
  -5  -5   9   18.68    1.89
   5  -5  -9   18.99    1.60
   5   5  -9   17.40    1.34
   5   5  -9   19.02    1.69
   5   5  -9   19.62    1.06
   5   5  -9   18.20    1.19
  -5   5   9   17.44    1.70
  -3  -5   9    3.04    1.09
  -3  -5   9    3.49    0.73
   3  -5  -9    2.61    0.59
   3  -5  -9    3.61    0.89
   3  -5  -9    4.96    0.68
   3   5  -9    3.41    0.59
   3   5  -9    4.23    0.75
   3   5  -9    5.51    1.01
   3   5  -9    3.26    0.53
  -3   5   9    3.19    1.08
  -1  -5   9   13.16    1.70
   1  -5  -9   11.42    1.37
   1  -5  -9   11.26    0.86
  -1  -5   9   10.30    1.19
   1   5  -9    9.37    0.93
   1   5  -9   10.43    1.52
   1   5  -9   10.01    1.19
  -1   5   9   11.43    1.66
   1  -5   9    6.38    1.04
   1  -5   9    7.21    1.30
  -1  -5  -9    6.83    0.80
  -1  -5  -9    7.34    1.10
   1   5   9    7.28    1.23
  -1   5  -9    8.07    1.13
  -1   5  -9    6.81    0.69
  -1   5  -9    5.58    1.08
  -3  -5  -9    9.67    0.89
  -3  -5  -9    8.49    1.19
   3  -5   9    9.64    1.42
   3  -5   9   10.67    1.67
   3   5   9   10.57    1.78
  -3   5  -9    7.39    1.21
  -3   5  -9    8.38    1.18
   5  -5   9    2.75    1.08
  -5  -5  -9    2.56    0.61
  -5  -5  -9    3.94    0.97
   5  -5   9    2.90    1.11
   5   5   9    5.15    1.01
  -5   5  -9    4.41    0.90
   5   5   9    3.74    1.27
  -5   5  -9    3.64    1.03
   7  -5   9    4.26    1.27
  -7  -5  -9    4.17    0.97
  -7  -5  -9    3.27    0.70
   7  -5   9    1.42    1.00
   7   5   9    3.72    1.00
  -7   5  -9    4.05    1.03
  -9  -5  -9    1.31    0.93
   9   5   9    3.44    1.08
  -9   5  -9    1.93    0.99
  16  -6  -9    9.39    1.31
 -16  -6   9   14.26    2.01
  16   6  -9    9.40    1.56
  16   6  -9    9.50    1.07
  14  -6  -9    5.34    0.97
  14  -6  -9    5.46    1.30
 -14  -6   9    5.79    1.36
  14   6  -9    9.20    1.38
  14   6  -9    6.47    0.91
  14   6  -9    5.96    0.95
  12  -6  -9   12.84    1.34
  12  -6  -9   12.25    1.76
 -12  -6   9   12.00    1.89
 -12  -6   9   10.39    1.56
 -12   6   9   10.85    1.73
  12   6  -9   11.83    1.03
  12   6  -9   13.29    1.37
 -10  -6   9    5.85    1.21
 -10  -6   9    7.94    1.43
  10  -6  -9    9.22    1.26
  10  -6  -9    7.96    1.39
 -10   6   9    8.79    1.32
  10   6  -9    6.74    0.88
  10   6  -9    8.70    1.27
   8  -6  -9   10.79    0.83
   8  -6  -9   12.72    1.38
   8  -6  -9   14.36    1.70
  -8  -6   9   12.02    1.59
   8   6  -9   12.85    0.96
   8   6  -9   10.43    1.23
   8   6  -9   10.52    0.71
  -8   6   9    9.85    1.55
   6  -6  -9   13.37    1.68
   6  -6  -9   10.02    0.87
  -6  -6   9    9.95    1.53
   6  -6  -9    9.65    0.75
   6  -6  -9    9.86    1.37
   6   6  -9    8.85    0.88
   6   6  -9   11.29    1.23
  -6   6   9   10.23    1.59
   6   6  -9    9.93    0.84
   4  -6  -9   14.67    1.56
   4  -6  -9   16.08    1.88
  -4  -6   9   14.54    1.86
   4  -6  -9   13.07    0.88
   4   6  -9   12.75    0.96
   4   6  -9   13.03    1.38
  -4   6   9   10.28    1.59
  -2  -6   9   12.08    1.89
   2  -6  -9   15.68    1.60
   2  -6  -9   15.41    0.98
   2   6  -9   14.40    0.99
  -2   6   9   14.57    1.79
   2   6  -9   12.92    1.34
   0  -6  -9    6.55    0.78
   0  -6   9    6.96    1.14
   0  -6   9    6.89    1.37
   0  -6  -9    7.06    1.10
   0   6   9    4.92    1.15
   0   6  -9    6.88    0.78
   0   6  -9    6.16    0.95
   2  -6   9   12.54    1.70
   2  -6   9    9.81    1.57
  -2  -6  -9   11.66    1.50
  -2  -6  -9   11.99    0.96
  -2   6  -9   10.26    0.89
  -2   6  -9   12.71    1.67
   2   6   9   13.67    1.82
  -2   6  -9   12.06    1.60
  -4  -6  -9    3.54    1.02
   4  -6   9    4.30    1.49
  -4  -6  -9    3.87    0.66
   4  -6   9    4.77    1.37
  -4   6  -9    4.28    1.08
   4   6   9    3.60    1.20
  -4   6  -9    5.45    0.94
  -6  -6  -9    5.29    1.10
  -6  -6  -9    6.35    0.84
   6  -6   9    7.58    2.07
  -6   6  -9    3.83    1.15
   6   6   9    5.24    1.17
 -13  -7   9    8.92    1.57
  13  -7  -9    7.54    1.13
  13   7  -9   10.10    1.07
 -11  -7   9   10.55    1.59
  11  -7  -9    8.12    1.37
 -11  -7   9   10.08    2.93
  11  -7  -9   10.32    2.33
  11   7  -9    7.98    0.98
   9  -7  -9   13.75    1.56
  -9  -7   9   14.86    1.87
   9  -7  -9   13.61    2.00
  -9  -7   9   11.04    1.68
   9   7  -9   12.06    1.04
  -9   7   9   14.88    1.86
   9   7  -9   11.39    1.52
   7  -7  -9    6.62    1.38
   7  -7  -9    5.52    1.01
  -7  -7   9    3.89    1.36
  -7   7   9    5.14    1.20
   7   7  -9    4.75    0.96
   7   7  -9    5.84    0.79
   7   7  -9    5.66    0.85
   5  -7  -9   15.09    1.70
   5  -7  -9   11.50    0.94
   5  -7  -9   17.01    1.94
  -5  -7   9   14.92    2.09
  -5   7   9   13.97    1.71
   5   7  -9   16.26    1.44
  -3  -7   9    6.48    1.85
   3  -7  -9    7.86    0.99
   3  -7  -9    5.46    1.16
   3  -7  -9    7.14    1.52
  -3   7   9    7.38    1.25
   3   7  -9    6.30    0.97
   1  -7  -9   10.01    0.90
  -1  -7   9    9.03    1.73
   1  -7  -9   11.26    1.64
   1   7  -9   10.20    0.92
   1   7  -9    7.39    1.04
  -1   7   9   12.65    1.86
  -1  -7  -9    6.79    1.21
  -1  -7  -9    8.58    0.90
   1  -7   9    6.43    1.51
  -1   7  -9    8.49    0.88
  -1   7  -9    5.90    1.10
   1   7   9    7.51    1.36
  -3  -7  -9    9.77    1.01
  -3  -7  -9    8.08    1.68
  -3   7  -9    7.67    0.90
  -5  -7  -9    4.52    0.75
 -10  -8   9    2.61    1.65
  10   8  -9    1.79    0.64
  -8  -8   9    1.66    1.67
  -8  -8   9    5.83    1.86
   8   8  -9    5.46    0.77
  -6  -8   9    6.12    2.07
   6   8  -9    4.36    0.68
   4   8  -9    8.23    0.94
   2  -8  -9    4.21    0.64
   2   8  -9    5.09    0.71
   0  -8  -9    3.77    0.61
   0   8  -9    5.20    0.74
  -2  -8  -9    4.39    0.73
  -2   8  -9    4.15    0.72
  16   0 -10   11.68    0.99
  16   0 -10   11.39    1.33
  16   0 -10   14.84    2.36
 -16   0  10   14.20    1.67
  14   0 -10    3.07    0.57
  14   0 -10    1.99    0.77
 -14   0  10    3.24    0.98
  14   0 -10    2.49    0.82
 -14   0  10    1.65    0.97
  12   0 -10   23.12    1.75
  12   0 -10   26.35    1.37
  12   0 -10   25.91    1.81
 -12   0  10   25.86    1.87
 -12   0  10   27.21    2.11
  10   0 -10    6.22    0.84
  10   0 -10    6.12    0.99
 -10   0  10    8.13    1.25
 -10   0  10    5.97    1.05
  -8   0  10   15.67    1.69
   8   0 -10   16.58    1.52
  -8   0  10   14.66    1.59
   8   0 -10   15.92    1.10
  -8   0  10   15.32    0.98
   6   0 -10    5.24    0.51
  -6   0  10    3.63    0.61
   6   0 -10    5.02    1.04
  -6   0  10    3.73    0.94
   6   0 -10    5.27    0.70
  -6   0  10    5.80    1.22
  -4   0  10   20.59    1.77
  -4   0  10   19.04    1.80
   4   0 -10   20.12    1.08
   4   0 -10   20.17    1.68
   4   0 -10   20.72    1.40
   2   0 -10    5.10    1.01
  -2   0  10    6.60    1.18
  -2   0  10    3.97    0.92
   2   0 -10    6.08    0.80
   2   0 -10    5.23    0.69
   0   0 -10   13.40    1.47
   0   0  10   13.39    1.47
   0   0  10   15.93    1.82
   0   0 -10   13.94    1.12
   2   0  10    7.43    1.39
   2   0  10    8.46    1.32
  -2   0 -10    9.20    1.45
  -2   0 -10    8.32    1.03
   4   0  10    4.51    1.30
  -4   0 -10    2.73    0.93
  -4   0 -10    2.39    0.67
   4   0  10    3.22    0.83
  -6   0 -10    5.19    1.08
   6   0  10    4.32    1.42
   6   0  10    5.81    1.01
 -17  -1  10    4.81    1.03
  17  -1 -10    1.77    0.81
  17  -1 -10    3.63    0.92
 -17   1  10    3.02    1.13
  17   1 -10    2.50    0.61
  17   1 -10    3.27    0.97
  17   1 -10    3.56    0.86
 -15  -1  10    8.82    1.42
  15  -1 -10   11.60    1.32
  15  -1 -10    9.31    0.89
 -15  -1  10   12.77    1.49
  15  -1 -10   12.74    1.41
  15   1 -10   11.68    1.60
  15   1 -10    9.89    1.22
 -15   1  10   12.11    1.67
  15   1 -10   10.21    0.97
 -13  -1  10    3.89    1.09
  13  -1 -10    6.99    1.19
  13  -1 -10    8.56    1.23
  13  -1 -10    5.19    0.62
 -13  -1  10    6.52    1.03
 -13   1  10    4.81    1.01
  13   1 -10    7.02    1.21
 -13   1  10    3.37    1.05
  13   1 -10    4.67    0.69
  13   1 -10    5.85    0.98
 -11  -1  10    5.90    0.99
  11  -1 -10    7.42    0.82
  11  -1 -10    7.17    1.26
 -11  -1  10    4.62    1.16
  11  -1 -10    7.40    1.20
 -11  -1  10    7.41    0.88
  11   1 -10    5.54    0.81
  11   1 -10    6.93    1.04
 -11   1  10    9.23    1.48
 -11   1  10    7.36    1.19
  -9  -1  10    7.78    1.29
  -9  -1  10    9.75    1.35
   9  -1 -10    8.90    0.84
   9  -1 -10    9.21    1.23
  -9   1  10    7.49    1.25
  -9   1  10    6.97    1.16
   9   1 -10    8.38    1.32
   9   1 -10    6.70    0.85
   7  -1 -10    8.31    1.27
  -7  -1  10    7.49    1.24
   7  -1 -10    7.62    0.94
  -7  -1  10    5.54    0.80
  -7  -1  10    7.85    1.28
  -7   1  10   10.34    1.68
  -7   1  10    6.72    1.12
  -7   1  10    6.77    0.82
   7   1 -10    7.24    1.26
   7   1 -10    7.22    0.87
   5  -1 -10   13.56    0.81
   5  -1 -10   12.40    0.96
  -5  -1  10   15.53    1.54
   5  -1 -10   12.73    1.56
  -5  -1  10   13.20    1.96
  -5   1  10   14.43    1.52
   5   1 -10   14.96    1.48
   5   1 -10   13.09    0.79
   5   1 -10   12.56    1.05
  -5   1  10   13.91    1.62
   3  -1 -10    3.22    0.53
   3  -1 -10    2.63    0.89
  -3  -1  10    1.73    0.92
   3  -1 -10    3.44    0.60
  -3  -1  10    2.04    0.86
   3   1 -10    2.67    0.82
   3   1 -10    4.01    0.64
  -3   1  10    2.50    1.02
   3   1 -10    3.23    0.51
  -3   1  10    4.08    0.92
  -1  -1  10   10.90    1.36
   1  -1 -10   12.30    0.99
   1  -1 -10   11.17    1.48
  -1  -1  10   13.58    1.63
   1   1 -10   11.20    1.45
   1   1 -10   12.05    1.09
  -1   1  10   10.88    1.66
  -1   1  10   10.03    1.41
  -1  -1 -10    2.94    0.94
   1  -1  10    2.60    1.00
   1  -1  10    1.77    0.93
  -1  -1 -10    3.29    0.65
  -1   1 -10    2.36    0.85
   1   1  10    3.27    0.87
   1   1  10    3.40    1.14
  -1   1 -10    4.25    0.75
   3  -1  10    8.11    1.17
  -3  -1 -10    6.74    0.87
  -3  -1 -10    7.58    1.16
   3  -1  10    7.70    1.39
  -3   1 -10   10.45    1.17
   3   1  10   12.18    1.95
   3   1  10    8.86    1.27
  -3   1 -10    8.35    1.26
  -5  -1 -10    2.29    0.97
   5  -1  10    2.10    0.82
   5  -1  10    6.23    1.36
  -5  -1 -10    2.30    0.69
   5   1  10    2.66    0.82
   5   1  10    0.04    1.21
  -5   1 -10    2.38    0.85
  -5   1 -10    2.62    0.96
  -7  -1 -10    4.57    1.11
   7  -1  10    4.66    1.03
   7  -1  10    5.56    1.61
   7   1  10    5.94    0.98
  -7   1 -10    3.57    1.03
  16  -2 -10    7.06    1.49
 -16  -2  10   10.95    1.51
 -16  -2  10   11.24    2.09
  16  -2 -10    8.18    1.50
 -16   2  10    8.14    1.37
  16   2 -10    6.89    0.99
  14  -2 -10    0.80    0.70
  14  -2 -10    1.85    0.89
  14  -2 -10    1.46    0.62
 -14  -2  10    2.12    0.83
 -14  -2  10    2.01    1.09
 -14   2  10    0.75    0.98
  14   2 -10    2.03    0.74
  14   2 -10    0.33    0.68
  14   2 -10    1.60    0.56
 -12  -2  10   16.28    1.90
  12  -2 -10   16.42    1.47
 -12  -2  10   14.09    1.47
  12  -2 -10   14.48    1.21
  12  -2 -10   12.95    1.51
  12   2 -10   14.50    1.51
  12   2 -10   14.83    1.12
 -12   2  10   14.03    1.71
 -10  -2  10    2.59    1.03
 -10  -2  10    3.20    0.86
  10  -2 -10    2.22    0.74
  10  -2 -10    2.49    0.88
  10  -2 -10    2.07    0.48
 -10   2  10    2.75    0.95
 -10   2  10    1.93    0.48
 -10   2  10    4.08    1.04
  10   2 -10    1.31    0.76
  10   2 -10    2.41    0.55
  -8  -2  10   11.74    0.89
   8  -2 -10   12.45    1.35
  -8  -2  10   12.97    1.70
   8  -2 -10   13.32    0.93
  -8  -2  10   11.54    1.38
  -8   2  10   12.66    1.55
  -8   2  10   10.45    0.97
   8   2 -10   11.78    1.44
   8   2 -10   11.41    1.01
  -8   2  10    9.52    1.58
   6  -2 -10    3.92    0.52
   6  -2 -10    4.00    0.59
  -6  -2  10    2.44    0.83
   6  -2 -10    2.67    0.80
  -6  -2  10    2.24    0.94
   6   2 -10    3.75    0.49
  -6   2  10    3.49    0.96
   6   2 -10    2.95    0.86
   6   2 -10    3.87    0.67
  -6   2  10    4.29    0.92
  -4  -2  10   11.06    1.51
   4  -2 -10   10.99    0.87
   4  -2 -10   11.96    1.42
   4  -2 -10   10.77    0.91
  -4  -2  10   13.37    1.80
  -4   2  10   13.65    1.47
   4   2 -10    9.53    1.05
  -4   2  10   15.11    1.75
   4   2 -10    9.12    0.83
   4   2 -10   13.29    1.50
  -2  -2  10    2.21    0.92
   2  -2 -10    2.28    0.51
  -2  -2  10    3.36    0.96
   2  -2 -10    1.98    0.84
   2   2 -10    1.93    0.61
  -2   2  10    3.99    1.06
  -2   2  10    2.75    0.85
   2   2 -10    2.09    0.85
   0  -2  10    9.75    1.38
   0  -2 -10    8.93    0.95
   0  -2  10    8.96    1.32
   0  -2 -10    9.60    1.39
   0   2  10   12.59    1.31
   0   2 -10    9.44    1.38
   0   2  10   10.86    1.74
   0   2 -10    8.58    1.08
  -2  -2 -10    4.60    0.66
   2  -2  10    4.35    1.06
   2  -2  10    4.52    1.17
  -2  -2 -10    4.93    0.95
   2   2  10    5.40    0.91
   2   2  10    6.31    1.35
  -2   2 -10    3.67    0.93
  -2   2 -10    4.28    0.77
   4  -2  10    2.75    1.14
   4  -2  10    0.75    0.85
  -4  -2 -10    3.25    0.96
  -4  -2 -10    2.90    0.65
   4   2  10    2.08    0.75
  -4   2 -10    2.83    0.79
   4   2  10    0.72    1.18
  -4   2 -10    2.48    0.92
  -6  -2 -10    4.16    1.08
   6  -2  10    3.74    1.00
   6  -2  10    5.51    1.44
  -6   2 -10    3.89    1.05
   6   2  10    3.97    0.85
  15  -3 -10   10.51    1.54
 -15  -3  10    8.61    1.60
  15  -3 -10    8.03    1.36
 -15  -3  10   10.79    1.48
  15   3 -10    8.56    1.47
  15   3 -10   10.66    1.17
 -13  -3  10    6.55    1.35
  13  -3 -10    6.39    0.86
 -13  -3  10    9.00    1.32
  13  -3 -10    7.73    1.19
  13  -3 -10   10.53    1.50
  13   3 -10    7.69    1.01
  13   3 -10    9.47    1.19
  13   3 -10    7.05    1.11
 -13   3  10    6.29    1.23
 -11  -3  10   11.26    1.34
  11  -3 -10    9.75    1.49
  11  -3 -10   12.17    1.68
 -11  -3  10    8.06    0.77
 -11  -3  10   12.07    1.81
  11  -3 -10   11.50    0.85
  11   3 -10   11.05    1.44
 -11   3  10   12.98    1.74
 -11   3  10    9.20    0.87
  11   3 -10   10.93    1.09
   9  -3 -10   11.14    1.60
   9  -3 -10    9.44    1.33
  -9  -3  10    9.24    1.11
   9  -3 -10    9.09    0.79
  -9  -3  10    9.78    0.83
  -9  -3  10    8.74    1.38
  -9   3  10    9.75    1.40
   9   3 -10    6.87    0.98
  -9   3  10    7.40    1.13
   9   3 -10   11.41    1.46
  -7  -3  10    6.27    1.28
   7  -3 -10    8.22    1.31
  -7  -3  10    7.69    1.06
   7  -3 -10    7.17    0.79
  -7   3  10    7.81    1.51
  -7   3  10    8.68    1.37
   7   3 -10    8.34    1.38
   7   3 -10    7.34    0.96
   5  -3 -10   15.14    1.02
  -5  -3  10   13.36    1.43
   5  -3 -10   12.43    1.45
   5  -3 -10   14.67    0.90
  -5  -3  10   16.12    1.81
   5   3 -10   13.04    1.20
   5   3 -10   13.61    0.87
   5   3 -10   13.56    1.61
  -5   3  10   17.70    1.55
  -5   3  10   17.21    1.83
  -3  -3  10    7.97    1.14
   3  -3 -10    6.90    0.82
  -3  -3  10    6.31    1.25
   3  -3 -10    6.49    1.16
  -3   3  10    8.13    1.36
   3   3 -10    7.78    1.36
   3   3 -10    7.57    0.92
  -3   3  10    6.62    1.07
   1  -3 -10   12.65    1.00
   1  -3 -10   12.84    1.49
  -1  -3  10   11.76    1.54
  -1  -3  10   13.76    1.75
  -1   3  10   13.19    1.36
   1   3 -10   10.93    1.21
   1   3 -10   14.86    1.64
  -1   3  10   15.40    1.82
   1  -3  10    2.46    0.94
   1  -3  10    3.43    1.11
  -1  -3 -10    3.85    0.95
  -1  -3 -10    3.52    0.58
  -1   3 -10    4.36    0.84
   1   3  10    5.33    0.90
  -1   3 -10    2.60    0.90
   1   3  10    4.28    1.23
   3  -3  10    9.53    1.44
   3  -3  10    7.28    1.24
  -3  -3 -10    7.44    1.24
  -3  -3 -10    8.60    1.00
  -3   3 -10    7.85    1.27
   3   3  10   13.15    2.07
   3   3  10    7.26    1.17
  -3   3 -10    7.22    1.00
   5  -3  10    0.40    1.12
   5  -3  10    2.44    1.00
  -5  -3 -10    2.54    0.67
  -5  -3 -10    1.68    1.10
   5   3  10    1.34    0.75
   5   3  10    4.65    1.04
  -5   3 -10    2.19    0.97
  14  -4 -10    3.30    1.14
  14  -4 -10    2.49    0.64
 -14  -4  10    3.42    1.48
  14   4 -10    4.18    0.99
  14   4 -10    3.00    0.74
  12  -4 -10   10.31    1.45
 -12  -4  10    9.87    1.56
  12  -4 -10   12.31    1.79
  12   4 -10    9.34    1.38
  12   4 -10   12.11    1.23
 -12   4  10   11.57    1.25
 -12   4  10   13.61    1.98
 -10  -4  10    4.52    0.88
  10  -4 -10    3.05    1.07
  10  -4 -10    3.22    0.92
 -10  -4  10    2.34    1.16
  10  -4 -10    3.62    0.55
 -10   4  10    2.73    1.03
  10   4 -10    3.48    1.03
  10   4 -10    3.60    0.75
   8  -4 -10   14.90    1.79
   8  -4 -10   11.85    1.43
   8  -4 -10   13.59    1.04
  -8  -4  10   13.65    1.89
  -8  -4  10   14.92    1.56
  -8   4  10   13.93    1.79
   8   4 -10   10.20    1.55
   8   4 -10   13.88    1.26
   6  -4 -10    4.46    0.68
   6  -4 -10    5.86    1.08
  -6  -4  10    3.61    1.16
  -6  -4  10    5.70    0.97
   6  -4 -10    5.49    0.64
   6   4 -10    4.69    0.59
  -6   4  10    5.68    1.16
   6   4 -10    5.95    0.86
   6   4 -10    5.44    1.16
   4  -4 -10    9.41    0.85
  -4  -4  10    8.98    1.31
  -4  -4  10    7.72    1.44
   4  -4 -10    8.76    1.44
   4   4 -10    9.63    1.19
  -4   4  10   10.18    1.53
   4   4 -10    8.96    1.34
   4   4 -10   10.03    1.04
  -2  -4  10    4.12    0.99
   2  -4 -10    3.69    0.99
   2  -4 -10    3.34    0.58
  -2  -4  10    2.64    1.14
  -2   4  10    1.85    1.12
   2   4 -10    2.55    0.74
   2   4 -10    2.83    0.98
   0  -4  10    7.49    1.40
   0  -4  10    9.64    1.57
   0  -4 -10    8.98    0.95
   0  -4 -10   10.17    1.49
   0   4 -10   11.34    1.30
   0   4 -10   10.10    1.52
   0   4  10   13.09    1.92
   0   4  10   11.61    1.26
   2  -4  10    4.49    1.19
  -2  -4 -10    5.19    1.14
   2  -4  10    6.58    1.85
  -2  -4 -10    4.56    0.71
  -2   4 -10    4.46    1.11
   2   4  10    5.75    0.93
  -2   4 -10    6.10    1.34
   2   4  10    4.93    1.47
  -4  -4 -10    1.98    0.64
   4  -4  10    3.39    1.51
   4  -4  10    3.42    1.21
   4   4  10    2.78    0.75
  -4   4 -10    3.83    1.75
  13  -5 -10    3.21    0.85
  13   5 -10    4.02    1.12
  11  -5 -10    5.38    1.03
 -11  -5  10    4.17    1.64
  11  -5 -10    6.83    2.22
  11   5 -10    4.38    1.11
  11   5 -10    3.48    0.85
   9  -5 -10    2.97    1.21
   9  -5 -10    4.40    1.02
  -9  -5  10    3.44    1.34
   9   5 -10    4.79    0.87
  -9   5  10    4.67    1.24
   9   5 -10    5.14    1.12
  -7  -5  10    1.28    1.23
   7  -5 -10    3.23    0.99
   7  -5 -10    3.96    1.23
   7  -5 -10    3.50    0.52
   7   5 -10    4.03    1.12
  -7   5  10    4.29    1.11
   7   5 -10    4.21    0.85
   5  -5 -10    5.42    0.63
   5  -5 -10    6.62    1.18
  -5  -5  10    5.86    1.44
   5   5 -10    9.68    1.12
   5   5 -10    5.58    0.87
  -5   5  10    6.69    1.31
   5   5 -10    7.58    1.30
   3  -5 -10    3.15    0.56
  -3  -5  10    2.41    1.33
   3  -5 -10    2.79    0.98
  -3   5  10    2.32    1.22
   3   5 -10    2.34    0.78
   3   5 -10    2.94    1.10
   1  -5 -10    5.58    0.80
   1  -5 -10    5.31    1.42
  -1  -5  10    5.12    1.58
  -1   5  10    5.23    1.53
   1   5 -10    5.76    1.40
   1   5 -10    6.30    1.28
  -1  -5 -10    2.11    0.56
  -3  -5 -10    4.73    0.72
  10   6 -10    6.22    1.18
   8   6 -10    6.97    0.95
   6   6 -10    5.71    0.72
   4  -6 -10    8.98    1.20
   4   6 -10    7.43    0.85
   2  -6 -10    4.87    0.96
   2   6 -10    3.99    0.66
   0  -6 -10    6.12    0.74
  12   0 -11    8.98    0.98
 -12   0  11    6.76    1.29
  12   0 -11    7.90    1.79
 -10   0  11    4.12    1.13
  10   0 -11    4.94    0.68
   8   0 -11   14.31    1.21
  -8   0  11   13.57    1.87
  -6   0  11    4.25    1.14
   6   0 -11    7.02    0.97
   4   0 -11    5.94    0.80
  -2   0  11    0.38    1.28
  -2   0  11    2.00    1.17
   2   0 -11    1.47    0.64
   0   0  11    6.79    1.48
   0   0  11    8.71    1.99
 -11  -1  11   13.14    1.72
  11  -1 -11   10.03    1.76
  11  -1 -11   10.90    0.98
  11   1 -11    9.81    1.15
 -11   1  11   14.17    1.90
   9  -1 -11    1.51    0.52
  -9  -1  11    1.13    1.00
   9   1 -11    2.76    0.65
  -9   1  11    1.75    1.05
  -7  -1  11    6.67    1.22
   7  -1 -11    7.52    0.91
  -7   1  11    6.48    1.34
   7   1 -11    6.15    0.82
  -5  -1  11    4.26    1.14
   5  -1 -11    3.26    0.64
   5   1 -11    3.43    0.72
  -5   1  11    3.07    1.13
  -3  -1  11    6.61    1.33
   3  -1 -11    5.77    0.76
  -3   1  11    4.94    1.33
   3   1 -11    3.87    0.77
  -3   1  11    4.23    1.34
   1  -1 -11    2.93    0.70
  -1  -1  11    3.55    1.40
   1   1 -11    3.47    1.03
  -1   1  11    0.82    1.02
  -1   1  11    5.96    1.42
   1  -1  11    2.39    1.30
   1   1  11    3.06    1.70
   1   1  11    2.66    1.19
  10  -2 -11    2.98    1.30
  10  -2 -11    3.49    0.60
 -10  -2  11    2.00    0.97
 -10   2  11    1.61    1.25
  10   2 -11    2.52    0.69
   8  -2 -11    6.57    0.86
  -8  -2  11    9.16    1.25
   8   2 -11    9.62    1.14
  -8   2  11    8.12    1.50
  -6  -2  11    2.53    1.03
   6  -2 -11    3.60    0.61
  -6   2  11    3.83    1.20
   6   2 -11    2.70    0.72
  -4  -2  11    5.46    1.17
   4  -2 -11    6.09    0.80
  -4   2  11    5.49    1.40
   4   2 -11    8.07    1.13
  -2  -2  11    3.06    1.12
   2  -2 -11    0.74    0.55
  -2   2  11    1.63    1.11
  -2   2  11   -0.82    1.26
   0  -2 -11    3.96    0.68
   0  -2  11    4.80    1.24
   0   2  11    5.94    1.17
  -9  -3  11    2.75    1.03
   9  -3 -11    4.27    0.60
   9   3 -11    4.60    0.92
  -7  -3  11   10.14    1.60
   7  -3 -11   10.11    0.93
   7   3 -11    8.44    1.33
   5  -3 -11    4.91    0.68
  -5  -3  11    4.89    1.13
   3  -3 -11    3.88    0.66
  -3  -3  11    4.34    1.21
  -1  -3  11    2.36    1.13
   1  -3 -11    3.43    0.67
   6  -4 -11    3.02    0.59
   0   0   0    0.00    0.00
;
_shelx_hkl_checksum              41414
loop_
_space_group_symop_operation_xyz
'x, y, z'
'-x, y, -z'
'x+1/2, y+1/2, z'
'-x+1/2, y+1/2, -z'
'-x, -y, -z'
'x, -y, z'
'-x+1/2, -y+1/2, -z'
'x+1/2, -y+1/2, z'
loop_
_atom_site_label
_atom_site_type_symbol
_atom_site_fract_x
_atom_site_fract_y
_atom_site_fract_z
_atom_site_U_iso_or_equiv
_atom_site_adp_type
_atom_site_occupancy
_atom_site_site_symmetry_order
_atom_site_calc_flag
_atom_site_refinement_flags_posn
_atom_site_refinement_flags_adp
_atom_site_refinement_flags_occupancy
C1 C 0.89003(15) 0.3653(3) 0.3784(3) 0.0449(4) Uani 1 1 d . . .
H1 H 0.9046 0.2736 0.3232 0.054 Uiso 1 1 calc R U .
C2 C 0.84989(13) 0.3613(3) 0.5361(3) 0.0411(4) Uani 1 1 d . . .
H2 H 0.8372 0.2679 0.5902 0.049 Uiso 1 1 calc R U .
C3 C 0.82865(16) 0.5000 0.6129(4) 0.0359(5) Uani 1 2 d S T P
N1 N 0.90832(17) 0.5000 0.3036(4) 0.0431(5) Uani 1 2 d S T P
HN1 H 0.9329 0.5000 0.2032 0.052 Uiso 1 2 calc R U P
O1 O 0.53299(14) 0.5000 -0.2284(3) 0.0383(4) Uani 1 2 d S T P
Cl1 Cl 0.5000 0.80639(6) 0.0000 0.03763(12) Uani 1 2 d S T P
Cl2 Cl 0.66201(4) 0.5000 0.18813(12) 0.04324(14) Uani 1 2 d S T P
Br1 Br 0.76769(2) 0.5000 0.81786(5) 0.05551(9) Uani 1 2 d S T P
Np1 Np 0.5000 0.5000 0.0000 0.02227(4) Uani 1 4 d S T P
loop_
_atom_site_aniso_label
_atom_site_aniso_U_11
_atom_site_aniso_U_22
_atom_site_aniso_U_33
_atom_site_aniso_U_23
_atom_site_aniso_U_13
_atom_site_aniso_U_12
C1 0.0459(10) 0.0445(10) 0.0457(10) -0.0063(8) 0.0126(8) 0.0027(9)
C2 0.0405(9) 0.0400(9) 0.0428(9) 0.0047(8) 0.0086(7) 0.0002(8)
C3 0.0298(10) 0.0491(14) 0.0283(10) 0.000 0.0049(8) 0.000
N1 0.0433(12) 0.0540(15) 0.0345(10) 0.000 0.0137(9) 0.000
O1 0.0506(11) 0.0370(9) 0.0324(8) 0.000 0.0201(8) 0.000
Cl1 0.0522(3) 0.0182(2) 0.0462(3) 0.000 0.0188(3) 0.000
Cl2 0.0327(3) 0.0438(3) 0.0500(4) 0.000 0.0011(2) 0.000
Br1 0.04536(15) 0.0849(3) 0.04052(14) 0.000 0.01873(12) 0.000
Np1 0.02766(6) 0.01694(5) 0.02377(5) 0.000 0.00896(3) 0.000
loop_
_atom_type_symbol
_atom_type_description
_atom_type_scat_dispersion_real
_atom_type_scat_dispersion_imag
_atom_type_scat_source
C C 0.0015 0.0009 'International Tables Vol C Tables 4.2.6.8 and 6.1.1.4'
H H 0.0000 0.0000 'International Tables Vol C Tables 4.2.6.8 and 6.1.1.4'
N N 0.0030 0.0019 'International Tables Vol C Tables 4.2.6.8 and 6.1.1.4'
O O 0.0056 0.0036 'International Tables Vol C Tables 4.2.6.8 and 6.1.1.4'
Cl Cl 0.0998 0.0984 'International Tables Vol C Tables 4.2.6.8 and 6.1.1.4'
Br Br 0.1811 1.6452 'International Tables Vol C Tables 4.2.6.8 and 6.1.1.4'
Np Np -6.9995 9.5876 'International Tables Vol C Tables 4.2.6.8 and 6.1.1.4'
loop_
_geom_angle_atom_site_label_1
_geom_angle_atom_site_label_2
_geom_angle_atom_site_label_3
_geom_angle
_geom_angle_site_symmetry_1
_geom_angle_site_symmetry_3
N1 C1 C2 120.2(2) . .
N1 C1 H1 119.9 . .
C2 C1 H1 119.9 . .
C1 C2 C3 118.2(2) . .
C1 C2 H2 120.9 . .
C3 C2 H2 120.9 . .
C2 C3 C2 120.8(3) 6_565 .
C2 C3 Br1 119.60(13) 6_565 .
C2 C3 Br1 119.60(13) . .
C1 N1 C1 122.5(3) 6_565 .
C1 N1 HN1 118.8 6_565 .
C1 N1 HN1 118.8 . .
O1 Np1 O1 180.0 5_665 .
O1 Np1 Cl2 89.31(8) 5_665 5_665
O1 Np1 Cl2 90.69(8) . 5_665
O1 Np1 Cl2 90.69(8) 5_665 .
O1 Np1 Cl2 89.31(8) . .
Cl2 Np1 Cl2 180.0 5_665 .
O1 Np1 Cl1 90.0 5_665 .
O1 Np1 Cl1 90.0 . .
Cl2 Np1 Cl1 90.0 5_665 .
Cl2 Np1 Cl1 90.0 . .
O1 Np1 Cl1 90.0 5_665 5_665
O1 Np1 Cl1 90.0 . 5_665
Cl2 Np1 Cl1 90.0 5_665 5_665
Cl2 Np1 Cl1 90.0 . 5_665
Cl1 Np1 Cl1 180.0 . 5_665
loop_
_geom_bond_atom_site_label_1
_geom_bond_atom_site_label_2
_geom_bond_distance
_geom_bond_site_symmetry_2
C1 N1 1.332(3) .
C1 C2 1.367(3) .
C1 H1 0.9300 .
C2 C3 1.383(3) .
C2 H2 0.9300 .
C3 C2 1.383(3) 6_565
C3 Br1 1.869(3) .
N1 C1 1.332(3) 6_565
N1 HN1 0.8600 .
O1 Np1 1.7520(18) .
Cl1 Np1 2.6552(6) .
Cl2 Np1 2.6434(7) .
Np1 O1 1.7520(18) 5_665
Np1 Cl2 2.6434(7) 5_665
Np1 Cl1 2.6552(6) 5_665
loop_
_geom_hbond_atom_site_label_D
_geom_hbond_atom_site_label_H
_geom_hbond_atom_site_label_A
_geom_hbond_distance_DH
_geom_hbond_distance_HA
_geom_hbond_distance_DA
_geom_hbond_angle_DHA
_geom_hbond_site_symmetry_A
C1 H1 Cl1 0.93 2.95 3.460(2) 115.8 3_545
C2 H2 Cl2 0.93 2.77 3.682(2) 166.1 7_656
N1 HN1 Cl1 0.86 2.56 3.250(2) 138.5 3_545
N1 HN1 Cl1 0.86 2.56 3.250(2) 138.5 7_665
C1 H1 Cl1 0.93 2.95 3.460(2) 115.8 3_545
C2 H2 Cl2 0.93 2.77 3.682(2) 166.1 7_656
N1 HN1 Cl1 0.86 2.56 3.250(2) 138.5 3_545
N1 HN1 Cl1 0.86 2.56 3.250(2) 138.5 7_665
loop_
_geom_torsion_atom_site_label_1
_geom_torsion_atom_site_label_2
_geom_torsion_atom_site_label_3
_geom_torsion_atom_site_label_4
_geom_torsion
_geom_torsion_site_symmetry_4
N1 C1 C2 C3 0.5(3) .
C1 C2 C3 C2 -2.0(4) 6_565
C1 C2 C3 Br1 176.20(17) .
C2 C1 N1 C1 1.0(5) 6_565
