#------------------------------------------------------------------------------
#$Date: 2017-11-30 01:39:04 +0200 (Thu, 30 Nov 2017) $
#$Revision: 203794 $
#$URL: file:///home/coder/svn-repositories/cod/cif/4/12/67/4126782.cif $
#------------------------------------------------------------------------------
#
# This file is available in the Crystallography Open Database (COD),
# http://www.crystallography.net/
#
# All data on this site have been placed in the public domain by the
# contributors.
#
data_4126782
loop_
_publ_author_name
'Jin, Geng Bang'
'Lin, Jian'
'Estes, Shanna L.'
'Skanthakumar, Suntharalingam'
'Soderholm, Lynda'
_publ_section_title
;
 Influence of Counter-Cation Hydration Enthalpies on the Formation of
 Molecular Complexes: A Thorium-Nitrate Example.
;
_journal_name_full               'Journal of the American Chemical Society'
_journal_paper_doi               10.1021/jacs.7b09363
_journal_year                    2017
_chemical_formula_moiety         'Th (N O3)6 K2'
_chemical_formula_sum            'K2 N6 O18 Th'
_chemical_formula_weight         682.30
_chemical_name_common            'potassium thorium hexanitrate'
_space_group_crystal_system      monoclinic
_space_group_IT_number           14
_space_group_name_Hall           '-P 2yn'
_space_group_name_H-M_alt        'P 1 21/n 1'
_symmetry_space_group_name_Hall  '-P 2yn'
_symmetry_space_group_name_H-M   'P 1 21/n 1'
_audit_creation_method           SHELXL-2014/7
_cell_angle_alpha                90
_cell_angle_beta                 92.0410(4)
_cell_angle_gamma                90
_cell_formula_units_Z            2
_cell_length_a                   8.3768(3)
_cell_length_b                   6.6983(2)
_cell_length_c                   12.5535(4)
_cell_measurement_reflns_used    9873
_cell_measurement_temperature    100(2)
_cell_measurement_theta_max      27.62
_cell_measurement_theta_min      2.54
_cell_volume                     703.93(4)
_computing_cell_refinement       'Bruker SAINT'
_computing_data_collection       'Bruker APEX2'
_computing_data_reduction        'Bruker SAINT'
_computing_molecular_graphics    'CrystalMaker for Windows ver. 2.0.6 (2008)'
_computing_publication_material  'Bruker SHELXTL'
_computing_structure_refinement  'SHELXL-2014/7 (Sheldrick, 2014)'
_computing_structure_solution    'SHELXS-97 (Sheldrick 2008)'
_diffrn_ambient_temperature      100(2)
_diffrn_measured_fraction_theta_full 1.000
_diffrn_measured_fraction_theta_max 1.000
_diffrn_measurement_device_type  'Bruker APEX-II CCD'
_diffrn_measurement_method       '\f and \w scans'
_diffrn_radiation_type           MoK\a
_diffrn_radiation_wavelength     0.71073
_diffrn_reflns_av_R_equivalents  0.0193
_diffrn_reflns_av_unetI/netI     0.0127
_diffrn_reflns_Laue_measured_fraction_full 1.000
_diffrn_reflns_Laue_measured_fraction_max 1.000
_diffrn_reflns_limit_h_max       10
_diffrn_reflns_limit_h_min       -10
_diffrn_reflns_limit_k_max       8
_diffrn_reflns_limit_k_min       -8
_diffrn_reflns_limit_l_max       15
_diffrn_reflns_limit_l_min       -15
_diffrn_reflns_number            8076
_diffrn_reflns_point_group_measured_fraction_full 1.000
_diffrn_reflns_point_group_measured_fraction_max 1.000
_diffrn_reflns_theta_full        25.242
_diffrn_reflns_theta_max         26.342
_diffrn_reflns_theta_min         2.877
_diffrn_source                   'Mo Kalpha Microfocus X-ray Source'
_exptl_absorpt_coefficient_mu    11.309
_exptl_absorpt_correction_T_max  0.525
_exptl_absorpt_correction_T_min  0.333
_exptl_absorpt_correction_type   multi-scan
_exptl_absorpt_process_details   SADABS
_exptl_crystal_colour            colorless
_exptl_crystal_density_diffrn    3.219
_exptl_crystal_density_meas      ?
_exptl_crystal_density_method    'not measured'
_exptl_crystal_description       prism
_exptl_crystal_F_000             628
_exptl_crystal_size_max          0.116
_exptl_crystal_size_mid          0.084
_exptl_crystal_size_min          0.057
_refine_diff_density_max         0.522
_refine_diff_density_min         -0.326
_refine_diff_density_rms         0.080
_refine_ls_extinction_method     none
_refine_ls_goodness_of_fit_ref   1.086
_refine_ls_hydrogen_treatment    undef
_refine_ls_matrix_type           full
_refine_ls_number_parameters     124
_refine_ls_number_reflns         1445
_refine_ls_number_restraints     25
_refine_ls_restrained_S_all      1.078
_refine_ls_R_factor_all          0.0118
_refine_ls_R_factor_gt           0.0099
_refine_ls_shift/su_max          0.000
_refine_ls_shift/su_mean         0.000
_refine_ls_structure_factor_coef Fsqd
_refine_ls_weighting_details
'w=1/[\s^2^(Fo^2^)+(0.0089P)^2^+0.5710P] where P=(Fo^2^+2Fc^2^)/3'
_refine_ls_weighting_scheme      calc
_refine_ls_wR_factor_gt          0.0222
_refine_ls_wR_factor_ref         0.0231
_reflns_Friedel_coverage         0.000
_reflns_number_gt                1322
_reflns_number_total             1445
_reflns_threshold_expression     'I > 2\s(I)'
_cod_data_source_file            ja7b09363_si_002.cif
_cod_data_source_block           K_3
_cod_depositor_comments
;
The following automatic conversions were performed:

'_exptl_crystal_density_meas' value 'not measured' was changed to '?'
- the value is perceived as not measured.

Automatic conversion script
Id: cif_fix_values 4973 2017-02-22 13:04:09Z antanas 
;
_cod_database_code               4126782
_shelx_shelxl_version_number     2014/7
_shelx_space_group_comment
;
The symmetry employed for this shelxl refinement is uniquely defined
by the following loop, which should always be used as a source of
symmetry information in preference to the above space-group names.
They are only intended as comments.
;
_shelx_res_file
;

    JIN.res created by SHELXL-2014/7


REM Solution 1  R1  0.024  Rweak  0.001,  Alpha = 0.0293  in P2(1)/n
REM Formula:  N6 O18 K2 Th
TITL save in P2(1)/c
CELL  0.71073   8.3768   6.6983  12.5535   90.000   92.041   90.000
ZERR    2   0.00030   0.00020   0.00040   0.0000   0.0004   0.0000
LATT  1
SYMM 1/2-X, 1/2+Y, 1/2-Z
SFAC N O K TH
UNIT 12 36 4 2
TEMP -173.000
SHEL 999 0.800
L.S. 20
BOND
ACTA
LIST 6
FMAP 2
PLAN 20
DELU
WGHT    0.008900    0.571000
FVAR       0.44609
TH1   4    0.000000    0.000000    0.000000    10.50000    0.00495    0.00518 =
         0.00548   -0.00005    0.00017    0.00025
K1    3   -0.050254    0.219299    0.340434    11.00000    0.01298    0.01044 =
         0.01324    0.00222    0.00169    0.00162
N1    1   -0.036248    0.726721    0.188726    11.00000    0.01068    0.00810 =
         0.00814   -0.00146   -0.00257   -0.00211
N2    1    0.711815    0.247435    0.047688    11.00000    0.01016    0.00838 =
         0.00685    0.00196    0.00208   -0.00050
N3    1    0.220179    0.289231    0.114546    11.00000    0.00702    0.00661 =
         0.00994   -0.00016    0.00194    0.00277
O1    2    0.075488    0.707281    0.123895    11.00000    0.01013    0.01186 =
         0.00789   -0.00051    0.00180    0.00246
O2    2   -0.062678    0.605258    0.257853    11.00000    0.02315    0.00874 =
         0.00945    0.00285    0.00267   -0.00266
O3    2    0.877481    0.885409    0.176428    11.00000    0.00992    0.00763 =
         0.00975   -0.00006    0.00005    0.00166
O4    2    0.599235    0.359892    0.055055    11.00000    0.01060    0.01039 =
         0.01490    0.00238    0.00361    0.00603
O5    2    0.701454    0.088880   -0.009654    11.00000    0.00972    0.00982 =
         0.01337   -0.00500   -0.00025    0.00078
O6    2    0.847285    0.278460    0.094106    11.00000    0.00771    0.00942 =
         0.01004   -0.00070   -0.00029   -0.00003
O7    2    0.190589    0.298481    0.013957    11.00000    0.01236    0.01084 =
         0.00476    0.00101   -0.00176   -0.00169
O8    2    0.313130    0.399159    0.160895    11.00000    0.00936    0.00881 =
         0.01268   -0.00354   -0.00416   -0.00184
O9    2    0.143064    0.151851    0.162807    11.00000    0.01160    0.00894 =
         0.00818    0.00168    0.00133   -0.00241

HKLF 4

REM  save in P2(1)/c
REM R1 =  0.0099 for    1322 Fo > 4sig(Fo)  and  0.0118 for all    1445 data
REM    124 parameters refined using     25 restraints

END

WGHT      0.0092      0.5304

REM Highest difference peak  0.522,  deepest hole -0.326,  1-sigma level  0.080
Q1    1   0.0427  0.0031 -0.0640  11.00000  0.05    0.52
Q2    1   0.0099  0.1306  0.0033  11.00000  0.05    0.50
Q3    1   0.0941  0.0118  0.0381  11.00000  0.05    0.47
Q4    1   0.0628  0.1164  0.0573  11.00000  0.05    0.30
Q5    1   0.8977  0.1892  0.0891  11.00000  0.05    0.29
Q6    1   0.7816  0.2467  0.0952  11.00000  0.05    0.27
Q7    1   0.7725  0.0181 -0.0134  11.00000  0.05    0.27
Q8    1   0.0658  0.8534  0.0619  11.00000  0.05    0.26
Q9    1   0.1073  0.2368  0.0309  11.00000  0.05    0.26
Q10   1   0.8435  0.4100  0.1143  11.00000  0.05    0.24
Q11   1   0.9827  0.2858  0.0106  11.00000  0.05    0.23
Q12   1  -0.0855  0.2383  0.4027  11.00000  0.05    0.23
Q13   1   0.9438  0.9633  0.1577  11.00000  0.05    0.22
Q14   1   0.0335  0.1766  0.1151  11.00000  0.05    0.22
Q15   1   0.1881  0.1496  0.0043  11.00000  0.05    0.22
Q16   1   0.3143  0.3534 -0.0446  11.00000  0.05    0.22
Q17   1   0.1666  0.2213  0.1508  11.00000  0.05    0.22
Q18   1   0.8089  0.1199 -0.0010  11.00000  0.05    0.22
Q19   1   0.9171  0.8842  0.1218  11.00000  0.05    0.21
Q20   1  -0.0813  0.4628  0.2026  11.00000  0.05    0.21
;
_shelx_res_checksum              18209
_shelx_hkl_file
;
  -1   0   0   -7.00    1.00
  -1   0   0   -6.60    0.60
   1   0   0   -1.20    1.20
   1   0   0   -6.40    0.70
  -2   0   0 4450.45   74.89
   2   0   0 4327.37   78.49
   2   0   0 4410.16   75.89
  -2   0   0 4490.55   78.79
  -3   0   0   12.30    3.20
  -3   0   0   -1.80    1.10
   3   0   0   -2.80    1.90
   3   0   0   -0.50    1.50
   4   0   0 2254.27   40.20
   4   0   0 2191.98   42.00
  -4   0   0 2171.18   45.80
   4   0   0 2123.19   45.60
   5   0   0    4.00    1.90
  -5   0   0    1.80    3.10
   5   0   0    3.70    3.00
  -6   0   0 1963.30   46.50
   6   0   0 1981.80   38.20
  -6   0   0 1964.40   40.50
   6   0   0 1870.31   45.60
  -7   0   0    4.30    3.20
   7   0   0   11.90    4.60
  -7   0   0    3.40    4.10
  -8   0   0  467.35   21.40
   8   0   0  417.16   20.70
  -9   0   0    1.20    5.90
   9   0   0    0.80    5.60
 -10   0   0  869.11   35.00
  10   0   0  794.92   33.50
   0  -1   0    1.20    1.10
   0  -1   0    0.30    0.90
   0  -1   0   -0.80    0.90
   0  -1   0    0.90    1.00
  -1  -1   0 5932.21  100.79
  -1  -1   0 5757.12  102.89
   1  -1   0 6013.20   99.39
   1  -1   0 6023.10  101.19
   1  -1   0 5807.32  102.59
   1   1   0 6039.50  101.99
  -1   1   0 5882.11  101.69
   2  -1   0  161.38    7.40
  -2  -1   0  174.58    6.20
   2  -1   0  155.98    6.50
  -2  -1   0  172.18    7.50
   2   1   0  162.98    6.50
  -2   1   0  172.38    6.50
  -3  -1   0 2743.83   46.30
   3  -1   0 2665.33   45.20
   3  -1   0 2646.44   52.99
  -3  -1   0 2664.63   49.20
   3  -1   0 2656.23   50.59
   3   1   0 2599.44   51.29
  -3   1   0 2673.43   51.39
   4  -1   0  753.12   19.50
   4  -1   0  759.82   21.70
   4  -1   0  730.43   14.50
  -4  -1   0  731.33   17.70
  -4  -1   0  729.83   21.40
  -4  -1   0  763.52   15.80
   4   1   0  721.83   20.10
  -4   1   0  714.93   20.00
   5  -1   0 1641.54   40.80
  -5  -1   0 1814.12   35.80
  -5  -1   0 1665.63   40.80
  -5  -1   0 1687.23   33.40
   5  -1   0 1788.72   38.20
   5  -1   0 1761.02   31.80
   5   1   0 1721.03   39.80
  -5   1   0 1728.13   39.80
   6  -1   0   11.00    4.00
  -6  -1   0    5.30    2.40
   6  -1   0   16.20    5.10
  -6  -1   0   12.70    4.80
   6   1   0   17.90    5.20
  -6   1   0    9.40    4.20
  -7  -1   0 2572.94   61.39
   7  -1   0 2579.14   61.19
   7   1   0 2655.33   52.69
  -7   1   0 2631.74   60.59
  -7   1   0 2682.93   55.79
   7   1   0 2647.14   60.69
   8  -1   0  176.58   14.40
  -8  -1   0  195.18   15.00
   8   1   0  201.48   14.60
  -8   1   0  220.58   15.00
  -8   1   0  190.38   11.90
   9  -1   0 1383.46   44.10
  -9  -1   0 1423.56   44.90
  -9   1   0 1394.26   43.50
   9   1   0 1405.56   43.30
 -10  -1   0  111.39   15.90
  10  -1   0  110.69   15.10
  10   1   0   98.99   13.90
 -10   1   0  123.79   15.70
   0  -2   0  179.68    6.80
   0  -2   0  177.78    6.40
   0  -2   0  170.78    6.40
   0  -2   0  185.88    6.60
  -1  -2   0   79.39    3.60
  -1  -2   0   88.19    5.20
   1  -2   0   79.29    3.90
  -1  -2   0   77.69    4.90
   1  -2   0   85.09    5.20
   1  -2   0   83.59    4.50
   1  -2   0   81.69    5.00
   1   2   0   88.69    4.80
   2  -2   0 2502.15   43.30
   2  -2   0 2451.15   48.70
   2  -2   0 2479.55   48.00
  -2  -2   0 2472.75   47.10
  -2  -2   0 2506.55   49.30
   2   2   0 2414.26   47.30
  -2   2   0 2450.05   46.90
  -3  -2   0  464.75   13.70
  -3  -2   0  451.45   15.60
   3  -2   0  473.65   14.90
   3  -2   0  443.06   15.20
   3  -2   0  463.95    9.00
  -3   2   0  447.76   13.60
   3   2   0  449.36   14.00
  -4  -2   0 2342.87   46.30
   4  -2   0 2282.77   48.20
   4  -2   0 2286.77   50.29
  -4  -2   0 2272.37   50.49
  -4   2   0 2362.16   47.90
   4   2   0 2268.17   48.00
   5  -2   0  399.66   15.60
  -5  -2   0  417.26   14.00
   5  -2   0  417.76   17.30
  -5  -2   0  428.86   17.70
   5   2   0  390.06   15.50
  -5   2   0  430.76   15.80
  -6  -2   0 2342.17   56.69
   6  -2   0 2429.06   53.49
  -6  -2   0 2417.06   50.19
   6  -2   0 2417.06   57.19
  -6   2   0 2470.25   54.59
   6   2   0 2454.75   54.59
   7  -2   0  334.37   18.50
  -7  -2   0  383.56   19.50
  -7   2   0  375.76   17.70
   7   2   0  394.96   18.10
   8  -2   0 2321.87   60.99
  -8  -2   0 2397.16   61.79
  -8   2   0 2335.37   58.69
   8   2   0 2392.36   59.39
  -8   2   0 2469.35   55.89
   8   2   0 2536.85   52.79
   9  -2   0   70.49   12.10
  -9  -2   0   41.80    9.50
   9   2   0   61.69   10.10
  -9   2   0   65.89    9.70
  -9   2   0   65.39   10.90
 -10  -2   0 1768.22   55.49
  10  -2   0 1701.53   54.09
 -10   2   0 1801.42   53.89
  10   2   0 1857.41   54.09
   0  -3   0   -0.70    1.80
   0  -3   0   -1.40    1.60
   0  -3   0   -1.40    1.70
   0  -3   0    1.10    2.00
   1  -3   0 2213.98   45.30
   1  -3   0 2318.77   43.30
  -1  -3   0 2276.87   45.70
   1  -3   0 2304.67   45.80
   1  -3   0 2316.47   44.70
  -1  -3   0 2293.47   42.60
  -1  -3   0 2256.87   44.90
   1   3   0 2238.88   45.10
   2  -3   0  806.62   21.50
  -2  -3   0  780.32   21.70
   2  -3   0  827.52   17.80
  -2  -3   0  798.92   20.80
   2  -3   0  821.42   21.80
  -2  -3   0  814.52   16.60
  -2   3   0  807.42   19.90
   2   3   0  835.02   20.80
   3  -3   0 2825.22   49.60
   3  -3   0 2740.93   56.89
  -3  -3   0 2807.62   55.49
  -3  -3   0 2805.62   58.59
   3  -3   0 2790.02   57.79
  -3   3   0 2803.62   55.09
   3   3   0 2742.43   55.69
   4  -3   0  770.32   15.00
  -4  -3   0  804.42   25.20
   4  -3   0  789.72   24.40
   4  -3   0  771.82   23.40
  -4  -3   0  758.22   21.70
   4   3   0  801.62   22.70
  -4   3   0  791.92   21.70
   5  -3   0 3435.76   70.39
  -5  -3   0 3412.26   67.49
   5  -3   0 3454.45   73.09
  -5  -3   0 3422.66   73.39
  -5   3   0 3226.98   68.19
   5   3   0 3332.87   69.39
   6  -3   0   10.60    5.30
  -6  -3   0    7.40    3.70
  -6  -3   0   16.40    5.60
   6  -3   0   17.20    5.50
  -6   3   0   16.20    5.40
   6   3   0   15.90    5.10
   7  -3   0 1277.47   39.20
  -7  -3   0 1236.48   39.30
  -7  -3   0 1209.78   32.80
   7  -3   0 1213.98   35.80
   7   3   0 1228.78   36.10
  -7   3   0 1298.67   36.30
  -8  -3   0   23.80    8.00
   8  -3   0   46.90    9.90
   8   3   0   35.70    8.30
  -8   3   0   49.80    9.10
   8   3   0   52.29    7.90
  -8   3   0   46.20    8.40
   9  -3   0 1288.67   43.70
  -9  -3   0 1247.88   43.60
  -9   3   0 1270.47   39.10
  -9   3   0 1293.67   41.00
   9   3   0 1266.77   41.50
  10  -3   0   11.40    7.40
 -10  -3   0   16.10    9.00
 -10   3   0    9.80    6.70
 -10   3   0    4.20    7.20
  10   3   0    7.30    7.40
   0  -4   0 2883.11   58.59
   0  -4   0 2997.30   57.49
   0  -4   0 2974.20   57.59
   0  -4   0 2935.81   58.09
   1  -4   0   16.50    4.10
   1  -4   0   26.40    4.30
  -1  -4   0   16.00    3.30
   1  -4   0   15.30    3.90
  -1  -4   0   14.70    3.80
  -1  -4   0   14.50    3.50
   1  -4   0   20.20    3.60
   1   4   0   20.10    4.00
  -2  -4   0 3201.78   65.39
   2  -4   0 3362.96   66.99
  -2  -4   0 3383.26   67.29
   2  -4   0 3384.06   61.79
   2  -4   0 3321.27   66.79
   2   4   0 3262.87   65.39
  -2   4   0 3344.77   64.59
   3  -4   0    6.50    4.00
   3  -4   0    5.10    2.10
  -3  -4   0    5.20    3.30
  -3  -4   0    0.80    3.10
   3  -4   0    4.50    3.50
   3   4   0    0.30    2.60
  -3   4   0    1.80    2.50
   4  -4   0 4112.89   82.09
   4  -4   0 3918.21   80.39
  -4  -4   0 3991.40   82.79
  -4  -4   0 3905.91   78.19
  -4   4   0 3929.91   77.39
   4   4   0 3840.52   78.19
   5  -4   0  166.28   12.20
   5  -4   0  150.38   12.20
  -5  -4   0  158.28   10.70
  -5  -4   0  200.18   13.90
   5   4   0  150.18   10.70
  -5   4   0  179.68   10.90
   6  -4   0 1555.94   42.50
   6  -4   0 1542.25   44.30
  -6  -4   0 1541.05   39.50
  -6  -4   0 1552.34   44.90
   6   4   0 1570.84   41.10
  -6   4   0 1539.55   39.90
   7  -4   0   39.80    8.70
  -7  -4   0   28.80    8.00
   7  -4   0   49.40   10.10
  -7  -4   0   37.70    7.20
   7   4   0   21.30    6.60
  -7   4   0   34.00    7.60
   8  -4   0  827.12   33.40
  -8  -4   0  770.72   32.60
  -8   4   0  780.92   29.00
   8   4   0  804.32   29.90
  -8   4   0  748.13   29.10
  -9  -4   0    0.00    7.20
   9  -4   0   31.60    9.90
  -9   4   0   19.90    7.90
   9   4   0   11.00    5.80
  -9   4   0   -3.10    5.90
   9   4   0    6.90    6.70
   0  -5   0    2.50    3.20
   0  -5   0    1.10    3.00
   0  -5   0    0.00    2.70
   0  -5   0   -3.00    2.30
  -1  -5   0 2171.18   47.10
   1  -5   0 2171.18   45.30
  -1  -5   0 2181.28   44.60
   1  -5   0 2096.29   47.80
   1  -5   0 2003.60   46.90
   1  -5   0 2197.08   46.40
  -1  -5   0 2107.49   47.10
   1   5   0 2130.89   47.30
  -2  -5   0  256.07   12.50
   2  -5   0  259.47   13.20
  -2  -5   0  248.58   12.80
   2  -5   0  264.07   10.80
   2  -5   0  236.88   12.80
   2   5   0  243.08   12.00
  -2   5   0  248.18   11.40
   2   5   0  233.88    9.20
   3  -5   0 4091.69   73.59
  -3  -5   0 3735.83   78.99
   3  -5   0 3936.51   81.19
   3  -5   0 3894.31   81.09
  -3  -5   0 3953.20   81.99
   3   5   0 3976.20   79.39
  -3   5   0 3992.90   77.79
   4  -5   0  110.19   11.00
   4  -5   0   91.99   10.20
  -4  -5   0  110.59   10.90
  -4  -5   0  126.99   12.60
  -4   5   0  122.39    8.90
   4   5   0  126.29    9.90
   5  -5   0 1368.26   39.70
   5  -5   0 1349.47   40.10
  -5  -5   0 1348.57   37.00
  -5  -5   0 1381.66   41.10
   5   5   0 1343.97   37.00
  -5   5   0 1356.66   35.60
   6  -5   0   54.09   10.10
  -6  -5   0   48.00   10.30
  -6  -5   0   65.19    9.30
   6  -5   0   61.29   10.10
  -6   5   0   35.60    7.10
   6   5   0   54.69    8.60
  -7  -5   0  897.11   35.30
  -7  -5   0  888.81   30.10
   7  -5   0  865.51   34.20
  -7   5   0  941.41   30.40
   7   5   0  904.71   31.60
   8  -5   0   24.20    9.20
  -8  -5   0   28.50   10.00
  -8   5   0   37.20    8.40
  -8   5   0   46.20   10.20
   8   5   0   31.30    8.90
   0  -6   0  625.54   21.90
   0  -6   0  624.44   20.90
   0  -6   0  583.34   20.80
   0  -6   0  622.64   21.00
   1  -6   0   74.49    9.00
   1  -6   0   81.19    8.60
  -1  -6   0   79.89    8.70
   1  -6   0   85.49    9.60
   1  -6   0   70.69    8.00
  -1  -6   0   78.49    9.00
   1   6   0   81.89    9.10
  -2  -6   0 1723.83   43.10
   2  -6   0 1721.53   39.30
   2  -6   0 1704.13   43.90
  -2  -6   0 1702.53   42.90
   2  -6   0 1740.03   43.80
  -2   6   0 1726.93   41.00
   2   6   0 1696.73   42.40
   3  -6   0   42.40    7.90
  -3  -6   0   48.20    7.90
   3  -6   0   45.90    7.90
  -3  -6   0   42.30    7.40
   3   6   0   38.30    6.80
  -3   6   0   45.20    6.70
   4  -6   0  987.10   33.00
  -4  -6   0  984.40   33.00
  -4  -6   0  959.90   31.00
   4  -6   0 1013.60   32.80
   4   6   0  993.50   30.70
  -4   6   0  969.80   28.80
   5  -6   0   74.39   11.10
  -5  -6   0   81.49   12.30
   5  -6   0   83.09   11.60
  -5  -6   0   75.09   10.60
   5   6   0   65.69    9.30
  -5   6   0   66.19    8.70
   6  -6   0 1138.09   39.50
  -6  -6   0 1182.88   36.50
  -6  -6   0 1140.99   40.20
   6   6   0 1135.49   35.90
  -6   6   0 1104.09   33.80
   7  -6   0   10.70    7.60
  -7  -6   0    2.90    7.00
  -7  -6   0    0.80    6.10
  -7   6   0    2.30    7.20
   7   6   0   11.80    6.60
   0  -7   0    0.50    3.90
   0  -7   0    3.00    4.40
   0   7   0   -2.20    3.50
   1  -7   0 1668.73   41.80
  -1  -7   0 1726.93   44.00
  -1  -7   0 1631.84   43.20
   1  -7   0 1676.53   44.30
   1  -7   0 1692.53   42.20
   1   7   0 1697.93   44.10
  -2  -7   0    4.90    4.70
  -2  -7   0    8.90    5.50
   2  -7   0    8.90    5.30
   2   7   0    9.70    5.10
  -2   7   0   12.30    4.90
  -3  -7   0  418.66   20.40
   3  -7   0  397.06   20.30
  -3  -7   0  455.65   21.00
   3   7   0  474.05   20.90
  -4  -7   0   26.70    7.90
   4  -7   0   16.00    7.10
  -4  -7   0   15.40    6.90
   4   7   0   19.60    6.40
  -5  -7   0 1212.48   41.10
   5  -7   0 1204.48   40.60
  -5  -7   0 1195.98   38.60
  -5   7   0 1206.38   40.00
   5   7   0 1177.98   37.30
  -6  -7   0    3.20    6.40
  -6  -7   0    4.60    7.20
   6  -7   0    1.80    6.60
   6   7   0    6.50    6.20
  -6   7   0    5.80    6.30
   0  -8   0 1579.74   43.20
   0   8   0 1530.05   44.30
  -1  -8   0  162.88   14.70
   1  -8   0  144.49   14.60
   1  -8   0  152.18   13.70
  -1   8   0  157.28   14.70
   1   8   0  152.18   14.80
  -2  -8   0 1144.79   37.40
   2  -8   0 1169.88   38.00
  -2   8   0 1192.58   37.80
   2   8   0 1230.48   38.10
   3  -8   0   18.50    7.20
  -3  -8   0   19.20    7.80
   3   8   0   36.00    8.40
  -3   8   0   25.90    8.10
  -4  -8   0  826.12   32.40
  -4  -8   0  847.42   33.00
   4  -8   0  827.02   33.40
  -4   8   0  861.21   33.60
   4   8   0  834.12   31.40
  10   0  -1    1.30    6.30
 -10   0   1   -7.00    6.10
   9   0  -1  769.42   31.00
  -9   0   1  854.21   32.40
   8   0  -1   -1.80    4.30
  -8   0   1   10.80    6.20
   7   0  -1 2399.06   56.49
  -7   0   1 2391.86   56.89
   6   0  -1    0.20    3.30
   6   0  -1    0.40    2.20
  -6   0   1    1.00    3.20
   6   0  -1   -1.70    1.40
  -5   0   1  742.93   22.60
   5   0  -1  778.52   19.60
  -5   0   1  769.02   17.10
   5   0  -1  769.12   23.00
  -4   0   1   -2.40    1.10
   4   0  -1   -3.70    1.50
  -4   0   1    0.60    2.30
   4   0  -1   -2.50    2.10
  -3   0   1  147.59    7.50
   3   0  -1  151.48    6.20
   3   0  -1  148.79    7.40
  -3   0   1  173.78    5.30
  -2   0   1   -9.20    1.70
  -2   0   1   -9.70    1.00
   2   0  -1  -11.70    1.20
   2   0  -1  -11.60    1.60
  -1   0   1 4624.54   75.29
   1   0  -1 4571.04   75.79
   1   0  -1 4443.46   77.09
  -1   0   1 4260.27   77.29
   0   0  -1   -7.10    0.50
   0   0   1   -6.30    0.70
   0   0  -1   -4.10    0.80
  -1   0  -1 5099.79   89.49
   1   0   1 5414.06   91.09
   1   0   1 5322.27   89.49
  -1   0  -1 5322.57   91.19
   2   0   1   -0.30    1.70
   2   0   1   -0.80    1.20
  -2   0  -1    0.60    1.40
  -2   0  -1   -1.80    1.60
  -3   0  -1 7578.94  130.19
   3   0   1 7760.42  129.49
   3   0   1 7465.85  134.39
  -3   0  -1 7657.03  134.79
   4   0   1    0.20    2.70
  -4   0  -1   -3.10    1.70
  -4   0  -1   -4.30    1.80
   4   0   1   -4.00    1.30
   5   0   1 4665.73   91.39
   5   0   1 4873.41   84.39
  -5   0  -1 4699.23   91.59
  -5   0  -1 4737.93   85.99
   6   0   1   -1.00    3.20
  -6   0  -1   -2.00    3.00
  -6   0  -1   -1.60    2.30
   6   0   1    3.40    2.10
   7   0   1 3906.31   83.69
  -7   0  -1 4010.10   76.59
  -7   0  -1 3972.50   83.99
  -8   0  -1    3.00    4.70
   8   0   1   -4.80    4.20
  -9   0  -1 1916.41   53.69
   9   0   1 1955.00   53.99
 -10   0  -1   -6.30    6.30
  10   0   1    5.10    6.70
 -10  -1   1  893.21   36.60
  10  -1  -1  944.21   37.00
 -10   1   1  909.11   36.00
  10   1  -1  872.71   35.00
  -9  -1   1  148.69   16.30
   9  -1  -1  121.59   14.00
  -9   1   1  127.29   14.10
   9   1  -1  131.19   14.20
   8  -1  -1 2013.90   53.69
  -8  -1   1 2100.79   54.59
   8   1  -1 2050.79   53.29
  -8   1   1 2090.59   53.69
  -7  -1   1   76.99   10.00
   7  -1  -1   92.39    9.00
   7  -1  -1   84.09   10.90
  -7   1   1   72.59    9.40
   7   1  -1   72.49    9.70
  -6  -1   1 2990.20   56.19
  -6  -1   1 3033.90   54.39
  -6  -1   1 2762.02   63.29
   6  -1  -1 2956.70   64.29
   6  -1  -1 2898.31   59.29
   6   1  -1 2803.72   62.09
  -6   1   1 2873.51   62.69
   5  -1  -1   -0.90    3.10
   5  -1  -1   -0.60    1.00
  -5  -1   1   -1.00    1.70
   5  -1  -1   -0.90    2.20
  -5  -1   1   -3.70    2.70
   5   1  -1   -0.90    1.50
   5   1  -1    1.90    2.90
  -5   1   1   -1.20    2.90
  -4  -1   1 2445.46   52.79
  -4  -1   1 2603.94   48.50
   4  -1  -1 2541.35   50.19
   4  -1  -1 2497.85   52.99
   4   1  -1 2565.24   52.09
  -4   1   1 2566.74   51.99
   4   1  -1 2670.63   46.10
  -3  -1   1   -0.90    2.00
  -3  -1   1    2.40    1.70
   3  -1  -1   -1.90    1.70
   3  -1  -1    0.90    2.30
  -3   1   1    0.70    2.10
   3   1  -1   -3.00    1.70
   3   1  -1    0.10    1.00
  -2  -1   1 3898.01   68.39
   2  -1  -1 3914.91   69.49
  -2  -1   1 3860.81   70.99
   2  -1  -1 3836.02   70.69
  -2   1   1 3906.41   70.19
   2   1  -1 3907.31   65.29
   2   1  -1 3894.81   70.19
  -1  -1   1    0.10    1.70
   1  -1  -1    0.30    1.70
  -1  -1   1    0.00    1.60
   1  -1  -1    0.50    1.60
  -1   1   1   -2.10    1.40
   1   1  -1    1.70    1.10
   1   1  -1   -0.60    1.70
  -1   1   1    0.50    1.10
   0  -1  -1 4027.90   68.79
   0  -1  -1 3902.71   68.49
   0  -1   1 4119.89   68.39
   0  -1  -1 4095.79   68.59
   0  -1   1 3986.20   68.89
   0  -1  -1 4047.20   70.39
   0   1  -1 3874.51   68.69
  -1  -1  -1  -12.50    1.00
   1  -1   1  -13.90    1.00
  -1  -1  -1  -15.60    1.10
  -1  -1  -1  -14.10    1.70
   1  -1   1  -13.00    1.50
   1   1   1  -13.40    1.10
  -1   1  -1  -15.20    0.90
  -1   1  -1  -14.10    1.20
   2  -1   1 2939.01   56.99
  -2  -1  -1 2948.10   52.29
   2  -1   1 3140.19   52.49
  -2  -1  -1 2967.20   57.39
  -2  -1  -1 3077.99   54.59
   2   1   1 3090.99   55.39
  -2   1  -1 3042.40   54.99
  -3  -1  -1    1.70    2.90
  -3  -1  -1    6.60    1.90
   3  -1   1    3.10    3.00
   3  -1   1    3.20    1.60
  -3  -1  -1    5.50    2.40
   3   1   1    7.80    2.90
  -3   1  -1    4.80    2.60
  -4  -1  -1 4050.79   77.39
  -4  -1  -1 3947.51   69.59
   4  -1   1 3840.32   68.59
   4  -1   1 3898.31   76.79
   4   1   1 3939.41   74.69
   4   1   1 3947.30   71.39
  -4   1  -1 3887.01   74.59
  -5  -1  -1  153.68    6.90
   5  -1   1  151.58    6.00
   5  -1   1  159.28   10.40
  -5  -1  -1  145.19   10.10
   5   1   1  157.58    9.60
  -5   1  -1  160.98    8.60
  -5   1  -1  154.68    9.10
   5   1   1  148.49    7.40
  -6  -1  -1 2095.89   41.80
   6  -1   1 2073.49   49.90
  -6  -1  -1 2107.99   50.09
   6   1   1 2086.69   48.50
   6   1   1 2089.39   43.10
  -6   1  -1 2083.09   45.30
  -6   1  -1 2057.39   48.00
  -7  -1  -1  127.19   12.70
   7  -1   1  148.59   13.80
  -7   1  -1  155.08   10.10
  -7   1  -1  160.68   11.90
   7   1   1  130.19   12.10
   7   1   1  151.78    8.70
   8  -1   1 1444.26   43.20
  -8  -1  -1 1508.45   44.30
  -8   1  -1 1534.25   42.90
   8   1   1 1440.76   42.00
  -8   1  -1 1522.35   38.40
  -9  -1  -1    0.00    5.90
   9  -1   1    6.80    6.20
  -9   1  -1   13.90    6.90
   9   1   1   15.50    7.20
 -10  -1  -1 1239.08   44.40
  10  -1   1 1373.76   46.00
 -10   1  -1 1386.26   45.20
  10   1   1 1307.87   44.50
 -10  -2   1   61.59   12.10
  10  -2  -1   47.30   11.20
  10   2  -1   61.99   12.00
 -10   2   1   87.19   13.50
   9  -2  -1 1536.45   48.00
  -9  -2   1 1535.85   48.80
   9   2  -1 1608.54   47.40
  -9   2   1 1581.34   46.80
  -9   2   1 1563.14   42.30
   8  -2  -1  104.19   10.90
  -8  -2   1   81.89   11.90
   8  -2  -1  114.39   13.70
   8   2  -1  122.69   13.20
  -8   2   1  119.79   13.10
  -7  -2   1 2781.62   56.39
  -7  -2   1 2667.33   64.89
   7  -2  -1 2698.23   59.89
   7  -2  -1 2784.42   65.29
  -7   2   1 2748.63   62.59
   7   2  -1 2674.63   62.29
  -6  -2   1   92.09    7.20
   6  -2  -1   84.49   10.00
   6  -2  -1   77.49    8.50
  -6  -2   1   81.79    9.90
  -6   2   1   88.29    9.40
   6   2  -1   80.79    9.20
   5  -2  -1 2887.41   58.99
   5  -2  -1 2830.92   62.19
  -5  -2   1 2867.81   56.49
  -5  -2   1 2897.81   62.69
   5   2  -1 2922.01   60.39
  -5   2   1 2760.72   59.49
  -4  -2   1   82.29    8.20
  -4  -2   1   96.29    6.40
   4  -2  -1  115.89    8.60
   4  -2  -1  103.49    7.40
   4   2  -1  110.79    7.60
  -4   2   1  107.09    7.40
  -3  -2   1 7592.84  138.89
   3  -2  -1 7467.45  138.09
   3  -2  -1 7740.93  136.09
  -3  -2   1 7775.32  134.49
  -3   2   1 7758.42  136.79
   3   2  -1 7833.02  137.09
   2  -2  -1   99.19    3.60
  -2  -2   1  108.19    6.50
  -2  -2   1   94.19    5.70
   2  -2  -1  107.59    6.20
   2  -2  -1  103.89    6.40
   2   2  -1  102.79    3.20
  -2   2   1   81.89    5.20
   2   2  -1   90.09    5.70
  -1  -2   1 3880.41   71.09
   1  -2  -1 4035.00   68.99
   1  -2  -1 3964.50   71.39
   1  -2  -1 3940.11   71.49
  -1  -2   1 4061.49   71.69
   1  -2  -1 4035.70   71.99
   1   2  -1 3929.21   68.59
   1   2  -1 3928.21   71.99
   0  -2  -1   33.00    3.40
   0  -2   1   20.50    3.20
   0  -2   1   28.80    2.90
   0  -2  -1   36.10    3.30
   0  -2   1   31.90    3.50
   0  -2  -1   25.30    3.30
   0  -2  -1   31.90    3.30
   1  -2   1 2759.62   49.20
  -1  -2  -1 2807.42   48.60
   1  -2   1 2708.23   51.99
   1  -2   1 2672.13   51.09
  -1  -2  -1 2780.22   52.49
  -1  -2  -1 2730.83   50.69
  -1   2  -1 2744.93   49.40
   1   2   1 2749.72   50.09
   2  -2   1 1315.07   29.90
  -2  -2  -1 1361.46   28.50
   2  -2   1 1365.96   29.50
  -2  -2  -1 1372.96   24.50
  -2  -2  -1 1308.37   30.30
   2  -2   1 1368.96   25.60
   2   2   1 1350.26   28.10
  -2   2  -1 1373.46   27.40
  -3  -2  -1 4354.36   78.99
   3  -2   1 4248.17   80.29
  -3  -2  -1 4429.56   72.69
   3  -2   1 4079.99   82.09
   3  -2   1 4363.36   74.09
  -3   2  -1 4372.46   79.09
   3   2   1 4391.76   79.79
   4  -2   1    0.40    3.10
  -4  -2  -1   -2.80    2.10
  -4  -2  -1   -0.50    2.90
  -4  -2  -1   -1.70    0.90
   4  -2   1   -2.70    1.00
   4  -2   1   -0.80    2.50
   4   2   1   -2.20    2.30
  -4   2  -1   -4.50    2.10
   5  -2   1 1109.49   31.50
  -5  -2  -1 1107.99   27.20
  -5  -2  -1 1131.39   32.00
  -5   2  -1 1107.89   28.70
   5   2   1 1116.29   29.10
   6  -2   1    6.70    5.00
  -6  -2  -1    9.80    4.60
   6   2   1    1.10    3.30
  -6   2  -1    0.50    3.30
  -6   2  -1   -1.90    3.20
   6   2   1    3.10    3.00
  -7  -2  -1  686.93   26.60
   7  -2   1  726.23   27.10
   7   2   1  678.93   21.30
  -7   2  -1  703.43   24.70
  -7   2  -1  709.23   23.80
   7   2   1  694.53   25.00
   8  -2   1    4.90    5.60
  -8  -2  -1    4.20    5.80
   8   2   1    0.50    3.70
  -8   2  -1   -3.70    4.20
   8   2   1    6.10    5.60
  -8   2  -1    5.20    4.80
  -9  -2  -1  908.61   35.30
   9  -2   1  865.11   34.00
   9   2   1  886.61   33.10
  -9   2  -1  904.11   33.00
  -9   2  -1  877.71   30.20
  10  -2   1   70.79   12.70
 -10  -2  -1   60.99   12.00
  10   2   1  133.99   16.50
 -10   2  -1   75.29   12.40
  10  -3  -1 1069.89   41.70
 -10  -3   1 1105.59   42.40
  10   3  -1 1127.69   40.70
 -10   3   1 1078.39   39.60
 -10   3   1 1027.50   36.10
   9  -3  -1   30.10    9.00
  -9  -3   1   19.20    8.50
   9   3  -1   21.60    8.00
  -9   3   1   12.70    7.30
  -8  -3   1  636.54   28.40
  -8  -3   1  654.53   22.60
   8  -3  -1  622.64   28.00
   8  -3  -1  657.43   25.60
  -8   3   1  656.83   26.30
   8   3  -1  678.03   26.90
  -7  -3   1  102.39    9.80
  -7  -3   1  131.09   14.20
   7  -3  -1  102.99   12.20
   7  -3  -1  125.49   12.30
   7   3  -1   98.79   11.10
  -7   3   1   91.49   10.50
   6  -3  -1 1970.70   47.90
  -6  -3   1 1987.30   45.00
   6  -3  -1 2065.69   51.29
  -6  -3   1 1970.20   50.99
   6   3  -1 1940.41   47.90
  -6   3   1 2034.80   48.00
   5  -3  -1  167.08   11.80
  -5  -3   1  149.09   11.50
   5  -3  -1  128.49   10.00
  -5  -3   1  157.58    9.50
   5   3  -1  155.98   10.20
  -5   3   1  168.58   10.30
  -4  -3   1 3789.92   77.79
  -4  -3   1 3817.32   73.49
   4  -3  -1 3780.32   75.39
   4  -3  -1 3881.61   77.39
  -4   3   1 3755.52   74.39
   4   3  -1 3815.42   75.19
   3  -3  -1   29.10    4.90
  -3  -3   1   35.70    5.70
  -3  -3   1   26.10    4.20
   3  -3  -1   35.40    5.20
   3   3  -1   33.30    5.00
  -3   3   1   34.70    4.90
  -2  -3   1 3642.54   69.09
   2  -3  -1 3694.73   64.79
  -2  -3   1 3655.13   70.29
   2  -3  -1 3636.64   69.79
   2  -3  -1 3612.64   69.99
  -2   3   1 3648.83   69.29
   2   3  -1 3654.43   69.69
   2   3  -1 3725.43   63.99
   1  -3  -1  438.36   11.90
   1  -3  -1  417.36   13.20
  -1  -3   1  425.06   13.30
  -1  -3   1  421.26   12.90
   1  -3  -1  414.36   13.60
   1  -3  -1  424.16   12.90
   1   3  -1  437.46   11.50
   0  -3   1 7317.07  129.39
   0  -3  -1 7225.28  129.09
   0  -3   1 7192.88  126.49
   0  -3  -1 7189.98  127.49
   0  -3   1 7173.78  126.09
   0  -3  -1 7199.28  126.39
   0  -3  -1 7337.17  126.49
   0  -3   1 7379.26  127.09
   1  -3   1  635.14   15.80
  -1  -3  -1  648.54   17.10
  -1  -3  -1  612.74   17.60
   1  -3   1  628.74   15.40
   1  -3   1  627.94   17.50
  -1  -3  -1  642.94   15.30
   1   3   1  629.54   16.10
   2  -3   1 2880.51   59.49
  -2  -3  -1 3001.90   60.39
   2  -3   1 2989.60   59.09
  -2  -3  -1 3083.99   53.39
  -2  -3  -1 3053.09   58.19
   2  -3   1 2992.40   54.69
   2   3   1 3023.90   57.39
  -2   3  -1 2956.40   56.19
  -3  -3  -1   30.10    4.80
   3  -3   1   27.80    3.10
   3  -3   1   28.70    5.00
  -3  -3  -1   27.20    1.90
  -3  -3  -1   23.20    5.30
   3  -3   1   28.40    5.40
   3   3   1   27.30    4.30
  -3   3  -1   21.10    3.70
   4  -3   1 1609.94   38.80
   4  -3   1 1626.54   40.30
   4  -3   1 1650.43   30.30
  -4  -3  -1 1661.43   41.20
  -4  -3  -1 1587.34   36.80
  -4   3  -1 1630.94   36.20
   4   3   1 1628.64   37.20
  -5  -3  -1  152.48    9.40
  -5  -3  -1  147.49   11.30
   5  -3   1  135.29   10.30
   5  -3   1  147.29   11.40
   5   3   1  142.49    9.70
  -5   3  -1  139.89    9.20
  -6  -3  -1 1183.08   30.80
   6  -3   1 1114.89   35.10
  -6  -3  -1 1147.89   35.70
  -6   3  -1 1154.98   31.60
  -6   3  -1 1111.29   32.10
   6   3   1 1163.78   32.40
  -7  -3  -1   -1.20    4.90
   7  -3   1   -3.30    4.40
   7   3   1    1.40    4.40
   7   3   1    1.60    3.70
  -7   3  -1    2.20    4.60
  -7   3  -1   -3.40    3.80
  -8  -3  -1 1204.88   40.30
   8  -3   1 1148.49   39.70
  -8   3  -1 1199.08   36.80
   8   3   1 1206.18   37.40
   8   3   1 1168.98   33.10
  -8   3  -1 1193.48   36.10
  -9  -3  -1   59.29   11.10
   9  -3   1   68.19   12.30
   9   3   1   52.89   10.30
   9   3   1   50.69    8.40
  -9   3  -1   61.99   10.70
  -9   3  -1   41.30    8.70
  10  -3   1 1036.00   41.10
 -10  -3  -1 1052.99   41.50
 -10   3  -1 1133.39   38.00
  10   3   1 1013.50   38.60
 -10   3  -1 1013.60   38.20
  -9  -4   1  832.92   36.10
   9  -4  -1  971.40   38.30
  -9   4   1  890.81   34.10
   9   4  -1  916.71   34.90
  -9   4   1  956.10   34.30
  -8  -4   1  158.78   17.20
   8  -4  -1  132.49   15.40
   8  -4  -1  126.39   13.80
  -8  -4   1  176.48   12.80
   8   4  -1  141.99   14.70
  -8   4   1  170.08   15.70
  -7  -4   1  551.24   25.80
   7  -4  -1  572.24   24.10
   7  -4  -1  526.95   24.90
  -7  -4   1  558.94   21.40
  -7   4   1  528.55   22.10
   7   4  -1  544.05   23.20
  -6  -4   1   18.30    5.50
   6  -4  -1   19.60    6.50
   6  -4  -1   16.60    6.00
  -6  -4   1   13.70    6.30
   6   4  -1    8.30    4.90
  -6   4   1   19.70    5.80
  -5  -4   1 1781.02   42.30
   5  -4  -1 1719.93   45.30
   5  -4  -1 1811.32   45.00
  -5  -4   1 1712.23   45.90
  -5   4   1 1752.52   42.20
   5   4  -1 1732.13   43.20
  -4  -4   1  246.38   13.90
  -4  -4   1  243.88   12.50
   4  -4  -1  254.97   13.70
   4  -4  -1  237.18   13.20
   4   4  -1  238.68   12.40
  -4   4   1  244.28   11.90
  -3  -4   1 1592.04   39.10
   3  -4  -1 1625.84   38.70
  -3  -4   1 1628.34   37.90
   3  -4  -1 1675.23   32.20
   3  -4  -1 1644.44   39.40
  -3   4   1 1614.74   37.10
   3   4  -1 1596.04   38.00
   2  -4  -1  135.29    6.70
  -2  -4   1  116.99    7.90
  -2  -4   1  138.79    8.60
   2  -4  -1  129.89    8.90
   2  -4  -1  127.09    8.30
   2   4  -1  132.59    8.40
  -2   4   1  139.59    8.20
   2   4  -1  131.19    6.10
   1  -4  -1 2431.36   47.20
   1  -4  -1 2374.86   49.40
  -1  -4   1 2379.66   48.70
   1  -4  -1 2349.67   49.00
   1  -4  -1 2459.85   49.80
  -1  -4   1 2390.16   49.30
   1   4  -1 2360.96   46.30
   0  -4   1  286.37   10.60
   0  -4   1  276.37   11.90
   0  -4  -1  287.27   11.10
   0  -4   1  269.47   10.90
   0  -4  -1  281.47   11.70
   0  -4  -1  278.67   11.00
   0  -4  -1  274.07   10.90
  -1  -4  -1 3568.14   70.09
  -1  -4  -1 3474.25   68.09
   1  -4   1 3505.15   68.79
   1  -4   1 3600.14   70.29
   1  -4   1 3572.04   66.79
  -1  -4  -1 3513.25   65.69
   1  -4   1 3614.94   66.79
   1   4   1 3476.45   67.69
   2  -4   1  117.69    6.50
   2  -4   1  116.99    8.60
  -2  -4  -1  118.79    5.80
   2  -4   1  117.89    8.60
  -2  -4  -1  118.29    8.40
  -2  -4  -1  120.89    8.30
  -2   4  -1  116.29    6.80
   2   4   1  117.99    7.50
  -3  -4  -1 1532.25   38.80
  -3  -4  -1 1545.05   36.30
   3  -4   1 1492.55   38.00
   3  -4   1 1549.84   31.40
   3  -4   1 1558.74   37.90
   3   4   1 1445.96   34.70
  -3   4  -1 1586.24   34.30
  -4  -4  -1  194.58   11.10
   4  -4   1  216.78   13.10
  -4  -4  -1  218.58   13.50
   4  -4   1  219.78   12.60
  -4   4  -1  204.98   10.30
   4   4   1  230.08   11.40
   5  -4   1 2272.27   55.29
  -5  -4  -1 2222.18   50.69
  -5  -4  -1 2287.67   56.29
  -5   4  -1 2302.07   50.09
   5   4   1 2215.68   50.79
  -6  -4  -1   59.79   10.00
   6  -4   1   27.40    7.10
  -6  -4  -1   42.50    7.20
  -6   4  -1   26.50    6.70
  -6   4  -1   24.60    5.90
   6   4   1   38.20    7.20
  -7  -4  -1 2421.06   63.89
   7  -4   1 2429.66   63.39
  -7   4  -1 2530.25   59.99
  -7   4  -1 2406.76   57.39
   7   4   1 2519.65   59.39
   8  -4   1    0.70    6.00
  -8  -4  -1    6.80    7.20
   8   4   1    0.40    5.00
   8   4   1   -1.20    4.60
  -8   4  -1    9.70    5.80
  -8   4  -1   -3.50    4.90
   9  -4   1 1491.65   49.70
  -9  -4  -1 1499.95   50.29
   9   4   1 1473.25   42.20
  -9   4  -1 1502.45   45.20
   9   4   1 1456.95   45.80
  -9   4  -1 1534.65   46.10
   8  -5  -1 1700.83   49.80
   8  -5  -1 1594.44   51.29
  -8  -5   1 1612.04   52.19
  -8  -5   1 1587.24   44.80
  -8   5   1 1633.14   47.00
   8   5  -1 1680.93   48.70
  -7  -5   1   17.50    6.50
   7  -5  -1   27.50    8.80
  -7  -5   1   12.30    6.80
   7  -5  -1   10.80    6.00
   7   5  -1   23.40    7.10
  -7   5   1    9.60    5.50
   6  -5  -1  521.05   23.40
  -6  -5   1  492.75   24.10
  -6  -5   1  548.65   21.80
   6  -5  -1  545.95   24.40
  -6   5   1  492.65   20.80
   6   5  -1  467.85   21.20
   5  -5  -1  119.49   12.30
   5  -5  -1  123.19   12.50
  -5  -5   1  122.49   13.20
  -5  -5   1  119.19   11.80
  -5   5   1  102.29   10.20
   5   5  -1  101.69   10.80
   4  -5  -1  916.71   29.40
  -4  -5   1  913.91   28.20
  -4  -5   1  962.50   30.10
   4  -5  -1  917.21   29.90
   4   5  -1  952.50   28.40
  -4   5   1  910.11   27.20
  -3  -5   1   20.20    5.10
  -3  -5   1   23.60    5.80
   3  -5  -1   35.70    4.60
   3  -5  -1   20.50    5.40
   3  -5  -1   29.20    6.00
  -3   5   1   31.50    5.60
   3   5  -1   28.80    5.70
  -2  -5   1 1483.95   35.90
   2  -5  -1 1489.05   32.40
   2  -5  -1 1419.86   36.60
  -2  -5   1 1486.75   36.10
   2  -5  -1 1443.66   35.80
   2   5  -1 1312.17   35.30
  -2   5   1 1439.26   35.10
   2   5  -1 1444.96   31.10
   1  -5  -1   99.89    7.30
  -1  -5   1  119.59    8.20
   1  -5  -1  118.99    8.90
  -1  -5   1  120.59    8.80
   1  -5  -1  114.89    8.40
   1  -5  -1  116.69    8.40
   1   5  -1  118.39    9.00
   1   5  -1   97.79    7.00
   0  -5  -1  501.15   17.60
   0  -5   1  476.45   17.60
   0  -5   1  494.55   16.10
   0  -5  -1  479.05   16.50
   0  -5   1  454.85   16.30
   0  -5  -1  460.15   16.40
   0  -5  -1  468.25   16.30
   0   5  -1  467.75   16.10
  -1  -5  -1   -1.00    2.30
  -1  -5  -1    6.60    3.50
   1  -5   1    3.20    2.80
  -1  -5  -1   -4.70    2.70
   1  -5   1    3.30    2.60
   1  -5   1    1.20    3.20
   1   5   1    1.00    2.90
   2  -5   1 2934.01   62.89
  -2  -5  -1 2885.51   56.49
   2  -5   1 3050.09   63.99
  -2  -5  -1 2886.71   61.59
  -2  -5  -1 3108.39   64.29
   2  -5   1 2989.00   58.39
  -2   5  -1 2970.90   59.19
   2   5   1 2836.52   60.29
   3  -5   1  102.69   10.30
   3  -5   1  132.39   12.20
  -3  -5  -1  101.69    9.80
  -3  -5  -1  106.89   11.20
   3  -5   1  101.29    6.80
   3   5   1  107.39    8.50
  -3   5  -1  119.79    8.00
  -4  -5  -1 2354.16   57.29
  -4  -5  -1 2390.96   53.79
   4  -5   1 2298.17   55.89
   4   5   1 2306.67   51.99
  -4   5  -1 2309.77   50.39
  -5  -5  -1   38.00    7.10
  -5  -5  -1   46.00    8.70
   5  -5   1   30.40    7.70
   5   5   1   39.40    6.90
  -5   5  -1   45.80    7.00
   6  -5   1 2871.81   70.29
  -6  -5  -1 2845.62   70.89
  -6  -5  -1 2846.42   64.69
   6   5   1 2889.01   65.19
  -6   5  -1 2808.12   62.89
  -6   5  -1 2836.42   67.09
   7  -5   1   10.30    7.40
  -7  -5  -1   22.60    8.80
   7   5   1    9.50    6.00
  -7   5  -1   16.30    7.50
  -7   5  -1    8.60    5.60
  -8  -5  -1 1450.85   49.50
   8  -5   1 1536.25   49.99
  -8   5  -1 1548.45   47.10
   8   5   1 1511.25   44.80
  -8   5  -1 1510.65   43.50
   8   5   1 1504.15   43.30
   7  -6  -1  925.61   36.40
  -7  -6   1  889.51   32.30
  -7  -6   1  900.31   36.90
   7  -6  -1  952.30   36.00
  -7   6   1  916.21   32.10
   7   6  -1  910.91   33.40
   6  -6  -1    8.20    6.60
  -6  -6   1   11.00    6.00
   6  -6  -1   11.40    6.40
  -6  -6   1   12.40    7.40
   6   6  -1   22.30    6.90
  -6   6   1   10.20    5.60
   5  -6  -1 2412.26   60.59
  -5  -6   1 2324.87   57.59
  -5  -6   1 2462.05   61.69
   5  -6  -1 2381.46   60.09
   5   6  -1 2381.76   57.79
  -5   6   1 2342.67   55.99
   4  -6  -1  161.08   13.00
  -4  -6   1  161.48   15.00
  -4  -6   1  112.29   11.50
   4  -6  -1  162.28   15.10
   4   6  -1  153.08   12.20
  -4   6   1  171.88   11.70
  -3  -6   1 1918.61   47.50
   3  -6  -1 1920.81   47.60
   3  -6  -1 1874.71   48.50
  -3  -6   1 1950.10   47.70
   3   6  -1 1873.71   47.00
  -3   6   1 1855.51   45.50
  -2  -6   1   80.49    9.50
   2  -6  -1   72.19    8.70
   2  -6  -1   75.69    7.90
  -2  -6   1   63.79    8.10
   2  -6  -1   69.69    9.30
  -2   6   1   73.89    8.30
   2   6  -1   71.19    8.90
   1  -6  -1 2429.16   54.19
   1  -6  -1 2433.46   53.99
  -1  -6   1 2416.36   54.39
  -1  -6   1 2362.36   52.79
   1  -6  -1 2341.57   51.59
   1  -6  -1 2392.76   54.49
   1   6  -1 2425.96   55.39
   1   6  -1 2452.45   51.09
   0  -6  -1  166.88   10.80
   0  -6   1  161.98   10.20
   0  -6  -1  138.79   10.20
   0  -6   1  157.48   11.40
   0  -6  -1  154.78   11.10
   0  -6  -1  174.68   11.00
   0  -6   1  164.48   10.80
   0   6  -1  163.18   10.40
   1  -6   1 1610.74   37.40
   1  -6   1 1595.34   41.00
  -1  -6  -1 1656.53   37.60
  -1  -6  -1 1496.75   39.60
  -1  -6  -1 1529.05   39.00
   1  -6   1 1551.94   37.80
  -1   6  -1 1516.65   38.80
   1   6   1 1554.54   38.60
  -2  -6  -1  244.48   13.70
   2  -6   1  230.98   11.80
   2  -6   1  226.78   14.10
  -2  -6  -1  230.88   13.90
  -2   6  -1  192.18   12.80
  -2   6  -1  240.58   11.80
   2   6   1  225.38   12.50
   3  -6   1  639.54   25.10
  -3  -6  -1  676.53   24.50
  -3  -6  -1  727.53   26.40
  -3   6  -1  688.93   25.00
  -3   6  -1  711.23   21.90
   3   6   1  683.23   23.10
  -4  -6  -1  215.98   15.30
   4  -6   1  181.28   14.30
  -4  -6  -1  195.88   13.60
  -4   6  -1  173.48   11.00
  -4   6  -1  211.48   14.30
   4   6   1  196.68   12.50
  -5  -6  -1 1594.94   44.10
   5  -6   1 1697.73   48.30
  -5  -6  -1 1592.64   48.10
   5   6   1 1638.64   43.40
  -5   6  -1 1643.04   46.10
   6  -6   1   22.80    8.40
  -6  -6  -1   12.20    6.20
  -6  -6  -1   16.60    8.60
   6   6   1   24.90    6.90
  -6   6  -1   26.30    8.20
  -7  -6  -1  626.44   30.80
   7  -6   1  628.04   30.10
  -7   6  -1  608.24   28.50
   7   6   1  562.14   25.30
  -6  -7   1 1612.54   51.09
  -6  -7   1 1526.85   47.00
   6  -7  -1 1640.64   50.09
   6  -7  -1 1600.24   50.19
   6   7  -1 1602.34   47.50
   5  -7  -1   -5.60    5.70
   5  -7  -1    1.20    5.70
  -5  -7   1   -1.10    6.10
  -5  -7   1    7.00    6.10
   5   7  -1    2.40    5.40
  -5   7   1   -4.50    4.50
   4  -7  -1 1719.63   50.09
   4  -7  -1 1777.32   49.00
  -4  -7   1 1774.42   48.60
  -4  -7   1 1740.83   49.00
  -4   7   1 1825.52   46.80
   4   7  -1 1843.82   48.60
  -3  -7   1    2.60    4.50
   3  -7  -1    0.40    4.70
   3  -7  -1   -2.40    4.50
  -3  -7   1    2.40    5.20
   3   7  -1   -2.90    4.00
  -3   7   1   -1.10    4.00
  -2  -7   1 1991.30   50.19
   2  -7  -1 1942.11   49.20
   2  -7  -1 1875.51   49.90
  -2  -7   1 1898.71   48.10
  -2   7   1 1997.90   48.50
   2   7  -1 1986.40   50.19
  -1  -7   1    0.10    4.50
   1  -7  -1   -2.80    3.90
  -1  -7   1   -1.20    4.40
   1  -7  -1    1.60    4.50
   1  -7  -1    1.70    4.30
   1  -7  -1    5.20    4.40
   1   7  -1   -0.10    4.10
   0  -7   1 2499.65   57.89
   0  -7  -1 2520.15   57.59
   0  -7  -1 2649.24   58.39
   0  -7  -1 2521.05   58.99
   0  -7   1 2559.54   60.29
   0   7  -1 2499.35   56.99
   1  -7   1  103.39   10.70
  -1  -7  -1  115.29   11.90
  -1  -7  -1  124.39   12.50
   1  -7   1   88.59   10.80
   1   7   1  126.19   11.70
  -1   7  -1  120.69   12.10
   2  -7   1 1114.19   35.40
  -2  -7  -1 1147.09   34.40
  -2  -7  -1 1143.69   35.10
  -2   7  -1 1103.69   34.40
   2   7   1 1088.79   33.00
   3  -7   1  104.39   12.60
  -3  -7  -1   83.29   10.70
  -3  -7  -1   95.79   12.10
   3   7   1   99.39   10.60
  -3   7  -1   89.49   11.40
  -4  -7  -1  825.92   32.00
  -4  -7  -1  814.62   30.10
   4  -7   1  831.72   31.80
  -4   7  -1  882.01   32.20
   4   7   1  832.32   28.80
   5  -7   1   -2.70    6.10
  -5  -7  -1    5.10    6.70
  -5  -7  -1   -2.70    5.90
   5   7   1    3.80    5.30
  -5   7  -1    4.10    6.00
   6  -7   1  715.83   32.30
  -6  -7  -1  752.62   30.50
  -6  -7  -1  717.93   33.10
  -6   7  -1  741.53   32.00
   6   7   1  722.13   28.30
   4  -8  -1    4.00    6.50
  -4  -8   1    5.40    6.80
   4   8  -1   -4.20    5.30
  -3  -8   1  966.50   34.40
   3  -8  -1  971.50   33.90
   3   8  -1  947.11   34.00
   2  -8  -1   51.69    9.40
  -2  -8   1   53.99    9.80
   2   8  -1   66.79   10.50
   1  -8  -1  748.93   28.00
  -1  -8   1  751.92   28.30
   1   8  -1  754.52   29.20
   0  -8   1   33.20    8.20
   0  -8  -1   32.20    7.90
   0  -8  -1   36.70    8.90
   0   8  -1   25.70    7.50
   0   8   1   44.40    9.20
   1  -8   1 1144.49   37.80
   1  -8   1 1147.79   35.00
  -1  -8  -1 1191.98   37.20
  -1  -8  -1 1170.48   36.60
  -1   8  -1 1149.58   36.20
   1   8   1 1263.87   37.20
  -2  -8  -1  512.95   23.70
  -2  -8  -1  477.65   23.10
   2  -8   1  539.55   24.80
   2   8   1  501.95   22.60
  -2   8  -1  486.65   23.30
  -3  -8  -1 1449.76   44.90
  -3  -8  -1 1418.66   43.70
   3  -8   1 1475.45   45.60
  -3   8  -1 1453.75   44.80
   3   8   1 1503.85   44.80
  -4  -8  -1  135.99   15.40
   4  -8   1   98.39   14.10
  -4  -8  -1   99.49   13.80
  -4   8  -1   88.29   13.20
 -10   0   2 2158.68   61.79
  10   0  -2 2242.28   62.39
   9   0  -2   -1.10    4.90
  -9   0   2   -1.00    4.80
   8   0  -2 1138.59   36.00
  -8   0   2 1125.39   36.30
   7   0  -2    3.40    2.80
  -7   0   2    5.40    4.40
   7   0  -2    4.00    4.20
  -6   0   2 4733.93   82.39
  -6   0   2 4521.65   92.59
   6   0  -2 4549.24   92.49
   6   0  -2 4752.92   86.09
  -5   0   2   -7.20    2.40
  -5   0   2   -2.80    1.50
   5   0  -2   -3.10    1.90
   5   0  -2    1.10    3.30
  -4   0   2 7169.88  133.89
  -4   0   2 7556.04  126.49
   4   0  -2 7538.85  128.89
   3   0  -2   -1.20    2.10
   3   0  -2   -3.80    1.40
  -3   0   2   -3.60    1.10
  -3   0   2   -2.10    2.10
   2   0  -2 1642.14   31.40
  -2   0   2 1696.13   30.50
   2   0  -2 1666.23   32.60
  -2   0   2 1642.64   32.80
  -1   0   2   -3.60    1.10
   1   0  -2   -1.80    1.30
   1   0  -2   -3.00    1.30
  -1   0   2   -4.60    1.20
   0   0  -2 4825.82   82.99
   0   0   2 4908.91   83.29
   0   0  -2 4787.92   83.19
   0   0   2 4873.91   83.09
   1   0   2   -3.70    1.20
  -1   0  -2   -1.80    1.30
  -1   0  -2   -2.80    1.40
   1   0   2   -2.80    1.20
  -2   0  -2   64.69    4.90
   2   0   2   79.89    5.00
  -2   0  -2   54.89    4.40
   2   0   2   70.69    4.40
   3   0   2   -4.10    1.60
  -3   0  -2   -2.30    1.80
   3   0   2   -3.10    2.20
  -3   0  -2   -1.80    2.20
   4   0   2 1008.50   22.10
  -4   0  -2  955.70   22.80
  -4   0  -2  969.10   25.10
   4   0   2  976.30   25.30
  -5   0  -2    3.40    3.40
   5   0   2   -1.50    3.20
  -5   0  -2   -3.40    2.00
   5   0   2   -2.60    2.00
  -6   0  -2 1175.18   32.90
  -6   0  -2 1240.68   29.50
   6   0   2 1198.08   33.20
   6   0   2 1225.18   27.70
  -7   0  -2    1.60    4.20
   7   0   2   -3.20    3.20
  -7   0  -2   -2.00    2.90
   8   0   2 1968.50   51.39
  -8   0  -2 1936.51   51.49
   9   0   2    5.50    6.20
  -9   0  -2   -0.20    5.80
 -10   0  -2 2136.39   61.29
  10   0   2 2173.98   61.09
 -10  -1   2   74.29   13.60
  10  -1  -2  106.09   14.50
 -10   1   2  104.69   14.40
  10   1  -2  104.29   14.50
  -9  -1   2 1462.15   45.90
   9  -1  -2 1450.45   45.30
  -9   1   2 1480.55   45.30
   9   1  -2 1475.25   44.80
   8  -1  -2  298.87   18.20
  -8  -1   2  297.67   18.00
   8  -1  -2  295.27   14.80
   8   1  -2  313.87   17.60
  -8   1   2  335.67   18.50
   7  -1  -2 1794.62   47.00
  -7  -1   2 1795.92   47.00
  -7  -1   2 1803.22   38.40
   7  -1  -2 1795.22   42.10
   7   1  -2 1756.62   45.60
  -7   1   2 1820.72   46.20
   6  -1  -2    0.10    3.40
   6  -1  -2    0.40    2.80
  -6  -1   2   -0.10    3.50
  -6  -1   2    4.80    2.70
  -6   1   2    2.60    3.60
   6   1  -2    5.20    2.30
   6   1  -2    2.00    3.60
   5  -1  -2 1643.34   36.50
  -5  -1   2 1555.94   39.00
   5  -1  -2 1655.73   39.50
  -5  -1   2 1670.83   34.10
  -5   1   2 1579.24   38.40
   5   1  -2 1678.63   32.50
   5   1  -2 1680.13   38.80
  -4  -1   2    9.00    3.60
  -4  -1   2   11.50    2.70
   4  -1  -2   14.20    3.80
   4  -1  -2    7.30    3.10
  -4   1   2    9.50    1.30
   4   1  -2    4.90    2.90
  -4   1   2    4.90    3.20
   4   1  -2   10.00    2.10
  -3  -1   2 7169.48  128.49
  -3  -1   2 7025.20  123.99
   3  -1  -2 7104.99  125.59
   3  -1  -2 7245.98  128.29
  -3   1   2 7089.69  127.89
   3   1  -2 7332.87  127.99
   3   1  -2 7254.37  121.59
  -3   1   2 7295.77  119.99
  -2  -1   2 3586.34   64.69
  -2  -1   2 3617.74   66.59
   2  -1  -2 3463.55   65.49
   2  -1  -2 3675.43   66.49
   2   1  -2 3776.72   62.89
  -2   1   2 3758.22   62.09
  -2   1   2 3496.15   66.59
   2   1  -2 3718.83   66.69
   1  -1  -2 3651.63   65.79
   1  -1  -2 3712.43   65.09
  -1  -1   2 3813.12   65.49
  -1  -1   2 3663.33   65.29
  -1   1   2 3634.34   66.49
  -1   1   2 3722.33   64.29
   1   1  -2 3782.62   66.39
   1   1  -2 3645.24   64.29
   0  -1  -2  -10.40    1.50
   0  -1  -2  -11.60    1.40
   0  -1   2   -8.40    1.70
   0  -1   2  -11.30    1.60
   0   1  -2   -8.90    1.70
   0   1   2  -10.90    1.40
  -1  -1  -2 5294.57   89.89
   1  -1   2 5238.58   89.99
   1  -1   2 5228.38   92.29
  -1  -1  -2 5253.47   92.79
   1   1   2 5215.08   89.59
  -1   1  -2 5256.97   91.49
   1   1   2 5079.19   90.59
  -1   1  -2 5302.37   89.19
   2  -1   2 1784.12   32.80
   2  -1   2 1702.73   35.70
  -2  -1  -2 1728.83   32.70
  -2  -1  -2 1755.72   36.20
  -2   1  -2 1728.93   33.20
  -2   1  -2 1729.23   34.80
   2   1   2 1758.32   33.60
   2   1   2 1773.62   34.10
   3  -1   2 5108.59   93.79
  -3  -1  -2 5083.59   94.19
   3  -1   2 4957.10   88.09
  -3  -1  -2 5044.40   88.59
   3   1   2 5081.09   91.39
  -3   1  -2 5106.99   91.19
   3   1   2 5172.68   90.09
  -3   1  -2 4978.10   90.79
   4  -1   2  449.95   12.20
  -4  -1  -2  459.25   12.90
  -4  -1  -2  455.65   16.30
   4  -1   2  474.65   16.60
   4   1   2  469.05   14.90
  -4   1  -2  445.56   14.50
   4   1   2  448.36   13.40
  -4   1  -2  441.16   14.30
  -5  -1  -2 1441.16   36.80
   5  -1   2 1486.15   37.10
   5  -1   2 1432.66   30.10
  -5  -1  -2 1488.65   31.40
  -5   1  -2 1474.65   33.80
  -5   1  -2 1465.65   35.00
   5   1   2 1514.55   32.30
   5   1   2 1398.36   34.80
   6  -1   2  818.02   19.70
  -6  -1  -2  820.32   21.10
   6  -1   2  774.22   26.10
  -6  -1  -2  794.22   26.50
  -6   1  -2  808.62   23.40
   6   1   2  781.52   24.80
  -6   1  -2  777.42   24.60
   6   1   2  828.12   21.70
   7  -1   2 1699.83   45.50
  -7  -1  -2 1703.83   45.80
   7   1   2 1732.43   44.30
  -7   1  -2 1688.53   43.90
   7   1   2 1740.43   38.70
  -7   1  -2 1756.72   41.60
  -8  -1  -2    2.10    5.20
   8  -1   2    8.00    6.00
   8   1   2    2.70    5.00
  -8   1  -2   -1.90    3.90
  -8   1  -2    0.50    4.70
   9  -1   2  907.41   34.60
  -9  -1  -2 1023.20   36.30
  -9   1  -2  947.71   34.50
   9   1   2 1015.30   35.50
  10  -1   2   44.80   10.30
 -10  -1  -2   46.30   11.30
 -10   1  -2   43.80   11.10
  10   1   2   38.30    9.80
  10  -2  -2  764.82   33.80
 -10  -2   2  712.23   33.60
 -10   2   2  713.03   32.00
  10   2  -2  770.72   32.90
   9  -2  -2   -0.80    4.10
  -9  -2   2    3.40    6.60
   9  -2  -2    2.50    6.20
  -9   2   2   -1.50    6.20
   9   2  -2    3.50    6.40
   8  -2  -2 1753.92   50.49
  -8  -2   2 1793.02   51.19
   8  -2  -2 1876.01   46.70
  -8  -2   2 1835.02   42.10
   8   2  -2 1852.11   49.60
  -8   2   2 1910.71   50.19
  -7  -2   2   -3.60    4.30
  -7  -2   2    0.80    2.90
   7  -2  -2    4.10    3.90
   7  -2  -2   -5.10    4.20
   7   2  -2   -1.90    4.00
  -7   2   2    1.00    4.20
   6  -2  -2  657.03   21.70
  -6  -2   2  644.94   19.40
  -6  -2   2  664.63   24.00
   6  -2  -2  651.23   24.10
   6   2  -2  671.13   22.90
  -6   2   2  680.73   22.90
  -5  -2   2  140.49    8.00
  -5  -2   2  152.28   10.50
   5  -2  -2  129.99    8.60
   5  -2  -2  132.79   10.20
   5   2  -2  145.89    4.50
  -5   2   2  129.49    9.20
   5   2  -2  122.99    9.20
   4  -2  -2 1902.81   43.80
  -4  -2   2 1923.91   40.10
   4  -2  -2 1958.30   42.40
  -4  -2   2 1943.81   44.00
   4   2  -2 1922.11   42.70
  -4   2   2 1889.41   42.30
   4   2  -2 2022.80   34.00
   3  -2  -2  727.63   19.90
  -3  -2   2  696.73   18.40
  -3  -2   2  717.43   20.40
   3  -2  -2  717.33   20.00
  -3   2   2  732.73   13.50
   3   2  -2  736.03   13.90
  -3   2   2  702.33   19.30
   3   2  -2  702.23   19.50
   2  -2  -2 3402.06   63.79
  -2  -2   2 3383.26   64.29
   2  -2  -2 3413.86   64.19
  -2  -2   2 3297.07   62.89
  -2   2   2 3410.66   64.29
  -2   2   2 3542.15   59.59
   2   2  -2 3435.66   59.19
   2   2  -2 3412.26   64.39
   1  -2  -2  118.29    6.20
  -1  -2   2  130.19    6.30
   1  -2  -2  132.59    6.50
   1  -2  -2  137.29    5.50
  -1  -2   2  129.99    5.50
   1   2  -2  112.49    6.20
  -1   2   2  125.39    5.10
   1   2  -2  121.49    5.40
   0  -2  -2 3338.67   61.59
   0  -2  -2 3255.97   59.39
   0  -2  -2 3377.36   58.19
   0  -2   2 3094.49   59.29
   0  -2   2 3350.16   57.49
   0  -2   2 3330.37   61.39
   0   2  -2 3240.88   59.59
   0   2   2 3295.77   59.09
  -1  -2  -2   24.50    3.80
   1  -2   2   21.10    2.80
  -1  -2  -2   21.00    2.80
   1  -2   2   19.90    3.60
  -1   2  -2   12.90    2.90
   1   2   2   26.50    2.80
  -1   2  -2   24.70    2.20
  -2  -2  -2 9999.00  165.08
  -2  -2  -2 9572.34  172.88
   2  -2   2 9522.35  172.08
   2  -2   2 9901.51  166.18
  -2   2  -2 9795.12  169.38
  -2   2  -2 9918.01  168.08
   2   2   2 9905.31  168.88
   3  -2   2   88.59    7.20
   3  -2   2   87.29    4.40
  -3  -2  -2   91.49    7.60
  -3  -2  -2   84.19    4.00
  -3   2  -2   80.49    6.40
   3   2   2   80.39    5.60
  -3   2  -2   85.59    5.40
   4  -2   2 4799.52   83.49
   4  -2   2 4895.31   93.69
  -4  -2  -2 4654.83   93.59
  -4  -2  -2 4829.12   83.19
   4   2   2 4718.23   89.49
  -4   2  -2 4789.62   88.99
   4   2   2 4800.82   88.29
  -4   2  -2 4890.51   90.19
   5  -2   2  149.79   10.80
   5  -2   2  163.48    6.00
  -5  -2  -2  147.69    6.20
   5   2   2  151.78    8.60
  -5   2  -2  140.19    9.10
  -5   2  -2  146.09    9.20
   5   2   2  143.29    9.10
   6  -2   2 3602.84   77.09
  -6  -2  -2 3484.65   77.09
  -6   2  -2 3572.44   72.69
   6   2   2 3579.24   70.39
  -6   2  -2 3639.44   73.29
   6   2   2 3461.85   73.39
   7  -2   2   12.70    6.00
  -7  -2  -2    2.40    5.30
   7   2   2    4.80    4.40
  -7   2  -2   -4.30    3.40
   7   2   2    1.60    3.50
  -7   2  -2    3.40    4.30
  -8  -2  -2 1035.90   35.90
   8  -2   2 1021.30   35.60
   8   2   2 1097.99   30.00
  -8   2  -2 1020.80   33.40
  -8   2  -2 1062.69   32.60
   8   2   2 1016.20   33.60
   9  -2   2  -11.10    4.90
  -9  -2  -2    0.40    6.50
   9   2   2    7.60    6.00
  -9   2  -2   -3.90    5.70
  -9   2  -2   -1.00    4.90
  10  -2   2  669.03   31.40
 -10  -2  -2  637.94   31.30
  10   2   2  701.53   30.80
 -10   2  -2  647.34   30.00
  10  -3  -2   27.60    9.50
 -10  -3   2   43.40   11.90
  10   3  -2   16.00    8.30
 -10   3   2   44.20   10.60
   9  -3  -2  708.73   31.20
   9  -3  -2  676.93   27.30
  -9  -3   2  630.74   30.40
  -9   3   2  663.53   28.70
   9   3  -2  666.73   28.80
  -8  -3   2  158.88   11.30
   8  -3  -2  160.28   16.10
   8  -3  -2  136.49   13.10
  -8  -3   2  162.18   16.10
  -8   3   2  132.39   13.30
   8   3  -2  184.48   16.50
  -7  -3   2 1297.37   40.00
   7  -3  -2 1322.97   37.20
   7  -3  -2 1283.07   39.60
  -7  -3   2 1223.78   33.10
   7   3  -2 1287.97   37.80
  -7   3   2 1281.37   37.20
   6  -3  -2    4.50    4.20
  -6  -3   2    5.10    5.00
   6  -3  -2    4.10    4.70
  -6  -3   2   -0.50    3.10
   6   3  -2    6.40    4.40
  -6   3   2    3.20    3.70
  -5  -3   2 2980.60   64.79
  -5  -3   2 2802.82   58.69
   5  -3  -2 2920.01   61.69
   5  -3  -2 2868.41   63.59
   5   3  -2 2818.62   61.59
  -5   3   2 2882.31   61.29
   4  -3  -2  208.98   11.40
  -4  -3   2  192.98   10.00
   4  -3  -2  181.98   11.20
  -4  -3   2  189.98   11.50
  -4   3   2  191.48   10.10
   4   3  -2  213.28   11.00
  -3  -3   2  884.61   24.10
  -3  -3   2  835.62   22.60
   3  -3  -2  863.71   23.40
   3  -3  -2  841.52   23.90
   3   3  -2  869.01   16.40
  -3   3   2  859.11   17.60
   3   3  -2  826.72   23.00
  -3   3   2  827.32   22.80
  -2  -3   2 1017.60   24.90
  -2  -3   2 1043.40   24.90
   2  -3  -2  971.90   25.20
   2  -3  -2  982.80   24.00
  -2   3   2 1003.90   21.20
   2   3  -2  999.70   25.10
  -2   3   2  983.50   24.70
   2   3  -2 1038.10   21.30
   1  -3  -2 3372.56   64.49
   1  -3  -2 3281.67   63.49
  -1  -3   2 3368.36   62.09
   1  -3  -2 3417.86   62.19
  -1  -3   2 3294.37   63.09
   1   3  -2 3280.47   60.99
   0  -3   2  281.77    8.50
   0  -3  -2  271.57    9.00
   0  -3  -2  261.27    9.80
   0  -3  -2  268.67    9.60
   0  -3   2  252.87   10.60
   0  -3   2  249.18    9.70
   0  -3  -2  281.17   10.90
   0   3  -2  268.67    9.70
  -1  -3  -2 3801.22   71.29
   1  -3   2 3840.62   70.19
  -1  -3  -2 3833.32   73.79
   1  -3   2 3925.91   73.89
  -1  -3  -2 3866.71   69.49
  -1   3  -2 3872.71   71.89
   1   3   2 3785.72   69.79
  -2  -3  -2  377.26   12.90
  -2  -3  -2  361.96   14.30
   2  -3   2  396.36   14.20
  -2  -3  -2  382.66   10.40
   2  -3   2  381.96   11.20
   2   3   2  376.56   11.60
  -2   3  -2  374.56   10.70
   3  -3   2 2786.12   59.59
   3  -3   2 2808.72   52.39
  -3  -3  -2 2949.70   60.89
  -3  -3  -2 2907.71   50.69
  -3  -3  -2 2914.81   57.19
   3   3   2 2836.02   55.89
  -3   3  -2 2737.83   57.59
  -3   3  -2 2857.21   54.69
  -4  -3  -2   16.60    4.30
   4  -3   2   19.00    2.70
   4  -3   2   26.40    5.80
  -4  -3  -2   18.80    5.40
  -4   3  -2   20.30    4.50
  -4   3  -2   18.10    3.70
   4   3   2   21.80    4.40
  -5  -3  -2 2859.01   64.29
   5  -3   2 2734.03   62.89
  -5   3  -2 2798.92   57.89
   5   3   2 2802.32   58.89
   5   3   2 2825.32   58.49
  -5   3  -2 2768.52   60.19
   6  -3   2   76.89   10.50
  -6  -3  -2   78.69   10.60
  -6   3  -2   62.39    7.80
   6   3   2   78.29    8.40
   6   3   2   77.99    9.10
  -6   3  -2   80.49    9.70
   7  -3   2 2090.59   55.59
  -7  -3  -2 2102.39   55.99
  -7   3  -2 2115.39   50.89
   7   3   2 2086.29   49.00
  -7   3  -2 2134.79   51.89
   7   3   2 2125.09   51.69
   8  -3   2  134.79   15.50
  -8  -3  -2  178.68   17.30
   8   3   2  139.79   14.20
   8   3   2  127.99   11.80
  -8   3  -2  149.79   14.50
  -8   3  -2  158.48   14.50
  -9  -3  -2 1470.25   47.60
   9  -3   2 1341.67   45.70
   9   3   2 1342.77   38.40
   9   3   2 1397.26   43.50
  -9   3  -2 1356.26   42.00
  -9   3  -2 1414.26   42.90
  10  -3   2   28.40    9.90
 -10  -3  -2   49.20   12.40
 -10   3  -2   28.20    9.20
  10   3   2   28.40    9.40
 -10   3  -2   41.10   10.10
   9  -4  -2    9.80    7.00
  -9  -4   2    0.90    5.30
   9  -4  -2    6.00    7.20
  -9  -4   2    5.00    7.00
  -9   4   2    8.00    7.20
   9   4  -2   -3.00    6.10
  -8  -4   2 1131.69   40.00
  -8  -4   2 1064.79   32.80
   8  -4  -2 1071.59   36.10
   8  -4  -2 1140.99   40.00
  -8   4   2 1129.49   36.70
   8   4  -2 1069.59   36.60
   7  -4  -2   11.60    5.70
  -7  -4   2   17.80    7.60
  -7  -4   2   20.00    6.40
   7  -4  -2   25.90    7.70
  -7   4   2   16.40    6.40
   7   4  -2   15.80    6.60
  -6  -4   2 3132.59   72.99
   6  -4  -2 3190.68   70.39
  -6  -4   2 3095.49   66.79
   6  -4  -2 3019.00   71.49
   6   4  -2 3192.78   69.89
  -6   4   2 3178.48   69.39
  -5  -4   2  191.08   13.50
  -5  -4   2  210.98   11.90
   5  -4  -2  244.98   14.40
   5  -4  -2  211.78   13.30
   5   4  -2  215.18   12.90
  -5   4   2  193.68   11.90
  -4  -4   2 1893.11   46.80
   4  -4  -2 2054.49   46.60
  -4  -4   2 1967.90   44.70
   4  -4  -2 1910.51   46.00
  -4   4   2 1943.51   45.00
   4   4  -2 1924.21   45.50
   3  -4  -2    9.50    3.80
  -3  -4   2    3.20    2.90
  -3  -4   2   14.00    4.10
   3  -4  -2    9.00    3.70
  -3   4   2    9.20    2.40
  -3   4   2    7.90    3.50
   3   4  -2    8.50    3.90
   3   4  -2    9.70    2.20
   2  -4  -2 2234.48   48.50
  -2  -4   2 2220.18   46.80
  -2  -4   2 2129.49   47.10
   2  -4  -2 2262.47   46.80
  -2   4   2 2277.17   48.00
   2   4  -2 2184.48   48.00
   2   4  -2 2183.68   42.90
   1  -4  -2   11.70    3.10
   1  -4  -2    8.10    3.60
   1  -4  -2   12.50    3.80
  -1  -4   2    5.10    3.20
   1  -4  -2    8.70    3.10
  -1  -4   2   11.60    3.10
   1   4  -2    8.70    2.90
   0  -4   2 3423.26   66.99
   0  -4   2 3349.66   62.59
   0  -4  -2 3242.98   63.49
   0  -4  -2 3333.87   66.69
   0  -4  -2 3252.67   63.89
   0  -4  -2 3380.86   63.49
   0  -4   2 3389.96   64.69
   0   4  -2 3205.28   63.49
  -1  -4  -2   21.00    3.60
  -1  -4  -2   11.00    3.50
   1  -4   2   15.80    3.60
  -1  -4  -2   12.10    3.80
   1  -4   2   14.70    2.90
   1  -4   2    6.80    3.70
  -1   4  -2   19.50    3.90
   1   4   2   19.40    3.50
  -2  -4  -2 1085.89   30.20
  -2  -4  -2 1140.09   24.90
   2  -4   2 1190.58   30.70
  -2  -4  -2 1108.99   28.40
   2  -4   2 1136.89   26.20
   2   4   2 1123.29   26.70
  -2   4  -2 1173.28   25.50
  -2   4  -2 1151.48   29.40
  -3  -4  -2   60.79    4.20
   3  -4   2   58.79    5.30
  -3  -4  -2   60.59    8.20
   3  -4   2   44.30    6.50
  -3  -4  -2   60.99    7.20
  -3   4  -2   51.19    7.10
  -3   4  -2   59.99    5.70
   3   4   2   64.59    6.30
   4  -4   2 1435.06   38.60
  -4  -4  -2 1414.26   39.00
  -4  -4  -2 1379.76   35.20
   4   4   2 1421.06   34.30
  -4   4  -2 1408.06   36.70
  -4   4  -2 1402.86   32.60
  -5  -4  -2   25.80    7.00
   5  -4   2   32.90    7.50
  -5   4  -2   23.00    6.20
   5   4   2   29.00    5.80
  -5   4  -2   23.10    4.90
  -6  -4  -2  880.31   32.30
   6  -4   2  914.41   32.10
  -6   4  -2  904.71   26.90
  -6   4  -2  852.11   29.40
   6   4   2  860.21   27.60
   6   4   2  951.10   28.70
  -7  -4  -2   24.70    8.60
   7  -4   2   25.80    7.70
   7   4   2   30.20    6.50
  -7   4  -2   24.40    7.70
   7   4   2   27.40    6.80
  -7   4  -2   29.20    7.10
  -8  -4  -2 1553.04   49.80
   8  -4   2 1562.14   49.50
   8   4   2 1597.74   43.40
  -8   4  -2 1556.64   45.90
  -8   4  -2 1581.24   44.00
   8   4   2 1690.23   46.20
   9  -4   2   44.90   11.00
  -9  -4  -2   32.70   10.50
   9   4   2   47.70    9.20
   9   4   2   41.80    9.50
  -9   4  -2   38.60    9.30
  -9   4  -2   35.00    9.00
   8  -5  -2   12.20    7.10
   8  -5  -2   28.90    9.00
  -8  -5   2   14.50    6.90
  -8  -5   2   13.50    8.70
   8   5  -2   19.40    7.70
  -8   5   2   14.90    7.00
   7  -5  -2 2303.07   59.99
  -7  -5   2 2302.27   62.69
   7  -5  -2 2279.57   61.39
  -7  -5   2 2324.57   56.39
  -7   5   2 2289.47   57.69
   7   5  -2 2363.16   59.49
   6  -5  -2    4.30    4.60
  -6  -5   2   -0.10    4.60
  -6  -5   2   12.00    6.00
   6  -5  -2    0.50    5.00
   6   5  -2    7.40    5.40
  -6   5   2   -0.20    4.50
   5  -5  -2 1842.32   47.90
  -5  -5   2 1845.82   46.20
   5  -5  -2 1846.22   48.40
  -5  -5   2 1844.62   49.00
   5   5  -2 1841.32   46.70
  -5   5   2 1784.52   45.40
   4  -5  -2   21.30    5.80
   4  -5  -2   11.10    5.20
  -4  -5   2    6.50    4.00
  -4  -5   2   23.50    5.80
  -4   5   2   24.70    5.50
   4   5  -2   17.50    5.50
   3  -5  -2 2530.75   56.99
  -3  -5   2 2569.44   56.09
  -3  -5   2 2473.25   55.39
   3  -5  -2 2552.24   55.49
  -3   5   2 2540.15   55.59
   3   5  -2 2453.45   55.99
  -3   5   2 2456.65   48.90
  -2  -5   2  263.17   13.20
  -2  -5   2  269.17   12.40
   2  -5  -2  233.28   12.90
   2  -5  -2  254.37   12.30
   2   5  -2  270.07   10.50
   2   5  -2  273.67   13.60
   1  -5  -2 1950.20   42.20
  -1  -5   2 1959.80   44.50
   1  -5  -2 1971.00   45.00
   1  -5  -2 1985.30   43.60
   1  -5  -2 2022.90   45.60
  -1  -5   2 1990.20   42.60
   1   5  -2 1924.01   41.90
   0  -5   2  116.69    8.90
   0  -5   2  113.39    7.20
   0  -5  -2  108.69    8.00
   0  -5   2  118.19    8.40
   0  -5  -2  107.49    7.70
   0  -5  -2   99.69    9.20
   0  -5  -2  105.09    7.90
   0   5  -2  115.99    8.20
  -1  -5  -2 1085.59   27.00
   1  -5   2 1078.99   30.60
   1  -5   2 1107.99   25.90
  -1  -5  -2 1110.69   28.90
   1  -5   2 1036.10   27.30
  -1  -5  -2 1094.49   30.30
   1   5   2 1064.19   27.10
  -1   5  -2 1089.49   29.00
  -2  -5  -2   95.99    9.40
  -2  -5  -2   85.79    9.40
   2  -5   2   77.89    8.90
  -2  -5  -2   87.79    6.30
   2  -5   2   85.79    6.80
  -2   5  -2   80.89    6.30
   2   5   2   81.09    7.60
  -2   5  -2   94.99    9.40
  -3  -5  -2  850.41   26.30
   3  -5   2  916.81   22.90
  -3  -5  -2  833.32   28.10
   3  -5   2  857.51   28.10
  -3   5  -2  890.51   23.10
   3   5   2  898.21   24.70
  -3   5  -2  834.02   27.10
   4  -5   2    4.50    5.00
  -4  -5  -2    6.00    4.60
  -4  -5  -2    6.10    5.60
   4   5   2   10.10    4.00
  -4   5  -2    9.30    3.60
  -4   5  -2   11.30    5.10
  -5  -5  -2 1677.43   43.20
  -5  -5  -2 1614.64   47.10
   5  -5   2 1699.33   47.00
  -5   5  -2 1676.93   45.00
   5   5   2 1695.23   41.70
  -5   5  -2 1621.14   39.40
   6  -5   2   45.30    9.90
  -6  -5  -2   56.89   10.80
   6   5   2   62.59    9.70
  -6   5  -2   72.29   10.90
  -6   5  -2   63.89    8.40
   6   5   2   35.40    7.40
  -7  -5  -2  833.02   34.50
   7  -5   2  880.81   34.70
   7   5   2  820.02   29.60
   7   5   2  830.62   29.30
  -7   5  -2  849.72   31.80
   8  -5   2    1.20    7.20
  -8  -5  -2    6.80    8.20
  -8   5  -2   11.60    6.90
   8   5   2   16.90    7.10
   8   5   2    7.00    6.00
  -7  -6   2   -2.00    6.50
  -7  -6   2   -3.50    5.30
   7  -6  -2    4.20    6.60
   7  -6  -2    8.80    6.60
  -7   6   2    6.90    5.80
   7   6  -2    6.30    6.30
  -6  -6   2  695.93   27.20
   6  -6  -2  708.73   29.10
  -6  -6   2  656.83   29.00
   6  -6  -2  652.13   28.40
  -6   6   2  723.53   26.90
   6   6  -2  704.53   28.00
  -5  -6   2   67.99   10.60
   5  -6  -2   79.79   11.50
   5  -6  -2   70.89   10.50
  -5  -6   2   74.79   10.00
   5   6  -2   52.19    8.70
  -5   6   2   53.69    8.70
  -4  -6   2  989.50   32.00
   4  -6  -2  982.80   33.30
  -4  -6   2 1008.80   32.50
   4  -6  -2 1056.19   32.20
   4   6  -2 1021.00   32.40
  -4   6   2  980.10   30.90
   3  -6  -2    0.50    3.80
   3  -6  -2    5.60    4.90
  -3  -6   2    5.80    4.20
  -3  -6   2   -5.20    3.90
  -3   6   2    0.40    3.60
   3   6  -2    0.30    3.90
  -2  -6   2 3013.70   66.89
   2  -6  -2 3183.08   68.49
  -2  -6   2 3043.40   64.99
   2  -6  -2 3226.58   66.79
  -2   6   2 3125.09   67.49
   2   6  -2 3039.30   68.19
   1  -6  -2   67.99    7.80
   1  -6  -2   59.29    8.10
   1  -6  -2   59.69    7.40
  -1  -6   2   54.49    7.70
  -1  -6   2   54.99    7.00
   1  -6  -2   53.89    8.10
   1   6  -2   54.69    6.80
   1   6  -2   55.49    8.50
   0  -6  -2 1936.31   44.40
   0  -6   2 1884.71   44.70
   0  -6   2 1799.12   46.50
   0  -6  -2 1894.01   46.50
   0  -6   2 1968.30   42.70
   0  -6  -2 1883.61   44.40
   0  -6  -2 1901.51   43.90
   0   6  -2 1905.71   44.10
  -1  -6  -2  130.09    9.20
   1  -6   2  120.39   11.80
  -1  -6  -2  116.99   11.00
  -1  -6  -2  116.99   11.10
   1  -6   2  112.69    9.10
   1   6   2  128.49    9.20
  -1   6  -2  132.69   10.20
   2  -6   2 1953.80   43.80
   2  -6   2 1847.22   48.20
  -2  -6  -2 1885.61   48.30
  -2  -6  -2 1968.50   46.90
  -2   6  -2 1900.61   47.20
   2   6   2 1936.11   44.60
  -3  -6  -2   69.29   10.00
   3  -6   2   66.49    9.80
  -3  -6  -2   64.29    9.50
   3   6   2   67.09    8.10
  -3   6  -2   60.99    9.20
  -4  -6  -2 1728.83   45.70
  -4  -6  -2 1718.73   48.80
   4  -6   2 1808.62   49.00
  -4   6  -2 1784.22   47.60
   4   6   2 1711.53   42.90
  -5  -6  -2   19.80    7.80
   5  -6   2    5.10    6.00
  -5   6  -2   20.00    7.00
   5   6   2    6.50    4.90
  -6  -6  -2 1359.16   46.10
   6  -6   2 1382.66   45.10
   6   6   2 1346.67   41.00
  -6   6  -2 1338.87   42.80
   6   6   2 1415.06   39.90
  -7  -6  -2   29.30   10.50
   7  -6   2   39.40   10.40
   7   6   2   15.60    6.90
   7   6   2   32.30    8.30
  -7   6  -2   51.09   10.50
   6  -7  -2   -1.00    5.90
   6  -7  -2   -3.50    6.00
  -6  -7   2    2.40    6.90
  -6  -7   2    5.00    6.80
   6   7  -2   -7.80    5.20
  -6   7   2    4.60    6.00
  -5  -7   2  915.71   33.00
   5  -7  -2  900.81   33.00
  -5  -7   2  919.41   33.60
   5  -7  -2  821.72   33.10
  -5   7   2  886.41   31.00
   5   7  -2  906.51   32.60
   4  -7  -2   49.50    9.60
  -4  -7   2   34.80    8.70
   4  -7  -2   55.69    9.50
   4   7  -2   37.80    8.60
  -4   7   2   70.59   10.20
   3  -7  -2  663.73   26.90
  -3  -7   2  645.54   25.90
   3  -7  -2  649.24   24.90
  -3   7   2  617.24   24.50
   3   7  -2  626.84   25.60
  -2  -7   2    9.90    5.90
   2  -7  -2    3.20    4.70
   2  -7  -2    4.70    4.90
  -2   7   2   14.60    5.50
   2   7  -2    8.40    5.30
   1  -7  -2 2035.40   50.09
   1  -7  -2 1971.40   49.50
  -1  -7   2 1965.50   49.40
   1  -7  -2 1948.51   47.90
   1   7  -2 1923.21   50.49
   0  -7   2   -0.20    4.30
   0  -7  -2    1.70    4.10
   0  -7  -2    3.30    4.70
   0  -7  -2   -0.20    4.00
   0  -7   2    1.00    4.70
   0   7  -2    7.80    4.60
   0   7   2    3.20    4.10
  -1  -7  -2 1606.44   42.80
   1  -7   2 1614.24   41.60
  -1  -7  -2 1643.44   44.60
   1  -7   2 1612.04   44.90
   1   7   2 1670.43   41.90
  -1   7  -2 1636.44   43.00
  -2  -7  -2   34.20    8.00
  -2  -7  -2   40.20    8.30
   2  -7   2   33.40    6.80
   2  -7   2   32.50    7.60
   2   7   2   52.39    8.00
  -2   7  -2   36.40    7.70
  -3  -7  -2 1488.35   42.30
   3  -7   2 1430.26   43.80
  -3  -7  -2 1504.75   44.30
  -3   7  -2 1478.25   43.10
   3   7   2 1507.25   39.70
   4  -7   2   31.40    8.70
  -4  -7  -2   34.90    9.20
   4   7   2   20.10    6.30
  -4   7  -2   21.80    7.60
   5  -7   2 1746.93   52.49
  -5  -7  -2 1663.33   52.29
  -5   7  -2 1748.82   50.89
   6  -7   2   -0.80    7.30
  -6  -7  -2    6.10    8.30
  -6   7  -2   14.00    7.10
   6   7   2    7.80    6.40
  -4  -8   2  984.70   36.00
   4  -8  -2  948.01   36.70
   4   8  -2  979.40   35.70
   3  -8  -2   35.70    9.00
  -3  -8   2   36.60    9.00
   3   8  -2   49.90   10.10
  -3   8   2   45.20    9.30
  -2  -8   2  942.01   33.30
   2  -8  -2  866.21   32.50
  -2   8   2  884.11   31.60
   2   8  -2  883.91   32.90
  -1  -8   2   74.69   11.00
   1  -8  -2   73.29   10.80
   1  -8  -2   57.59   10.10
   1   8  -2   91.69   12.60
  -1   8   2   65.39    9.50
   0  -8   2  958.80   32.00
   0  -8  -2  941.61   32.80
   0   8  -2  873.61   33.00
  -1  -8  -2   99.19   13.20
   1  -8   2  103.59   11.90
   1  -8   2  103.89   13.50
  -1   8  -2  106.09   12.60
   2  -8   2 1110.79   38.20
  -2  -8  -2 1183.08   38.50
  -2   8  -2 1067.69   36.60
   3  -8   2   73.09   11.70
  -3  -8  -2   56.99   11.00
  -3   8  -2   40.60    9.90
   4  -8   2 1037.30   39.30
  -4  -8  -2 1014.40   38.50
  10   0  -3    1.20    5.80
 -10   0   3   -3.60    6.50
   9   0  -3  329.27   20.20
  -9   0   3  321.77   19.70
  -8   0   3    4.10    4.80
   8   0  -3    3.80    5.10
   7   0  -3 1308.67   37.40
   7   0  -3 1357.86   32.20
  -7   0   3 1285.87   37.50
  -6   0   3    3.20    3.80
  -6   0   3    2.10    1.90
   6   0  -3    2.70    3.60
   6   0  -3    1.00    2.30
   5   0  -3 5520.35   99.49
   5   0  -3 5467.45  104.59
  -5   0   3 5629.04   96.49
  -5   0   3 5466.35  105.19
  -4   0   3    1.30    2.50
   4   0  -3   -1.80    2.30
   4   0  -3    0.40    1.80
  -4   0   3   -0.60    1.30
  -3   0   3 6655.73  123.89
  -3   0   3 7276.17  119.19
   3   0  -3 7065.69  120.69
   3   0  -3 6788.72  123.29
  -2   0   3   -4.10    1.30
   2   0  -3   -3.30    1.50
   2   0  -3   -5.50    1.40
  -2   0   3   -1.40    1.40
  -1   0   3 3663.93   63.99
   1   0  -3 3603.64   64.49
   1   0  -3 3611.34   63.69
  -1   0   3 3611.54   64.49
   0   0   3  -14.40    1.00
   0   0  -3  -14.10    1.20
   0   0   3  -13.80    1.40
   0   0  -3  -15.70    1.50
   1   0   3 3237.88   57.59
  -1   0  -3 3202.98   59.39
  -1   0  -3 3312.47   58.09
   1   0   3 3210.58   58.99
   2   0   3   -1.90    2.10
  -2   0  -3   -7.70    1.60
  -2   0  -3   -6.00    1.60
   2   0   3   -6.00    1.70
  -3   0  -3 5876.51  106.99
   3   0   3 6031.20  104.69
   3   0   3 5855.11  106.89
  -3   0  -3 5883.91  105.39
   4   0   3    5.60    3.10
  -4   0  -3    0.50    2.40
   4   0   3    0.60    2.10
  -4   0  -3   -1.70    2.00
  -5   0  -3 2191.38   48.80
   5   0   3 2167.78   48.40
   5   0   3 2182.18   44.50
  -5   0  -3 2199.88   45.90
   6   0   3   -1.40    3.30
  -6   0  -3   -3.70    3.30
   6   0   3    0.60    2.40
  -6   0  -3   -2.20    2.80
   7   0   3 1059.59   32.80
  -7   0  -3 1040.30   32.70
  -7   0  -3 1071.59   29.00
   7   0   3 1083.49   27.20
  -8   0  -3    2.00    5.00
   8   0   3    6.90    5.30
  -9   0  -3  576.54   26.20
   9   0   3  533.85   25.60
  10   0   3   -2.30    6.40
 -10   0  -3   -3.20    6.00
 -10  -1   3 1270.17   44.70
  10  -1  -3 1252.57   43.80
 -10   1   3 1296.97   44.30
  10   1  -3 1224.78   42.90
   9  -1  -3    5.90    5.30
  -9  -1   3    9.00    6.70
   9  -1  -3    5.90    5.90
   9   1  -3   10.30    6.50
  -9   1   3    8.30    6.30
  -8  -1   3 1031.70   35.20
   8  -1  -3 1085.19   35.80
   8  -1  -3 1048.00   30.40
  -8   1   3 1078.19   35.30
   8   1  -3 1057.29   34.70
  -7  -1   3  189.88   13.20
   7  -1  -3  194.08   13.70
  -7  -1   3  193.88    9.50
   7  -1  -3  176.88   10.70
  -7   1   3  149.88   11.80
   7   1  -3  194.28   13.10
   6  -1  -3 1804.22   41.60
  -6  -1   3 1929.61   46.10
   6  -1  -3 1847.32   45.40
  -6  -1   3 1810.92   38.30
  -6   1   3 1798.72   44.70
   6   1  -3 1893.21   37.80
   6   1  -3 1833.82   44.60
  -5  -1   3  503.85   18.20
   5  -1  -3  477.75   15.90
   5  -1  -3  464.35   17.40
  -5  -1   3  463.75   14.00
   5   1  -3  471.55   17.30
  -5   1   3  504.95   10.70
   5   1  -3  508.75   13.50
  -5   1   3  470.05   17.30
   4  -1  -3 3500.15   69.09
   4  -1  -3 3456.45   66.89
  -4  -1   3 3513.35   69.29
  -4  -1   3 3543.05   64.79
  -4   1   3 3538.25   60.59
   4   1  -3 3560.54   68.89
   4   1  -3 3403.66   62.89
  -4   1   3 3538.55   69.09
  -3  -1   3  152.68    6.80
  -3  -1   3  152.48    7.80
   3  -1  -3  165.68    7.90
   3  -1  -3  169.08    8.10
  -3   1   3  166.58    5.20
   3   1  -3  153.48    6.10
  -3   1   3  166.78    8.30
   3   1  -3  164.98    8.20
  -2  -1   3 1818.62   36.80
   2  -1  -3 1930.01   37.20
  -2  -1   3 1897.71   37.40
   2  -1  -3 1857.51   37.90
   2   1  -3 1989.30   35.90
   2   1  -3 1854.51   37.80
  -2   1   3 1924.71   38.40
  -2   1   3 1916.11   34.80
  -1  -1   3 1651.33   32.10
   1  -1  -3 1652.93   30.20
  -1  -1   3 1637.24   30.60
   1  -1  -3 1622.14   32.60
   1  -1  -3 1645.74   32.70
  -1   1   3 1628.14   31.40
   1   1  -3 1593.24   31.50
   0  -1  -3 5231.38   89.99
   0  -1  -3 5043.70   88.59
   0  -1   3 4971.80   88.29
   0  -1   3 5199.08   89.39
   0   1   3 4916.91   88.49
   0   1  -3 4970.30   89.09
  -1  -1  -3  502.75   13.10
   1  -1   3  516.15   13.50
  -1  -1  -3  521.25   13.80
   1  -1   3  500.55   13.10
  -1   1  -3  535.85   14.60
   1   1   3  523.75   13.60
   1   1   3  523.55   10.80
  -1   1  -3  529.85   10.50
  -2  -1  -3 4183.88   74.69
   2  -1   3 4127.49   74.49
   2  -1   3 3995.60   76.79
  -2  -1  -3 4217.08   77.69
  -2   1  -3 4243.18   74.19
   2   1   3 4150.98   75.39
  -2   1  -3 4264.97   76.89
   2   1   3 4261.67   74.39
   3  -1   3  464.85   15.30
   3  -1   3  467.85   13.10
  -3  -1  -3  475.15   13.60
  -3  -1  -3  475.65   15.60
   3   1   3  504.05   14.00
  -3   1  -3  486.95   13.70
   3   1   3  483.85   14.00
  -3   1  -3  485.05   15.00
   4  -1   3 5861.51  108.79
   4  -1   3 5704.13  102.69
  -4  -1  -3 5798.02  109.19
  -4  -1  -3 5847.42  103.39
   4   1   3 5832.02  106.29
  -4   1  -3 5638.04  105.49
   4   1   3 5767.02  104.09
  -4   1  -3 5921.11  106.19
  -5  -1  -3   41.00    5.00
   5  -1   3   26.80    4.00
   5  -1   3   47.80    7.00
  -5  -1  -3   32.20    6.20
   5   1   3   44.20    5.40
  -5   1  -3   47.70    6.10
   5   1   3   34.70    5.50
  -5   1  -3   33.80    5.20
  -6  -1  -3 2590.04   59.39
  -6  -1  -3 2683.13   53.09
   6  -1   3 2651.14   51.49
   6  -1   3 2611.34   59.29
  -6   1  -3 2654.23   55.89
   6   1   3 2637.74   53.39
  -6   1  -3 2527.95   56.89
   6   1   3 2445.76   56.69
   7  -1   3   33.40    7.80
  -7  -1  -3   28.90    7.10
   7   1   3   28.80    6.80
   7   1   3   28.10    5.40
  -7   1  -3   28.70    6.00
  -7   1  -3   27.90    6.70
   8  -1   3  645.74   26.80
  -8  -1  -3  665.83   27.30
   8   1   3  676.03   26.60
  -8   1  -3  665.63   25.90
  -8   1  -3  688.43   24.30
   9  -1   3  164.98   16.90
  -9  -1  -3  131.09   15.70
  -9   1  -3  133.19   14.80
   9   1   3  166.58   16.80
 -10  -1  -3 1058.29   40.10
  10  -1   3 1085.89   40.10
 -10   1  -3 1104.39   40.00
  10   1   3 1083.49   39.50
 -10  -2   3    6.40    8.30
  10  -2  -3    4.70    7.50
  10   2  -3   17.80    8.40
 -10   2   3    0.60    7.30
  -9  -2   3 1992.80   57.89
   9  -2  -3 2012.80   51.59
   9  -2  -3 2134.09   58.49
  -9   2   3 2031.70   56.39
   9   2  -3 2060.09   56.59
  -8  -2   3   31.90    6.00
   8  -2  -3   45.10    9.50
  -8  -2   3   43.80    9.60
   8  -2  -3   34.50    7.30
   8   2  -3   31.40    8.00
  -8   2   3   34.30    7.90
  -7  -2   3 2275.57   56.99
  -7  -2   3 2273.97   48.80
   7  -2  -3 2317.97   57.19
   7  -2  -3 2277.87   52.39
  -7   2   3 2302.17   55.59
   7   2  -3 2239.78   54.99
   6  -2  -3    5.50    4.30
  -6  -2   3    9.00    3.30
   6  -2  -3    4.60    3.30
  -6  -2   3    1.70    4.10
   6   2  -3    6.70    4.40
  -6   2   3    2.40    3.80
   5  -2  -3 1608.34   38.30
  -5  -2   3 1650.13   40.80
  -5  -2   3 1582.34   35.80
   5  -2  -3 1604.64   40.40
  -5   2   3 1593.04   39.30
   5   2  -3 1716.23   30.90
   5   2  -3 1619.34   39.30
   4  -2  -3   30.60    5.30
  -4  -2   3   47.80    5.40
   4  -2  -3   36.60    5.80
  -4  -2   3   26.40    4.80
  -4   2   3   39.40    5.70
   4   2  -3   47.80    3.10
   4   2  -3   34.10    5.50
  -3  -2   3 2426.96   49.80
  -3  -2   3 2405.66   47.90
   3  -2  -3 2318.37   49.20
   3  -2  -3 2371.46   49.30
   3   2  -3 2525.35   43.80
   3   2  -3 2417.36   49.50
  -3   2   3 2462.55   42.90
  -3   2   3 2386.76   49.60
  -2  -2   3 1160.68   26.30
   2  -2  -3 1163.08   27.20
   2  -2  -3 1215.98   25.90
   2   2  -3 1220.08   24.00
  -2   2   3 1154.98   27.10
  -2   2   3 1193.08   24.00
   2   2  -3 1136.09   26.90
  -1  -2   3 3560.34   65.09
   1  -2  -3 3558.74   62.59
  -1  -2   3 3668.53   63.39
   1  -2  -3 3485.45   65.39
   1  -2  -3 3579.04   66.59
  -1   2   3 3377.06   63.09
   1   2  -3 3479.85   66.09
   1   2  -3 3445.86   63.99
   0  -2   3  543.55   10.30
   0  -2  -3  487.75   13.90
   0  -2   3  524.95   14.10
   0  -2   3  501.85   14.70
   0  -2  -3  533.05   11.00
   0   2  -3  510.65   14.50
   0   2   3  527.65   13.80
   1  -2   3 2158.78   44.40
   1  -2   3 2255.67   42.60
  -1  -2  -3 2163.08   42.10
  -1   2  -3 2257.87   38.50
   1   2   3 2330.37   40.00
  -1   2  -3 2102.79   43.90
   1   2   3 2167.28   43.20
   2  -2   3 1189.58   28.20
  -2  -2  -3 1181.58   24.70
  -2  -2  -3 1121.79   28.10
   2  -2   3 1188.88   25.10
   2   2   3 1181.18   24.30
  -2   2  -3 1160.68   23.20
  -2   2  -3 1187.48   27.70
   2   2   3 1180.58   26.70
  -3  -2  -3 2137.79   47.00
   3  -2   3 2190.88   41.20
   3  -2   3 2010.40   45.90
  -3  -2  -3 2164.38   40.80
   3   2   3 2147.59   42.40
  -3   2  -3 2200.38   41.80
  -3   2  -3 2101.39   45.00
   3   2   3 2125.29   43.80
   4  -2   3    4.30    3.70
  -4  -2  -3    1.60    3.20
   4  -2   3    0.40    1.70
  -4  -2  -3    4.30    2.30
  -4   2  -3    2.20    2.30
   4   2   3    4.60    2.60
  -4   2  -3    1.30    3.20
   4   2   3    3.50    2.80
  -5  -2  -3 2786.92   61.69
   5  -2   3 2735.13   51.69
  -5  -2  -3 2651.43   52.09
   5  -2   3 2788.62   61.29
   5   2   3 2767.32   57.49
   5   2   3 2726.53   56.19
  -5   2  -3 2795.52   56.69
  -5   2  -3 2731.73   58.19
   6  -2   3   27.90    6.40
  -6  -2  -3   42.80    7.60
  -6   2  -3   46.20    6.60
  -6   2  -3   44.50    6.80
   6   2   3   46.80    7.10
   6   2   3   47.60    6.40
   7  -2   3 1872.61   49.40
  -7  -2  -3 1819.22   49.20
   7   2   3 1749.72   45.80
   7   2   3 1802.02   43.00
  -7   2  -3 1853.41   45.80
  -7   2  -3 1898.91   46.30
  -8  -2  -3    6.60    6.00
   8  -2   3   -0.30    5.00
   8   2   3    8.10    5.30
  -8   2  -3    6.10    5.30
  -8   2  -3    4.60    5.10
   8   2   3    7.60    4.50
   9  -2   3 1706.63   50.89
  -9  -2  -3 1658.43   50.69
  -9   2  -3 1806.12   47.70
  -9   2  -3 1659.23   47.90
   9   2   3 1575.74   47.70
 -10  -2  -3   -3.30    6.80
  10  -2   3   -1.30    6.10
  10   2   3    2.10    7.10
 -10   2  -3   -5.90    6.40
  10  -3  -3 1201.68   44.60
 -10  -3   3 1196.28   45.50
  10  -3  -3 1236.38   40.20
  10   3  -3 1291.57   44.50
 -10   3   3 1171.48   42.70
   9  -3  -3   42.80    9.00
  -9  -3   3   71.99   12.80
   9  -3  -3   81.29   13.50
   9   3  -3   64.19   11.60
  -9   3   3   84.79   12.50
   8  -3  -3 1472.85   42.80
   8  -3  -3 1571.44   47.10
  -8  -3   3 1594.94   47.80
  -8  -3   3 1528.25   39.20
   8   3  -3 1548.55   45.20
  -8   3   3 1579.64   45.10
  -7  -3   3  153.28   15.40
  -7  -3   3  174.68   11.30
   7  -3  -3  184.08   16.50
   7  -3  -3  166.18   12.60
   7   3  -3  180.08   13.50
  -7   3   3  192.28   13.80
  -6  -3   3 2736.63   58.89
  -6  -3   3 2881.01   65.89
   6  -3  -3 2774.02   64.69
   6  -3  -3 2826.62   62.29
   6   3  -3 2801.12   63.19
  -6   3   3 2842.12   62.99
   5  -3  -3  618.84   22.10
   5  -3  -3  666.93   23.20
  -5  -3   3  657.83   20.60
  -5  -3   3  652.53   23.50
   5   3  -3  634.84   22.20
  -5   3   3  689.63   22.50
  -4  -3   3 1828.02   40.90
   4  -3  -3 1872.61   43.00
   4  -3  -3 1857.01   42.80
  -4  -3   3 1802.72   43.40
  -4   3   3 1830.12   42.40
   4   3  -3 1816.82   42.30
  -3  -3   3   17.50    4.30
  -3  -3   3   13.70    4.00
   3  -3  -3   17.40    4.30
   3  -3  -3   11.50    3.80
  -3   3   3   19.90    2.80
   3   3  -3   15.10    4.40
  -3   3   3   22.70    4.80
   3   3  -3   19.30    2.50
   2  -3  -3 2585.54   50.19
   2  -3  -3 2597.34   52.89
  -2  -3   3 2516.25   51.49
  -2  -3   3 2605.84   50.99
   2   3  -3 2497.45   52.49
  -2   3   3 2601.04   48.10
  -2   3   3 2523.65   52.49
   2   3  -3 2581.14   48.20
   1  -3  -3  275.07   11.10
  -1  -3   3  286.17   11.40
   1  -3  -3  294.87   11.70
   1  -3  -3  277.67    9.10
  -1  -3   3  266.47    8.90
  -1  -3   3  272.27   10.90
   1   3  -3  282.77   10.20
  -1   3   3  291.87    9.90
   0  -3   3 2864.91   56.29
   0  -3  -3 2937.81   58.59
   0  -3   3 2940.71   58.49
   0  -3  -3 3002.80   53.69
   0  -3   3 3068.69   52.79
   0  -3  -3 2950.50   56.39
   0   3   3 2850.31   55.59
   0   3  -3 2815.72   56.39
   1  -3   3  248.68    9.70
  -1  -3  -3  249.78   11.20
  -1  -3  -3  245.38    9.30
   1  -3   3  259.67   11.20
  -1   3  -3  262.97    7.10
   1   3   3  245.78   10.10
  -1   3  -3  250.77   10.70
   1   3   3  253.57    8.10
  -2  -3  -3 1051.29   28.10
   2  -3   3 1081.39   24.30
   2  -3   3 1017.90   27.40
  -2  -3  -3 1072.09   23.30
  -2   3  -3 1072.89   21.90
   2   3   3 1020.70   25.80
   2   3   3 1080.49   23.40
  -3  -3  -3  232.48    8.10
   3  -3   3  226.18   12.00
   3  -3   3  211.98    8.50
  -3  -3  -3  233.38   12.40
   3   3   3  229.18    9.30
  -3   3  -3  228.68    8.50
   3   3   3  230.88   10.90
   4  -3   3  736.73   17.80
   4  -3   3  737.53   24.20
  -4  -3  -3  714.23   16.60
  -4  -3  -3  694.43   24.30
  -4   3  -3  744.03   19.60
   4   3   3  740.03   20.60
   4   3   3  700.23   21.30
  -4   3  -3  744.93   23.10
  -5  -3  -3  414.26   19.00
   5  -3   3  447.96   19.50
   5   3   3  438.86   16.70
  -5   3  -3  420.76   17.70
  -5   3  -3  419.76   15.20
   5   3   3  404.06   15.60
  -6  -3  -3 1806.82   48.80
  -6   3  -3 1837.32   42.90
   6   3   3 1773.22   43.00
  -6   3  -3 1776.72   45.30
   6   3   3 1802.62   43.60
  -7  -3  -3   -0.60    5.40
   7  -3   3   -0.70    5.30
   7   3   3   -0.30    4.10
   7   3   3   -7.00    3.10
  -7   3  -3    4.10    4.50
  -7   3  -3    2.30    4.10
  -8  -3  -3 2509.05   65.49
   8  -3   3 2411.76   64.29
  -8   3  -3 2492.35   59.89
  -8   3  -3 2483.55   60.99
   8   3   3 2492.35   57.49
   8   3   3 2468.15   60.79
   9  -3   3   49.90   10.70
  -9  -3  -3   70.79   12.50
  -9   3  -3   82.39   12.00
   9   3   3   96.99   11.50
  -9   3  -3  100.09   13.00
   9   3   3   88.89   12.60
   9  -4  -3  789.52   34.40
  -9  -4   3  739.93   27.40
  -9  -4   3  754.52   34.30
   9  -4  -3  773.42   31.20
   9   4  -3  821.12   33.00
  -9   4   3  773.42   31.90
  -8  -4   3   -0.30    6.50
   8  -4  -3    0.10    5.00
   8  -4  -3   -2.60    5.50
  -8  -4   3   -0.40    4.70
  -8   4   3    2.80    5.20
   8   4  -3   -4.40    5.70
   7  -4  -3 1125.99   35.90
   7  -4  -3 1121.39   37.70
  -7  -4   3 1118.39   32.80
  -7  -4   3 1136.09   38.30
  -7   4   3 1131.79   35.50
   7   4  -3 1115.29   35.80
   6  -4  -3   14.60    6.40
  -6  -4   3    7.80    4.90
  -6  -4   3   12.30    5.90
   6  -4  -3   25.10    6.30
   6   4  -3   15.60    6.00
  -6   4   3   26.60    6.80
   5  -4  -3 1306.17   36.40
  -5  -4   3 1300.87   34.20
  -5  -4   3 1303.77   37.20
   5  -4  -3 1184.28   35.40
   5   4  -3 1285.77   35.60
  -5   4   3 1312.17   35.40
  -4  -4   3   35.10    6.40
  -4  -4   3   41.20    6.30
   4  -4  -3   57.29    8.10
   4  -4  -3   50.69    7.00
  -4   4   3   49.60    7.10
   4   4  -3   33.00    6.20
  -3  -4   3 2102.79   47.30
  -3  -4   3 2206.38   47.80
   3  -4  -3 2096.09   46.40
   3  -4  -3 2176.98   49.00
  -3   4   3 2090.09   47.80
  -3   4   3 2114.99   41.50
   3   4  -3 2174.98   40.60
   3   4  -3 2160.58   48.50
  -2  -4   3  561.74   16.70
   2  -4  -3  555.54   18.90
  -2  -4   3  504.65   17.90
   2  -4  -3  564.94   16.80
  -2   4   3  551.14   15.30
   2   4  -3  532.45   15.40
   2   4  -3  526.45   18.50
  -1  -4   3 3287.17   66.69
  -1  -4   3 3255.37   65.09
  -1  -4   3 3378.16   62.09
   1  -4  -3 3293.47   62.69
   1  -4  -3 3153.88   66.19
   1  -4  -3 3332.77   65.59
  -1   4   3 3258.87   62.49
   1   4  -3 3290.87   63.19
   0  -4  -3    8.60    3.40
   0  -4   3    5.10    2.20
   0  -4  -3    5.60    2.50
   0  -4  -3    3.30    3.40
   0  -4   3    4.30    2.90
   0  -4   3    6.30    3.60
   0   4   3    7.20    3.10
   0   4  -3    8.80    3.20
   1  -4   3 4606.94   89.59
  -1  -4  -3 4489.65   89.29
   1  -4   3 4507.85   85.39
  -1  -4  -3 4573.14   84.69
  -1   4  -3 4672.73   87.49
   1   4   3 4656.03   83.89
  -1   4  -3 4643.14   81.99
   1   4   3 4631.34   86.59
  -2  -4  -3   57.09    5.40
  -2  -4  -3   63.59    7.90
   2  -4   3   53.99    5.60
   2  -4   3   65.29    7.90
  -2   4  -3   55.09    4.70
   2   4   3   44.10    5.70
   2   4   3   56.09    5.40
  -2   4  -3   47.90    6.30
  -3  -4  -3 2006.30   48.90
   3  -4   3 1974.20   47.90
   3  -4   3 2041.10   41.50
  -3  -4  -3 2068.89   39.70
   3   4   3 2026.50   45.60
   3   4   3 2022.10   42.70
  -3   4  -3 2025.40   40.90
  -3   4  -3 2021.90   46.70
   4  -4   3   27.10    4.00
  -4  -4  -3   15.10    5.20
   4  -4   3   16.60    5.50
  -4   4  -3   29.60    6.40
   4   4   3   26.60    4.90
   4   4   3   27.40    5.60
  -4   4  -3   34.80    4.90
  -5  -4  -3 1098.19   35.30
   5  -4   3 1043.40   34.10
   5   4   3 1108.59   29.90
  -5   4  -3 1121.89   28.50
   5   4   3 1140.39   31.50
  -5   4  -3 1055.09   32.40
  -6  -4  -3  124.89   13.90
   6  -4   3  125.99   13.70
  -6   4  -3  123.99    9.60
  -6   4  -3  118.79   12.60
   6   4   3  101.59   10.50
   6   4   3  123.59   11.30
   7  -4   3 1872.21   53.19
  -7  -4  -3 1838.62   53.59
   7   4   3 1863.81   47.90
  -7   4  -3 1857.51   46.40
  -7   4  -3 1913.91   50.89
   7   4   3 1883.81   47.80
   8  -4   3   43.80   10.80
  -8  -4  -3   30.00    9.60
  -8   4  -3   21.10    7.80
   8   4   3   35.60    8.50
   8   4   3   36.00    7.90
   9  -4   3  948.81   38.90
  -9  -4  -3 1004.60   39.90
   9   4   3  942.61   33.10
   9   4   3  965.90   35.60
  -9   4  -3 1042.00   37.60
  -8  -5   3 1302.47   39.00
   8  -5  -3 1339.67   43.30
   8  -5  -3 1206.98   43.50
  -8  -5   3 1227.78   44.60
   8   5  -3 1308.47   42.80
  -8   5   3 1284.77   41.50
   7  -5  -3  132.79   15.50
   7  -5  -3  115.79   14.30
  -7  -5   3  100.29   11.70
  -7  -5   3  111.19   14.50
  -7   5   3  147.99   15.10
   7   5  -3  116.19   13.00
   6  -5  -3  527.35   23.40
  -6  -5   3  478.65   23.60
  -6  -5   3  496.65   21.50
   6  -5  -3  522.65   23.30
   6   5  -3  498.85   22.60
  -6   5   3  520.55   22.30
   5  -5  -3  108.59   11.40
  -5  -5   3  107.59   10.90
  -5  -5   3  140.59   13.80
   5  -5  -3  118.59   12.00
   5   5  -3  141.99   12.90
  -5   5   3  141.29   13.10
  -4  -5   3 1649.13   41.60
   4  -5  -3 1596.44   42.70
  -4  -5   3 1656.53   42.00
   4  -5  -3 1651.33   41.00
   4   5  -3 1528.35   41.50
  -4   5   3 1561.24   41.10
   3  -5  -3    1.50    3.30
  -3  -5   3    5.90    3.90
  -3  -5   3    1.00    3.70
   3  -5  -3    1.10    3.40
  -3   5   3    7.20    4.10
  -3   5   3    6.30    2.90
   3   5  -3    0.80    4.00
  -2  -5   3 4156.48   86.49
   2  -5  -3 4513.35   85.29
   2  -5  -3 4462.85   88.19
  -2  -5   3 4589.44   85.19
  -2   5   3 4441.76   82.49
   2   5  -3 4394.06   82.19
   2   5  -3 4261.57   88.39
   1  -5  -3   31.80    6.30
   1  -5  -3   25.70    4.80
   1  -5  -3   20.70    5.10
  -1  -5   3   24.20    4.30
  -1  -5   3   19.80    5.10
   1   5  -3   28.70    4.90
  -1   5   3   26.30    4.80
   0  -5  -3 3237.98   65.89
   0  -5  -3 3298.57   68.99
   0  -5   3 3257.37   69.09
   0  -5   3 3222.78   66.29
   0  -5  -3 3336.97   64.19
   0  -5   3 3308.77   62.59
   0   5   3 3286.07   65.69
   0   5  -3 3201.58   65.79
   1  -5   3   26.70    5.60
   1  -5   3   21.80    4.80
  -1  -5  -3   19.10    5.10
  -1  -5  -3   23.10    4.60
  -1   5  -3   29.20    3.90
   1   5   3   28.40    4.50
  -1   5  -3   23.10    5.20
   2  -5   3 4077.59   84.19
  -2  -5  -3 3928.91   83.89
   2  -5   3 4157.08   78.39
  -2  -5  -3 4003.90   76.29
  -2   5  -3 4114.29   75.59
  -2   5  -3 4100.49   82.19
   2   5   3 4071.89   77.89
   3  -5   3    1.20    2.70
  -3  -5  -3    3.00    4.90
   3  -5   3    2.50    3.90
   3   5   3   -3.20    2.40
  -3   5  -3    1.70    3.80
  -4  -5  -3 1633.44   45.90
   4  -5   3 1562.64   44.30
   4   5   3 1626.04   41.80
  -4   5  -3 1675.93   43.60
   4   5   3 1674.43   39.30
  -5  -5  -3  289.57   18.20
   5  -5   3  243.98   16.80
   5   5   3  262.57   15.40
   5   5   3  277.27   14.10
  -5   5  -3  314.37   17.40
  -6  -5  -3  856.31   34.10
   6  -5   3  966.90   34.90
   6   5   3  910.31   29.10
   6   5   3  938.31   30.80
  -6   5  -3  926.31   32.80
  -7  -5  -3   35.30    9.90
   7  -5   3   44.30   10.70
  -7   5  -3   63.39   11.50
   7   5   3   49.40    8.70
   7   5   3   31.00    8.20
   8  -5   3  932.01   38.30
  -8  -5  -3  906.21   38.30
   8   5   3  934.81   33.20
   8   5   3  972.50   34.00
  -8   5  -3  969.60   36.80
  -7  -6   3 1015.60   34.80
   7  -6  -3  972.70   37.00
  -7  -6   3 1012.20   38.50
   7  -6  -3 1035.10   37.90
  -7   6   3  970.10   34.90
   7   6  -3  896.41   34.80
   6  -6  -3   26.10    8.30
  -6  -6   3   13.10    6.50
   6  -6  -3    9.20    6.60
  -6  -6   3   19.00    7.70
  -6   6   3   10.80    6.20
   6   6  -3   10.80    6.70
   5  -6  -3 1461.55   41.10
  -5  -6   3 1400.06   41.00
   5  -6  -3 1357.96   42.20
  -5  -6   3 1417.26   41.60
   5   6  -3 1335.57   40.70
  -5   6   3 1351.66   39.90
  -4  -6   3   63.29    9.10
   4  -6  -3   42.80    8.30
  -4  -6   3   58.39    9.30
   4  -6  -3   56.89    8.70
  -4   6   3   50.39    8.60
   4   6  -3   53.29    8.70
   3  -6  -3  993.50   32.40
  -3  -6   3 1027.90   30.20
   3  -6  -3 1055.59   30.60
  -3  -6   3 1069.99   32.30
   3   6  -3 1077.19   33.30
  -3   6   3 1048.70   32.00
   2  -6  -3   94.09   10.30
  -2  -6   3   88.19    9.90
   2  -6  -3   95.09    9.20
   2   6  -3  109.09   11.80
  -2   6   3   90.39    8.60
  -1  -6   3 1371.86   37.20
   1  -6  -3 1437.76   37.80
   1  -6  -3 1401.66   35.00
   1  -6  -3 1372.46   38.20
  -1   6   3 1416.96   35.20
   1   6  -3 1479.95   39.90
   1   6  -3 1441.56   35.60
   0  -6  -3    2.90    4.40
   0  -6   3    3.70    4.00
   0  -6   3   -2.90    3.20
   0  -6  -3    3.50    3.70
   0   6  -3   -4.80    3.00
   0   6   3   -1.50    3.00
  -1  -6  -3 1246.98   36.10
  -1  -6  -3 1218.58   31.90
   1  -6   3 1181.88   35.70
   1  -6   3 1245.68   33.00
  -1   6  -3 1299.57   35.00
   1   6   3 1260.87   31.50
   2  -6   3   59.49    9.10
  -2  -6  -3   51.19    8.60
   2  -6   3   48.30    6.90
   2   6   3   57.19    7.20
  -2   6  -3   33.60    7.10
   3  -6   3 1664.83   45.70
  -3  -6  -3 1631.34   45.90
  -3   6  -3 1691.33   44.80
   3   6   3 1572.64   39.10
   3   6   3 1636.04   43.10
  -4  -6  -3  115.59   13.70
   4  -6   3  107.89   13.00
   4   6   3  134.69   13.40
   4   6   3  119.49   11.00
  -4   6  -3  111.69   12.30
   5  -6   3 1793.22   51.59
  -5  -6  -3 1788.52   52.59
   5   6   3 1718.93   44.10
   5   6   3 1816.62   48.20
  -5   6  -3 1751.72   49.70
   6  -6   3  330.77   21.80
  -6  -6  -3  295.37   21.80
  -6   6  -3  329.57   20.80
   6   6   3  341.67   19.40
   6   6   3  319.47   18.60
  -7  -6  -3  847.42   37.30
   7  -6   3  807.22   35.80
   7   6   3  840.12   32.30
  -7   6  -3  910.81   35.30
  -6  -7   3 1637.14   49.00
   6  -7  -3 1706.13   52.09
   6   7  -3 1604.74   49.30
  -6   7   3 1664.13   48.10
  -5  -7   3    4.60    6.20
   5  -7  -3    1.70    5.40
  -5   7   3    3.20    5.90
   5   7  -3    6.30    6.10
   4  -7  -3 1202.68   40.40
  -4  -7   3 1319.47   40.40
   4   7  -3 1257.07   39.80
  -4   7   3 1251.97   38.60
  -3  -7   3   23.40    7.50
   3  -7  -3   20.60    7.10
  -3   7   3   10.10    5.70
   3   7  -3    6.40    6.00
  -2  -7   3  723.63   26.80
   2  -7  -3  707.83   27.20
  -2   7   3  713.73   26.60
   2   7  -3  675.33   27.00
   1  -7  -3  197.68   14.10
   1  -7  -3  174.98   13.30
  -1  -7   3  205.48   14.10
   1   7  -3  214.98   15.00
  -1   7   3  216.88   12.90
   0  -7  -3  194.98   14.80
   0  -7   3  207.38   14.90
   0  -7  -3  201.98   13.60
   0  -7   3  226.58   14.30
   0   7   3  240.08   13.90
   0   7  -3  211.28   13.40
   1  -7   3   19.90    6.80
  -1  -7  -3   25.00    7.30
   1  -7   3   27.40    6.50
  -1   7  -3   28.70    7.00
   1   7   3   27.60    7.30
  -2  -7  -3  774.02   29.30
   2  -7   3  779.42   29.60
   2  -7   3  794.92   25.80
   2   7   3  737.23   27.40
  -2   7  -3  728.93   27.90
   3  -7   3    2.30    5.60
  -3  -7  -3   10.40    6.40
   3   7   3    4.60    5.50
  -3   7  -3   -0.50    5.50
  -4  -7  -3 1022.00   37.20
   4  -7   3  981.90   36.40
  -4   7  -3  962.30   35.20
   4   7   3  993.00   34.00
  -5  -7  -3   14.30    8.80
   5  -7   3   23.10    8.90
  -5   7  -3   20.80    8.60
   5   7   3   17.40    7.30
   6  -7   3  798.02   35.30
  -6  -7  -3  814.52   36.30
   6   7   3  822.92   32.50
  -6   7  -3  746.03   33.50
   3  -8  -3 1356.06   43.80
  -3  -8   3 1339.57   42.60
  -3   8   3 1321.57   41.80
   3   8  -3 1388.36   43.80
  -2  -8   3   73.99   11.80
   2  -8  -3   71.29   11.40
   2   8  -3   64.79   11.10
  -2   8   3   78.29   11.30
   1  -8  -3  700.63   28.20
   1  -8  -3  727.83   28.20
  -1  -8   3  672.93   27.70
   1   8  -3  720.53   29.40
   0  -8   3   21.00    7.10
   0  -8  -3   15.50    7.50
   0   8   3    8.70    5.90
   0   8  -3    3.90    6.20
   1  -8   3 1101.69   35.20
  -1  -8  -3 1206.48   39.00
   1  -8   3 1139.29   38.70
  -1   8  -3 1117.09   36.50
   1   8   3 1079.29   35.40
  -2  -8  -3   -2.10    6.10
   2  -8   3   15.50    7.20
  -2   8  -3   -1.90    5.70
   2   8   3   -2.00    5.20
   3  -8   3 1102.79   40.00
  -3  -8  -3 1110.99   40.00
  -3   8  -3 1144.99   39.40
   3   8   3 1112.59   37.80
  10   0  -4 2252.97   63.09
 -10   0   4 2248.97   63.69
  -9   0   4    7.70    6.30
   9   0  -4    4.50    6.00
  -8   0   4  617.04   25.80
   8   0  -4  624.64   25.70
  -7   0   4   -1.40    4.20
   7   0  -4    1.30    4.20
   7   0  -4    1.20    2.70
  -6   0   4 2153.48   50.59
  -6   0   4 2182.58   41.60
   6   0  -4 2084.19   49.70
   6   0  -4 2087.09   44.90
   5   0  -4    2.80    3.10
  -5   0   4    0.40    1.70
   5   0  -4    0.00    2.00
  -5   0   4   -1.60    2.50
  -4   0   4 2525.15   51.89
  -4   0   4 2486.25   46.50
   4   0  -4 2434.36   48.60
   4   0  -4 2452.15   51.09
   3   0  -4   -1.00    2.10
  -3   0   4   -0.20    2.30
   3   0  -4   -1.00    2.20
  -3   0   4    0.50    1.80
   2   0  -4 2848.01   53.29
   2   0  -4 2835.42   53.69
  -2   0   4 2865.31   54.09
  -2   0   4 2876.81   52.59
  -1   0   4    0.40    2.10
   1   0  -4   -5.00    1.30
   1   0  -4   -4.40    1.80
  -1   0   4   -2.70    1.50
   0   0   4 1611.34   32.90
   0   0  -4 1688.53   31.50
   0   0   4 1688.83   30.50
   0   0  -4 1555.44   33.20
   1   0   4    1.40    2.20
  -1   0  -4   -1.60    1.50
  -1   0  -4    2.40    2.40
   1   0   4    0.20    1.40
  -2   0  -4 1696.33   33.70
  -2   0  -4 1582.14   34.90
   2   0   4 1606.24   34.40
   2   0   4 1655.53   33.30
  -3   0  -4   -3.10    1.90
   3   0   4   -0.30    2.20
  -3   0  -4   -1.20    2.20
   3   0   4   -2.30    1.90
   4   0   4 5091.19   96.19
  -4   0  -4 5108.69   94.99
   4   0   4 5124.59   93.79
  -4   0  -4 5133.39   96.39
  -5   0  -4   -0.60    2.90
   5   0   4    0.80    3.10
   5   0   4   -1.10    2.10
  -5   0  -4    1.90    2.80
  -6   0  -4 2360.06   51.99
   6   0   4 2417.76   50.49
   6   0   4 2441.06   55.09
  -6   0  -4 2401.66   54.79
   7   0   4   -3.60    2.80
   7   0   4   -3.80    3.90
  -7   0  -4   -1.20    3.90
  -7   0  -4   -0.60    3.30
   8   0   4 2475.95   61.19
  -8   0  -4 2462.85   60.89
  -9   0  -4   -6.50    5.00
   9   0   4    3.80    6.10
 -10   0  -4 1512.95   49.10
  10   0   4 1629.54   50.29
 -10  -1   4   17.40    8.90
  10  -1  -4    0.20    7.10
 -10   1   4   17.40    9.00
  10   1  -4   -1.80    6.50
   9  -1  -4 1219.58   41.00
  -9  -1   4 1204.98   41.00
   9   1  -4 1155.78   39.70
  -9   1   4 1190.38   40.30
   8  -1  -4   59.19   10.00
  -8  -1   4   67.39   10.90
   8  -1  -4   68.19    8.40
  -8   1   4   87.59   12.10
   8   1  -4   69.99   10.50
   7  -1  -4 1704.23   41.30
   7  -1  -4 1658.53   45.10
  -7  -1   4 1701.03   45.80
  -7  -1   4 1733.23   37.50
   7   1  -4 1787.22   45.50
  -7   1   4 1741.73   45.50
   6  -1  -4  612.54   21.80
   6  -1  -4  562.34   18.90
  -6  -1   4  575.44   16.70
  -6  -1   4  527.35   21.10
   6   1  -4  596.04   21.50
  -6   1   4  591.44   21.60
   6   1  -4  573.14   16.40
  -5  -1   4 1428.96   31.10
  -5  -1   4 1430.66   36.00
   5  -1  -4 1422.56   35.70
   5  -1  -4 1395.86   33.60
   5   1  -4 1426.36   30.40
  -5   1   4 1409.76   27.30
  -5   1   4 1417.76   35.70
   5   1  -4 1455.25   35.60
  -4  -1   4   55.99    5.40
   4  -1  -4   53.39    6.10
  -4  -1   4   58.59    6.70
   4  -1  -4   68.19    6.90
   4   1  -4   55.39    4.90
  -4   1   4   58.79    3.60
   4   1  -4   68.49    6.90
  -4   1   4   48.30    5.90
  -3  -1   4 4826.22   86.59
  -3  -1   4 4870.01   88.99
   3  -1  -4 4708.33   88.19
   3  -1  -4 5005.20   88.49
  -3   1   4 4628.94   89.09
  -3   1   4 4945.71   83.79
   3   1  -4 4655.83   88.59
   3   1  -4 4806.02   85.39
  -2  -1   4  276.07    9.60
   2  -1  -4  264.57   10.30
   2  -1  -4  287.57    9.10
  -2  -1   4  287.37    9.50
   2   1  -4  284.57   10.00
  -2   1   4  279.47   10.20
   2   1  -4  272.27    9.30
  -2   1   4  283.17    8.70
   1  -1  -4 3380.36   62.39
  -1  -1   4 3405.76   59.69
  -1  -1   4 3344.67   61.59
   1  -1  -4 3382.56   62.39
   1  -1  -4 3354.46   58.79
   1   1  -4 3311.57   61.59
  -1   1   4 3305.87   61.19
   1   1  -4 3280.07   61.39
   0  -1  -4 2293.87   44.50
   0  -1   4 2269.97   44.10
   0  -1   4 2368.56   43.90
   0  -1   4 2313.37   40.20
   0  -1  -4 2310.77   44.60
   0   1   4 2272.37   44.60
   0   1  -4 2218.78   45.10
   1  -1   4 1213.48   26.00
   1  -1   4 1104.69   25.40
  -1  -1  -4 1179.08   26.30
  -1  -1  -4 1196.68   26.30
   1   1   4 1195.28   22.10
  -1   1  -4 1225.78   22.20
   1   1   4 1171.98   26.50
   2  -1   4 2175.98   44.10
   2  -1   4 2145.49   43.20
  -2  -1  -4 2173.48   44.60
  -2  -1  -4 2169.48   43.60
   2   1   4 2186.28   44.10
  -2   1  -4 2216.08   41.20
   2   1   4 2280.47   41.50
  -2   1  -4 2214.58   45.50
  -3  -1  -4 3654.23   72.19
   3  -1   4 3694.53   71.69
  -3  -1  -4 3561.74   69.19
   3  -1   4 3608.84   68.89
   3   1   4 3706.93   70.09
  -3   1  -4 3727.43   71.59
  -3   1  -4 3848.81   69.19
   3   1   4 3837.72   69.39
   4  -1   4  162.68    8.30
  -4  -1  -4  181.18   10.40
   4  -1   4  169.68   10.00
  -4  -1  -4  171.98    8.90
   4   1   4  174.18    9.00
   4   1   4  166.78    8.90
  -4   1  -4  160.58    8.50
  -4   1  -4  160.18    9.60
   5  -1   4 2124.39   48.60
  -5  -1  -4 2101.39   44.70
   5  -1   4 2070.89   43.50
  -5  -1  -4 2118.49   48.80
  -5   1  -4 2026.80   46.50
  -5   1  -4 2099.79   46.30
   5   1   4 2097.99   46.50
   5   1   4 2143.29   45.20
  -6  -1  -4  132.29    8.80
   6  -1   4  123.99   10.10
  -6  -1  -4  136.89   12.50
   6  -1   4  126.39    8.10
  -6   1  -4  107.99   10.10
   6   1   4  115.19   10.50
  -6   1  -4  104.89    9.90
   6   1   4  136.59    9.10
  -7  -1  -4 2294.77   57.19
   7  -1   4 2360.66   57.19
  -7   1  -4 2410.36   54.49
  -7   1  -4 2273.27   55.19
   7   1   4 2377.66   51.59
   7   1   4 2344.57   55.99
   8  -1   4    0.70    5.00
  -8  -1  -4    8.10    5.70
   8   1   4    6.80    4.50
   8   1   4    4.60    5.40
  -8   1  -4    1.20    5.10
  -8   1  -4    0.10    4.60
  -9  -1  -4 1684.03   49.90
   9  -1   4 1626.84   48.90
  -9   1  -4 1706.63   49.50
  -9   1  -4 1611.54   48.00
   9   1   4 1631.04   48.30
  10  -1   4  173.78   18.90
 -10  -1  -4  138.29   17.20
  10   1   4  165.68   18.60
 -10   1  -4  148.29   16.60
 -10  -2   4  449.56   26.50
  10  -2  -4  399.56   25.10
 -10   2   4  431.66   25.10
  10   2  -4  415.76   24.70
   9  -2  -4   -0.40    4.60
  -9  -2   4    5.30    7.40
   9  -2  -4    5.60    6.60
  -9   2   4    0.80    6.00
   9   2  -4    9.00    6.70
   8  -2  -4 1677.03   48.50
  -8  -2   4 1683.23   39.80
  -8  -2   4 1653.43   48.40
   8  -2  -4 1666.93   43.60
   8   2  -4 1658.43   47.10
  -8   2   4 1714.03   47.70
  -7  -2   4   25.40    5.10
   7  -2  -4   12.00    4.90
  -7  -2   4   23.30    7.10
   7  -2  -4   17.50    6.00
   7   2  -4    8.90    5.40
  -7   2   4   11.00    5.30
   6  -2  -4 1200.38   32.80
   6  -2  -4 1220.88   35.10
  -6  -2   4 1249.68   30.20
  -6  -2   4 1228.08   35.30
   6   2  -4 1193.88   34.20
  -6   2   4 1202.38   34.20
  -5  -2   4  271.47   13.90
   5  -2  -4  284.67   13.30
   5  -2  -4  302.17   14.40
  -5  -2   4  277.17   11.90
  -5   2   4  268.67   13.50
   5   2  -4  288.67   13.60
   5   2  -4  281.37    8.90
   4  -2  -4 3484.25   69.69
  -4  -2   4 3445.96   70.49
   4  -2  -4 3445.56   70.39
  -4  -2   4 3483.15   67.49
   4   2  -4 3473.35   70.29
   4   2  -4 3519.25   63.19
  -4   2   4 3477.75   70.49
  -4   2   4 3734.73   61.39
  -3  -2   4  220.18    9.60
  -3  -2   4  231.38   10.30
   3  -2  -4  221.08   10.00
   3  -2  -4  240.68   11.00
   3   2  -4  229.98    8.10
  -3   2   4  223.28   10.60
   3   2  -4  226.08   10.40
  -3   2   4  240.68    7.50
  -2  -2   4 5919.31  108.59
   2  -2  -4 6236.58  107.89
  -2  -2   4 6138.39  108.99
   2  -2  -4 6046.59  109.89
  -2   2   4 5952.20  106.29
   2   2  -4 6184.28  110.49
   2   2  -4 6158.58  106.69
  -2   2   4 6050.69  110.99
   1  -2  -4  652.43   18.10
  -1  -2   4  666.53   15.00
   1  -2  -4  640.94   13.80
   1  -2  -4  644.14   18.10
  -1  -2   4  640.64   17.50
  -1   2   4  655.03   16.70
   1   2  -4  632.04   17.20
   1   2  -4  659.73   17.90
   0  -2   4 7559.74  137.39
   0  -2  -4 7442.46  138.09
   0  -2   4 7810.72  135.59
   0  -2  -4 7685.93  135.69
   0   2  -4 7851.21  136.89
   0   2   4 8079.99  130.59
   0   2   4 7855.71  135.49
   1  -2   4   15.80    3.00
  -1  -2  -4   15.40    3.10
  -1  -2  -4   14.60    3.80
   1  -2   4   22.80    4.00
   1   2   4   14.30    1.70
  -1   2  -4   10.20    3.30
   1   2   4   18.20    3.60
   2  -2   4 3580.14   66.09
  -2  -2  -4 3497.85   69.79
   2  -2   4 3513.65   69.09
  -2  -2  -4 3532.85   65.69
   2   2   4 3634.34   67.79
  -2   2  -4 3380.46   68.59
  -2   2  -4 3718.33   62.89
   2   2   4 3596.74   63.79
   3  -2   4    1.60    3.00
   3  -2   4    1.90    2.10
  -3  -2  -4    0.50    2.00
  -3  -2  -4   -3.40    2.40
   3   2   4    0.80    2.60
  -3   2  -4   -1.90    2.60
   3   2   4    2.30    2.00
  -3   2  -4    3.60    1.90
  -4  -2  -4 1766.32   42.30
  -4  -2  -4 1758.32   36.20
   4  -2   4 1671.63   35.80
   4  -2   4 1768.22   41.70
   4   2   4 1611.24   38.10
  -4   2  -4 1684.33   40.10
  -4   2  -4 1756.22   36.70
   4   2   4 1725.93   37.40
   5  -2   4   93.89    9.50
   5  -2   4  103.89    6.80
  -5  -2  -4  101.29    6.90
  -5  -2  -4   92.59   10.50
  -5   2  -4  102.09    9.50
   5   2   4  105.39    8.20
   5   2   4  103.49    8.00
  -5   2  -4  108.59    7.80
   6  -2   4 1500.65   41.30
  -6  -2  -4 1520.65   41.70
   6   2   4 1461.55   36.60
  -6   2  -4 1512.35   37.40
   6   2   4 1513.65   38.10
  -6   2  -4 1499.25   39.10
  -7  -2  -4   31.90    8.00
   7  -2   4   18.80    6.30
   7   2   4   34.60    6.50
  -7   2  -4   46.90    7.70
  -7   2  -4    8.90    4.80
   7   2   4   22.00    6.10
  -8  -2  -4  566.94   26.20
   8  -2   4  616.44   26.80
  -8   2  -4  590.84   24.00
   8   2   4  590.74   24.50
  -8   2  -4  572.74   23.90
   8   2   4  598.44   22.20
   9  -2   4   34.50    9.20
  -9  -2  -4   32.60    9.40
  -9   2  -4   21.70    7.70
   9   2   4   35.60    9.00
  -9   2  -4   27.80    8.30
  10  -2   4  673.83   32.00
 -10  -2  -4  704.03   32.90
  10   2   4  756.02   32.00
 -10   2  -4  697.23   30.80
   9  -3  -4 1043.00   39.30
   9  -3  -4 1060.49   35.70
  -9  -3   4 1098.79   40.60
  -9   3   4 1091.69   38.50
   9   3  -4 1019.00   37.60
  -8  -3   4  358.46   16.70
  -8  -3   4  392.16   22.70
   8  -3  -4  370.16   19.20
   8  -3  -4  393.66   22.20
  -8   3   4  375.26   20.50
   8   3  -4  330.37   19.60
  -7  -3   4 2294.67   58.39
  -7  -3   4 2169.08   49.99
   7  -3  -4 2264.07   57.29
   7  -3  -4 2146.39   53.49
  -7   3   4 2178.58   55.29
   7   3  -4 2243.58   55.89
  -6  -3   4   36.30    7.50
   6  -3  -4   36.30    6.80
  -6  -3   4   47.10    7.10
   6  -3  -4   44.40    8.00
   6   3  -4   40.80    7.50
  -6   3   4   27.40    6.40
  -5  -3   4 2943.51   61.79
  -5  -3   4 2959.30   66.29
   5  -3  -4 3002.80   64.49
   5  -3  -4 2943.51   64.99
  -5   3   4 3070.69   65.19
   5   3  -4 3046.70   65.19
   4  -3  -4    6.60    3.60
  -4  -3   4   -2.90    3.00
  -4  -3   4    5.70    3.30
   4  -3  -4    4.10    3.70
  -4   3   4    0.90    3.20
   4   3  -4    2.60    1.60
  -4   3   4    6.00    1.90
   4   3  -4    3.90    3.20
   3  -3  -4 2339.57   50.29
  -3  -3   4 2272.07   48.80
   3  -3  -4 2301.07   47.60
  -3  -3   4 2307.07   48.60
   3   3  -4 2261.07   43.40
  -3   3   4 2304.37   49.90
  -3   3   4 2300.27   43.70
   3   3  -4 2247.78   49.50
   2  -3  -4   39.00    5.50
  -2  -3   4   53.59    6.20
   2  -3  -4   55.09    5.00
  -2  -3   4   57.99    5.50
   2   3  -4   55.29    6.60
   2   3  -4   45.80    4.80
  -2   3   4   63.39    7.00
  -2   3   4   55.49    5.10
   1  -3  -4 3676.23   71.59
   1  -3  -4 3706.63   65.59
  -1  -3   4 3529.55   69.39
  -1  -3   4 3756.52   65.59
   1  -3  -4 3544.25   69.89
  -1   3   4 3615.04   67.59
   1   3  -4 3586.94   68.79
   0  -3  -4 1004.70   26.20
   0  -3   4 1001.10   25.80
   0  -3   4 1030.10   24.90
   0  -3  -4  952.60   24.30
   0  -3   4 1023.70   19.00
   0   3  -4  972.10   25.00
   0   3   4  941.91   23.70
  -1  -3  -4 3712.83   73.69
  -1  -3  -4 3768.12   70.09
   1  -3   4 3651.63   70.29
   1  -3   4 3768.52   73.49
  -1   3  -4 3727.53   72.49
  -1   3  -4 3843.62   64.29
   1   3   4 3786.62   66.49
   1   3   4 3648.03   70.99
   2  -3   4   53.69    6.70
   2  -3   4   53.69    5.50
  -2  -3  -4   52.59    7.10
  -2  -3  -4   47.30    5.10
  -2   3  -4   54.19    3.30
  -2   3  -4   62.19    7.40
   2   3   4   57.59    4.20
   2   3   4   55.79    6.20
   3  -3   4 2275.97   45.70
  -3  -3  -4 2287.47   44.80
   3  -3   4 2262.47   50.99
  -3  -3  -4 2302.37   52.19
  -3   3  -4 2256.17   50.19
  -3   3  -4 2295.57   43.70
   3   3   4 2262.07   48.80
   3   3   4 2327.17   45.50
  -4  -3  -4  506.35   14.10
   4  -3   4  502.15   14.90
  -4  -3  -4  450.55   19.30
   4  -3   4  488.75   19.50
   4   3   4  491.35   17.70
  -4   3  -4  472.45   14.50
   4   3   4  488.75   15.70
  -4   3  -4  488.25   18.80
  -5  -3  -4 1678.13   44.60
   5  -3   4 1594.24   43.20
  -5   3  -4 1661.33   37.50
   5   3   4 1693.03   38.90
   5   3   4 1634.44   40.00
  -5   3  -4 1651.13   42.10
   6  -3   4    2.60    4.70
  -6  -3  -4    6.80    5.80
   6   3   4    6.30    4.40
   6   3   4    8.10    4.20
  -6   3  -4    3.70    3.70
  -6   3  -4    6.80    5.00
  -7  -3  -4  966.10   34.30
   7  -3   4  968.60   34.20
   7   3   4  961.00   30.00
  -7   3  -4  934.81   31.70
  -7   3  -4 1015.80   30.10
   7   3   4  938.21   30.30
  -8  -3  -4   27.20    9.10
   8  -3   4   50.29   10.40
  -8   3  -4   40.00    8.00
   8   3   4   35.40    8.10
   8   3   4   30.30    7.10
  -8   3  -4   11.00    6.40
  -9  -3  -4  612.94   29.90
   9  -3   4  646.04   30.10
  -9   3  -4  603.34   27.80
   9   3   4  650.93   27.70
  -9   3  -4  667.13   30.50
   9   3   4  598.24   24.80
  -9  -4   4   19.30    9.20
   9  -4  -4   41.20   10.90
  -9  -4   4   27.00    7.50
   9  -4  -4   32.40    8.40
   9   4  -4   39.20   10.60
  -9   4   4   33.60    8.90
   8  -4  -4 1446.76   43.90
  -8  -4   4 1488.45   47.40
   8  -4  -4 1399.66   45.80
  -8  -4   4 1419.96   39.90
   8   4  -4 1474.95   45.00
  -8   4   4 1484.45   44.70
   7  -4  -4   30.30    8.20
  -7  -4   4   58.19   10.60
   7  -4  -4   51.59    9.50
  -7  -4   4   58.79    8.90
   7   4  -4   47.90    8.80
  -7   4   4   62.39    9.80
   6  -4  -4 2475.45   59.49
  -6  -4   4 2374.56   55.39
   6  -4  -4 2467.15   58.79
  -6  -4   4 2385.36   60.19
  -6   4   4 2436.26   58.29
   6   4  -4 2464.05   59.09
  -5  -4   4  177.58   13.00
  -5  -4   4  186.88   11.80
   5  -4  -4  198.28   12.70
   5  -4  -4  183.48   13.00
   5   4  -4  179.98   12.30
  -5   4   4  190.78   12.60
   4  -4  -4 1080.89   31.80
   4  -4  -4 1179.88   30.90
  -4  -4   4 1116.69   31.60
  -4  -4   4 1130.09   30.90
  -4   4   4 1100.29   31.60
   4   4  -4 1088.29   31.60
   3  -4  -4   73.69    8.50
  -3  -4   4   91.69    9.20
  -3  -4   4   84.19    8.10
   3  -4  -4   76.49    7.10
   3   4  -4   74.49    8.50
  -3   4   4   87.19    9.00
  -3   4   4   85.89    5.80
   3   4  -4   80.19    5.30
   2  -4  -4  705.33   18.90
   2  -4  -4  676.63   22.10
  -2  -4   4  714.03   19.20
   2   4  -4  700.43   22.40
   2   4  -4  686.43   19.00
  -2   4   4  688.03   18.60
  -1  -4   4   14.70    3.00
   1  -4  -4   12.40    2.90
  -1  -4   4   17.50    4.50
   1  -4  -4   18.90    4.80
   1  -4  -4   12.70    4.00
  -1   4   4   13.80    3.60
   1   4  -4   12.90    3.60
   0  -4   4 1181.28   23.60
   0  -4  -4 1142.59   30.60
   0  -4  -4 1146.29   28.80
   0  -4   4 1126.89   28.80
   0   4  -4 1203.88   29.70
   0   4   4 1122.89   28.20
   1  -4   4    4.40    2.60
  -1  -4  -4    2.40    3.50
  -1  -4  -4    2.70    2.50
   1  -4   4    1.50    3.20
   1   4   4    6.60    3.30
  -1   4  -4    2.80    1.40
  -1   4  -4   -2.90    2.10
   1   4   4    2.90    2.00
  -2  -4  -4 2173.38   52.59
   2  -4   4 2324.07   48.30
   2  -4   4 2364.16   53.09
  -2  -4  -4 2328.97   47.20
   2   4   4 2374.06   50.89
  -2   4  -4 2382.56   52.09
   2   4   4 2384.16   46.00
  -2   4  -4 2390.06   43.70
   3  -4   4   77.89    7.00
  -3  -4  -4   75.29    5.60
  -3  -4  -4   70.49    9.30
   3  -4   4   70.99    9.20
   3   4   4   78.79    8.60
  -3   4  -4   73.79    5.00
  -3   4  -4   71.49    8.70
   3   4   4   76.59    6.10
   4  -4   4 2319.57   46.90
   4  -4   4 2265.77   55.09
  -4  -4  -4 2355.96   56.69
   4   4   4 2342.47   48.80
  -4   4  -4 2224.08   53.39
   4   4   4 2255.67   51.99
  -5  -4  -4   65.29   10.10
   5  -4   4   59.99    8.90
   5   4   4   60.69    8.20
  -5   4  -4   66.89    9.00
   5   4   4   77.39    8.10
   6  -4   4 1712.93   49.10
  -6  -4  -4 1772.92   50.29
   6   4   4 1752.02   45.00
   6   4   4 1727.73   43.10
  -6   4  -4 1789.72   47.60
  -7  -4  -4   39.50    9.80
   7  -4   4   39.10    9.40
   7   4   4   34.00    7.70
   7   4   4   31.70    7.40
  -7   4  -4   22.80    7.10
   8  -4   4 1630.64   51.39
  -8  -4  -4 1647.24   52.19
   8   4   4 1702.83   47.30
  -8   4  -4 1758.12   50.59
   8   4   4 1729.13   47.00
   9  -4   4    6.30    8.00
  -9  -4  -4    4.40    7.50
  -9   4  -4   16.10    8.00
   9   4   4  -10.20    5.00
   9   4   4    2.70    6.50
   8  -5  -4   64.19   11.70
   8  -5  -4   77.89   12.60
  -8  -5   4   66.39   13.10
  -8  -5   4   72.59   11.60
  -8   5   4   75.89   11.80
   8   5  -4   57.49   10.80
  -7  -5   4  588.14   27.70
   7  -5  -4  633.54   27.60
  -7  -5   4  615.74   25.20
   7  -5  -4  623.84   27.60
   7   5  -4  655.73   27.50
  -7   5   4  654.03   27.30
   6  -5  -4    0.40    4.90
  -6  -5   4   -2.90    5.10
  -6  -5   4   -0.80    4.50
   6  -5  -4   10.30    5.90
   6   5  -4    0.40    4.90
  -6   5   4    1.50    4.90
   5  -5  -4  950.60   31.70
  -5  -5   4  926.91   31.00
  -5  -5   4  893.11   29.30
   5  -5  -4  939.91   30.10
   5   5  -4  923.01   30.80
  -5   5   4  898.11   30.20
   4  -5  -4   25.40    5.80
   4  -5  -4   22.50    6.50
  -4  -5   4   35.60    7.00
  -4  -5   4   30.40    7.00
  -4   5   4   20.80    6.30
   4   5  -4   19.10    5.70
  -3  -5   4  618.24   22.40
   3  -5  -4  607.64   23.00
   3  -5  -4  635.14   20.40
  -3  -5   4  654.73   20.90
   3   5  -4  629.84   23.10
  -3   5   4  621.84   22.70
  -2  -5   4   59.99    6.40
  -2  -5   4   54.29    7.70
   2  -5  -4   58.19    8.00
   2  -5  -4   57.39    6.50
   2   5  -4   39.00    6.80
  -2   5   4   60.19    6.60
   2   5  -4   52.89    6.40
   1  -5  -4 1274.57   29.90
   1  -5  -4 1237.58   33.60
   1  -5  -4 1285.37   35.00
  -1  -5   4 1266.57   33.50
  -1   5   4 1339.47   31.90
   1   5  -4 1306.97   32.40
   0  -5  -4  141.79   10.60
   0  -5  -4  166.98   10.40
   0  -5   4  157.28   11.40
   0  -5   4  180.38   10.80
   0   5  -4  166.78   10.40
   0   5   4  172.48   10.20
   1  -5   4 3465.85   75.99
  -1  -5  -4 3635.54   71.19
  -1  -5  -4 3524.25   75.99
   1  -5   4 3621.84   72.09
  -1   5  -4 3702.33   74.39
   1   5   4 3589.54   72.89
   1   5   4 3664.93   68.59
  -2  -5  -4   91.79    7.40
  -2  -5  -4   71.09    9.00
   2  -5   4   73.49    9.20
   2  -5   4   85.69    8.20
   2   5   4   98.19    9.80
   2   5   4  102.09    6.90
  -2   5  -4   96.89   10.50
   3  -5   4 1800.82   47.30
  -3  -5  -4 1818.32   48.20
   3  -5   4 1835.22   41.10
  -3   5  -4 1836.32   46.40
   3   5   4 1833.12   40.40
   3   5   4 1852.01   45.00
   4  -5   4   45.90    9.40
  -4  -5  -4   37.00    8.70
   4   5   4   25.80    6.30
   4   5   4   38.70    6.20
  -4   5  -4   35.40    7.60
   5  -5   4 2127.69   56.89
  -5  -5  -4 2256.47   59.29
   5   5   4 2225.68   50.19
   5   5   4 2183.38   53.79
  -5   5  -4 2190.78   56.09
  -6  -5  -4   36.30    9.80
   6  -5   4   34.70    9.20
   6   5   4   36.20    8.30
  -6   5  -4   34.50    8.70
   6   5   4   57.19    8.30
  -7  -5  -4 1348.67   46.10
   7  -5   4 1382.66   45.70
  -7   5  -4 1306.97   42.90
   7   5   4 1313.07   40.30
   7   5   4 1388.56   41.20
  -8  -5  -4    0.00    6.70
   8  -5   4   -2.40    7.10
   8   5   4   -3.30    6.00
  -8   5  -4    2.00    7.40
   7  -6  -4   30.90    9.10
   7  -6  -4   17.60    7.40
  -7  -6   4   22.00    8.20
  -7  -6   4   36.60   10.10
  -7   6   4   36.50    9.10
   7   6  -4   17.50    8.40
   6  -6  -4 1202.38   40.50
  -6  -6   4 1211.98   39.90
   6  -6  -4 1270.97   39.40
  -6  -6   4 1194.28   38.70
  -6   6   4 1274.37   39.70
   6   6  -4 1188.48   39.60
   5  -6  -4   35.80    9.00
  -5  -6   4   43.90    9.00
   5  -6  -4   36.80    8.00
  -5   6   4   37.80    8.30
   5   6  -4   52.19    9.30
   4  -6  -4 1842.22   49.30
   4  -6  -4 1846.52   45.80
  -4  -6   4 1721.73   46.90
  -4   6   4 1814.92   48.10
   4   6  -4 1796.72   48.50
   3  -6  -4    8.80    5.00
  -3  -6   4    7.60    5.10
  -3   6   4    8.00    5.30
   3   6  -4   -2.50    4.40
   2  -6  -4 1571.94   42.70
  -2  -6   4 1628.04   42.20
  -2   6   4 1597.14   37.90
   2   6  -4 1584.04   43.40
   1  -6  -4   -0.50    4.20
   1  -6  -4    2.20    4.00
  -1  -6   4    5.40    4.40
   1   6  -4    5.70    5.10
  -1   6   4    2.60    3.70
   1   6  -4   -0.10    3.20
   0  -6  -4 1550.24   39.50
   0  -6   4 1495.85   39.30
   0  -6  -4 1531.85   41.90
   0  -6   4 1609.54   42.80
   0   6   4 1543.05   39.00
   0   6  -4 1536.85   39.60
   1  -6   4   -0.50    3.80
   1  -6   4    7.30    5.20
  -1  -6  -4    3.50    4.80
  -1  -6  -4   -1.30    3.20
  -1   6  -4    1.80    4.10
   1   6   4    1.00    3.90
   2  -6   4 1868.91   49.80
  -2  -6  -4 1905.61   49.99
   2  -6   4 1850.01   44.30
   2   6   4 1888.21   46.80
  -2   6  -4 1875.41   48.10
   3  -6   4  117.49   10.80
  -3  -6  -4   91.99   11.50
   3  -6   4  113.79   12.80
   3   6   4  104.59   11.50
  -3   6  -4   91.79   11.20
   4  -6   4  884.71   32.70
  -4  -6  -4  862.91   33.30
   4   6   4  965.70   31.60
  -4   6  -4  899.11   32.30
  -5  -6  -4   89.59   12.90
   5  -6   4  146.59   16.00
   5   6   4  110.99   12.90
  -5   6  -4  138.69   15.10
  -6  -6  -4 1113.49   42.00
   6  -6   4 1152.38   41.70
  -6   6  -4 1133.89   39.80
   6   6   4 1166.78   38.20
   7  -6   4    6.70    7.20
  -7  -6  -4    6.10    8.60
   7   6   4    6.90    6.60
  -7   6  -4    0.50    6.40
  -5  -7   4 2243.38   60.39
   5  -7  -4 2332.17   62.89
   5   7  -4 2256.27   61.19
  -5   7   4 2407.96   61.19
   4  -7  -4    0.90    6.20
  -4  -7   4    4.40    6.10
  -4   7   4   -7.50    4.40
   4   7  -4    1.50    5.90
   3  -7  -4 2247.48   58.09
  -3  -7   4 2162.68   56.59
   3   7  -4 2244.28   58.59
  -3   7   4 2340.77   57.99
   2  -7  -4    6.20    5.60
  -2  -7   4   12.70    6.40
  -2   7   4    4.50    5.40
   2   7  -4    5.60    5.20
  -1  -7   4 1735.93   46.70
   1  -7  -4 1820.02   48.50
   1  -7  -4 1752.42   46.60
  -1   7   4 1800.82   44.50
   1   7  -4 1787.32   49.00
   0  -7   4   34.00    7.60
   0  -7  -4   39.90    8.90
   0  -7  -4   51.69    8.20
   0  -7   4   37.70    8.70
   0   7   4   39.10    7.60
   0   7  -4   47.00    8.20
  -1  -7  -4 1348.97   41.10
   1  -7   4 1315.17   40.90
   1  -7   4 1376.16   37.90
   1   7   4 1295.27   38.00
  -1   7  -4 1416.06   40.00
   2  -7   4   50.19    8.40
   2  -7   4   28.00    7.80
  -2  -7  -4   46.60    9.60
  -2   7  -4   52.49    9.80
   2   7   4   38.80    8.30
   3  -7   4  910.11   34.40
  -3  -7  -4  883.11   34.20
   3   7   4  939.31   32.30
  -3   7  -4  915.01   33.30
   4  -7   4    9.60    7.00
  -4  -7  -4    7.10    7.20
   4   7   4   -1.90    5.10
  -4   7  -4    0.40    6.50
  -5  -7  -4  591.54   29.90
   5  -7   4  569.44   28.90
   5   7   4  550.14   26.00
  -5   7  -4  589.94   28.50
   3  -8  -4    6.80    7.50
  -3  -8   4   15.90    7.50
  -3   8   4   13.80    7.30
   3   8  -4   12.50    7.80
  -2  -8   4 1496.65   45.00
   2  -8  -4 1408.66   44.80
   2   8  -4 1524.55   46.90
  -2   8   4 1555.44   46.00
   1  -8  -4   22.20    7.60
   1  -8  -4   25.60    8.20
  -1  -8   4   25.20    7.50
   1   8  -4   20.30    7.40
   0  -8  -4 1018.60   36.60
   0  -8   4 1086.89   35.20
   0   8   4 1039.00   34.00
   0   8  -4 1039.10   37.60
   1  -8   4    4.70    6.30
  -1  -8  -4   16.70    7.80
   1  -8   4   13.20    6.50
  -1   8  -4    5.10    5.90
   1   8   4    1.50    5.70
   2  -8   4  882.71   34.70
  -2  -8  -4  870.31   34.50
  -2   8  -4  878.31   33.50
   2   8   4  891.71   32.60
  -3  -8  -4   15.60    8.30
   3  -8   4   11.60    8.10
   3   8   4   12.70    7.40
  -3   8  -4    9.70    7.40
  10   0  -5    6.90    7.40
 -10   0   5   -0.50    7.00
   9   0  -5 2116.19   57.89
  -9   0   5 2104.59   58.39
   8   0  -5   -3.60    4.30
  -8   0   5   -4.40    4.60
  -7   0   5 3557.64   79.79
   7   0  -5 3702.83   79.69
   7   0  -5 3747.73   73.09
  -6   0   5   -2.60    1.80
   6   0  -5   -4.50    2.80
   6   0  -5    0.40    2.60
  -6   0   5   -1.90    3.30
  -5   0   5 2889.61   61.69
   5   0  -5 2872.01   57.69
  -5   0   5 2921.81   54.89
   5   0  -5 2912.61   61.09
  -4   0   5   -2.20    2.30
   4   0  -5   -3.20    1.90
   4   0  -5    0.60    2.60
  -4   0   5    0.20    1.90
   3   0  -5 4155.88   76.89
  -3   0   5 4046.80   77.89
  -3   0   5 4121.79   74.99
   3   0  -5 4177.58   77.09
   2   0  -5   -2.90    1.60
  -2   0   5   -2.40    1.60
  -2   0   5   -1.00    1.90
   2   0  -5   -5.80    1.80
  -1   0   5  974.60   22.90
   1   0  -5 1006.80   21.00
  -1   0   5 1024.00   22.10
   0   0   5   -0.80    2.20
   0   0   5    1.30    1.40
   0   0  -5    2.00    1.70
   0   0  -5   -1.50    2.20
   1   0   5 5438.96   92.39
  -1   0  -5 5255.37   93.09
  -1   0  -5 5147.08   95.59
   1   0   5 5160.18   95.19
   2   0   5   -4.30    1.70
  -2   0  -5   -2.80    2.60
  -2   0  -5    0.80    2.30
   2   0   5   -4.90    2.10
   3   0   5 2948.30   57.69
   3   0   5 2960.00   58.49
  -3   0  -5 2860.21   59.19
  -3   0  -5 3004.50   58.19
   4   0   5    1.20    2.70
  -4   0  -5   -2.00    2.40
   4   0   5    5.10    2.90
  -4   0  -5    0.60    2.60
  -5   0  -5  958.20   27.20
   5   0   5  923.11   26.80
  -5   0  -5  961.30   27.00
   5   0   5  953.20   25.80
   6   0   5    2.60    3.40
  -6   0  -5   -0.90    3.50
  -6   0  -5    0.30    3.40
   6   0   5   -3.00    2.90
   7   0   5 1742.63   41.20
  -7   0  -5 1700.23   45.20
   7   0   5 1746.63   45.80
  -7   0  -5 1768.42   43.40
   8   0   5    2.00    5.20
  -8   0  -5    4.00    5.30
   9   0   5  843.92   32.60
  -9   0  -5  860.21   32.80
 -10   0  -5    1.00    6.90
  10   0   5   -1.20    6.60
  10  -1  -5 1131.29   42.20
 -10  -1   5 1143.79   42.10
  10   1  -5 1105.39   40.70
 -10   1   5 1150.08   42.00
   9  -1  -5    7.80    6.60
  -9  -1   5   -0.70    5.70
   9   1  -5    2.90    5.90
  -9   1   5   -1.90    5.90
   8  -1  -5 1651.43   47.00
  -8  -1   5 1651.93   47.60
   8  -1  -5 1672.93   41.90
   8   1  -5 1590.14   45.70
  -8   1   5 1628.04   46.80
   7  -1  -5    0.30    3.10
   7  -1  -5    0.20    4.30
  -7  -1   5   -0.70    2.60
  -7  -1   5   -1.30    4.40
   7   1  -5    4.50    4.70
  -7   1   5    2.60    4.70
   6  -1  -5 1998.00   45.70
  -6  -1   5 2027.90   42.70
   6  -1  -5 2008.70   48.70
  -6  -1   5 2042.40   49.30
  -6   1   5 1990.10   48.90
   6   1  -5 2019.80   48.40
   6   1  -5 2052.79   42.40
   5  -1  -5   31.40    5.60
  -5  -1   5   26.90    4.40
   5  -1  -5   31.70    5.10
  -5  -1   5   37.10    6.20
   5   1  -5   33.80    4.50
  -5   1   5   32.00    3.50
  -5   1   5   29.40    5.40
   5   1  -5   33.40    6.00
   4  -1  -5 3787.32   72.09
   4  -1  -5 3672.23   72.39
  -4  -1   5 3587.34   69.49
  -4  -1   5 3725.93   73.29
   4   1  -5 3692.83   72.89
  -4   1   5 3854.01   66.99
  -4   1   5 3580.74   73.29
   4   1  -5 3719.83   69.09
   3  -1  -5 1012.20   24.60
  -3  -1   5 1065.09   24.70
   3  -1  -5 1011.30   25.80
  -3  -1   5 1045.20   25.30
  -3   1   5 1031.90   26.10
   3   1  -5 1043.00   25.40
   3   1  -5 1030.10   24.00
  -3   1   5 1025.40   22.50
   2  -1  -5 2476.95   49.40
  -2  -1   5 2467.45   48.20
  -2  -1   5 2455.95   47.20
   2  -1  -5 2394.66   46.10
  -2   1   5 2430.76   48.90
   2   1  -5 2437.96   48.20
   2   1  -5 2385.76   47.70
  -2   1   5 2455.95   46.70
  -1  -1   5 1635.14   34.00
   1  -1  -5 1632.34   34.00
  -1  -1   5 1632.44   31.20
   1  -1  -5 1599.74   29.80
   1  -1  -5 1579.04   34.60
   1   1  -5 1604.64   33.00
   1   1  -5 1550.94   34.10
  -1   1   5 1613.34   33.60
   0  -1  -5 5491.15   98.59
   0  -1  -5 5536.35   98.79
   0  -1   5 5384.66   97.89
   0  -1   5 5595.44   93.99
   0  -1   5 5490.65   97.59
   0   1  -5 5424.26   99.19
   0   1   5 5302.47   98.39
  -1  -1  -5   14.80    3.60
  -1  -1  -5   10.70    3.00
   1  -1   5    8.60    2.90
   1  -1   5   16.00    3.30
  -1   1  -5   17.70    4.40
   1   1   5   14.00    1.70
   1   1   5   11.00    3.30
  -1   1  -5   13.30    2.00
  -2  -1  -5 2938.51   58.69
   2  -1   5 2950.70   58.29
   2  -1   5 2972.90   58.29
  -2  -1  -5 3073.69   59.39
  -2   1  -5 3068.79   55.09
   2   1   5 3010.20   59.29
   2   1   5 3114.39   55.19
  -2   1  -5 2911.01   60.19
  -3  -1  -5  147.59    8.40
   3  -1   5  156.38    8.40
  -3  -1  -5  141.89    8.70
   3  -1   5  146.89    8.70
  -3   1  -5  162.68    7.40
   3   1   5  164.78    7.60
  -3   1  -5  158.18    9.70
   3   1   5  136.79    8.50
   4  -1   5  947.21   26.40
  -4  -1  -5  928.91   25.20
  -4  -1  -5  970.40   27.00
   4  -1   5  934.21   24.50
  -4   1  -5  915.71   26.40
  -4   1  -5  945.91   24.30
   4   1   5  979.00   24.70
   4   1   5 1005.10   25.80
   5  -1   5   -0.40    3.10
  -5  -1  -5    4.20    3.70
   5  -1   5   -2.20    2.40
  -5  -1  -5   -4.70    2.50
   5   1   5    0.40    2.70
   5   1   5    1.50    2.90
  -5   1  -5    1.20    3.10
  -5   1  -5    1.20    2.70
  -6  -1  -5 1564.54   42.10
   6  -1   5 1601.34   42.00
   6  -1   5 1642.44   37.50
  -6  -1  -5 1651.93   38.90
  -6   1  -5 1605.14   40.80
   6   1   5 1611.94   39.00
  -6   1  -5 1595.04   39.90
   6   1   5 1590.74   40.40
   7  -1   5  237.18   15.40
  -7  -1  -5  273.57   16.30
  -7   1  -5  260.47   14.90
   7   1   5  276.77   14.10
  -7   1  -5  263.67   14.90
   7   1   5  240.78   15.00
  -8  -1  -5 1344.47   42.00
   8  -1   5 1369.96   42.20
   8   1   5 1441.96   37.70
   8   1   5 1398.96   41.30
  -8   1  -5 1440.76   41.10
  -8   1  -5 1493.85   41.00
  -9  -1  -5   57.89   10.80
   9  -1   5   70.99   11.90
  -9   1  -5   65.19   10.90
   9   1   5   41.70    9.40
  -9   1  -5   50.79    9.50
  10  -1   5  950.70   37.50
 -10  -1  -5 1013.60   39.00
  10   1   5 1017.70   38.40
 -10   1  -5 1008.20   37.80
 -10  -2   5   13.10    8.20
  10  -2  -5    6.80    7.90
 -10   2   5    3.50    7.10
  10   2  -5    1.60    7.00
  -9  -2   5  872.21   34.70
   9  -2  -5  848.62   34.10
   9  -2  -5  810.42   29.10
   9   2  -5  814.92   32.60
  -9   2   5  810.92   32.90
   8  -2  -5    7.10    6.30
   8  -2  -5   11.80    5.30
  -8  -2   5   10.10    6.50
   8   2  -5   20.40    7.20
  -8   2   5   10.30    6.10
   7  -2  -5  670.53   24.20
   7  -2  -5  676.43   26.30
  -7  -2   5  694.43   21.60
  -7  -2   5  696.93   26.80
   7   2  -5  710.03   26.30
  -7   2   5  651.33   25.40
  -6  -2   5    5.10    3.30
   6  -2  -5    4.60    4.00
   6  -2  -5    0.90    3.90
  -6  -2   5   -0.70    3.60
  -6   2   5   -7.10    2.80
   6   2  -5    3.70    4.20
   5  -2  -5  784.72   24.70
  -5  -2   5  755.92   24.60
  -5  -2   5  772.92   22.00
   5  -2  -5  761.32   24.00
  -5   2   5  810.72   25.00
   5   2  -5  715.03   23.80
   5   2  -5  756.92   18.80
  -4  -2   5   68.79    7.00
   4  -2  -5   61.39    7.30
  -4  -2   5   60.29    7.00
   4  -2  -5   58.79    6.80
   4   2  -5   49.70    6.30
  -4   2   5   68.99    4.10
  -4   2   5   75.79    8.20
   4   2  -5   61.79    4.90
   3  -2  -5 1360.26   31.80
   3  -2  -5 1400.86   33.90
  -3  -2   5 1432.66   32.60
  -3  -2   5 1402.46   32.50
   3   2  -5 1434.76   30.30
  -3   2   5 1431.76   29.20
   3   2  -5 1459.45   33.80
  -3   2   5 1410.66   34.10
  -2  -2   5  271.67   11.10
   2  -2  -5  263.47   11.60
  -2  -2   5  252.97    9.50
   2  -2  -5  273.37    9.10
  -2   2   5  258.87   11.20
  -2   2   5  279.07   10.00
   2   2  -5  273.97   10.20
   2   2  -5  268.27   11.10
  -1  -2   5 4341.97   79.79
   1  -2  -5 4282.17   81.09
  -1  -2   5 4247.38   75.59
   1  -2  -5 4380.96   73.89
   1  -2  -5 4209.58   80.29
  -1   2   5 4202.48   78.89
   1   2  -5 4191.58   79.29
   1   2  -5 4320.37   80.49
   0  -2  -5   77.29    6.50
   0  -2   5   79.19    6.10
   0  -2   5   88.09    6.30
   0  -2  -5   73.89    6.20
   0   2   5   73.39    5.90
   0   2  -5   71.89    6.90
   1  -2   5 3139.39   62.39
   1  -2   5 3327.67   61.79
  -1  -2  -5 3247.18   63.29
  -1  -2  -5 3139.69   61.29
   1   2   5 3188.78   62.09
  -1   2  -5 3078.29   63.49
   2  -2   5   11.90    3.60
   2  -2   5   17.40    3.60
  -2  -2  -5   10.70    3.90
  -2  -2  -5   15.70    3.80
   2   2   5   21.90    2.70
  -2   2  -5   23.10    5.00
  -2   2  -5   17.60    2.10
   2   2   5   18.80    4.00
   3  -2   5 3882.61   72.79
   3  -2   5 3950.10   76.59
  -3  -2  -5 3688.83   76.79
  -3  -2  -5 3869.61   72.79
  -3   2  -5 3770.12   76.29
   3   2   5 3677.03   74.09
   3   2   5 3928.21   70.79
  -3   2  -5 3916.21   69.99
   4  -2   5    3.60    3.40
  -4  -2  -5   -1.80    2.80
   4  -2   5    0.00    2.40
  -4  -2  -5    2.90    2.90
   4   2   5    1.60    2.90
  -4   2  -5    0.30    2.10
  -4   2  -5   -0.90    3.20
   4   2   5    1.60    2.50
   5  -2   5 2521.85   57.69
  -5  -2  -5 2484.15   58.09
  -5  -2  -5 2398.66   51.39
   5  -2   5 2441.56   51.49
  -5   2  -5 2605.74   52.99
  -5   2  -5 2539.65   56.69
   5   2   5 2567.24   53.59
   5   2   5 2549.74   54.59
  -6  -2  -5   11.70    5.40
   6  -2   5    9.10    4.70
  -6   2  -5   12.40    4.50
  -6   2  -5   -0.20    3.80
   6   2   5   13.70    4.60
   6   2   5    9.20    4.30
  -7  -2  -5 2548.65   62.59
   7  -2   5 2473.45   61.49
   7   2   5 2527.25   58.69
  -7   2  -5 2535.55   57.79
   7   2   5 2420.96   56.49
  -7   2  -5 2526.25   59.79
  -8  -2  -5    6.70    6.50
   8  -2   5    0.30    5.70
  -8   2  -5   12.50    6.30
  -8   2  -5    5.70    5.80
   8   2   5   15.40    6.00
   8   2   5    1.90    5.10
  -9  -2  -5 1251.17   43.10
   9  -2   5 1197.58   42.20
   9   2   5 1301.27   40.80
  -9   2  -5 1257.57   40.30
  -9   2  -5 1318.17   41.10
   9  -3  -5   10.70    7.80
   9  -3  -5    4.50    5.50
  -9  -3   5   15.50    9.00
   9   3  -5   18.40    8.00
  -9   3   5   14.90    7.70
   8  -3  -5  844.52   30.30
  -8  -3   5  871.81   27.50
  -8  -3   5  874.91   34.20
   8  -3  -5  850.71   33.30
   8   3  -5  847.62   32.00
  -8   3   5  864.21   32.10
   7  -3  -5   16.70    6.20
   7  -3  -5    9.50    6.10
  -7  -3   5   17.30    6.90
  -7  -3   5   16.70    5.30
   7   3  -5   19.90    6.30
  -7   3   5   15.90    6.60
   6  -3  -5 1207.68   34.90
  -6  -3   5 1160.98   31.90
  -6  -3   5 1245.48   36.80
   6  -3  -5 1182.08   35.50
  -6   3   5 1169.48   35.00
   6   3  -5 1152.28   34.70
   5  -3  -5  250.07   14.20
  -5  -3   5  263.67   13.10
  -5  -3   5  257.07   14.50
   5  -3  -5  253.47   14.00
  -5   3   5  267.77   14.30
   5   3  -5  238.48   13.80
   4  -3  -5 1634.14   38.90
  -4  -3   5 1630.94   40.20
  -4  -3   5 1696.03   39.20
  -4   3   5 1697.23   33.00
   4   3  -5 1655.93   33.40
  -4   3   5 1622.64   40.50
   4   3  -5 1575.14   39.90
   3  -3  -5   11.40    3.30
   3  -3  -5    8.50    4.20
  -3  -3   5    7.60    3.30
  -3  -3   5   13.30    3.90
  -3   3   5   14.10    4.50
  -3   3   5   18.20    3.30
   3   3  -5   14.00    3.00
   3   3  -5   13.20    4.20
   2  -3  -5 2843.82   59.19
  -2  -3   5 3003.00   55.69
   2  -3  -5 2871.81   53.79
  -2  -3   5 2833.32   58.19
  -2   3   5 2870.61   55.59
   2   3  -5 2871.21   55.79
   2   3  -5 2798.52   58.99
  -2   3   5 2733.93   59.19
  -1  -3   5  256.47    7.60
  -1  -3   5  220.88   10.80
   1  -3  -5  246.38    7.40
   1  -3  -5  232.18   11.40
   1  -3  -5  249.68   11.90
   1   3  -5  246.58   10.90
  -1   3   5  248.48   10.40
   0  -3  -5 1997.60   45.10
   0  -3  -5 2033.90   43.60
   0  -3   5 2034.40   43.50
   0  -3   5 1989.10   44.50
   0   3   5 2056.09   43.10
   0   3  -5 2054.19   44.70
   0   3   5 2064.09   36.40
  -1  -3  -5   12.60    4.00
  -1  -3  -5    8.50    3.30
   1  -3   5    9.50    3.40
   1  -3   5    5.80    3.20
   1   3   5   10.30    1.90
  -1   3  -5    3.30    3.10
   1   3   5   10.70    3.60
   2  -3   5 2745.53   54.29
  -2  -3  -5 2640.54   53.49
  -2  -3  -5 2701.93   58.39
   2  -3   5 2705.33   57.49
   2   3   5 2641.24   55.59
   2   3   5 2731.83   49.80
  -2   3  -5 2687.63   57.49
  -3  -3  -5   84.19    6.40
   3  -3   5   96.79    7.00
   3  -3   5  117.79   10.60
  -3  -3  -5   72.39    8.80
  -3   3  -5   86.19    9.00
   3   3   5   93.89    5.80
   3   3   5   80.79    8.20
  -3   3  -5  100.09    5.10
   4  -3   5 4046.30   86.39
  -4  -3  -5 4163.38   87.99
   4  -3   5 4259.87   79.89
  -4  -3  -5 4211.98   78.79
  -4   3  -5 4329.07   78.39
   4   3   5 4286.87   80.09
  -4   3  -5 4194.48   85.79
   4   3   5 4300.27   83.99
  -5  -3  -5   28.00    7.10
   5  -3   5   17.80    5.80
   5  -3   5   20.10    4.30
  -5   3  -5   38.90    5.40
   5   3   5   21.90    4.70
   5   3   5   33.00    6.50
  -5   3  -5   26.90    6.80
   6  -3   5 2559.54   62.49
  -6  -3  -5 2541.45   63.09
   6   3   5 2584.54   58.29
  -6   3  -5 2526.05   60.79
  -6   3  -5 2612.44   55.89
   6   3   5 2629.14   57.19
  -7  -3  -5  212.58   16.60
   7  -3   5  251.57   17.40
   7   3   5  250.77   14.90
   7   3   5  266.17   14.90
  -7   3  -5  272.17   17.10
  -8  -3  -5  955.20   36.60
   8  -3   5 1047.40   37.40
   8   3   5 1026.90   33.60
  -8   3  -5 1010.90   35.50
   8   3   5  970.80   32.10
  -9  -3  -5   -7.40    6.50
   9  -3   5    3.70    6.80
   9   3   5    0.30    6.10
   9   3   5    0.40    5.50
  -9   3  -5   -3.20    6.00
   9  -4  -5 1027.80   39.90
  -9  -4   5 1074.69   41.40
   9  -4  -5 1006.40   37.10
  -9  -4   5  963.20   32.80
   9   4  -5 1084.99   39.50
  -9   4   5 1016.20   38.40
  -8  -4   5   76.99   10.50
  -8  -4   5   91.69   13.90
   8  -4  -5   67.29   12.20
   8  -4  -5   82.89   11.50
  -8   4   5   96.69   13.70
   8   4  -5  112.69   14.50
   7  -4  -5 1655.33   47.70
  -7  -4   5 1603.04   42.90
   7  -4  -5 1625.84   46.60
  -7  -4   5 1675.43   49.10
  -7   4   5 1694.03   47.30
   7   4  -5 1667.73   47.20
  -6  -4   5   30.30    8.10
  -6  -4   5   26.80    6.80
   6  -4  -5   20.30    6.40
   6  -4  -5   27.00    7.00
   6   4  -5   18.10    6.30
  -6   4   5   26.60    7.60
  -5  -4   5 2996.70   67.59
  -5  -4   5 3070.19   65.49
   5  -4  -5 3003.70   65.79
   5  -4  -5 3054.39   67.89
  -5   4   5 2922.01   66.89
   5   4  -5 2964.40   66.99
   4  -4  -5   -0.80    3.70
  -4  -4   5   -4.20    3.20
   4  -4  -5    2.30    3.10
  -4  -4   5   12.60    4.60
  -4   4   5   -0.70    3.70
   4   4  -5    4.20    4.40
   3  -4  -5 4315.37   87.69
   3  -4  -5 4424.86   82.89
  -3  -4   5 4481.05   84.69
  -3  -4   5 4392.26   86.39
   3   4  -5 4409.06   80.19
  -3   4   5 4235.88   80.59
   3   4  -5 4398.46   88.09
  -3   4   5 4203.68   87.49
  -2  -4   5    8.30    2.80
   2  -4  -5    8.20    2.80
  -2  -4   5    4.30    3.30
   2  -4  -5    6.60    3.70
   2   4  -5   11.70    4.70
  -2   4   5    4.80    2.90
   2   4  -5    7.00    3.20
   1  -4  -5 2348.36   44.20
   1  -4  -5 2252.07   50.09
   1  -4  -5 2249.18   51.39
  -1  -4   5 2297.77   49.90
   1   4  -5 2319.47   49.30
  -1   4   5 2215.28   47.50
   0  -4  -5  684.83   21.10
   0  -4  -5  656.63   22.20
   0  -4   5  682.33   22.20
   0  -4   5  690.93   21.20
   0   4  -5  681.03   21.70
   0   4   5  706.73   20.90
   0   4   5  687.63   15.90
   1  -4   5 1339.57   32.70
  -1  -4  -5 1337.87   35.50
   1  -4   5 1319.67   35.20
  -1  -4  -5 1318.87   32.10
   1   4   5 1372.26   33.40
  -1   4  -5 1328.87   34.60
   1   4   5 1351.36   27.30
   2  -4   5  392.36   17.20
  -2  -4  -5  408.96   14.60
  -2  -4  -5  395.86   17.70
   2  -4   5  388.36   14.80
   2   4   5  411.36   12.00
   2   4   5  380.66   15.70
  -2   4  -5  412.16   17.30
  -3  -4  -5 1064.79   32.90
   3  -4   5 1111.19   28.30
  -3  -4  -5 1099.19   26.90
   3  -4   5 1088.09   32.40
   3   4   5 1145.69   31.00
  -3   4  -5 1154.28   32.80
   3   4   5 1090.49   25.80
   4  -4   5   67.19    9.00
  -4  -4  -5   59.69    9.40
   4  -4   5   93.19    8.10
  -4   4  -5   59.69    8.40
   4   4   5   66.99    6.80
   4   4   5   62.89    8.30
  -5  -4  -5 1553.84   45.30
   5  -4   5 1515.75   43.80
  -5   4  -5 1599.24   43.80
   5   4   5 1659.23   38.30
   5   4   5 1576.34   41.50
   6  -4   5   -2.70    4.90
  -6  -4  -5    4.80    6.00
   6   4   5    1.50    3.90
   6   4   5    1.10    4.30
  -6   4  -5   -2.60    4.80
   7  -4   5  625.44   28.30
  -7  -4  -5  577.84   27.90
   7   4   5  576.04   24.20
  -7   4  -5  553.44   25.70
   7   4   5  625.64   23.80
  -8  -4  -5   40.30   10.40
   8  -4   5   56.19   11.50
  -8   4  -5   49.70   10.80
   8   4   5   61.09   10.00
  -8  -5   5 1226.08   38.70
   8  -5  -5 1200.48   42.00
   8  -5  -5 1257.27   42.50
  -8  -5   5 1141.39   42.80
  -8   5   5 1246.48   42.00
   8   5  -5 1284.87   43.00
   7  -5  -5   10.40    6.10
  -7  -5   5   -3.80    5.90
  -7  -5   5   -1.70    5.00
   7  -5  -5   -1.00    5.50
   7   5  -5    0.60    5.70
  -7   5   5    3.40    5.90
   6  -5  -5 2050.79   53.59
  -6  -5   5 1844.62   49.30
   6  -5  -5 1963.60   50.89
  -6  -5   5 1874.31   51.99
   6   5  -5 1966.10   52.49
  -6   5   5 1896.01   51.49
   5  -5  -5   98.09   10.80
   5  -5  -5  129.79   13.60
  -5  -5   5  105.19   11.80
  -5  -5   5  116.29   12.00
   5   5  -5  106.89   12.00
  -5   5   5  107.89   12.40
   4  -5  -5 1752.92   41.60
  -4  -5   5 1729.83   44.40
  -4  -5   5 1690.83   42.60
   4  -5  -5 1647.34   45.20
   4   5  -5 1717.73   45.30
  -4   5   5 1708.83   45.20
  -3  -5   5   69.79    9.10
   3  -5  -5   90.79   10.70
  -3   5   5   73.99    9.60
   3   5  -5   71.39    9.40
   2  -5  -5 2030.90   49.40
  -2  -5   5 2059.99   48.90
   2   5  -5 2069.79   45.30
   2   5  -5 2035.10   49.99
  -2   5   5 2092.69   45.00
  -1  -5   5    2.40    3.60
   1  -5  -5   -3.30    3.10
   1  -5  -5    4.80    3.70
  -1   5   5   -4.60    2.60
   1   5  -5    0.90    3.20
   0  -5  -5 1289.27   36.60
   0  -5  -5 1322.27   34.50
   0  -5   5 1351.86   36.70
   0  -5   5 1367.26   34.90
   0   5  -5 1306.67   34.90
   0   5   5 1323.37   33.70
  -1  -5  -5    8.70    4.00
   1  -5   5    7.20    4.00
  -1  -5  -5    2.70    4.60
   1  -5   5   14.30    5.70
   1   5   5    3.00    3.90
  -1   5  -5    7.60    4.30
  -2  -5  -5 1007.30   27.00
   2  -5   5 1038.90   32.00
  -2  -5  -5 1059.59   32.70
   2  -5   5 1025.30   28.20
   2   5   5  982.70   29.60
  -2   5  -5  983.50   30.80
   3  -5   5    2.60    3.30
  -3  -5  -5    0.90    4.50
   3  -5   5    0.00    4.40
   3   5   5    4.80    4.30
  -3   5  -5   -0.10    4.10
  -4  -5  -5 1175.28   38.10
   4  -5   5 1182.78   37.40
   4   5   5 1171.98   34.80
  -4   5  -5 1155.88   36.40
  -5  -5  -5    8.30    6.90
   5  -5   5    3.60    5.30
  -5   5  -5    5.50    5.10
   5   5   5   12.00    5.50
   6  -5   5  605.64   27.90
  -6  -5  -5  587.94   28.20
   6   5   5  622.94   25.50
  -6   5  -5  584.44   26.80
  -7  -5  -5  111.39   15.70
   7  -5   5  131.29   16.30
   7   5   5  109.19   13.00
  -7   5  -5  105.49   14.70
   8  -5   5 1176.68   43.50
  -8  -5  -5 1132.19   43.70
  -8   5  -5 1116.79   41.80
   8   5   5 1126.99   38.60
   7  -6  -5  891.41   35.40
  -7  -6   5  881.01   33.40
   7   6  -5  880.81   35.00
  -7   6   5  872.71   34.00
   6  -6  -5   -1.50    5.60
  -6  -6   5   12.70    6.80
  -6   6   5    0.20    5.50
   6   6  -5    3.80    5.90
   5  -6  -5 1474.25   44.60
  -5  -6   5 1434.96   42.70
  -5   6   5 1441.36   43.40
   5   6  -5 1497.35   44.50
   4  -6  -5   28.00    7.90
  -4  -6   5   31.80    7.50
  -4   6   5   33.90    8.10
   4   6  -5   22.30    7.00
  -3  -6   5  554.94   22.90
   3  -6  -5  551.64   23.80
  -3   6   5  529.35   23.10
   3   6  -5  565.74   24.10
  -2  -6   5    3.30    4.50
   2  -6  -5   -1.60    3.60
   2   6  -5    1.00    4.80
  -2   6   5   -5.10    2.90
  -1  -6   5 1787.42   45.30
   1  -6  -5 1787.52   45.10
   1  -6  -5 1784.42   46.80
  -1   6   5 1706.13   42.00
   1   6  -5 1743.63   43.20
   1   6  -5 1681.23   46.50
   0  -6   5  257.57   14.60
   0  -6  -5  255.37   15.80
   0  -6   5  239.88   15.50
   0  -6  -5  244.88   13.90
   0   6   5  254.57   13.90
   0   6  -5  258.37   14.50
  -1  -6  -5 1567.14   40.00
   1  -6   5 1560.24   40.80
  -1  -6  -5 1614.04   44.80
   1  -6   5 1622.54   44.80
  -1   6  -5 1662.23   43.50
   1   6   5 1651.63   42.10
  -2  -6  -5  411.76   20.60
   2  -6   5  394.46   17.40
   2  -6   5  421.86   20.90
  -2   6  -5  405.66   19.90
   2   6   5  368.26   18.20
   3  -6   5 1513.45   38.40
  -3  -6  -5 1629.14   46.20
   3  -6   5 1418.06   43.70
  -3   6  -5 1554.84   44.10
   3   6   5 1426.56   41.30
   4  -6   5   -2.40    4.40
  -4  -6  -5   -0.50    6.30
  -4   6  -5    4.40    5.10
   4   6   5    0.20    4.60
   5  -6   5 1492.85   47.50
  -5  -6  -5 1510.65   48.80
   5   6   5 1561.24   44.90
  -5   6  -5 1489.45   46.50
  -6  -6  -5   18.40    9.50
   6  -6   5   26.20   10.10
  -6   6  -5    9.60    7.90
   6   6   5   29.40    8.60
  -7  -6  -5  849.32   38.00
   7  -6   5  824.62   36.60
   7   6   5  824.32   33.00
  -5  -7   5    7.00    6.90
   5  -7  -5    4.10    6.50
   5   7  -5    7.50    6.90
  -5   7   5    3.40    6.30
  -4  -7   5  552.04   25.50
   4  -7  -5  600.04   27.10
   4   7  -5  522.65   25.50
  -4   7   5  540.55   25.30
  -3  -7   5   43.40    9.10
   3  -7  -5   31.70    8.40
   3   7  -5   53.89   10.30
  -3   7   5   32.10    8.80
   2  -7  -5  890.91   32.10
  -2  -7   5  903.61   32.00
  -2   7   5 1010.30   33.90
   2   7  -5  929.61   33.70
   1  -7  -5   -1.90    5.70
  -1  -7   5   15.30    6.40
   1  -7  -5    4.00    5.10
  -1   7   5    1.80    4.40
   1   7  -5    5.20    5.90
   0  -7  -5 1270.17   37.50
   0  -7  -5 1271.47   40.30
   0  -7   5 1336.57   41.20
   0  -7   5 1337.37   38.60
   0   7   5 1289.57   37.00
   0   7  -5 1299.27   38.20
  -1  -7  -5   20.80    7.60
   1  -7   5    8.10    5.50
   1  -7   5    0.60    4.90
   1   7   5    8.60    5.30
  -1   7  -5    2.20    5.70
  -2  -7  -5 2559.64   66.39
   2  -7   5 2608.74   60.09
   2  -7   5 2582.14   65.99
  -2   7  -5 2604.34   64.29
   2   7   5 2601.64   62.89
   3  -7   5    5.30    6.80
  -3  -7  -5   10.60    7.90
  -3   7  -5   16.00    6.90
   3   7   5    5.10    5.90
   4  -7   5 1998.30   57.79
  -4  -7  -5 1949.80   57.99
   4   7   5 2001.60   54.59
  -4   7  -5 1990.50   56.49
   5  -7   5   -8.10    6.10
  -5  -7  -5    6.70    8.20
   5   7   5    0.10    5.50
  -5   7  -5    3.80    7.40
  -2  -8   5   57.79   11.20
   2  -8  -5   48.80    9.80
   2   8  -5   57.59   10.80
  -2   8   5   48.00   10.80
   1  -8  -5  937.61   33.50
   1  -8  -5  912.61   34.40
  -1  -8   5  936.31   33.60
   1   8  -5  853.11   34.30
   0  -8  -5    8.20    7.10
   0  -8   5    9.20    6.70
   0   8   5   17.50    6.80
   0   8  -5    0.20    6.70
   1  -8   5 1347.67   45.00
   1  -8   5 1420.06   41.70
  -1  -8  -5 1371.96   44.70
   1   8   5 1348.77   41.40
  -2  -8  -5   87.89   13.90
   2  -8   5   76.39   12.90
   2   8   5   79.59   11.60
  -2   8  -5   77.39   12.40
  10   0  -6  684.53   31.40
 -10   0   6  638.44   31.20
  -9   0   6   -2.30    5.70
   9   0  -6   -7.60    4.70
   8   0  -6  669.43   27.30
  -8   0   6  627.24   26.90
   7   0  -6   -0.40    2.80
   7   0  -6    4.40    4.90
  -7   0   6   -5.80    3.50
   6   0  -6 1816.62   45.50
  -6   0   6 1860.11   46.50
  -6   0   6 1934.01   39.20
   6   0  -6 1851.41   42.30
  -5   0   6    0.90    2.70
  -5   0   6    0.70    2.10
   5   0  -6    4.40    3.30
   5   0  -6    1.10    2.60
   4   0  -6 1626.24   36.60
  -4   0   6 1608.54   34.00
  -4   0   6 1532.15   37.10
   4   0  -6 1573.74   36.50
  -3   0   6    0.40    2.60
   3   0  -6   -2.90    2.20
   3   0  -6   -3.10    2.10
  -3   0   6   -3.50    1.90
  -2   0   6 2960.10   56.79
   2   0  -6 2914.01   58.09
   2   0  -6 2993.10   55.89
  -2   0   6 2922.01   57.09
   1   0  -6   -1.20    1.40
  -1   0   6   -0.80    1.80
  -1   0   6   -1.60    1.90
   1   0  -6   -1.00    2.40
   0   0   6 9608.04  163.28
   0   0   6 9448.05  166.58
   0   0  -6 9485.45  167.28
   0   0  -6 9533.65  165.18
   1   0   6   -1.90    1.60
  -1   0  -6   -3.90    2.50
   1   0   6   -5.20    2.50
  -1   0  -6   -2.90    1.80
   2   0   6 3097.29   58.49
   2   0   6 3071.29   61.89
  -2   0  -6 3151.68   59.49
  -2   0  -6 3088.19   62.89
  -3   0  -6   -2.50    2.40
   3   0   6    6.20    3.60
  -3   0  -6   -2.40    2.90
   3   0   6   -1.20    2.20
   4   0   6 4133.19   79.79
  -4   0  -6 4115.99   81.49
  -4   0  -6 4079.79   79.99
   4   0   6 4084.69   79.99
  -5   0  -6    7.40    3.80
  -5   0  -6    3.80    3.60
   5   0   6    2.50    3.10
   5   0   6    0.10    3.00
  -6   0  -6 2961.90   64.09
   6   0   6 2954.80   62.19
  -6   0  -6 2930.11   64.79
   6   0   6 2958.80   64.69
   7   0   6    2.40    4.20
   7   0   6    2.30    3.90
  -7   0  -6   -4.00    3.70
  -7   0  -6   -5.60    3.70
  -8   0  -6  804.32   29.60
  -8   0  -6  798.62   30.60
   8   0   6  768.62   29.00
  -9   0  -6    9.80    6.70
   9   0   6    1.40    5.70
 -10  -1   6    1.30    7.00
  10  -1  -6    4.40    7.20
  10   1  -6    6.00    7.40
 -10   1   6   -0.40    6.50
   9  -1  -6  779.82   32.00
  -9  -1   6  750.92   31.90
   9   1  -6  714.83   30.60
  -9   1   6  719.03   31.00
   8  -1  -6   84.49   11.60
  -8  -1   6   76.09   11.30
   8  -1  -6   66.19    9.10
  -8   1   6   85.29   12.10
   8   1  -6   68.09   10.60
  -7  -1   6 1617.64   37.30
   7  -1  -6 1695.53   45.00
   7  -1  -6 1617.34   41.10
  -7  -1   6 1675.33   45.40
   7   1  -6 1636.34   44.40
  -7   1   6 1648.54   45.10
  -6  -1   6   68.39    7.00
   6  -1  -6   47.80    7.00
   6  -1  -6   68.99    8.80
  -6  -1   6   54.19    8.30
   6   1  -6   61.69    8.90
  -6   1   6   50.39    7.60
   6   1  -6   66.59    6.80
   5  -1  -6 1916.81   43.40
   5  -1  -6 1876.21   44.20
  -5  -1   6 1813.12   40.30
  -5  -1   6 1849.81   44.50
   5   1  -6 1873.61   44.20
  -5   1   6 1814.92   44.50
   5   1  -6 1900.71   40.50
  -5   1   6 1935.61   37.70
   4  -1  -6  452.55   15.90
  -4  -1   6  471.15   15.30
  -4  -1   6  459.75   16.40
   4  -1  -6  447.36   16.60
   4   1  -6  468.75   16.60
   4   1  -6  468.95   15.30
  -4   1   6  450.45   16.80
  -4   1   6  480.85   13.60
   3  -1  -6 2404.66   50.39
  -3  -1   6 2344.97   48.50
   3  -1  -6 2298.37   47.40
  -3  -1   6 2420.16   48.30
   3   1  -6 2397.56   48.10
  -3   1   6 2412.06   50.09
  -3   1   6 2380.16   46.30
   3   1  -6 2271.37   48.60
  -2  -1   6    5.30    2.70
   2  -1  -6    5.20    2.30
  -2  -1   6    7.60    2.80
   2  -1  -6    1.10    2.70
  -2   1   6   11.30    3.60
  -2   1   6   13.60    3.30
   2   1  -6    7.20    3.30
   2   1  -6    5.40    2.90
  -1  -1   6 5427.86   98.19
   1  -1  -6 5257.97   98.99
   1  -1  -6 5517.55   93.39
  -1  -1   6 5455.15   95.29
   1   1  -6 5483.05   98.99
   1   1  -6 5259.27   97.19
  -1   1   6 5348.37   98.09
   0  -1  -6  139.19    8.30
   0  -1   6  138.19    6.90
   0  -1  -6  133.79    7.50
   0  -1   6  144.99    5.30
   0  -1  -6  136.39    3.70
   0  -1   6  142.09    8.10
   0   1  -6  125.19    8.30
   0   1   6  132.19    8.10
  -1  -1  -6 4368.16   82.09
  -1  -1  -6 4302.07   80.99
   1  -1   6 4213.08   79.69
   1  -1   6 4201.08   80.99
  -1   1  -6 4444.16   75.99
   1   1   6 4433.36   74.69
   1   1   6 4289.37   82.09
   2  -1   6  117.79    7.90
   2  -1   6  138.69    7.70
  -2  -1  -6  125.09    8.40
  -2  -1  -6  131.19    8.00
  -2   1  -6  134.89    9.40
   2   1   6  138.69    5.80
  -2   1  -6  138.29    6.00
   2   1   6  138.59    8.70
  -3  -1  -6 2270.67   49.50
   3  -1   6 2288.37   48.80
   3  -1   6 2200.08   48.30
  -3  -1  -6 2334.77   49.80
  -3   1  -6 2302.67   45.70
  -3   1  -6 2338.17   51.29
   3   1   6 2429.46   50.29
   3   1   6 2302.17   45.80
   4  -1   6  644.54   20.70
   4  -1   6  629.74   19.80
  -4  -1  -6  650.13   21.20
  -4  -1  -6  643.44   20.60
   4   1   6  621.14   20.50
  -4   1  -6  646.94   22.10
   4   1   6  641.74   18.90
  -4   1  -6  648.14   18.70
  -5  -1  -6 1499.65   39.40
   5  -1   6 1565.24   39.40
  -5  -1  -6 1531.05   38.00
   5  -1   6 1594.84   37.20
  -5   1  -6 1582.44   40.20
   5   1   6 1541.15   38.00
   5   1   6 1555.54   37.50
  -5   1  -6 1512.35   36.70
   6  -1   6  584.54   22.30
  -6  -1  -6  568.34   20.50
   6  -1   6  558.04   19.20
  -6  -1  -6  547.65   22.00
   6   1   6  544.45   20.50
  -6   1  -6  519.75   19.70
   6   1   6  547.05   20.30
  -6   1  -6  563.94   22.00
  -7  -1  -6 1768.92   47.80
   7  -1   6 1768.82   47.60
  -7   1  -6 1778.12   45.50
   7   1   6 1827.42   46.50
  -7   1  -6 1775.62   46.70
   7   1   6 1813.02   44.60
   8  -1   6   26.40    8.10
  -8  -1  -6   32.10    8.50
  -8   1  -6   24.00    7.10
  -8   1  -6   46.30    9.00
   8   1   6   19.30    6.10
   8   1   6   22.30    7.30
   9  -1   6 1042.90   37.70
  -9  -1  -6 1002.30   37.00
  -9   1  -6 1054.49   37.10
  -9   1  -6 1043.90   36.00
   9   1   6 1069.69   36.80
   9  -2  -6   19.60    6.40
  -9  -2   6   28.90    9.60
   9  -2  -6   31.50    9.40
  -9   2   6   23.90    8.40
   9   2  -6   26.70    8.90
   8  -2  -6 2193.78   57.89
  -8  -2   6 2089.39   57.59
   8  -2  -6 2199.68   53.99
   8   2  -6 2186.68   56.89
  -8   2   6 2095.89   56.89
  -7  -2   6   77.49   10.80
   7  -2  -6   70.29    9.60
  -7  -2   6   82.49    8.80
   7  -2  -6   75.39   10.60
   7   2  -6   82.89   10.90
  -7   2   6   83.59   11.10
   6  -2  -6 2547.34   59.89
   6  -2  -6 2594.34   58.49
  -6  -2   6 2523.45   54.59
  -6  -2   6 2663.33   60.79
  -6   2   6 2600.34   60.19
   6   2  -6 2532.05   59.39
   5  -2  -6   26.30    6.00
   5  -2  -6   28.10    6.10
  -5  -2   6   39.90    7.00
  -5  -2   6   26.70    5.20
   5   2  -6   25.80    5.50
   5   2  -6   30.00    4.40
  -5   2   6   26.30    6.20
   4  -2  -6 3004.90   63.29
  -4  -2   6 2974.70   62.39
   4  -2  -6 3023.70   61.99
  -4  -2   6 2987.80   60.99
   4   2  -6 3006.50   62.89
  -4   2   6 3057.49   56.19
  -4   2   6 2941.71   63.49
   4   2  -6 3057.99   58.29
  -3  -2   6   64.49    6.50
   3  -2  -6   73.69    6.00
  -3  -2   6   68.39    7.20
   3  -2  -6   64.19    7.30
  -3   2   6   61.19    7.00
   3   2  -6   70.59    7.40
  -3   2   6   63.69    5.10
   3   2  -6   69.39    6.20
   2  -2  -6 1135.79   29.40
  -2  -2   6 1157.18   28.30
  -2  -2   6 1116.29   25.50
   2  -2  -6 1138.99   24.30
  -2   2   6 1144.79   28.90
  -2   2   6 1158.38   26.90
   2   2  -6 1115.49   28.00
   2   2  -6 1093.89   27.00
  -1  -2   6   63.29    4.00
  -1  -2   6   57.99    6.40
   1  -2  -6   60.59    6.90
   1  -2  -6   63.49    6.90
   1  -2  -6   64.49    2.60
  -1   2   6   61.09    6.30
   1   2  -6   82.19    6.60
   1   2  -6   78.99    7.40
   0  -2  -6 1569.44   35.50
   0  -2  -6 1524.65   35.30
   0  -2   6 1564.94   34.60
   0  -2   6 1477.55   34.40
   0   2   6 1506.25   34.90
   0   2  -6 1485.65   35.80
  -1  -2  -6   56.49    6.60
  -1  -2  -6   53.69    6.30
   1  -2   6   71.89    7.00
   1  -2   6   49.80    5.90
  -1   2  -6   62.69    7.50
   1   2   6   61.19    7.00
   2  -2   6  762.72   21.50
  -2  -2  -6  742.03   22.60
   2  -2   6  726.73   21.60
  -2  -2  -6  776.02   21.70
  -2   2  -6  731.13   23.40
  -2   2  -6  773.62   15.20
   2   2   6  744.23   22.20
   2   2   6  804.42   16.60
  -3  -2  -6   90.39    7.30
  -3  -2  -6   87.29    9.20
   3  -2   6   76.29    7.90
   3  -2   6   89.99    7.10
   3   2   6   75.59    7.90
   3   2   6   81.89    5.40
  -3   2  -6   68.79    8.00
  -3   2  -6   94.69    5.20
   4  -2   6  646.54   22.40
   4  -2   6  691.83   20.90
  -4  -2  -6  666.63   23.20
  -4  -2  -6  638.54   20.50
   4   2   6  694.33   22.20
  -4   2  -6  689.83   18.50
   4   2   6  696.83   19.30
  -4   2  -6  707.83   23.90
   5  -2   6   11.90    4.30
  -5  -2  -6   20.60    5.00
   5  -2   6   18.80    5.80
  -5  -2  -6   14.60    5.50
   5   2   6   15.80    4.70
  -5   2  -6   18.90    4.50
  -5   2  -6   15.20    5.20
   5   2   6   16.70    4.50
  -6  -2  -6 1577.64   43.60
   6  -2   6 1499.35   37.30
   6  -2   6 1622.24   43.30
  -6   2  -6 1624.54   38.70
  -6   2  -6 1508.05   42.00
   6   2   6 1542.15   39.00
   6   2   6 1504.35   39.80
  -7  -2  -6  114.19   13.60
   7  -2   6  150.08   15.00
   7   2   6  136.49   12.60
  -7   2  -6  127.39   11.80
  -7   2  -6  114.29   12.50
   7   2   6  128.59   12.20
  -8  -2  -6 1683.13   49.99
   8  -2   6 1691.33   49.40
   8   2   6 1714.13   45.60
   8   2   6 1766.02   47.40
  -8   2  -6 1688.63   47.90
  -8   2  -6 1755.42   48.70
   9  -2   6  105.69   14.80
  -9  -2  -6   74.59   12.60
   9   2   6  114.09   14.10
  -9   2  -6   88.09   12.90
  -9  -3   6 1594.84   52.29
   9  -3  -6 1644.04   51.69
   9  -3  -6 1733.63   48.40
   9   3  -6 1610.24   50.09
  -9   3   6 1616.64   50.39
  -8  -3   6   26.80    6.20
   8  -3  -6   20.90    7.00
  -8  -3   6   48.40   10.60
   8  -3  -6   19.20    8.00
  -8   3   6   24.80    8.20
   8   3  -6   25.30    8.50
   7  -3  -6 1565.94   45.30
  -7  -3   6 1503.05   39.80
   7  -3  -6 1636.84   44.60
  -7  -3   6 1598.04   46.30
  -7   3   6 1645.24   45.60
   7   3  -6 1527.55   44.50
   6  -3  -6   24.10    6.20
   6  -3  -6   18.60    5.90
  -6  -3   6   24.60    5.70
  -6  -3   6   19.80    6.80
   6   3  -6   24.20    6.60
  -6   3   6   24.10    6.40
  -5  -3   6 1649.83   40.00
   5  -3  -6 1588.74   42.10
  -5  -3   6 1585.34   41.70
   5  -3  -6 1569.44   40.50
  -5   3   6 1638.94   42.30
   5   3  -6 1636.04   42.10
   4  -3  -6   62.19    7.90
  -4  -3   6   65.29    7.60
   4  -3  -6   55.79    6.70
  -4  -3   6   63.29    7.70
   4   3  -6   85.19    6.00
  -4   3   6   76.39    5.50
  -4   3   6   66.49    8.10
   4   3  -6   68.09    8.20
   3  -3  -6 2223.28   44.30
  -3  -3   6 2174.48   47.80
   3  -3  -6 2153.98   49.10
  -3  -3   6 2067.79   45.90
   3   3  -6 2108.29   43.80
  -3   3   6 2071.09   48.70
  -3   3   6 2125.59   43.50
   3   3  -6 2104.19   48.20
   2  -3  -6    7.90    2.10
   2  -3  -6    3.80    3.80
  -2  -3   6    3.70    2.40
  -2  -3   6    5.70    3.30
   2   3  -6    6.10    3.00
   2   3  -6    3.50    3.30
  -2   3   6    2.20    2.70
  -2   3   6    6.20    3.60
  -1  -3   6 1132.99   21.80
   1  -3  -6 1043.10   29.10
   1  -3  -6 1133.39   29.40
   1  -3  -6 1094.09   20.90
  -1  -3   6 1110.09   28.70
   1   3  -6 1066.49   28.30
  -1   3   6 1066.09   27.50
   0  -3   6   58.39    6.50
   0  -3   6   62.39    7.30
   0  -3  -6   65.19    7.30
   0  -3  -6   70.59    7.40
   0   3  -6   59.19    6.80
   0   3   6   75.29    7.80
  -1  -3  -6 1449.15   34.10
   1  -3   6 1373.96   34.80
  -1  -3  -6 1371.56   35.40
   1  -3   6 1438.06   33.80
   1   3   6 1410.06   34.30
  -1   3  -6 1423.56   36.10
   2  -3   6   19.00    4.20
  -2  -3  -6   10.50    4.60
   2  -3   6   16.70    4.80
  -2  -3  -6   25.60    4.80
  -2   3  -6   12.60    4.40
   2   3   6   20.80    2.60
   2   3   6   14.50    4.10
  -3  -3  -6 2593.84   59.49
   3  -3   6 2605.24   54.79
   3  -3   6 2649.83   58.59
  -3  -3  -6 2761.32   54.69
   3   3   6 2631.24   50.49
  -3   3  -6 2588.24   58.89
   3   3   6 2681.33   57.19
   4  -3   6   43.40    7.30
  -4  -3  -6   54.49    6.60
  -4  -3  -6   44.90    7.70
   4  -3   6   41.60    5.90
   4   3   6   62.59    8.10
   4   3   6   67.69    6.40
  -4   3  -6   44.70    7.50
   5  -3   6 2390.86   58.29
  -5  -3  -6 2401.26   59.29
   5  -3   6 2476.35   52.09
   5   3   6 2443.06   51.89
   5   3   6 2452.55   55.89
  -6  -3  -6   29.00    8.10
   6  -3   6   20.30    6.60
   6   3   6   24.60    6.30
   6   3   6   30.30    6.00
  -6   3  -6   28.10    7.10
  -7  -3  -6  981.10   35.30
   7  -3   6  971.30   34.80
   7   3   6  989.90   32.20
   7   3   6 1023.50   31.40
  -7   3  -6  988.40   34.60
   8  -3   6   19.00    8.00
  -8  -3  -6   15.20    7.60
   8   3   6   14.30    6.40
   8   3   6   11.70    6.70
  -8   3  -6   26.90    8.90
  -9  -3  -6 1171.78   42.80
   9  -3   6 1103.09   41.70
   9   3   6 1148.19   37.90
  -9   3  -6 1207.68   41.60
  -8  -4   6  621.54   29.40
   8  -4  -6  564.04   27.50
   8  -4  -6  601.34   26.90
  -8  -4   6  614.04   24.30
  -8   4   6  617.84   27.90
   8   4  -6  565.54   27.30
   7  -4  -6   50.89    9.70
   7  -4  -6   42.30    8.60
  -7  -4   6   46.50    8.80
  -7  -4   6   62.69   11.30
   7   4  -6   36.60    8.50
  -7   4   6   47.50    9.40
   6  -4  -6  614.64   24.40
  -6  -4   6  581.94   25.30
   6  -4  -6  607.54   25.20
  -6  -4   6  651.53   23.90
   6   4  -6  610.54   25.30
  -6   4   6  621.24   25.00
   5  -4  -6  118.79   12.80
  -5  -4   6   89.09    9.90
  -5  -4   6  101.29   11.20
   5  -4  -6  123.39   11.30
   5   4  -6  114.69   11.50
  -5   4   6  100.09   10.90
  -4  -4   6 1501.25   39.20
  -4  -4   6 1531.35   38.40
   4  -4  -6 1527.05   41.20
   4  -4  -6 1556.64   36.80
   4   4  -6 1436.56   39.90
  -4   4   6 1472.85   40.40
   3  -4  -6  200.68   13.20
  -3  -4   6  243.38   13.10
  -3  -4   6  251.77   11.50
  -3   4   6  249.97   11.00
   3   4  -6  243.58   10.90
   3   4  -6  217.48   13.20
  -3   4   6  249.38   14.10
  -2  -4   6 3747.12   75.69
   2  -4  -6 3730.63   76.69
   2   4  -6 3673.03   76.99
  -2   4   6 3678.03   72.49
   2   4  -6 3734.73   72.79
   1  -4  -6   14.60    4.60
   1  -4  -6   11.00    4.50
  -1  -4   6   13.40    4.10
  -1   4   6   13.50    4.10
   1   4  -6   18.00    4.70
   0  -4   6 2116.99   47.40
   0  -4  -6 2071.29   47.30
   0  -4   6 2100.99   49.00
   0  -4  -6 2122.09   49.70
   0   4  -6 2104.59   48.50
   0   4   6 2099.49   46.70
   1  -4   6    2.60    3.10
  -1  -4  -6   -5.40    2.40
  -1  -4  -6    3.80    4.10
   1  -4   6    1.80    3.40
   1   4   6   -0.90    2.70
  -1   4  -6    1.60    3.70
   2  -4   6 4711.83   89.59
  -2  -4  -6 4722.53   88.79
  -2  -4  -6 4425.96   93.69
   2  -4   6 4634.04   93.79
   2   4   6 4576.44   90.99
  -2   4  -6 4717.03   93.59
  -3  -4  -6  145.09    9.30
   3  -4   6  139.39    9.50
  -3  -4  -6  143.19   11.70
   3  -4   6  151.18   11.80
   3   4   6  129.79   11.80
  -3   4  -6  147.49   13.50
   4  -4   6 3929.21   75.89
   4  -4   6 3762.82   82.69
  -4  -4  -6 3781.42   84.19
   4   4   6 3738.53   79.59
  -4   4  -6 3865.41   82.69
  -5  -4  -6   79.49   11.90
   5  -4   6   83.29   11.40
   5   4   6   40.20    7.40
  -5   4  -6   66.19   10.40
  -6  -4  -6  932.91   34.80
   6  -4   6  945.71   34.10
   6   4   6  957.10   31.70
  -6   4  -6  942.21   33.80
  -7  -4  -6   25.00    9.00
   7  -4   6   40.70    9.90
   7   4   6   18.10    6.60
  -7   4  -6   40.00    9.60
  -8  -4  -6  662.93   31.20
   8  -4   6  672.23   31.00
   8   4   6  666.53   27.80
  -8   4  -6  645.64   30.10
   8  -5  -6    3.80    7.00
  -8  -5   6   -3.20    7.20
  -8  -5   6    3.30    5.80
   8   5  -6   10.50    7.70
  -8   5   6   -1.40    5.80
  -7  -5   6  620.04   29.10
   7  -5  -6  683.13   29.40
  -7  -5   6  695.83   27.30
  -7   5   6  652.03   28.50
   7   5  -6  729.83   30.20
  -6  -5   6   -1.10    5.20
   6  -5  -6    0.70    5.50
  -6   5   6   -2.10    5.20
   6   5  -6    7.10    6.20
   5  -5  -6 1669.83   47.00
  -5  -5   6 1682.43   45.10
  -5   5   6 1656.83   46.30
   5   5  -6 1634.34   46.30
  -4  -5   6   26.60    7.10
   4  -5  -6   29.50    7.00
   4   5  -6   27.10    6.80
  -4   5   6   44.50    8.50
   3  -5  -6 2260.67   55.69
  -3  -5   6 2289.97   54.59
  -3   5   6 2376.56   56.49
   3   5  -6 2269.07   55.79
   2  -5  -6    4.70    4.30
  -2  -5   6    0.10    4.10
   2   5  -6    2.50    3.30
   2   5  -6    9.10    5.20
  -2   5   6   -1.20    3.20
  -1  -5   6 1933.01   47.70
   1  -5  -6 2018.90   48.60
   1  -5  -6 2067.69   50.49
   1   5  -6 1989.40   46.90
   1   5  -6 2015.50   50.09
  -1   5   6 1991.70   45.80
   0  -5   6    3.50    4.50
   0  -5  -6   -2.90    4.00
   0  -5  -6    0.80    3.50
   0  -5   6    1.40    3.60
   0   5  -6    1.00    3.70
   0   5   6    1.40    3.50
  -1  -5  -6 1958.90   50.59
   1  -5   6 2000.50   50.29
   1  -5   6 2045.30   47.40
  -1  -5  -6 2012.80   46.60
  -1   5  -6 2063.39   49.80
   1   5   6 2005.90   47.80
  -2  -5  -6   46.70    9.00
   2  -5   6   34.90    7.60
  -2  -5  -6   30.50    5.80
   2  -5   6   32.90    6.40
  -2   5  -6   32.80    6.80
   2   5   6   38.50    7.40
   3  -5   6 1664.23   46.70
  -3  -5  -6 1735.83   47.90
   3  -5   6 1750.22   41.90
   3   5   6 1754.52   45.10
  -3   5  -6 1783.12   47.30
  -4  -5  -6   -6.10    4.30
   4  -5   6    1.70    5.00
  -4   5  -6    4.70    5.40
   4   5   6    5.60    4.40
  -5  -5  -6 1016.60   37.00
   5  -5   6  985.70   35.50
   5   5   6  976.60   33.10
  -5   5  -6 1008.00   35.50
   6  -5   6    2.70    6.30
  -6  -5  -6   18.50    8.70
   6   5   6    1.60    4.60
  -6   5  -6    5.10    6.80
  -7  -5  -6 1135.89   42.70
   7  -5   6 1081.09   40.90
   7   5   6 1060.89   37.10
  -7   5  -6 1132.69   40.90
  -6  -6   6 1070.49   37.40
   6  -6  -6 1156.08   40.10
   6   6  -6 1151.88   39.60
  -6   6   6 1109.19   38.70
  -5  -6   6   95.49   12.80
   5  -6  -6   78.39   12.20
  -5   6   6  113.29   13.60
   5   6  -6   90.09   12.50
   4  -6  -6 1265.17   40.10
  -4  -6   6 1295.87   39.30
  -4   6   6 1264.87   39.40
   4   6  -6 1200.68   39.40
  -3  -6   6  217.58   15.10
   3  -6  -6  225.18   15.90
  -3   6   6  222.78   15.90
   3   6  -6  225.68   15.70
   2  -6  -6 1365.66   39.60
  -2  -6   6 1330.37   39.10
   2   6  -6 1364.06   40.40
  -2   6   6 1328.27   35.20
   1  -6  -6  112.19   12.00
   1  -6  -6  100.59   12.10
  -1  -6   6   73.99    9.60
   1   6  -6   90.49   10.30
  -1   6   6   89.69    9.70
   1   6  -6   90.39   11.10
   0  -6   6 1064.59   32.60
   0  -6   6 1112.79   35.40
   0  -6  -6 1100.79   32.80
   0  -6  -6 1080.19   34.90
   0   6   6 1044.00   31.60
   0   6  -6 1094.09   33.30
  -1  -6  -6   41.70    7.30
  -1  -6  -6   64.79   10.60
   1  -6   6   50.29    8.40
   1  -6   6   58.59    9.70
   1   6   6   57.89    8.70
  -1   6  -6   35.20    7.60
   2  -6   6 1171.48   38.10
  -2  -6  -6 1141.99   37.90
   2  -6   6 1247.28   34.30
   2   6   6 1152.98   35.20
  -2   6  -6 1167.28   37.10
  -3  -6  -6  161.48   16.50
   3  -6   6  139.89   11.10
   3  -6   6  108.29   13.60
   3   6   6  141.19   14.00
  -3   6  -6  154.28   15.30
  -4  -6  -6  743.93   31.50
   4  -6   6  777.42   31.20
  -4   6  -6  672.33   28.90
   4   6   6  733.13   28.40
  -5  -6  -6    6.40    7.20
   5  -6   6   -7.90    5.40
  -5   6  -6    7.20    7.00
   5   6   6   11.00    6.50
   6  -6   6 1161.08   42.50
  -6  -6  -6 1075.89   42.30
  -6   6  -6 1118.49   41.20
   6   6   6 1077.09   38.30
  -5  -7   6 1025.40   36.90
   5  -7  -6  969.50   37.70
   5   7  -6  982.20   37.50
  -5   7   6 1005.60   37.40
  -4  -7   6   16.00    7.60
   4  -7  -6   11.90    7.50
   4   7  -6   12.40    7.00
  -4   7   6    9.20    7.10
   3  -7  -6  851.91   32.70
  -3  -7   6  838.62   31.60
  -3   7   6  840.62   32.40
   3   7  -6  814.72   32.60
  -2  -7   6    8.50    6.50
   2  -7  -6   -5.00    4.90
  -2   7   6   11.50    6.40
   2   7  -6    2.50    5.00
  -1  -7   6  693.33   27.20
   1  -7  -6  688.83   27.20
   1  -7  -6  705.63   28.70
   1   7  -6  660.13   28.30
  -1   7   6  699.73   25.30
   0  -7  -6    1.80    6.50
   0  -7   6   -0.80    4.90
   0  -7  -6    1.40    4.80
   0   7  -6    1.00    5.00
   0   7   6   -4.60    3.90
   1  -7   6  791.02   28.60
   1  -7   6  768.22   31.00
  -1  -7  -6  778.02   31.60
  -1   7  -6  801.12   30.30
   1   7   6  812.42   29.10
   2  -7   6    0.80    5.50
  -2  -7  -6   10.50    7.70
   2  -7   6   10.50    6.00
  -2   7  -6    5.90    6.70
   2   7   6   17.50    6.90
  -3  -7  -6  621.24   29.40
   3  -7   6  607.54   29.00
  -3   7  -6  625.04   28.50
   3   7   6  607.34   26.50
  -4  -7  -6    2.20    7.50
   4  -7   6   -1.90    6.10
   4   7   6    7.40    6.40
  -4   7  -6    5.70    7.00
  -1  -8   6   93.99   13.30
   1  -8  -6   92.29   14.00
   1  -8  -6  106.19   13.30
   1   8  -6   94.29   13.90
   0  -8  -6  917.11   36.20
   0  -8   6 1008.50   35.10
   0   8   6  987.60   33.80
   0   8  -6  982.30   37.70
   1  -8   6   57.49   11.30
  -1  -8  -6   46.60   10.70
   1  -8   6   69.09   11.10
   1   8   6   72.49   11.30
  -9   0   7 1630.94   50.29
   9   0  -7 1639.64   49.70
   8   0  -7    1.30    5.50
  -8   0   7   -6.30    4.70
  -7   0   7 1949.20   51.29
   7   0  -7 1952.90   46.10
   7   0  -7 1972.60   50.59
   6   0  -7    5.50    4.30
  -6   0   7    4.60    2.70
   6   0  -7    0.90    3.10
  -6   0   7   -5.80    3.30
  -5   0   7  269.87   13.90
  -5   0   7  266.67   11.10
   5   0  -7  268.87   13.50
   5   0  -7  266.17   12.80
   4   0  -7   -2.70    2.50
   4   0  -7    2.80    2.70
  -4   0   7    1.00    2.40
  -4   0   7   -2.80    2.60
   3   0  -7  763.82   20.40
   3   0  -7  759.92   22.10
  -3   0   7  738.73   20.50
  -3   0   7  759.82   21.40
  -2   0   7   -3.60    2.20
   2   0  -7   -3.70    2.60
  -2   0   7    2.70    2.80
   2   0  -7   -4.40    1.70
   1   0  -7 2180.08   41.90
   1   0  -7 2215.18   46.90
  -1   0   7 2145.79   43.50
  -1   0   7 2114.29   45.40
   0   0  -7    1.30    2.10
   0   0  -7    0.60    2.80
   0   0   7    0.90    2.50
   0   0  -7    4.10    1.90
   1   0   7 2529.25   47.70
  -1   0  -7 2562.44   49.40
   1   0   7 2472.15   52.59
  -1   0  -7 2481.65   53.79
  -2   0  -7   -4.10    2.80
  -2   0  -7   -1.50    2.20
   2   0   7   -1.70    2.60
   2   0   7   -2.00    1.60
   3   0   7 2993.00   57.89
   3   0   7 2872.01   60.89
  -3   0  -7 2931.41   62.29
  -3   0  -7 2870.81   58.39
   4   0   7   -2.30    2.90
   4   0   7    1.70    2.80
  -4   0  -7   -0.10    2.80
  -4   0  -7    0.20    3.20
   5   0   7 3187.68   66.09
  -5   0  -7 3096.79   65.99
  -5   0  -7 3048.79   67.39
   5   0   7 3200.78   66.39
   6   0   7   -3.10    3.60
  -6   0  -7    7.20    4.30
  -6   0  -7   -1.20    3.80
   6   0   7   -0.60    3.50
   7   0   7 1320.17   36.10
   7   0   7 1335.27   38.10
  -7   0  -7 1313.37   37.80
  -7   0  -7 1272.47   37.70
   8   0   7    3.90    5.40
  -8   0  -7   -6.60    4.40
  -8   0  -7    5.80    5.50
  -9   0  -7 1895.51   53.69
   9   0   7 1964.70   54.39
   9  -1  -7  223.08   20.40
  -9  -1   7  147.79   16.50
  -9   1   7  165.98   17.30
   9   1  -7  176.08   17.50
  -8  -1   7 1634.64   48.90
   8  -1  -7 1689.23   44.00
   8  -1  -7 1694.23   48.50
   8   1  -7 1777.92   48.90
  -8   1   7 1688.83   48.90
  -7  -1   7  163.58   13.40
   7  -1  -7  149.88   11.50
   7  -1  -7  126.79   13.20
  -7  -1   7  147.69    9.70
  -7   1   7  167.38   13.50
   7   1  -7  161.58   13.00
  -6  -1   7 1826.92   40.90
   6  -1  -7 1799.32   44.10
  -6  -1   7 1851.81   46.60
   6  -1  -7 1822.02   45.50
   6   1  -7 1788.72   40.80
  -6   1   7 1800.32   46.50
   6   1  -7 1726.23   45.10
   5  -1  -7   55.29    7.10
   5  -1  -7   63.29    8.00
  -5  -1   7   59.09    7.90
  -5  -1   7   55.09    6.40
  -5   1   7   68.79    6.20
   5   1  -7   57.79    6.90
  -5   1   7   58.19    8.30
   5   1  -7   71.49    8.30
  -4  -1   7 1267.67   32.50
   4  -1  -7 1280.87   31.70
  -4  -1   7 1302.27   31.40
   4  -1  -7 1317.27   33.60
   4   1  -7 1312.37   32.80
  -4   1   7 1299.77   29.40
   4   1  -7 1329.87   31.70
  -4   1   7 1256.67   33.20
   3  -1  -7   39.70    6.20
  -3  -1   7   42.40    5.60
   3  -1  -7   33.90    4.60
  -3  -1   7   45.80    6.00
   3   1  -7   39.20    5.20
  -3   1   7   34.10    5.60
   3   1  -7   28.00    4.80
  -3   1   7   28.40    4.20
  -2  -1   7 1585.24   34.00
   2  -1  -7 1589.04   32.50
   2  -1  -7 1573.04   37.40
  -2  -1   7 1609.44   36.30
   2   1  -7 1603.14   35.20
   2   1  -7 1627.04   36.90
  -2   1   7 1591.54   35.30
  -2   1   7 1591.44   36.30
  -1  -1   7  176.38    7.10
   1  -1  -7  167.38    9.70
   1  -1  -7  165.38    5.90
  -1  -1   7  170.48    9.20
   1   1  -7  170.88    8.20
   1   1  -7  158.58    9.60
  -1   1   7  158.68    8.90
   0  -1   7 2946.31   58.89
   0  -1  -7 2845.22   59.29
   0  -1  -7 2849.01   57.49
   0  -1  -7 2962.30   50.69
   0  -1   7 2831.42   55.99
   0  -1   7 2977.30   53.19
   0   1  -7 2895.91   60.09
   0   1   7 2883.01   59.09
   1  -1   7  705.83   19.10
  -1  -1  -7  728.43   22.20
   1  -1   7  704.33   21.30
  -1  -1  -7  729.73   20.30
  -1   1  -7  719.53   22.70
   1   1   7  721.73   14.80
  -1   1  -7  741.83   16.30
   1   1   7  717.93   21.80
   2  -1   7 3029.70   62.39
  -2  -1  -7 3068.09   61.69
   2  -1   7 3030.80   60.39
  -2  -1  -7 3004.50   63.09
   2   1   7 3105.19   56.19
  -2   1  -7 3060.39   64.79
  -2   1  -7 3073.09   56.89
   2   1   7 3105.79   63.39
   3  -1   7  364.76   14.10
  -3  -1  -7  357.06   14.70
  -3  -1  -7  378.46   16.00
   3  -1   7  349.67   14.90
  -3   1  -7  406.56   16.90
   3   1   7  381.36   15.80
  -3   1  -7  381.56   12.40
   3   1   7  400.86   12.50
  -4  -1  -7 2452.95   54.09
   4  -1   7 2394.76   52.99
   4  -1   7 2356.76   52.79
  -4  -1  -7 2332.87   53.59
  -4   1  -7 2459.25   55.59
   4   1   7 2478.25   54.09
  -4   1  -7 2471.45   50.39
   4   1   7 2502.45   50.49
   5  -1   7   11.20    4.50
  -5  -1  -7   13.40    4.90
   5  -1   7    6.50    4.10
  -5  -1  -7   11.40    4.60
   5   1   7    8.60    4.30
   5   1   7   15.30    4.50
  -5   1  -7    9.20    4.90
  -5   1  -7    7.40    3.60
  -6  -1  -7 1546.15   42.40
   6  -1   7 1566.64   42.10
  -6  -1  -7 1660.63   41.30
   6  -1   7 1571.04   39.50
  -6   1  -7 1600.94   43.00
   6   1   7 1573.84   40.80
  -6   1  -7 1631.44   40.10
   6   1   7 1586.14   40.20
   7  -1   7    3.60    5.10
  -7  -1  -7   11.20    6.10
   7   1   7    5.20    4.80
  -7   1  -7   -6.90    4.00
  -7   1  -7    8.20    5.30
   7   1   7    9.60    5.20
   8  -1   7 1421.56   43.00
  -8  -1  -7 1317.07   42.40
   8   1   7 1381.96   41.10
  -8   1  -7 1442.86   42.30
   8   1   7 1402.86   39.60
  -8   1  -7 1449.65   41.20
   9  -1   7   87.99   12.70
  -9  -1  -7   95.49   13.20
  -9   1  -7   70.49   11.20
   9   1   7   78.99   11.50
  -9   1  -7   85.49   13.00
  -9  -2   7  487.45   26.40
   9  -2  -7  562.84   28.00
   9  -2  -7  451.85   22.20
  -9   2   7  506.25   26.40
   9   2  -7  506.65   25.80
   8  -2  -7   10.10    6.50
   8  -2  -7    8.10    5.30
  -8  -2   7    9.70    6.70
   8   2  -7   13.70    6.90
  -8   2   7    3.30    6.00
  -7  -2   7 2159.58   55.79
  -7  -2   7 2205.98   49.30
   7  -2  -7 2144.19   55.19
   7  -2  -7 2102.19   52.59
  -7   2   7 2062.79   54.89
   7   2  -7 2134.99   54.59
  -6  -2   7    4.00    3.80
   6  -2  -7    1.10    4.10
   6  -2  -7   -1.40    3.90
  -6  -2   7    3.20    4.30
   6   2  -7    6.10    4.80
  -6   2   7    0.10    4.00
  -5  -2   7 3644.34   72.29
   5  -2  -7 3481.45   74.19
   5  -2  -7 3584.14   75.19
  -5  -2   7 3658.43   75.59
   5   2  -7 3555.34   75.39
  -5   2   7 3452.25   75.59
   5   2  -7 3656.43   69.49
   4  -2  -7    8.20    3.50
   4  -2  -7   36.10    6.50
  -4  -2   7   18.10    4.70
  -4  -2   7   21.70    5.10
   4   2  -7   28.80    5.60
   4   2  -7   19.90    4.20
  -4   2   7   17.00    4.90
  -4   2   7   18.60    3.60
   3  -2  -7 4712.23   92.49
  -3  -2   7 4739.83   89.59
   3  -2  -7 4525.85   87.69
  -3  -2   7 4890.01   91.09
  -3   2   7 4826.32   87.49
   3   2  -7 4827.82   89.09
   3   2  -7 4833.22   91.79
  -3   2   7 4601.54   92.29
  -2  -2   7  184.18   10.30
  -2  -2   7  180.88    8.20
   2  -2  -7  195.78   11.10
   2  -2  -7  197.88    7.40
   2   2  -7  194.18   10.20
  -2   2   7  181.58    9.50
   2   2  -7  210.08   10.40
  -2   2   7  190.88   10.60
  -1  -2   7 4302.07   76.79
   1  -2  -7 4311.07   83.89
   1  -2  -7 4257.97   83.59
  -1  -2   7 4224.78   82.79
  -1   2   7 4280.07   82.29
   1   2  -7 4371.06   83.39
   1   2  -7 4380.26   82.59
   0  -2  -7  176.78   10.00
   0  -2   7  172.58    9.80
   0  -2   7  173.28    9.30
   0  -2  -7  181.18   10.40
   0   2   7  168.38   10.00
   0   2  -7  164.68   10.50
  -1  -2  -7 2358.26   50.59
   1  -2   7 2372.36   49.60
  -1  -2  -7 2325.37   50.19
   1  -2   7 2288.67   49.70
   1   2   7 2272.27   50.49
  -2  -2  -7  179.58   10.80
   2  -2   7  198.78   10.70
   2  -2   7  202.18   10.90
  -2  -2  -7  203.18   11.00
   2   2   7  208.48    6.10
  -2   2  -7  184.28   11.60
   2   2   7  197.48   11.10
  -3  -2  -7 2850.81   61.79
   3  -2   7 2905.81   60.69
   3  -2   7 2691.23   58.99
  -3  -2  -7 2827.82   59.99
   3   2   7 2950.10   53.99
  -3   2  -7 2825.52   62.69
  -3   2  -7 2871.91   53.09
   3   2   7 2839.92   61.09
  -4  -2  -7   46.50    6.80
  -4  -2  -7   51.69    7.70
   4  -2   7   39.60    6.10
   4  -2   7   51.59    7.60
  -4   2  -7   54.09    6.00
  -4   2  -7   49.20    7.90
   4   2   7   46.60    7.50
   4   2   7   56.49    6.10
   5  -2   7  332.97   16.50
  -5  -2  -7  266.97   14.10
  -5  -2  -7  307.97   16.40
   5  -2   7  296.87   14.40
  -5   2  -7  293.27   16.60
   5   2   7  322.67   13.60
   5   2   7  317.87   15.90
  -6  -2  -7   61.69   10.00
   6  -2   7   39.60    7.70
   6  -2   7   28.20    5.90
   6   2   7   36.50    7.10
  -6   2  -7   36.30    8.20
   6   2   7   37.10    6.90
  -7  -2  -7 1144.59   37.50
   7  -2   7 1175.18   37.70
  -7   2  -7 1151.98   37.30
   7   2   7 1096.59   34.60
   7   2   7 1188.88   34.40
  -8  -2  -7   11.50    6.90
   8  -2   7    4.60    6.10
  -8   2  -7    4.60    5.90
   8   2   7    4.30    5.00
   8   2   7    4.90    5.60
  -9  -2  -7  674.83   30.90
   9  -2   7  679.23   30.50
  -9   2  -7  674.33   29.90
  -9  -3   7   18.00    9.30
   9  -3  -7   12.20    6.70
   9  -3  -7   12.60    8.10
  -9   3   7   27.00    9.70
   9   3  -7    5.70    7.30
  -8  -3   7  682.63   25.10
   8  -3  -7  689.73   29.90
   8  -3  -7  746.23   29.20
  -8  -3   7  736.63   31.60
  -8   3   7  745.13   30.70
   8   3  -7  709.33   29.80
  -7  -3   7   42.40    9.30
   7  -3  -7   43.10    8.20
   7  -3  -7   51.69    9.30
  -7  -3   7   49.00    7.90
  -7   3   7   42.50    9.00
   7   3  -7   39.60    8.80
  -6  -3   7 1371.06   36.40
   6  -3  -7 1328.87   38.90
  -6  -3   7 1340.27   39.40
   6  -3  -7 1278.67   37.70
   6   3  -7 1307.67   38.70
  -6   3   7 1322.37   39.30
  -5  -3   7  168.28   12.30
   5  -3  -7  172.28   12.50
   5  -3  -7  161.58   11.30
  -5  -3   7  143.09   10.90
   5   3  -7  159.48   12.10
  -5   3   7  191.38   12.70
  -4  -3   7 2911.01   63.49
   4  -3  -7 3034.80   61.79
   4  -3  -7 3026.40   66.39
  -4  -3   7 3039.80   64.19
  -4   3   7 2959.20   66.29
  -4   3   7 3029.10   59.99
   4   3  -7 3110.69   59.79
   4   3  -7 3000.00   65.49
  -3  -3   7   40.10    5.80
  -3  -3   7   46.60    6.90
   3  -3  -7   56.79    8.10
  -3   3   7   50.59    6.00
  -3   3   7   44.60    7.20
   3   3  -7   45.80    7.00
   3   3  -7   45.30    5.80
  -2  -3   7 2936.31   62.89
   2  -3  -7 2985.00   64.19
  -2   3   7 3087.49   64.59
   2   3  -7 3014.90   61.49
   2   3  -7 3005.10   63.49
  -2   3   7 3023.90   60.69
  -1  -3   7   11.40    4.10
   1  -3  -7   19.60    5.40
   1  -3  -7   12.30    4.30
   1   3  -7   13.50    4.30
  -1   3   7   17.00    4.40
   1   3  -7   10.00    4.20
   0  -3  -7 2792.12   59.29
   0  -3   7 2845.62   59.19
   0  -3  -7 2823.22   60.79
   0  -3   7 2772.02   59.29
   0   3  -7 2864.21   60.69
   0   3   7 2729.23   58.79
  -1  -3  -7  137.49    9.80
   1  -3   7  131.89    9.60
   1  -3   7  151.68   10.00
  -1  -3  -7  138.89    9.60
  -1   3  -7  142.39   10.30
   1   3   7  148.39   10.00
  -2  -3  -7 1838.02   42.40
  -2  -3  -7 1811.32   44.60
   2  -3   7 1824.52   43.90
   2  -3   7 1873.31   42.70
  -2   3  -7 1811.32   45.50
   2   3   7 1813.32   43.50
  -3  -3  -7    1.90    3.40
  -3  -3  -7    0.30    4.30
   3  -3   7    2.80    3.20
   3  -3   7    3.50    4.10
   3   3   7    1.40    3.40
  -3   3  -7    4.80    4.10
   4  -3   7 1849.61   43.80
   4  -3   7 1949.90   47.70
  -4  -3  -7 1834.92   48.20
  -4  -3  -7 1930.11   43.70
  -4   3  -7 1855.71   48.30
   4   3   7 1835.02   46.10
  -5  -3  -7    7.00    5.70
   5  -3   7   10.60    5.40
   5  -3   7    5.20    3.90
  -5   3  -7    2.50    4.70
   5   3   7    5.90    4.70
   6  -3   7 1236.38   38.60
  -6  -3  -7 1222.78   39.20
   6   3   7 1174.78   35.90
  -6   3  -7 1224.98   38.70
  -7  -3  -7   39.30    9.10
   7  -3   7   29.80    9.00
  -7   3  -7   31.20    8.40
   7   3   7   45.50    8.60
  -8  -3  -7  655.13   30.00
   8  -3   7  631.24   29.00
  -8   3  -7  607.74   28.60
   8   3   7  617.04   26.40
  -8  -4   7   26.30    9.60
   8  -4  -7   30.80    9.00
  -8  -4   7    9.70    6.10
   8   4  -7   30.80    9.90
  -8   4   7   28.90    9.20
   7  -4  -7  418.26   22.20
  -7  -4   7  471.25   21.20
  -7  -4   7  454.95   23.50
   7   4  -7  439.96   22.70
  -7   4   7  421.16   22.50
  -6  -4   7   -5.90    4.80
   6  -4  -7   -1.60    4.40
  -6  -4   7   -2.30    4.40
   6   4  -7    0.80    5.20
  -6   4   7    0.30    4.80
  -5  -4   7 1047.10   33.00
  -5  -4   7 1103.49   32.90
   5  -4  -7 1060.69   34.30
  -5   4   7 1057.09   34.20
   5   4  -7 1032.40   33.20
   4  -4  -7  245.58   15.40
  -4  -4   7  229.88   14.00
  -4   4   7  239.08   14.90
   4   4  -7  245.88   14.90
  -3  -4   7 1126.49   32.30
   3  -4  -7 1056.79   33.10
  -3   4   7 1148.29   28.60
   3   4  -7 1077.59   32.60
  -3   4   7 1109.79   33.30
   3   4  -7 1136.99   28.80
   2  -4  -7   -2.30    3.10
  -2  -4   7    5.40    4.10
   2   4  -7    3.80    4.10
   2   4  -7    0.00    3.10
  -2   4   7   -2.90    2.80
  -1  -4   7  592.14   21.50
   1  -4  -7  648.94   23.40
   1  -4  -7  657.73   22.80
  -1   4   7  632.24   21.20
   1   4  -7  644.54   22.80
   1   4  -7  640.74   21.90
   0  -4  -7  269.37   14.80
   0  -4  -7  281.07   14.20
   0  -4   7  249.58   13.40
   0   4   7  261.47   13.40
   0   4  -7  275.67   14.40
  -1  -4  -7 1690.43   40.70
   1  -4   7 1658.33   42.60
  -1  -4  -7 1648.34   43.10
   1  -4   7 1643.94   40.50
   1   4   7 1621.34   40.90
  -1   4  -7 1682.43   43.20
   2  -4   7   18.40    5.70
  -2  -4  -7   15.50    4.90
   2  -4   7   11.10    4.40
  -2  -4  -7   21.60    6.40
   2   4   7   14.20    5.00
  -2   4  -7   14.60    5.50
   3  -4   7 1212.58   36.30
   3  -4   7 1263.07   33.40
  -3  -4  -7 1232.38   37.20
  -3  -4  -7 1280.87   32.70
   3   4   7 1271.07   35.50
  -3   4  -7 1218.58   36.70
   4  -4   7  334.07   18.30
  -4  -4  -7  390.56   20.30
   4  -4   7  374.76   16.10
  -4   4  -7  365.96   19.50
   4   4   7  369.96   18.20
  -5  -4  -7 3343.47   79.09
   5  -4   7 3311.47   77.59
   5   4   7 3436.46   75.39
  -5   4  -7 3390.56   77.79
  -6  -4  -7   -2.00    6.10
   6  -4   7    1.10    5.60
  -6   4  -7   12.90    7.10
   6   4   7    0.40    4.50
  -7  -4  -7 1630.14   51.69
   7  -4   7 1646.24   50.39
  -7   4  -7 1684.43   50.79
   7   4   7 1675.03   47.90
  -8  -4  -7    0.50    7.40
   8  -4   7   -0.70    6.90
  -8   4  -7    4.90    7.20
   8   4   7    6.40    6.60
  -7  -5   7   58.89   10.40
   7  -5  -7   52.59   11.40
   7   5  -7   47.20   10.70
  -7   5   7   56.19   11.40
  -6  -5   7 1301.17   39.70
   6  -5  -7 1254.07   41.80
   6   5  -7 1327.27   41.80
  -6   5   7 1213.28   40.40
  -5  -5   7  110.39   12.00
   5  -5  -7  134.59   14.50
  -5   5   7  106.49   12.60
   5   5  -7  135.89   14.40
   4  -5  -7 1333.27   40.60
  -4  -5   7 1393.36   39.70
  -4   5   7 1327.97   40.00
   4   5  -7 1410.86   40.90
   3  -5  -7   38.20    7.80
  -3  -5   7   32.80    7.20
  -3   5   7   54.09    9.50
   3   5  -7   37.60    8.10
  -2  -5   7 1500.05   40.70
   2  -5  -7 1436.96   41.10
   2   5  -7 1502.65   42.00
  -2   5   7 1534.85   38.10
   2   5  -7 1561.44   38.40
  -1  -5   7    6.50    4.80
   1  -5  -7   13.10    5.40
   1  -5  -7   10.90    5.70
   1   5  -7    4.00    5.10
   1   5  -7    2.70    4.10
  -1   5   7    0.80    3.70
   0  -5   7  848.12   28.80
   0  -5  -7  846.62   27.30
   0  -5  -7  805.52   28.70
   0  -5   7  841.32   27.30
   0   5   7  844.62   26.80
   0   5  -7  827.32   27.80
  -1  -5  -7    2.90    3.60
   1  -5   7    6.90    5.40
  -1  -5  -7   -5.80    3.90
   1  -5   7    8.30    4.10
   1   5   7   -1.60    3.70
  -1   5  -7    0.20    4.10
  -2  -5  -7 1268.07   33.60
   2  -5   7 1253.77   38.00
   2  -5   7 1260.27   34.50
  -2  -5  -7 1189.78   37.70
  -2   5  -7 1214.58   37.30
   2   5   7 1247.48   35.80
   3  -5   7   21.30    6.60
   3  -5   7   12.50    5.00
  -3  -5  -7   22.00    7.40
  -3   5  -7   31.50    8.20
   3   5   7   21.90    6.40
  -4  -5  -7  982.70   35.70
   4  -5   7 1012.00   29.90
   4  -5   7  933.81   34.00
  -4   5  -7  974.80   34.60
   4   5   7 1011.10   33.00
   5  -5   7   -1.70    5.50
  -5  -5  -7    1.10    6.60
  -5   5  -7   -0.80    5.90
   5   5   7    4.70    5.20
  -6  -5  -7 1584.44   51.09
   6  -5   7 1600.84   50.29
   6   5   7 1620.44   47.40
  -6   5  -7 1678.63   50.59
  -7  -5  -7    1.30    7.70
   7  -5   7    7.50    7.70
   7   5   7   -2.90    5.80
  -7   5  -7    2.70    6.80
  -6  -6   7  103.59   14.20
   6  -6  -7   92.69   14.40
   6   6  -7   80.99   12.60
  -6   6   7   68.09   11.70
   5  -6  -7 1376.66   44.80
  -5  -6   7 1378.96   43.00
  -5   6   7 1437.46   45.00
   5   6  -7 1427.86   44.90
   4  -6  -7  170.38   16.60
  -4  -6   7  187.68   15.00
   4   6  -7  153.28   15.90
  -4   6   7  191.58   15.40
  -3  -6   7 1085.49   35.90
   3  -6  -7 1110.79   36.80
  -3   6   7 1088.29   36.70
   3   6  -7 1126.19   37.30
   2  -6  -7   30.00    7.80
  -2  -6   7   12.30    6.30
  -2   6   7   11.40    6.00
  -2   6   7   27.20    7.20
   2   6  -7   14.00    6.20
   1  -6  -7 2116.49   54.79
   1  -6  -7 2062.99   52.69
  -1  -6   7 2055.09   52.29
   1   6  -7 2047.20   50.79
  -1   6   7 2086.89   50.39
   1   6  -7 2077.99   54.59
   0  -6   7  299.47   18.10
   0  -6  -7  329.37   19.10
   0  -6  -7  331.37   17.30
   0  -6   7  293.57   16.70
   0   6   7  296.97   16.20
   0   6  -7  311.77   17.40
  -1  -6  -7 1778.02   45.50
  -1  -6  -7 1824.42   50.39
   1  -6   7 1694.53   48.70
   1  -6   7 1849.21   46.70
  -1   6  -7 1761.22   48.40
   1   6   7 1749.12   46.30
  -2  -6  -7   15.40    7.20
   2  -6   7   12.90    6.70
   2  -6   7   13.10    5.40
  -2   6  -7    9.50    6.40
   2   6   7    9.50    5.70
   3  -6   7  957.10   35.20
  -3  -6  -7  983.00   36.30
   3  -6   7  978.00   30.70
  -3   6  -7  930.61   34.60
   3   6   7 1007.00   33.60
   4  -6   7  214.48   17.30
  -4  -6  -7  176.08   17.60
   4   6   7  245.48   16.90
  -4   6  -7  209.08   16.80
   5  -6   7 1157.78   41.90
  -5  -6  -7 1130.69   42.80
   5   6   7 1166.78   39.20
  -5   6  -7 1171.58   41.80
  -6  -6  -7   17.90   10.50
   6  -6   7   23.30    9.30
   6   6   7   15.00    7.90
  -6   6  -7   14.10    9.30
  -4  -7   7  988.60   36.20
   4  -7  -7 1046.10   38.50
  -4   7   7  978.60   36.60
   4   7  -7  967.00   37.10
   3  -7  -7   21.60    8.40
  -3  -7   7   20.10    7.40
  -3   7   7   22.40    8.50
   3   7  -7   31.80    9.10
  -2  -7   7 1733.53   48.80
   2  -7  -7 1674.03   48.80
   2   7  -7 1635.84   49.70
  -2   7   7 1692.93   49.70
   1  -7  -7    7.70    6.00
  -1  -7   7   15.90    7.20
   1  -7  -7    7.40    7.20
   1   7  -7    9.10    6.90
  -1   7   7    7.80    5.70
   0  -7  -7 2004.40   52.39
   0  -7  -7 2000.70   56.29
   0  -7   7 2006.00   53.29
   0   7  -7 1999.20   53.29
   0   7   7 2030.00   52.09
   1  -7   7    2.10    6.20
  -1  -7  -7    1.90    5.80
   1  -7   7    6.20    5.70
  -1   7  -7    0.30    5.50
   1   7   7    9.80    6.00
   2  -7   7 1259.57   38.00
   2  -7   7 1234.18   42.10
  -2  -7  -7 1201.68   42.30
  -2   7  -7 1171.98   40.30
   2   7   7 1244.78   39.40
  -3  -7  -7   74.39   12.90
   3  -7   7   73.89   12.20
  -3   7  -7   68.59   12.20
   3   7   7   82.39   12.40
  -4  -7  -7  876.51   37.50
   4  -7   7  935.01   38.10
   4   7   7  980.20   36.00
  -4   7  -7  919.01   37.30
   9   0  -8    4.30    6.60
  -9   0   8   -8.10    5.40
  -8   0   8 1325.77   42.40
   8   0  -8 1304.47   41.30
  -7   0   8    3.10    5.40
   7   0  -8    1.00    3.70
   7   0  -8   -1.40    4.40
   6   0  -8 1928.61   46.00
  -6   0   8 1956.80   42.70
  -6   0   8 1940.51   49.30
   6   0  -8 1957.90   48.30
  -5   0   8   -0.80    2.40
   5   0  -8    4.10    3.70
   5   0  -8   -0.40    3.30
  -5   0   8    0.00    3.50
  -4   0   8 3797.92   73.89
  -4   0   8 3808.42   77.09
   4   0  -8 3863.71   75.69
   4   0  -8 3762.82   76.29
   3   0  -8    0.80    3.10
  -3   0   8    1.10    2.30
  -3   0   8    1.70    2.80
   3   0  -8   -0.10    2.40
   2   0  -8 3225.28   66.09
  -2   0   8 3216.18   63.69
  -2   0   8 3195.18   64.39
   2   0  -8 3285.57   61.79
   1   0  -8    2.40    2.00
  -1   0   8    1.40    2.90
  -1   0   8    0.10    2.10
   1   0  -8   -2.60    2.40
   0   0  -8 2689.53   50.19
   0   0  -8 2663.83   57.29
   0   0   8 2611.04   55.79
   0   0  -8 2650.43   52.09
   1   0   8   -0.60    3.10
  -1   0  -8    5.10    3.60
  -1   0  -8    0.50    2.10
   1   0   8   -1.90    1.40
  -2   0  -8  673.13   22.90
  -2   0  -8  645.34   18.40
   2   0   8  652.63   17.50
   2   0   8  656.53   21.80
   3   0   8    3.70    3.80
   3   0   8    0.20    2.20
  -3   0  -8   -3.10    3.60
  -3   0  -8    1.80    2.90
  -4   0  -8 1735.03   44.10
  -4   0  -8 1699.43   40.20
   4   0   8 1769.42   42.70
   4   0   8 1703.93   39.50
   5   0   8   -3.40    3.50
  -5   0  -8    5.70    4.80
   5   0   8    5.30    3.80
  -5   0  -8   -0.80    3.70
   6   0   8 1053.09   31.50
  -6   0  -8 1052.69   31.50
   6   0   8 1055.29   31.30
  -6   0  -8 1041.00   32.80
  -7   0  -8   -0.10    4.80
   7   0   8   -3.50    3.90
   7   0   8    7.10    5.10
  -7   0  -8   -3.30    4.50
   8   0   8  310.57   18.70
  -8   0  -8  313.77   18.30
  -8   0  -8  278.27   17.60
   9   0   8   -3.70    5.60
  -9   0  -8   -4.00    5.90
  -9  -1   8 1018.40   38.80
   9  -1  -8 1071.19   39.00
  -9   1   8 1048.20   39.10
   9   1  -8 1059.89   38.60
  -8  -1   8   18.50    7.40
   8  -1  -8   17.20    5.90
   8  -1  -8   33.90    8.50
  -8   1   8   25.00    8.30
   8   1  -8   12.50    6.80
   7  -1  -8 1763.62   45.30
  -7  -1   8 1776.02   48.50
   7  -1  -8 1735.73   47.30
   7   1  -8 1731.13   47.10
  -7   1   8 1718.13   47.90
  -6  -1   8    7.40    5.10
   6  -1  -8   19.20    5.80
  -6  -1   8   14.70    4.30
   6  -1  -8    9.70    5.00
   6   1  -8    3.90    3.80
  -6   1   8    7.90    5.10
   6   1  -8    5.90    4.80
  -5  -1   8 2405.16   51.89
  -5  -1   8 2369.46   54.79
   5  -1  -8 2311.97   54.19
   5  -1  -8 2463.05   54.09
   5   1  -8 2463.75   52.49
  -5   1   8 2403.46   49.10
  -5   1   8 2396.76   55.79
   5   1  -8 2370.66   54.39
  -4  -1   8   51.29    6.80
  -4  -1   8   46.50    6.40
   4  -1  -8   43.50    6.90
   4  -1  -8   54.09    6.50
   4   1  -8   51.19    6.70
  -4   1   8   53.89    7.50
  -4   1   8   51.19    5.90
   4   1  -8   50.79    6.80
   3  -1  -8 3578.74   72.19
   3  -1  -8 3436.26   67.19
  -3  -1   8 3417.06   69.69
  -3  -1   8 3567.24   69.49
   3   1  -8 3557.54   70.29
  -3   1   8 3484.75   71.19
   3   1  -8 3443.16   69.09
  -3   1   8 3514.85   68.19
  -2  -1   8   92.49    6.40
   2  -1  -8  108.69   10.10
   2  -1  -8   88.89    5.50
  -2  -1   8  102.49    8.00
   2   1  -8   78.89    8.20
  -2   1   8   88.59    7.10
  -2   1   8   99.09    7.60
   2   1  -8  100.29    7.10
  -1  -1   8 1263.27   31.60
   1  -1  -8 1253.67   32.70
   1  -1  -8 1266.87   25.20
  -1  -1   8 1237.98   27.30
  -1   1   8 1262.17   30.70
  -1   1   8 1288.67   31.70
   1   1  -8 1263.57   29.30
   1   1  -8 1245.18   32.60
   0  -1  -8  159.78    9.10
   0  -1   8  149.49    6.50
   0  -1   8  145.79    9.60
   0  -1   8  139.99    7.70
   0  -1  -8  152.88    9.90
   0  -1  -8  155.08    4.90
   0   1  -8  148.89   10.60
   0   1   8  153.38    9.80
  -1  -1  -8 1276.07   33.70
  -1  -1  -8 1297.17   31.20
   1  -1   8 1295.27   29.80
   1  -1   8 1214.18   32.30
  -1   1  -8 1277.37   34.20
   1   1   8 1315.17   33.50
  -1   1  -8 1243.58   26.30
   1   1   8 1283.17   24.40
   2  -1   8  462.05   17.90
  -2  -1  -8  505.85   19.20
   2  -1   8  483.15   16.00
  -2  -1  -8  477.25   16.70
   2   1   8  508.55   18.90
   2   1   8  476.95   12.50
  -2   1  -8  485.35   13.50
  -2   1  -8  521.75   19.90
  -3  -1  -8 2312.07   51.89
   3  -1   8 2388.66   50.89
  -3  -1  -8 2313.17   53.89
   3  -1   8 2406.86   53.39
   3   1   8 2414.06   47.20
  -3   1  -8 2418.66   55.69
  -3   1  -8 2410.96   47.70
   3   1   8 2405.76   53.69
   4  -1   8  180.68   10.80
  -4  -1  -8  177.98   11.30
   4  -1   8  174.68   11.40
  -4  -1  -8  169.48   12.00
  -4   1  -8  170.08    9.30
   4   1   8  152.38   11.20
   4   1   8  164.08    9.10
  -4   1  -8  178.28   12.90
   5  -1   8 1421.36   37.80
  -5  -1  -8 1478.75   39.00
  -5  -1  -8 1483.55   39.40
   5  -1   8 1450.25   38.10
   5   1   8 1463.45   39.00
  -5   1  -8 1428.06   40.20
   5   1   8 1428.06   35.60
  -5   1  -8 1428.86   35.30
  -6  -1  -8  118.69   12.00
   6  -1   8  176.48   12.20
  -6  -1  -8  148.99   11.90
   6  -1   8  150.68   12.30
   6   1   8  140.29   12.90
  -6   1  -8  145.59   10.70
  -6   1  -8  152.58   14.20
   6   1   8  134.19   10.40
  -7  -1  -8 1807.02   49.70
  -7  -1  -8 1734.33   47.50
   7  -1   8 1784.02   47.50
   7  -1   8 1707.43   47.00
  -7   1  -8 1718.33   47.50
   7   1   8 1638.34   44.50
   7   1   8 1733.13   45.60
   8  -1   8   11.00    6.50
  -8  -1  -8   17.70    7.70
   8   1   8   12.30    6.10
   8   1   8   12.00    6.10
  -8   1  -8   17.20    7.20
   9  -1   8  802.22   32.90
  -9  -1  -8  786.72   32.80
  -9   1  -8  839.72   36.10
   9   1   8  787.72   31.40
   9  -2  -8   -6.30    4.60
  -9  -2   8    8.90    7.80
   9  -2  -8    0.00    6.40
   9   2  -8   -0.70    5.90
  -9   2   8    9.30    7.40
  -8  -2   8  698.83   30.10
   8  -2  -8  706.13   27.50
   8  -2  -8  702.33   29.20
  -8   2   8  681.23   29.30
   8   2  -8  703.33   29.60
   7  -2  -8    0.90    4.70
  -7  -2   8   -5.20    3.10
  -7  -2   8    5.30    5.50
   7  -2  -8    5.20    5.60
   7   2  -8    2.40    5.40
  -7   2   8    5.60    5.50
  -6  -2   8  896.71   30.10
   6  -2  -8  857.71   29.10
  -6  -2   8  877.41   26.80
   6  -2  -8  867.61   29.10
  -6   2   8  869.91   30.20
   6   2  -8  883.91   29.70
  -5  -2   8   -0.20    3.80
   5  -2  -8   -5.00    3.70
   5  -2  -8    0.10    3.80
  -5  -2   8   -2.00    3.00
  -5   2   8    3.80    4.30
   5   2  -8   -2.40    2.90
   5   2  -8    0.00    3.80
   4  -2  -8 1677.13   41.10
   4  -2  -8 1886.21   46.00
  -4  -2   8 1839.92   43.20
  -4  -2   8 1875.51   43.70
   4   2  -8 1898.71   42.10
   4   2  -8 1778.22   43.80
  -4   2   8 1914.31   39.90
  -4   2   8 1849.42   45.40
  -3  -2   8   62.29    7.70
   3  -2  -8   68.29    8.80
  -3  -2   8   72.49    7.30
   3   2  -8   75.69    7.90
   3   2  -8   56.49    7.10
  -3   2   8   64.49    7.70
  -3   2   8   68.79    6.90
  -2  -2   8 1051.29   24.70
  -2  -2   8 1028.20   28.40
   2  -2  -8 1083.19   30.10
  -2   2   8 1055.79   29.10
  -2   2   8 1034.40   27.30
   2   2  -8 1036.60   28.40
   2   2  -8 1017.10   27.60
   1  -2  -8  256.17   13.40
  -1  -2   8  282.07   13.20
   1  -2  -8  254.37   12.50
  -1  -2   8  264.77    9.00
   1   2  -8  299.67   12.50
  -1   2   8  261.77   12.80
   1   2  -8  279.57   13.50
   0  -2  -8 2581.84   54.79
   0  -2   8 2582.54   53.39
   0  -2   8 2552.44   54.99
   0  -2  -8 2521.75   55.29
   0   2  -8 2451.15   55.69
   0   2   8 2492.85   54.59
   1  -2   8  126.39    8.90
   1  -2   8  163.58   10.40
  -1  -2  -8  149.49    9.90
  -1  -2  -8  158.18   10.60
   1   2   8  158.98   10.70
  -1   2  -8  161.48   11.40
  -2  -2  -8 4919.01   95.39
   2  -2   8 4902.41   94.59
  -2  -2  -8 4862.91   94.89
   2  -2   8 4754.32   93.69
  -2   2  -8 4829.72   97.39
   2   2   8 4878.01   95.49
  -3  -2  -8  203.98   12.40
   3  -2   8  189.18   11.70
   3  -2   8  206.08   11.90
  -3  -2  -8  191.08   12.10
   3   2   8  185.08   12.20
  -3   2  -8  209.08   13.30
  -4  -2  -8 2357.76   54.29
  -4  -2  -8 2287.87   55.09
   4  -2   8 2257.87   53.09
   4  -2   8 2496.15   55.09
   4   2   8 2410.86   55.29
  -4   2  -8 2352.46   56.79
  -5  -2  -8   37.70    7.50
   5  -2   8   25.40    6.30
   5  -2   8   24.90    6.40
  -5  -2  -8   46.90    8.40
   5   2   8   41.70    8.10
  -5   2  -8   28.20    7.00
   6  -2   8 2532.05   57.39
   6  -2   8 2481.25   60.59
  -6  -2  -8 2557.74   61.99
  -6   2  -8 2488.55   61.79
   6   2   8 2455.15   59.29
  -7  -2  -8   24.80    8.10
   7  -2   8   24.20    7.60
   7   2   8   40.50    9.00
  -7   2  -8   31.20    8.20
  -8  -2  -8 1463.05   46.80
   8  -2   8 1616.74   47.70
  -8   2  -8 1586.64   47.80
   8   2   8 1530.15   44.40
  -8  -3   8   25.90    9.00
   8  -3  -8   32.30    8.80
  -8  -3   8   26.00    7.00
   8   3  -8   29.80    9.00
  -8   3   8   34.40    9.60
  -7  -3   8  762.92   30.70
  -7  -3   8  787.92   27.30
   7  -3  -8  835.62   30.80
  -7   3   8  863.21   32.00
   7   3  -8  803.32   30.80
  -6  -3   8   69.39    9.30
   6  -3  -8   63.79    9.90
  -6  -3   8   64.59    9.90
   6   3  -8   60.19    9.90
  -6   3   8   66.39   10.20
   5  -3  -8  823.22   28.80
  -5  -3   8  818.22   26.60
  -5  -3   8  758.62   26.50
   5   3  -8  821.82   27.80
  -5   3   8  744.93   27.40
  -4  -3   8    6.10    4.20
   4  -3  -8   10.90    5.50
  -4  -3   8    7.90    4.40
  -4   3   8   15.80    5.50
   4   3  -8   20.70    6.00
   4   3  -8   17.70    4.50
   3  -3  -8  782.92   26.40
  -3  -3   8  766.42   25.10
  -3   3   8  816.32   22.70
   3   3  -8  803.92   25.60
  -3   3   8  757.12   25.70
   3   3  -8  774.42   23.40
   2  -3  -8   19.30    5.90
  -2  -3   8   30.50    6.10
  -2   3   8   28.20    5.40
  -2   3   8   17.10    4.90
   2   3  -8   26.70    5.50
   2   3  -8   29.90    5.90
   1  -3  -8 3005.90   64.99
  -1  -3   8 2983.30   63.69
   1  -3  -8 3024.20   64.99
   1   3  -8 2974.50   63.69
   1   3  -8 3034.40   63.89
  -1   3   8 2958.90   62.89
   0  -3   8  160.28   10.90
   0  -3  -8  171.88   11.50
   0  -3   8  180.98   11.10
   0  -3  -8  153.08   11.00
   0   3   8  183.08   11.30
   0   3  -8  179.58   12.00
  -1  -3  -8 3402.46   72.69
   1  -3   8 3369.76   71.19
  -1  -3  -8 3494.15   71.39
   1  -3   8 3357.96   70.89
  -1   3  -8 3471.75   73.49
   1   3   8 3381.36   71.29
   2  -3   8   91.19    9.80
  -2  -3  -8   80.19    9.40
  -2  -3  -8   89.19    9.50
   2  -3   8  104.19   10.10
  -2   3  -8   83.69   10.10
   2   3   8   86.89    9.70
  -3  -3  -8 1930.51   48.50
  -3  -3  -8 1958.60   45.80
   3  -3   8 1858.51   45.50
   3  -3   8 1878.71   46.90
   3   3   8 1856.91   46.90
  -3   3  -8 1938.51   49.40
  -4  -3  -8    7.30    5.80
  -4  -3  -8   11.40    4.70
   4  -3   8    9.70    4.50
   4  -3   8    4.80    4.80
   4   3   8    9.40    4.80
  -4   3  -8    8.30    5.10
  -5  -3  -8 1912.01   50.79
   5  -3   8 1764.72   44.60
   5  -3   8 1809.02   48.80
  -5   3  -8 1859.91   50.59
   5   3   8 1890.21   48.40
  -6  -3  -8  120.29   14.40
   6  -3   8   85.99   11.40
  -6   3  -8  126.39   14.50
   6   3   8  134.89   14.10
  -7  -3  -8  947.61   35.80
   7  -3   8  884.81   34.00
   7   3   8  948.91   33.50
  -7   3  -8  962.10   35.70
   8  -3   8   36.20   10.00
  -8  -3  -8    7.70    7.30
   8   3   8   18.10    7.70
  -8   3  -8   29.80    9.00
  -8  -4   8 1550.24   44.30
   8  -4  -8 1459.75   47.30
  -8   4   8 1574.94   49.60
   8   4  -8 1559.34   49.10
   7  -4  -8   56.99   10.90
  -7  -4   8   39.90    8.70
   7   4  -8   42.00   10.40
  -7   4   8   35.10    9.80
  -6  -4   8 2017.70   51.89
   6  -4  -8 2052.79   55.19
  -6   4   8 2055.19   55.19
   6   4  -8 2019.20   54.39
  -5  -4   8  114.79   12.30
   5  -4  -8  100.59   12.40
  -5   4   8  105.59   12.10
   5   4  -8   93.49   11.30
   4  -4  -8 1084.99   34.30
  -4  -4   8 1059.99   32.50
   4   4  -8 1030.10   33.00
  -4   4   8 1014.00   33.30
   3  -4  -8  175.48   12.90
  -3  -4   8  178.88   12.30
  -3   4   8  201.58   13.90
   3   4  -8  185.98   13.10
  -3   4   8  200.58   11.30
   3   4  -8  193.38   11.40
  -2  -4   8 2360.06   54.99
   2  -4  -8 2391.36   56.39
   2   4  -8 2403.16   53.29
  -2   4   8 2361.56   56.79
  -2   4   8 2407.26   52.99
   2   4  -8 2362.96   55.89
   1  -4  -8   51.79    8.30
   1  -4  -8   44.70    7.60
  -1  -4   8   47.60    7.80
   1   4  -8   48.60    8.30
  -1   4   8   56.49    8.00
   1   4  -8   53.69    7.80
   0  -4   8 1922.41   47.50
   0  -4  -8 1971.90   48.80
   0  -4   8 1842.92   46.10
   0  -4  -8 1930.21   47.10
   0   4  -8 1950.01   48.00
   0   4   8 1881.51   46.20
  -1  -4  -8   45.90    7.50
  -1  -4  -8   71.79   10.00
   1  -4   8   58.99    8.20
   1  -4   8   66.59    8.90
  -1   4  -8   63.49    9.30
   1   4   8   48.40    7.70
   2  -4   8  763.42   26.70
  -2  -4  -8  746.43   24.80
   2  -4   8  760.02   25.10
  -2  -4  -8  727.63   26.80
   2   4   8  749.53   26.00
  -2   4  -8  720.53   26.90
  -3  -4  -8   -0.90    4.40
   3  -4   8    9.70    5.00
  -3  -4  -8    4.90    4.30
   3  -4   8   -0.10    4.00
  -3   4  -8   10.10    5.90
   3   4   8    6.60    5.20
  -4  -4  -8  751.72   29.40
   4  -4   8  770.72   25.50
   4  -4   8  682.73   27.30
   4   4   8  757.32   27.70
  -4   4  -8  763.22   29.20
  -5  -4  -8   -5.40    5.60
   5  -4   8    5.10    5.90
   5   4   8    0.00    4.80
  -5   4  -8   -8.80    4.00
   6  -4   8  507.75   25.10
  -6  -4  -8  551.34   26.70
   6   4   8  533.85   24.70
  -6   4  -8  555.74   27.00
  -7  -4  -8  102.49   14.60
   7  -4   8   97.59   14.40
  -7   4  -8   96.69   14.60
   7   4   8  135.49   15.20
  -7  -5   8 1438.26   43.60
   7  -5  -8 1398.46   46.60
  -7   5   8 1435.66   46.70
   7   5  -8 1392.26   46.10
   6  -5  -8    8.10    6.60
  -6  -5   8    6.90    6.70
   6   5  -8    8.50    6.60
  -6   5   8   11.50    7.20
   5  -5  -8 1758.02   50.49
  -5  -5   8 1793.62   48.90
  -5   5   8 1747.23   50.49
   5   5  -8 1753.82   49.90
   4  -5  -8   15.40    7.20
  -4  -5   8   13.50    6.50
   4   5  -8   15.60    6.60
  -4   5   8    0.00    4.90
   3  -5  -8 1978.60   51.89
  -3  -5   8 1884.61   49.60
   3   5  -8 1928.61   51.19
  -3   5   8 1914.91   51.39
  -2  -5   8   75.19   10.10
   2  -5  -8   81.49   10.90
   2   5  -8   77.09   10.50
   2   5  -8   70.39    9.00
  -2   5   8   61.49    9.20
  -2   5   8   75.09    8.90
   1  -5  -8 1866.71   48.20
   1  -5  -8 1842.92   49.30
  -1  -5   8 1882.61   47.90
   1   5  -8 1846.02   47.10
   1   5  -8 1922.51   49.50
  -1   5   8 1850.91   46.10
   0  -5  -8  108.69   12.00
   0  -5   8  112.89   12.80
   0  -5  -8  106.69   11.50
   0  -5   8  131.79   12.50
   0   5  -8  109.99   11.70
   0   5   8  112.29   11.30
   1  -5   8 1511.35   40.40
   1  -5   8 1468.05   42.10
  -1  -5  -8 1522.25   40.30
  -1  -5  -8 1455.65   42.90
  -1   5  -8 1483.65   42.30
   1   5   8 1438.36   40.30
  -2  -5  -8   -1.50    3.90
  -2  -5  -8   13.00    6.70
   2  -5   8    3.90    4.70
   2  -5   8   12.30    6.40
  -2   5  -8   -1.30    4.90
   2   5   8    9.20    5.60
  -3  -5  -8  975.10   34.30
   3  -5   8  924.51   29.80
   3  -5   8  958.70   33.40
   3   5   8  927.81   31.90
  -3   5  -8  886.01   32.80
   4  -5   8   -2.90    5.10
  -4  -5  -8    3.40    6.20
   4  -5   8   -0.20    4.10
   4   5   8    1.20    5.10
  -4   5  -8    4.00    6.30
   5  -5   8  643.74   28.70
  -5  -5  -8  646.14   29.90
  -5   5  -8  603.14   28.20
   5   5   8  598.94   26.80
   6  -5   8   33.40    9.50
  -6  -5  -8   46.50   11.40
  -6   5  -8   25.80    9.70
   6   5   8   29.70    9.20
   5  -6  -8   40.10   10.70
  -5  -6   8   21.30    7.90
  -5   6   8   43.50    9.90
   5   6  -8   49.00   11.10
   4  -6  -8  928.01   34.90
  -4  -6   8  947.71   34.40
  -4   6   8  933.91   34.60
   4   6  -8  985.20   35.40
   3  -6  -8  327.47   20.10
  -3  -6   8  327.37   19.20
   3   6  -8  296.77   19.40
  -3   6   8  322.47   19.80
   2  -6  -8 1426.46   42.90
  -2  -6   8 1419.96   41.80
   2   6  -8 1411.56   43.40
  -2   6   8 1375.96   43.00
  -1  -6   8  141.69   14.20
   1  -6  -8  156.88   15.90
   1  -6  -8  166.68   15.30
  -1   6   8  167.08   12.90
   1   6  -8  168.68   16.10
   1   6  -8  150.58   13.80
   0  -6   8 1185.28   38.60
   0  -6  -8 1223.38   39.60
   0  -6  -8 1185.78   36.80
   0  -6   8 1171.48   36.70
   0   6  -8 1176.98   36.90
   0   6   8 1206.18   36.30
  -1  -6  -8   71.29   11.20
   1  -6   8   58.69    9.40
   1  -6   8   57.59   10.10
  -1  -6  -8   65.69    9.80
  -1   6  -8   57.19   10.30
   1   6   8   55.89    9.30
   2  -6   8 1117.59   34.40
   2  -6   8 1115.59   38.00
  -2  -6  -8 1071.79   38.00
  -2   6  -8 1061.59   37.20
   2   6   8 1078.39   35.60
   3  -6   8   66.59   11.70
  -3  -6  -8   83.99   13.20
   3  -6   8   76.29   10.30
  -3   6  -8   67.49   11.70
   3   6   8   91.59   12.30
   4  -6   8 1513.45   48.40
  -4  -6  -8 1571.04   50.59
  -4   6  -8 1601.04   49.80
   4   6   8 1545.25   46.60
   5  -6   8    3.80    7.80
  -5  -6  -8   12.60    8.20
  -5   6  -8   23.20    8.80
   5   6   8   -0.50    6.10
  -3  -7   8  659.83   29.00
   3  -7  -8  645.14   29.60
  -3   7   8  649.14   29.30
   3   7  -8  672.93   30.50
   2  -7  -8    4.50    7.00
  -2  -7   8    1.90    6.90
  -2   7   8    2.60    6.10
   2   7  -8   11.20    7.30
   1  -7  -8 1183.78   40.70
   1  -7  -8 1180.18   39.20
  -1  -7   8 1157.18   38.60
  -1   7   8 1185.88   36.80
   1   7  -8 1131.09   39.90
   0  -7  -8    2.90    7.50
   0  -7   8    4.60    6.30
   0  -7  -8   15.30    6.70
   0   7   8   22.00    7.30
   0   7  -8    8.20    6.70
   1  -7   8 1023.40   34.80
   1  -7   8  985.00   37.20
  -1  -7  -8  973.70   37.50
   1   7   8  990.10   34.90
  -1   7  -8  996.60   36.50
   2  -7   8   18.00    7.70
  -2  -7  -8   16.40    8.60
   2  -7   8   31.80    8.70
   2   7   8   26.30    8.30
  -2   7  -8   16.30    8.20
   3  -7   8 1097.19   41.10
  -3  -7  -8 1086.49   42.20
  -3   7  -8 1125.09   41.20
   3   7   8 1105.19   39.10
  -9   0   9  723.03   32.30
   9   0  -9  715.03   31.40
  -8   0   9    2.80    6.00
   8   0  -9   -7.30    5.00
   7   0  -9  464.35   20.10
   7   0  -9  482.25   22.30
  -7   0   9  459.35   22.30
   6   0  -9   -1.40    3.90
   6   0  -9   -2.20    3.60
  -6   0   9    1.00    3.10
  -6   0   9   -0.30    4.10
   5   0  -9 1390.46   37.20
   5   0  -9 1381.86   36.50
  -5   0   9 1357.06   34.00
  -5   0   9 1431.06   38.30
   4   0  -9    5.00    4.10
  -4   0   9    0.50    2.90
   4   0  -9   -0.70    3.10
  -4   0   9    0.50    3.50
   3   0  -9 1939.91   41.60
   3   0  -9 1857.21   44.90
  -3   0   9 1910.41   43.00
  -3   0   9 1853.31   43.00
  -2   0   9    2.80    3.20
  -2   0   9    1.50    2.60
   2   0  -9   -2.90    3.20
   2   0  -9   -2.80    2.00
  -1   0   9 5769.22  109.89
   1   0  -9 5979.50  104.69
   1   0  -9 5705.13  111.09
  -1   0   9 5837.32  107.09
   0   0   9    1.50    3.20
   0   0  -9    5.90    3.90
   0   0  -9    2.20    2.20
  -1   0  -9 2536.95   51.79
   1   0   9 2587.04   49.90
   1   0   9 2619.14   56.99
  -1   0  -9 2566.84   58.29
   2   0   9    8.00    4.20
  -2   0  -9   -2.50    2.10
  -2   0  -9   -0.80    3.50
   2   0   9    0.60    2.10
   3   0   9 2250.97   46.90
   3   0   9 2262.67   52.39
  -3   0  -9 2197.78   47.90
  -3   0  -9 2217.18   53.69
  -4   0  -9    0.00    3.10
   4   0   9    0.90    2.80
  -4   0  -9   -0.40    3.60
   4   0   9   -0.10    4.00
  -5   0  -9 2989.60   65.49
  -5   0  -9 3133.79   69.99
   5   0   9 3072.89   67.79
   5   0   9 3053.59   64.89
   6   0   9    1.20    4.20
  -6   0  -9   -0.90    4.10
   6   0   9   -3.70    3.90
  -6   0  -9   -4.40    4.60
  -7   0  -9  390.76   20.70
   7   0   9  359.36   18.80
  -7   0  -9  417.16   20.00
   7   0   9  421.96   19.80
  -8   0  -9   10.40    6.60
   8   0   9    6.40    5.90
  -8   0  -9   -7.50    5.60
   9  -1  -9   34.90   10.00
  -9  -1   9   39.80   10.50
  -9   1   9   44.40   10.60
   9   1  -9   38.50   10.50
  -8  -1   9  756.52   31.10
   8  -1  -9  776.92   30.80
   8  -1  -9  722.73   27.80
   8   1  -9  784.72   30.80
  -8   1   9  755.92   31.20
   7  -1  -9   89.99   11.00
  -7  -1   9   78.29   11.40
   7  -1  -9   94.49   11.90
   7   1  -9   91.99   11.70
  -7   1   9   90.39   12.00
  -6  -1   9 1204.78   36.10
   6  -1  -9 1198.08   35.20
   6  -1  -9 1179.18   35.00
  -6  -1   9 1196.98   32.00
  -6   1   9 1140.39   35.80
   6   1  -9 1163.18   32.60
   6   1  -9 1156.48   35.10
  -5  -1   9   98.79   10.10
   5  -1  -9  115.39   11.80
   5  -1  -9   94.19    9.70
  -5  -1   9  100.89    9.60
  -5   1   9  103.29   11.30
   5   1  -9   88.59    9.50
  -5   1   9  109.09    8.10
   5   1  -9   84.79    9.60
   4  -1  -9 2548.25   53.29
  -4  -1   9 2506.15   54.89
  -4  -1   9 2461.15   53.99
   4  -1  -9 2508.75   57.39
  -4   1   9 2441.96   55.99
  -4   1   9 2488.85   52.19
   4   1  -9 2391.76   54.59
   4   1  -9 2524.85   55.09
   3  -1  -9  641.84   23.00
  -3  -1   9  590.94   20.70
  -3  -1   9  677.73   20.30
   3  -1  -9  630.44   18.50
  -3   1   9  643.94   21.60
  -3   1   9  672.43   20.60
   3   1  -9  630.44   21.50
   3   1  -9  643.94   20.20
  -2  -1   9 2292.97   51.69
   2  -1  -9 2374.86   53.59
  -2  -1   9 2426.26   48.70
   2   1  -9 2298.67   52.49
  -2   1   9 2360.26   51.19
   2   1  -9 2310.67   49.10
  -2   1   9 2347.47   50.89
  -1  -1   9   82.99    8.30
   1  -1  -9  104.79   10.40
  -1  -1   9   96.19    6.30
   1   1  -9   90.39    9.60
  -1   1   9  110.79    8.00
  -1   1   9  104.69    8.30
   1   1  -9  111.99    7.50
   0  -1  -9 2645.14   59.29
   0  -1  -9 2689.83   56.19
   0  -1   9 2630.54   58.09
   0  -1   9 2790.52   51.49
   0   1   9 2674.13   58.29
  -1  -1  -9    8.60    3.70
   1  -1   9    3.10    2.40
  -1  -1  -9    0.20    3.50
   1  -1   9    1.70    3.30
   1   1   9   12.10    4.50
  -1   1  -9    4.30    2.00
  -1   1  -9   -2.80    3.50
   2  -1   9 1857.91   46.00
   2  -1   9 1947.11   42.60
  -2  -1  -9 1940.81   44.10
  -2  -1  -9 1902.01   47.40
  -2   1  -9 1992.40   48.60
   2   1   9 1942.01   46.80
  -2   1  -9 1949.80   39.10
  -3  -1  -9  289.87   13.70
  -3  -1  -9  307.77   16.20
   3  -1   9  268.47   14.60
   3  -1   9  281.57   12.90
  -3   1  -9  288.77   16.30
   3   1   9  287.67   15.30
  -4  -1  -9 1811.52   47.80
   4  -1   9 1899.71   45.10
  -4  -1  -9 1935.11   46.30
   4  -1   9 1928.91   47.30
  -4   1  -9 1980.30   49.99
   4   1   9 1937.11   47.80
  -5  -1  -9    0.10    4.40
  -5  -1  -9    5.50    5.30
   5  -1   9    2.40    4.10
   5  -1   9    3.60    4.40
   5   1   9    4.60    4.60
  -5   1  -9   -0.70    4.20
  -6  -1  -9 1490.95   42.30
   6  -1   9 1565.54   41.50
  -6  -1  -9 1576.54   43.20
   6  -1   9 1496.45   41.40
   6   1   9 1524.15   42.10
  -6   1  -9 1487.65   43.90
  -7  -1  -9  144.49   14.60
  -7  -1  -9  114.49   13.90
   7  -1   9  135.59   12.90
   7  -1   9  118.99   12.80
  -7   1  -9  109.19   13.20
   7   1   9  118.89   12.50
   8  -1   9  658.73   28.30
  -8  -1  -9  701.93   29.30
  -8   1  -9  716.53   29.80
   8   1   9  675.23   27.40
  -8  -2   9   24.10    8.40
   8  -2  -9   43.90    9.00
  -8   2   9   28.60    8.60
   8   2  -9   56.09   11.00
  -7  -2   9 2246.28   58.39
  -7  -2   9 2319.17   52.89
   7  -2  -9 2222.28   56.79
   7   2  -9 2134.69   56.69
  -7   2   9 2127.79   57.59
  -6  -2   9   10.10    5.90
   6  -2  -9    0.80    4.00
  -6  -2   9    8.10    4.80
  -6   2   9   15.10    6.60
   6   2  -9    8.40    5.60
   5  -2  -9 1403.46   39.90
  -5  -2   9 1472.55   38.00
  -5  -2   9 1457.95   39.00
  -5   2   9 1430.56   40.40
   5   2  -9 1484.15   36.80
   5   2  -9 1396.86   39.10
  -4  -2   9  115.39   10.50
  -4  -2   9  106.79   10.30
   4  -2  -9   89.69   10.30
   4   2  -9  126.09    9.40
  -4   2   9  132.29    8.60
  -4   2   9  115.19   11.70
   4   2  -9  124.39   10.10
  -3  -2   9 1738.23   42.80
   3  -2  -9 1762.72   45.20
  -3  -2   9 1800.02   40.30
   3   2  -9 1757.42   42.30
  -3   2   9 1784.72   44.00
   3   2  -9 1791.52   42.70
  -3   2   9 1776.92   40.70
  -2  -2   9  208.48   12.00
   2  -2  -9  199.28   12.50
  -2   2   9  227.88   12.60
  -2   2   9  220.88   11.90
   2   2  -9  222.98   12.60
   2   2  -9  205.48   11.50
   1  -2  -9  585.04   21.60
   1  -2  -9  579.34   20.10
  -1  -2   9  545.15   20.20
  -1   2   9  566.84   20.10
   1   2  -9  543.25   20.80
   1   2  -9  571.84   19.00
   0  -2   9   39.30    6.00
   0  -2  -9   36.40    6.10
   0  -2  -9   34.20    6.80
   0  -2   9   36.80    6.30
   0   2  -9   34.10    6.80
   0   2   9   37.80    6.60
   1  -2   9  990.30   29.30
  -1  -2  -9 1032.80   29.20
  -1  -2  -9  998.10   30.10
   1  -2   9  975.70   27.40
  -1   2  -9 1045.00   31.80
   1   2   9 1016.90   30.00
  -2  -2  -9    7.60    4.40
   2  -2   9    5.30    3.40
   2  -2   9    8.80    4.50
  -2  -2  -9    1.80    3.90
  -2   2  -9    5.40    5.00
   2   2   9    6.40    4.00
   3  -2   9 2100.39   50.29
  -3  -2  -9 2116.09   50.39
  -3  -2  -9 2131.09   51.29
   3  -2   9 2107.49   49.20
  -3   2  -9 2181.68   53.69
   3   2   9 2081.29   51.19
  -4  -2  -9    3.50    4.20
  -4  -2  -9    0.80    4.70
   4  -2   9    0.70    3.80
   4  -2   9    3.60    4.00
   4   2   9    3.10    4.20
  -4   2  -9    9.30    5.40
  -5  -2  -9  992.80   31.60
   5  -2   9  986.60   31.60
   5  -2   9  940.21   30.60
  -5  -2  -9 1019.80   32.80
  -5   2  -9  975.40   33.50
   5   2   9  999.00   32.20
   6  -2   9   23.80    7.20
  -6  -2  -9   19.50    7.10
   6  -2   9   10.90    5.50
  -6   2  -9   37.20    8.40
   6   2   9   21.90    6.90
   7  -2   9 2211.28   57.69
  -7  -2  -9 2202.68   58.69
  -7   2  -9 2207.68   58.99
   7   2   9 2162.68   56.49
  -8  -2  -9   11.90    8.00
   8  -2   9   14.50    7.30
  -8   2  -9    3.10    7.50
   8   2   9   10.00    7.00
   8  -3  -9 1390.16   44.30
  -8  -3   9 1412.86   40.50
  -8  -3   9 1494.45   47.30
  -8   3   9 1375.46   45.80
   8   3  -9 1352.76   44.80
  -7  -3   9   -3.90    4.20
   7  -3  -9    1.90    6.00
  -7  -3   9    5.70    6.60
  -7   3   9    2.30    5.90
   7   3  -9    5.20    6.40
   6  -3  -9 2103.89   55.39
  -6  -3   9 2124.39   52.09
   6   3  -9 2103.59   54.69
  -6   3   9 2068.29   55.29
  -5  -3   9  106.49   11.30
   5  -3  -9  147.79   14.60
   5   3  -9  136.89   13.50
  -5   3   9  116.19   12.40
  -4  -3   9 1279.07   36.10
   4  -3  -9 1356.06   38.80
   4   3  -9 1319.27   33.70
  -4   3   9 1253.67   37.50
   4   3  -9 1290.57   36.80
   3  -3  -9  728.93   26.40
  -3  -3   9  721.23   25.00
   3   3  -9  734.93   25.00
  -3   3   9  696.33   25.20
  -3   3   9  752.02   22.60
   3   3  -9  712.63   23.60
   2  -3  -9 1280.97   37.10
  -2   3   9 1294.77   36.50
   2   3  -9 1317.67   35.60
   2   3  -9 1388.26   36.10
  -2   3   9 1349.36   34.60
  -1  -3   9   16.20    5.30
   1  -3  -9   29.00    6.30
   1  -3  -9   32.00    6.80
   1   3  -9   15.60    5.10
   1   3  -9   25.70    6.10
  -1   3   9   30.60    6.10
   0  -3   9 1952.20   47.60
   0  -3  -9 1995.70   48.70
   0  -3   9 2029.30   47.20
   0  -3  -9 1952.30   48.10
   0   3   9 1936.01   47.40
   0   3  -9 1958.10   49.00
   1  -3   9  293.37   15.20
  -1  -3  -9  306.47   15.70
   1  -3   9  282.17   14.40
  -1  -3  -9  247.08   14.40
  -1   3  -9  269.67   16.00
   1   3   9  295.17   15.30
   2  -3   9  776.82   26.00
  -2  -3  -9  809.62   27.30
   2  -3   9  790.82   26.00
  -2  -3  -9  765.22   26.00
  -2   3  -9  763.42   28.00
   2   3   9  764.72   26.70
   3  -3   9   53.89    8.10
   3  -3   9   55.59    8.50
  -3  -3  -9   61.29    9.20
  -3  -3  -9   48.00    7.90
   3   3   9   50.99    8.60
  -3   3  -9   81.59   11.00
   4  -3   9 1141.69   33.90
  -4  -3  -9 1168.68   34.10
   4  -3   9 1144.39   35.00
  -4  -3  -9 1151.18   36.30
  -4   3  -9 1156.88   37.30
   4   3   9 1186.98   36.00
   5  -3   9   44.50    7.90
  -5  -3  -9   61.89   10.00
   5  -3   9   48.30    9.00
  -5   3  -9   38.00    9.60
   5   3   9   57.79   10.00
  -6  -3  -9 1183.78   39.90
   6  -3   9 1197.28   38.80
   6   3   9 1236.68   38.70
  -6   3  -9 1133.59   39.40
  -7  -3  -9   34.10    9.80
   7  -3   9   35.50    9.30
  -7   3  -9   28.20    8.80
   7   3   9   35.00    9.30
   8  -3   9 1174.48   41.50
  -8  -3  -9 1158.18   42.40
   8   3   9 1128.89   39.60
  -8   3  -9 1206.18   42.70
   7  -4  -9  840.42   33.90
  -7  -4   9  874.61   31.20
   7   4  -9  808.42   32.70
  -7   4   9  835.02   33.60
   6  -4  -9   89.59   12.50
  -6  -4   9   86.09   11.40
   6   4  -9  103.99   13.10
  -6   4   9   84.19   12.30
   5  -4  -9 1559.14   46.00
  -5  -4   9 1562.04   43.50
  -5   4   9 1566.64   45.60
   5   4  -9 1534.95   44.20
   4  -4  -9   -3.60    4.40
  -4  -4   9   12.70    5.80
  -4   4   9   14.20    6.40
   4   4  -9    6.00    5.10
  -3  -4   9 1471.15   41.30
   3  -4  -9 1551.04   43.60
  -3   4   9 1530.95   43.10
   3   4  -9 1509.05   38.80
  -3   4   9 1562.14   38.20
   3   4  -9 1545.35   42.40
   2  -4  -9   22.70    6.90
  -2  -4   9   33.50    7.00
  -2   4   9   15.30    6.10
   2   4  -9   38.40    7.10
   2   4  -9   32.10    6.90
  -2   4   9   32.50    6.30
  -1  -4   9 2568.04   60.39
   1  -4  -9 2563.64   61.39
   1  -4  -9 2655.23   61.59
  -1   4   9 2643.14   59.39
   1   4  -9 2593.54   60.59
   1   4  -9 2690.23   60.69
   0  -4  -9    1.60    4.90
   0  -4  -9    5.30    5.00
   0  -4   9    6.50    4.60
   0  -4   9   12.20    5.00
   0   4   9   12.40    5.30
   0   4  -9    4.10    4.90
  -1  -4  -9 2804.72   63.09
  -1  -4  -9 2648.64   64.29
   1  -4   9 2836.92   63.09
   1  -4   9 2746.83   63.39
   1   4   9 2761.82   63.19
  -1   4  -9 2747.12   64.99
   2  -4   9   17.90    6.30
  -2  -4  -9   17.60    6.00
   2  -4   9   20.80    6.50
  -2  -4  -9   15.20    6.80
  -2   4  -9   22.00    6.90
   2   4   9    9.80    5.50
   3  -4   9 1121.59   35.10
  -3  -4  -9 1084.39   35.80
   3  -4   9 1074.69   32.90
  -3  -4  -9 1098.89   33.20
  -3   4  -9 1050.19   35.70
   3   4   9 1117.09   35.10
   4  -4   9   10.10    5.40
  -4  -4  -9   -2.30    5.40
   4  -4   9    4.40    5.30
  -4   4  -9    0.00    5.00
   4   4   9    7.30    5.80
   5  -4   9 1271.07   41.30
  -5  -4  -9 1309.77   43.10
  -5   4  -9 1358.06   43.90
   5   4   9 1362.56   41.60
  -6  -4  -9   88.89   14.20
   6  -4   9   79.09   12.60
  -6   4  -9  103.09   14.40
   6   4   9   84.49   12.30
  -7  -4  -9  696.53   32.70
   7  -4   9  746.33   32.40
   7   4   9  741.63   31.40
  -7   4  -9  687.43   32.50
  -6  -5   9  682.83   28.50
   6  -5  -9  677.13   30.70
  -6   5   9  690.63   30.20
   6   5  -9  639.84   29.20
  -5  -5   9   57.09   10.20
   5  -5  -9   44.00   10.40
   5   5  -9   55.19   10.60
  -5   5   9   75.49   12.20
  -4  -5   9  841.32   30.90
   4  -5  -9  877.81   33.10
   4   5  -9  901.81   32.60
  -4   5   9  899.21   32.90
   3  -5  -9  185.18   14.60
  -3  -5   9  210.38   15.30
  -3   5   9  182.78   17.10
   3   5  -9  200.98   15.50
   2  -5  -9 1481.05   43.30
  -2  -5   9 1545.65   43.00
   2   5  -9 1510.75   43.60
   2   5  -9 1469.35   39.90
  -2   5   9 1539.05   40.40
  -2   5   9 1450.55   43.30
   1  -5  -9    3.60    5.40
   1  -5  -9    3.60    5.70
  -1  -5   9   -3.00    4.30
   1   5  -9   -8.50    4.40
  -1   5   9   -2.10    4.00
   1   5  -9   10.90    5.60
   0  -5  -9 1103.39   34.20
   0  -5  -9 1054.89   35.50
   0  -5   9 1045.60   33.50
   0  -5   9 1006.20   34.00
   0   5   9 1071.79   33.50
   0   5  -9 1055.69   34.40
  -1  -5  -9   16.60    6.60
  -1  -5  -9   16.50    6.20
   1  -5   9   11.70    6.20
   1  -5   9    7.40    5.40
   1   5   9   18.20    6.40
  -1   5  -9   15.80    7.10
   2  -5   9 3602.44   82.59
  -2  -5  -9 3737.43   79.49
   2  -5   9 3729.93   80.19
  -2  -5  -9 3651.63   84.59
   2   5   9 3629.94   81.29
  -2   5  -9 3601.64   83.19
   3  -5   9   15.90    6.80
   3  -5   9   -2.10    4.40
  -3  -5  -9    8.80    6.40
   3   5   9   -2.90    5.10
  -3   5  -9    5.70    5.80
  -4  -5  -9 1527.35   48.50
   4  -5   9 1605.24   43.60
   4  -5   9 1549.45   47.40
  -4   5  -9 1579.64   49.00
   4   5   9 1612.14   47.00
  -5  -5  -9   48.70   11.00
   5  -5   9   15.10    8.00
   5   5   9   38.30    8.90
  -5   5  -9   42.50   11.10
  -6  -5  -9 1137.19   42.80
   6  -5   9 1065.29   40.30
   6   5   9 1108.39   39.80
  -6   5  -9 1057.09   41.30
  -5  -6   9  985.20   36.10
   5  -6  -9  931.71   36.80
  -5   6   9  930.81   36.50
   5   6  -9  951.00   36.90
  -4  -6   9   32.20    8.70
   4  -6  -9   45.40   10.70
  -4   6   9   34.20    9.20
   4   6  -9   35.90    9.30
   3  -6  -9 1388.46   44.30
  -3  -6   9 1318.67   42.10
   3   6  -9 1403.46   44.30
  -3   6   9 1312.97   43.40
  -2  -6   9   22.80    8.10
   2  -6  -9    9.10    7.00
   2   6  -9    5.80    5.90
  -2   6   9   13.80    6.70
  -1  -6   9  947.11   33.40
   1  -6  -9  947.01   34.90
   1  -6  -9  966.40   34.20
  -1   6   9  930.21   31.40
   1   6  -9  951.50   34.40
   1   6  -9  940.21   32.10
   0  -6  -9   -4.90    5.50
   0  -6  -9    3.60    5.10
   0  -6   9    0.80    5.50
   0   6   9    0.70    5.00
   0   6  -9    5.30    5.50
  -1  -6  -9 1102.79   35.30
  -1  -6  -9 1000.10   37.20
   1  -6   9 1023.00   34.50
   1  -6   9 1054.39   36.90
  -1   6  -9 1103.99   37.20
   1   6   9 1026.20   35.00
   2  -6   9   -3.10    5.70
   2  -6   9   15.60    6.40
  -2  -6  -9   -0.50    5.60
  -2   6  -9    2.70    6.50
   2   6   9    9.00    6.00
   3  -6   9 1097.49   39.80
  -3  -6  -9 1053.49   40.00
   3  -6   9 1150.28   36.20
  -3   6  -9 1078.99   39.70
   3   6   9 1134.29   38.60
   4  -6   9   48.70   10.80
  -4  -6  -9   53.79   12.20
   4   6   9   35.80    9.60
  -4   6  -9   37.40   10.60
  -2  -7   9 1016.80   36.90
   2  -7  -9  983.70   37.40
   2   7  -9  973.40   37.70
  -2   7   9  974.20   37.50
   1  -7  -9   18.90    7.70
  -1  -7   9   14.60    7.60
   1  -7  -9   13.20    8.00
   1   7  -9   18.40    8.20
   0  -7   9  663.83   29.10
   0  -7  -9  758.12   30.40
   0  -7  -9  730.03   32.40
   0   7   9  707.03   28.80
   0   7  -9  743.03   32.50
  -1  -7  -9    0.40    6.80
   1  -7   9   14.00    7.40
   1  -7   9    3.50    7.10
   1   7   9   15.30    7.60
  -1   7  -9    9.70    7.30
   2  -7   9  298.07   21.30
   2  -7   9  329.67   20.10
  -2  -7  -9  305.37   22.80
   2   7   9  282.97   19.80
  -2   7  -9  290.37   20.90
  -8   0  10 1124.89   39.60
   8   0 -10 1118.19   38.70
  -7   0  10    1.00    5.30
   7   0 -10    1.60    5.40
   7   0 -10   -1.10    4.60
   6   0 -10 2099.89   52.39
  -6   0  10 2055.09   53.39
   6   0 -10 2167.88   52.49
   5   0 -10    2.20    4.00
   5   0 -10   -2.60    3.70
  -5   0  10   -2.50    3.10
  -5   0  10    1.00    4.00
  -4   0  10 1414.06   37.50
   4   0 -10 1441.06   36.00
   4   0 -10 1394.76   38.60
  -4   0  10 1435.76   36.20
  -3   0  10    1.80    3.20
   3   0 -10    0.60    3.20
  -3   0  10   -0.40    3.20
   3   0 -10    1.40    3.00
  -2   0  10 1535.75   36.20
   2   0 -10 1512.65   33.90
  -2   0  10 1485.45   37.90
   2   0 -10 1481.75   39.40
  -1   0  10   -0.40    2.70
  -1   0  10    0.20    3.40
   1   0 -10    2.10    2.40
   1   0 -10    2.80    3.60
   0   0  10  967.30   24.90
   0   0 -10  949.21   30.20
   0   0  10  966.00   29.10
  -1   0 -10    1.20    4.50
  -1   0 -10    0.00    2.60
   1   0  10    7.70    4.10
   1   0  10   -0.10    2.00
   2   0  10  552.24   16.70
  -2   0 -10  542.05   17.70
  -2   0 -10  611.54   23.90
   2   0  10  575.44   22.20
  -3   0 -10   -1.30    5.00
   3   0  10   -2.60    2.50
   3   0  10   -0.90    3.70
  -3   0 -10    1.30    3.20
  -4   0 -10 2211.78   55.79
   4   0  10 2232.08   53.89
  -4   0 -10 2164.18   49.40
   4   0  10 2221.28   51.69
  -5   0 -10    0.70    5.20
  -5   0 -10    2.90    4.20
   5   0  10    1.50    4.50
  -6   0 -10 1822.92   49.70
   6   0  10 1786.82   47.70
   7   0  10    6.00    5.40
  -7   0 -10   -3.40    5.20
   8  -1 -10   53.39   11.50
   8  -1 -10   58.99   10.00
  -8  -1  10   74.39   12.30
   8   1 -10   64.39   11.30
  -8   1  10   48.30   10.70
   7  -1 -10 1292.97   38.80
  -7  -1  10 1185.38   39.30
  -7   1  10 1221.88   39.80
   7   1 -10 1229.18   38.80
  -6  -1  10  288.17   17.20
   6  -1 -10  295.07   16.90
  -6  -1  10  320.47   15.40
   6   1 -10  270.17   16.10
   6   1 -10  279.37   15.50
  -6   1  10  262.77   16.80
  -5  -1  10 1021.90   30.70
  -5  -1  10  943.41   28.60
   5  -1 -10  951.40   31.10
   5   1 -10  955.20   29.80
  -5   1  10  900.31   30.40
  -5   1  10  983.40   27.30
   5   1 -10  938.61   29.40
   4  -1 -10    0.90    4.20
  -4  -1  10   -0.60    3.30
  -4  -1  10    0.80    3.50
   4   1 -10    2.40    4.10
  -4   1  10   -0.70    2.90
   4   1 -10    0.90    3.80
  -4   1  10   -2.50    3.80
  -3  -1  10 2109.89   49.40
   3  -1 -10 2114.99   51.69
  -3  -1  10 2250.67   48.00
  -3   1  10 2077.39   47.90
   3   1 -10 2173.78   47.90
   3   1 -10 2062.99   49.90
  -3   1  10 2121.79   49.70
  -2  -1  10   16.80    5.10
   2  -1 -10   13.30    4.70
  -2  -1  10   12.70    4.00
  -2   1  10   21.20    5.30
   2   1 -10   22.70    4.80
  -2   1  10   12.70    4.50
   2   1 -10   15.70    5.20
  -1  -1  10 1515.55   39.00
   1  -1 -10 1475.55   40.20
  -1  -1  10 1575.94   34.10
  -1   1  10 1494.55   38.80
  -1   1  10 1520.35   37.20
   1   1 -10 1481.95   40.20
   1   1 -10 1586.14   35.60
   0  -1  10   58.19    7.70
   0  -1 -10   74.99    9.50
   0  -1 -10   72.89    7.70
   0   1 -10   63.89    8.60
   0   1  10   84.79    9.90
   0   1 -10   75.09    7.10
  -1  -1 -10 1387.06   39.40
   1  -1  10 1434.76   38.80
   1  -1  10 1420.96   33.50
  -1  -1 -10 1451.55   35.60
   1   1  10 1418.36   38.50
  -1   1 -10 1474.25   40.80
   2  -1  10   20.70    4.50
   2  -1  10   24.40    6.40
  -2  -1 -10    6.80    4.60
  -2  -1 -10   21.30    5.30
   2   1  10   29.10    6.80
  -2   1 -10   25.90    6.90
   3  -1  10 2829.82   58.99
  -3  -1 -10 2716.63   59.99
  -3  -1 -10 2790.92   64.69
   3  -1  10 2736.93   62.89
  -3   1 -10 2783.42   65.19
   3   1  10 2751.22   63.29
   4  -1  10  183.38   11.60
  -4  -1 -10  197.38   14.50
   4  -1  10  160.98   12.70
  -4  -1 -10  179.38   12.00
  -4   1 -10  225.78   15.80
   4   1  10  184.18   13.60
  -5  -1 -10 1440.66   42.00
  -5  -1 -10 1388.06   39.30
   5  -1  10 1490.35   39.20
   5  -1  10 1474.65   40.80
   5   1  10 1416.96   41.00
  -5   1 -10 1422.06   42.70
   6  -1  10  173.98   13.30
   6  -1  10  198.58   14.60
  -6  -1 -10  169.28   13.90
  -6  -1 -10  199.28   15.20
   6   1  10  177.08   14.30
  -6   1 -10  196.18   17.40
   7  -1  10 1332.07   40.10
   7  -1  10 1326.67   39.20
  -7  -1 -10 1275.07   40.30
  -7   1 -10 1354.76   42.60
   7   1  10 1223.48   39.30
  -8  -1 -10   -5.50    6.00
   8  -1  10   -2.00    5.30
   8   1  10    1.90    6.00
  -8   1 -10    1.30    6.30
   8  -2 -10 1101.29   37.50
  -8  -2  10 1047.50   38.80
  -8   2  10 1088.89   39.10
   8   2 -10 1005.90   37.60
  -7  -2  10   28.70    6.80
  -7  -2  10   33.30    8.50
   7  -2 -10   25.20    8.10
   7   2 -10   36.10    8.80
  -7   2  10   36.60    9.40
  -6  -2  10  909.21   29.10
  -6  -2  10  920.01   31.50
   6  -2 -10  829.82   30.60
   6   2 -10  891.01   31.00
  -6   2  10  875.21   31.80
  -5  -2  10   92.49   10.20
   5  -2 -10   92.89   11.50
  -5  -2  10   95.79   10.90
  -5   2  10  110.19   12.40
   5   2 -10   72.29    8.90
   5   2 -10   81.29   10.30
   4  -2 -10 2488.25   59.59
  -4  -2  10 2400.16   56.49
  -4   2  10 2545.05   53.69
   4   2 -10 2479.15   56.79
   4   2 -10 2504.05   56.09
  -4   2  10 2433.16   58.49
   3  -2 -10    8.50    5.00
  -3  -2  10   -0.70    3.50
   3   2 -10    4.10    3.90
   3   2 -10    4.00    3.90
  -3   2  10   -1.40    3.60
  -3   2  10   -3.50    2.60
   2  -2 -10 2074.09   51.69
  -2  -2  10 2077.29   49.99
  -2   2  10 2149.58   50.19
   2   2 -10 2092.99   48.00
   2   2 -10 2087.49   50.49
  -2   2  10 2079.39   48.40
   1  -2 -10   28.50    6.80
  -1  -2  10   20.90    5.90
  -1   2  10   25.30    5.80
   1   2 -10   18.10    5.40
   1   2 -10   19.00    5.00
   0  -2 -10 2095.69   50.29
   0  -2  10 2208.58   51.99
   0  -2 -10 2170.08   52.69
   0   2 -10 2120.79   53.09
   0   2  10 2257.77   51.89
   1  -2  10   -0.20    2.90
   1  -2  10    0.10    3.80
  -1  -2 -10    6.60    4.40
  -1  -2 -10   -3.10    3.70
   1   2  10    1.30    4.40
  -1   2 -10    5.20    4.60
  -2  -2 -10 2483.35   58.39
   2  -2  10 2495.05   57.69
  -2  -2 -10 2411.56   55.99
   2  -2  10 2494.95   54.99
  -2   2 -10 2453.35   59.89
   2   2  10 2371.36   57.29
  -3  -2 -10   45.30    7.70
   3  -2  10   58.99    8.00
  -3  -2 -10   55.69    8.80
   3  -2  10   53.19    8.60
  -3   2 -10   54.79    9.20
   3   2  10   32.60    6.80
  -4  -2 -10 1234.68   37.80
   4  -2  10 1253.97   35.70
   4  -2  10 1226.68   36.70
  -4  -2 -10 1347.57   37.90
   4   2  10 1256.17   37.80
  -4   2 -10 1269.87   39.70
  -5  -2 -10    3.60    4.90
   5  -2  10    3.40    4.90
   5  -2  10    1.70    4.50
  -5  -2 -10   -3.50    4.50
  -5   2 -10    6.40    5.60
   5   2  10    4.10    4.80
   6  -2  10  959.60   33.30
   6  -2  10 1005.40   32.90
  -6  -2 -10 1030.40   34.90
  -6   2 -10  953.20   35.30
   6   2  10 1043.60   34.90
  -7  -2 -10   21.80    8.40
   7  -2  10   21.20    7.30
  -7   2 -10   26.90    9.30
   7   2  10   13.60    6.90
  -7  -3  10 1162.28   36.50
   7  -3 -10 1219.88   40.90
   7   3 -10 1191.48   40.20
  -7   3  10 1203.08   41.30
   6  -3 -10   16.50    6.40
  -6  -3  10    6.50    5.50
  -6   3  10    7.10    6.30
   6   3 -10    6.00    5.90
  -5  -3  10 1741.93   46.50
   5  -3 -10 1829.12   49.99
   5   3 -10 1767.02   47.90
  -5   3  10 1828.12   49.50
   4  -3 -10   97.99   12.00
  -4  -3  10  120.59   12.20
  -4   3  10  125.69   13.20
   4   3 -10  114.09   10.70
   4   3 -10  128.69   12.70
  -3  -3  10 1635.54   43.80
   3  -3 -10 1665.73   45.80
  -3   3  10 1671.43   44.90
   3   3 -10 1640.44   43.30
   3   3 -10 1689.73   42.80
  -3   3  10 1713.93   41.00
   2  -3 -10   46.70    8.50
  -2  -3  10   32.90    6.60
  -2   3  10   51.39    7.60
  -2   3  10   39.30    7.90
   2   3 -10   45.40    7.50
   2   3 -10   37.80    7.30
   1  -3 -10 3446.06   76.49
  -1  -3  10 3655.13   76.99
   1  -3 -10 3557.94   77.79
   1   3 -10 3638.74   75.49
   1   3 -10 3564.54   77.39
  -1   3  10 3577.94   75.69
   0  -3 -10   81.49   10.30
   0  -3  10   75.59    9.10
   0  -3 -10   69.59    9.20
   0  -3  10   71.39    9.10
   0   3  10   85.99   10.40
   0   3 -10   71.69   10.00
   1  -3  10 1902.41   48.50
   1  -3  10 1972.10   47.50
  -1  -3 -10 1924.71   49.30
  -1  -3 -10 1895.41   48.70
   1   3  10 1942.61   49.00
  -1   3 -10 1937.91   50.69
   2  -3  10   -3.00    3.80
  -2  -3 -10   -2.40    3.60
  -2  -3 -10   -4.40    3.80
   2  -3  10   -1.10    3.70
   2   3  10   -1.10    3.80
  -2   3 -10   -2.00    4.80
  -3  -3 -10  815.82   28.70
   3  -3  10  854.41   29.20
   3  -3  10  826.02   28.10
  -3  -3 -10  826.82   29.30
  -3   3 -10  812.02   30.60
   3   3  10  818.12   29.20
   4  -3  10  649.74   25.40
   4  -3  10  651.43   25.50
  -4  -3 -10  683.03   26.70
  -4  -3 -10  649.93   25.30
   4   3  10  624.54   25.60
  -4   3 -10  664.13   27.90
  -5  -3 -10 1007.40   35.10
   5  -3  10  996.40   33.60
   5  -3  10  937.51   31.70
  -5   3 -10  977.80   35.70
   5   3  10  989.40   34.30
  -6  -3 -10   47.10   10.60
   6  -3  10   61.89   10.90
   6   3  10   54.09   10.30
  -6   3 -10   57.69   11.10
  -7  -3 -10  698.33   31.10
   7  -3  10  705.33   30.20
  -7   3 -10  734.23   32.30
   7   3  10  688.83   29.60
  -7  -4  10   33.10    8.90
   7  -4 -10   35.60    9.90
  -7   4  10   16.90    8.30
   7   4 -10   41.90   10.00
   6  -4 -10 1161.08   40.70
  -6  -4  10 1178.78   38.00
   6   4 -10 1169.78   39.80
  -6   4  10 1244.98   41.50
  -5  -4  10   50.29    9.00
   5  -4 -10   56.69   10.40
  -5   4  10   64.19   11.00
   5   4 -10   74.29   11.30
  -4  -4  10  565.74   24.10
   4  -4 -10  614.84   26.60
  -4   4  10  610.84   26.20
   4   4 -10  560.64   24.50
   3  -4 -10   30.90    7.40
  -3  -4  10   17.40    5.90
   3   4 -10   12.10    6.30
   3   4 -10   20.60    6.00
  -3   4  10   12.70    5.80
  -3   4  10   17.90    5.70
  -2  -4  10 1260.17   37.80
   2  -4 -10 1296.47   39.40
  -2   4  10 1306.07   36.20
   2   4 -10 1339.07   37.50
  -2   4  10 1277.97   38.80
   2   4 -10 1244.48   37.50
   1  -4 -10   44.10    8.50
  -1  -4  10   35.00    7.60
   1  -4 -10   28.20    7.70
  -1   4  10   27.10    6.70
   1   4 -10   40.30    8.10
   1   4 -10   21.30    6.50
   0  -4 -10 1835.22   48.50
   0  -4  10 1770.42   46.90
   0  -4  10 1746.33   46.30
   0  -4 -10 1760.62   47.70
   0   4  10 1783.02   46.70
   0   4 -10 1750.62   47.80
   1  -4  10    2.60    4.70
   1  -4  10    5.30    4.90
  -1  -4 -10    8.70    6.10
  -1  -4 -10   -1.50    4.50
   1   4  10    0.60    4.20
  -1   4 -10    3.00    4.90
  -2  -4 -10 1288.67   40.20
   2  -4  10 1336.47   39.20
  -2  -4 -10 1347.77   39.00
   2  -4  10 1318.47   38.70
   2   4  10 1288.37   39.40
  -2   4 -10 1315.27   41.20
  -3  -4 -10   74.59   11.30
   3  -4  10   98.19   11.90
  -3  -4 -10  101.09   11.90
   3  -4  10   87.59   11.00
   3   4  10   96.39   11.60
  -3   4 -10   76.59   11.80
   4  -4  10 1060.79   34.50
  -4  -4 -10 1055.69   37.20
   4  -4  10 1092.79   36.50
   4   4  10 1065.29   36.50
  -4   4 -10 1137.09   39.00
  -5  -4 -10    8.90    7.30
   5  -4  10    1.70    5.20
   5  -4  10   -0.30    5.40
  -5   4 -10    4.90    6.10
   5   4  10   23.20    8.10
  -6  -4 -10 1124.39   41.40
   6  -4  10 1068.79   39.30
   6   4  10 1251.37   41.40
  -6   4 -10 1191.08   42.80
   6  -5 -10   16.80    9.00
  -6  -5  10   -5.10    5.10
  -6   5  10    8.30    7.00
   6   5 -10   15.70    8.10
   5  -5 -10  897.71   35.50
  -5  -5  10  855.01   32.70
   5   5 -10  877.01   34.10
  -5   5  10  847.92   34.00
   4  -5 -10   49.30   10.60
  -4  -5  10   36.20    8.80
  -4   5  10   55.69   10.70
   4   5 -10   39.30    9.30
  -3  -5  10  610.94   26.40
   3  -5 -10  635.54   28.20
  -3   5  10  688.13   28.30
   3   5 -10  667.83   27.80
   2  -5 -10   16.60    7.20
  -2  -5  10   15.60    6.30
   2   5 -10    6.90    5.30
  -2   5  10    3.60    5.90
  -2   5  10   20.80    6.50
   2   5 -10   22.10    7.50
   1  -5 -10  153.48   14.90
  -1  -5  10  207.78   15.30
   1  -5 -10  186.08   17.40
  -1   5  10  180.38   13.80
   1   5 -10  180.58   14.60
   1   5 -10  189.28   14.40
   0  -5 -10   17.60    7.20
   0  -5  10   24.20    7.60
   0  -5 -10   31.80    7.80
   0   5  10   30.90    7.80
   0   5 -10   34.30    8.60
   1  -5  10 1341.67   40.80
  -1  -5 -10 1345.17   42.90
   1  -5  10 1427.76   42.30
  -1  -5 -10 1356.76   41.10
   1   5  10 1386.46   41.30
  -1   5 -10 1390.86   42.90
  -2  -5 -10   68.19   11.20
   2  -5  10   64.29   10.10
   2  -5  10   53.09   10.10
  -2  -5 -10   49.80    9.20
  -2   5 -10   52.09   10.10
   2   5  10   69.79   11.10
   3  -5  10 1045.10   35.00
   3  -5  10 1063.39   37.20
  -3  -5 -10 1073.69   38.40
   3   5  10 1065.09   36.70
  -3   5 -10 1032.10   37.70
  -4  -5 -10   82.29   13.80
   4  -5  10   94.59   12.20
   4  -5  10   92.29   13.10
  -4   5 -10   83.99   13.70
   4   5  10   84.39   12.40
   5  -5  10 1288.67   43.90
  -5  -5 -10 1255.27   44.90
  -5   5 -10 1315.17   45.80
   5   5  10 1293.07   43.70
  -4  -6  10 1232.28   41.90
   4  -6 -10 1287.77   44.00
  -4   6  10 1222.28   43.00
   4   6 -10 1287.57   43.40
   3  -6 -10    4.80    6.20
  -3  -6  10    6.50    6.70
   3   6 -10   22.40    8.30
  -3   6  10    9.90    7.40
   2  -6 -10  925.51   35.60
  -2  -6  10  969.00   35.10
  -2   6  10  922.81   35.20
   2   6 -10  992.40   36.20
   1  -6 -10   35.20    9.00
  -1  -6  10   21.80    8.00
   1  -6 -10   26.90    9.00
   1   6 -10   28.20    8.10
  -1   6  10   31.30    8.20
   1   6 -10   41.30    9.30
   0  -6  10 1244.78   39.90
   0  -6 -10 1289.47   40.60
   0  -6 -10 1187.18   41.40
   0   6 -10 1178.58   40.90
   0   6  10 1167.78   38.50
   0   6 -10 1266.07   40.50
  -1  -6 -10   50.79    9.70
   1  -6  10   45.50    9.60
   1  -6  10   46.50   10.60
  -1  -6 -10   35.40    9.30
  -1   6 -10   46.40    9.80
   1   6  10   54.19   10.70
   2  -6  10 1377.56   44.70
  -2  -6 -10 1372.56   46.10
   2  -6  10 1393.76   42.40
  -2   6 -10 1277.77   43.80
   2   6  10 1322.77   43.10
  -3  -6 -10  122.29   16.10
   3  -6  10  162.28   15.80
   3  -6  10  145.59   17.20
  -3   6 -10  131.49   15.70
   3   6  10  137.69   15.30
  -8   0  11    1.30    6.50
   8   0 -11   -1.50    6.60
  -7   0  11 1651.23   48.90
   7   0 -11 1754.82   49.70
   7   0 -11 1676.03   46.40
  -6   0  11   -5.10    4.40
   6   0 -11   -3.50    4.40
  -5   0  11 3107.49   69.99
   5   0 -11 3083.19   70.19
  -5   0  11 3105.29   66.49
  -4   0  11    4.00    3.90
  -4   0  11    3.30    4.10
   4   0 -11   -0.20    4.30
   3   0 -11 1907.91   49.60
  -3   0  11 2072.69   48.40
  -3   0  11 2073.89   47.60
   2   0 -11    2.30    4.50
  -2   0  11    0.30    3.40
  -2   0  11   -2.20    3.50
  -1   0  11 4178.58   80.09
   1   0 -11 3994.60   86.09
  -1   0  11 4059.09   84.79
   0   0  11    7.20    3.30
   0   0 -11    3.20    4.90
   0   0  11    7.60    5.00
  -1   0 -11 1701.43   38.80
  -1   0 -11 1724.33   46.80
  -2   0 -11    3.40    5.30
  -2   0 -11    0.30    3.20
   2   0  11   -1.40    4.30
   3   0  11  548.25   22.90
  -3   0 -11  565.24   24.50
   4   0  11   -4.30    4.20
  -4   0 -11   -9.00    4.60
  -5   0 -11  361.16   20.70
   5   0  11  365.56   19.30
   6   0  11    0.50    5.30
  -6   0 -11    5.40    6.40
  -7   0 -11 1063.79   37.60
   7   0  11 1101.69   36.30
   8  -1 -11 1148.29   38.40
  -8  -1  11 1177.28   41.40
   8   1 -11 1145.89   39.80
  -8   1  11 1134.59   41.10
  -7  -1  11   -0.30    5.20
   7  -1 -11    6.10    5.70
  -7   1  11   -5.70    5.50
   7   1 -11   -1.80    4.80
  -6  -1  11  957.60   32.40
  -6  -1  11  909.51   29.00
   6  -1 -11  898.21   31.90
   6   1 -11  866.31   29.70
  -6   1  11  943.31   33.00
   6   1 -11  933.81   31.70
   5  -1 -11    1.70    4.90
  -5  -1  11   -2.90    4.30
  -5  -1  11    6.70    4.50
   5   1 -11    2.50    4.30
  -5   1  11   -2.80    4.20
   5   1 -11    4.40    4.70
  -5   1  11    1.60    3.60
  -4  -1  11 1711.83   43.30
   4  -1 -11 1644.44   45.60
  -4  -1  11 1783.82   43.10
   4   1 -11 1685.23   42.40
   4   1 -11 1670.23   44.30
  -4   1  11 1688.63   41.60
  -4   1  11 1687.43   44.30
  -3  -1  11  438.76   18.90
   3  -1 -11  417.06   20.00
  -3  -1  11  457.95   19.10
   3   1 -11  438.56   19.70
  -3   1  11  415.36   18.20
   3   1 -11  424.36   17.00
  -3   1  11  445.36   18.20
  -2  -1  11 1133.89   33.80
   2  -1 -11 1193.88   35.70
  -2   1  11 1172.18   33.40
  -2   1  11 1225.38   32.90
   2   1 -11 1180.18   30.60
   2   1 -11 1174.18   35.00
   1  -1 -11  311.47   17.00
  -1  -1  11  319.17   16.20
  -1   1  11  316.97   16.10
   1   1 -11  337.37   17.80
   1   1 -11  301.87   13.30
  -1   1  11  306.77   14.70
   0  -1  11 2053.99   51.39
   0  -1 -11 2095.99   52.89
   0  -1 -11 2153.78   48.30
   0   1 -11 2209.38   54.29
   0   1 -11 2110.59   45.80
   0   1  11 2065.69   51.09
  -1  -1 -11   13.30    6.10
   1  -1  11    7.80    5.10
   1  -1  11    2.60    2.90
  -1  -1 -11   11.60    4.50
  -1   1 -11    6.40    4.70
   1   1  11   11.80    5.50
   2  -1  11 1850.21   42.50
  -2  -1 -11 1819.62   44.20
   2  -1  11 1882.01   48.60
  -2  -1 -11 1847.82   49.80
  -2   1 -11 1833.32   50.09
   2   1  11 1929.91   48.80
   3  -1  11   67.99    8.00
  -3  -1 -11   74.99   10.70
   3  -1  11   72.49   10.00
  -3  -1 -11   44.10    7.40
  -3   1 -11   68.69   10.90
   3   1  11   70.29   10.30
   4  -1  11  784.52   25.40
  -4  -1 -11  807.42   26.70
  -4  -1 -11  819.42   30.70
   4  -1  11  865.51   29.80
  -4   1 -11  808.32   30.80
   4   1  11  766.52   28.70
  -5  -1 -11  148.49   13.80
   5  -1  11  178.18   14.20
   5  -1  11  161.38   12.80
  -5  -1 -11  162.08   16.30
   5   1  11  188.28   16.70
  -5   1 -11  127.99   14.20
  -6  -1 -11 1337.27   39.90
   6  -1  11 1344.87   40.60
  -6  -1 -11 1393.96   42.70
  -6   1 -11 1339.37   43.40
   6   1  11 1321.57   40.80
   7  -1  11    3.60    5.90
  -7   1 -11    2.40    6.50
   7   1  11    0.20    5.70
   7  -2 -11  718.33   29.60
  -7  -2  11  692.33   26.10
   7   2 -11  708.93   29.20
  -7   2  11  665.23   29.60
   6  -2 -11   10.20    6.60
  -6  -2  11   16.40    6.20
   6   2 -11   20.00    7.30
  -6   2  11   21.60    7.70
  -5  -2  11  272.97   15.90
   5  -2 -11  309.57   18.50
   5   2 -11  310.57   17.40
   5   2 -11  308.47   16.50
  -5   2  11  277.47   17.20
   4  -2 -11    3.60    5.40
  -4  -2  11    5.80    4.40
   4   2 -11   -2.20    4.20
  -4   2  11   -5.40    2.70
   4   2 -11    4.10    4.30
  -4   2  11   -2.00    4.40
   3  -2 -11 1614.94   44.80
  -3  -2  11 1385.76   40.70
  -3   2  11 1622.14   43.00
  -3   2  11 1620.54   40.60
   3   2 -11 1623.34   42.70
   3   2 -11 1685.73   41.40
   2  -2 -11   46.40    8.30
  -2  -2  11   52.59    8.30
   2   2 -11   61.39    9.20
  -2   2  11   55.19    8.20
   2   2 -11   61.99    8.10
  -2   2  11   63.49    8.60
   1  -2 -11  714.53   27.20
  -1  -2  11  803.12   27.10
  -1   2  11  784.72   25.90
  -1   2  11  752.02   26.00
   1   2 -11  743.03   27.50
   1   2 -11  787.82   24.50
   0  -2 -11   86.79    9.70
   0  -2  11   67.09    9.10
   0  -2 -11   62.89    9.40
   0   2 -11   54.89    7.60
   0   2 -11   72.09   10.40
   0   2  11   53.49    8.30
   1  -2  11 1883.01   48.90
   1  -2  11 1919.01   45.10
  -1  -2 -11 1903.41   50.19
  -1  -2 -11 1875.41   46.90
  -1   2 -11 1955.50   51.49
   1   2  11 1947.71   49.20
  -2  -2 -11   24.40    6.90
   2  -2  11   32.10    7.50
   2  -2  11   23.90    5.70
  -2  -2 -11   42.20    7.50
  -2   2 -11   32.20    8.30
   2   2  11   42.90    8.10
  -3  -2 -11 2404.76   59.39
   3  -2  11 2326.67   57.99
  -3  -2 -11 2323.37   56.49
   3  -2  11 2356.96   54.79
  -3   2 -11 2407.56   61.09
   3   2  11 2357.36   58.59
   4  -2  11   31.00    7.00
  -4  -2 -11   23.40    7.30
  -4  -2 -11   42.00    8.40
   4  -2  11   28.40    7.80
   4   2  11   29.10    7.40
  -4   2 -11   38.00    9.00
  -5  -2 -11 1503.45   44.70
   5  -2  11 1493.45   43.30
   5  -2  11 1522.25   42.10
  -5  -2 -11 1500.05   43.60
   5   2  11 1463.15   43.80
  -5   2 -11 1473.45   46.00
  -6  -2 -11   24.70    8.10
   6  -2  11   12.70    6.50
   6  -2  11   24.70    7.50
  -6   2 -11   33.40    9.70
   6   2  11   20.40    7.40
   7  -2  11 1341.87   42.40
  -7  -2 -11 1332.97   43.30
  -7   2 -11 1307.87   45.00
   7   2  11 1361.56   43.20
   7  -3 -11    3.00    6.50
  -7  -3  11    6.50    6.30
  -7   3  11    6.30    6.90
   7   3 -11   17.60    7.60
  -6  -3  11 1278.57   39.20
   6  -3 -11 1281.07   42.60
   6   3 -11 1351.46   41.70
  -6   3  11 1242.58   41.70
   5  -3 -11   23.90    8.00
  -5  -3  11   13.50    5.90
  -5   3  11    8.50    6.60
   5   3 -11    4.90    5.70
   4  -3 -11  914.91   32.90
  -4  -3  11  922.81   31.30
   4   3 -11  875.61   29.00
  -4   3  11  949.80   32.60
   4   3 -11  939.01   31.40
  -3  -3  11    2.50    4.70
   3  -3 -11   -1.10    5.00
   3   3 -11   -0.90    4.30
  -3   3  11    4.90    4.40
   3   3 -11    3.60    4.60
  -3   3  11   -0.70    4.50
  -2  -3  11 1458.35   41.70
   2  -3 -11 1445.16   43.60
   2   3 -11 1532.65   41.20
  -2   3  11 1481.45   40.10
   2   3 -11 1617.44   43.00
  -2   3  11 1564.54   43.00
   1  -3 -11  288.77   17.40
  -1  -3  11  311.27   17.10
   1   3 -11  296.27   17.30
   1   3 -11  315.47   16.40
  -1   3  11  274.17   15.80
   0  -3  11 1357.86   40.20
   0  -3 -11 1436.26   40.50
   0  -3 -11 1468.55   42.20
   0   3  11 1403.36   40.30
   0   3 -11 1451.35   42.10
  -1  -3 -11  214.18   14.90
  -1  -3 -11  191.28   13.80
   1  -3  11  200.88   12.90
   1  -3  11  183.68   13.50
   1   3  11  177.58   13.60
  -1   3 -11  167.08   15.30
  -2  -3 -11 1172.38   36.00
   2  -3  11 1106.59   35.80
   2  -3  11 1186.68   34.60
  -2  -3 -11 1137.19   36.40
   2   3  11 1198.58   36.70
  -2   3 -11 1077.29   37.20
  -3  -3 -11  129.69   13.40
   3  -3  11  169.68   12.90
   3  -3  11  132.39   13.50
  -3  -3 -11  170.68   15.80
   3   3  11  187.88   16.80
  -3   3 -11  140.69   15.00
  -4  -3 -11 2182.48   58.19
   4  -3  11 2357.16   57.69
   4  -3  11 2291.57   57.99
  -4  -3 -11 2223.08   58.09
  -4   3 -11 2408.86   62.49
   4   3  11 2301.87   59.49
   5  -3  11   60.69   10.00
  -5  -3 -11   62.29   10.80
   5  -3  11   66.39   10.70
  -5   3 -11   71.69   12.20
   5   3  11   50.79    9.90
  -6  -3 -11 1444.16   45.30
   6  -3  11 1398.56   43.50
  -6   3 -11 1324.47   45.40
   6   3  11 1315.67   43.70
  -6  -4  11   -0.10    6.00
   6  -4 -11    2.40    6.20
  -6   4  11   -2.60    6.10
   6   4 -11    9.60    7.30
  -5  -4  11 2062.39   55.49
   5  -4 -11 2093.69   58.69
  -5   4  11 2131.89   58.59
   5   4 -11 2125.49   56.79
   4  -4 -11    2.90    6.40
  -4  -4  11   19.20    7.00
   4   4 -11    1.40    5.60
  -4   4  11   12.40    6.90
   3  -4 -11 1173.08   39.30
  -3  -4  11 1225.28   38.20
  -3   4  11 1227.58   36.30
   3   4 -11 1219.38   38.00
  -3   4  11 1208.18   39.00
   3   4 -11 1199.98   36.30
   2  -4 -11    0.60    5.40
  -2  -4  11   11.70    6.30
  -2   4  11    7.00    5.40
   2   4 -11    5.20    5.40
   2   4 -11    8.20    5.90
  -2   4  11    6.70    5.10
   1  -4 -11 1626.14   46.10
  -1  -4  11 1628.44   45.70
   1  -4 -11 1609.04   46.50
   1   4 -11 1676.93   45.20
   1   4 -11 1633.64   45.90
  -1   4  11 1581.74   44.00
   0  -4  11  130.79   13.90
   0  -4 -11   91.79   12.00
   0  -4 -11  113.59   13.00
   0   4 -11   85.69   12.00
   0   4  11  107.29   12.10
   1  -4  11  863.71   30.40
   1  -4  11  842.32   30.70
  -1  -4 -11  922.61   32.30
  -1  -4 -11  855.11   31.60
   1   4  11  895.41   31.50
  -1   4 -11  855.71   32.40
   2  -4  11   -3.80    4.20
   2  -4  11   -0.80    5.00
  -2  -4 -11   12.50    6.10
  -2  -4 -11   -4.40    5.30
  -2   4 -11   -8.00    4.80
   2   4  11   -2.40    4.50
  -3  -4 -11 1112.99   37.50
   3  -4  11 1034.10   35.20
  -3  -4 -11 1059.59   35.60
   3  -4  11 1015.40   35.20
  -3   4 -11 1047.20   38.00
   3   4  11 1061.49   36.30
  -4  -4 -11   -0.90    6.20
   4  -4  11    7.10    5.90
   4  -4  11   -1.20    4.80
   4   4  11   -0.60    5.30
  -4   4 -11   -0.50    6.80
  -5  -4 -11 1501.25   46.90
   5  -4  11 1284.27   41.40
   5  -4  11 1355.36   43.80
  -5   4 -11 1358.56   45.90
   5   4  11 1401.16   45.10
  -6  -4 -11   41.90   10.90
   6  -4  11   56.39   11.10
   6   4  11   51.09   11.00
   5  -5 -11   -4.20    6.60
  -5  -5  11   -2.50    5.90
  -5   5  11    9.30    7.30
   5   5 -11    9.80    7.60
   4  -5 -11 1754.62   52.79
  -4  -5  11 1714.93   50.19
  -4   5  11 1749.53   52.59
   4   5 -11 1743.43   51.39
  -3  -5  11    8.00    6.10
   3  -5 -11    9.80    6.90
  -3   5  11   19.00    7.20
   3   5 -11    7.50    6.60
   2  -5 -11 1753.22   50.49
  -2  -5  11 1682.63   48.40
  -2   5  11 1626.14   45.10
   2   5 -11 1702.33   46.90
   2   5 -11 1663.63   48.60
  -2   5  11 1620.44   48.90
   1  -5 -11    9.40    7.00
  -1  -5  11   13.70    7.10
   1  -5 -11   14.10    6.70
  -1   5  11   14.60    6.50
   1   5 -11    8.50    6.60
   1   5 -11   27.90    7.90
   0  -5  11  772.12   30.30
   0  -5 -11  735.73   30.10
   0  -5 -11  716.33   30.20
   0   5  11  751.52   29.30
   0   5 -11  779.32   30.50
   0   5 -11  718.33   29.70
   1  -5  11   72.59   11.70
   1  -5  11   67.19   10.60
  -1  -5 -11   64.39   11.60
  -1  -5 -11   67.79   11.20
  -1   5 -11   72.49   11.90
   1   5  11   76.59   11.20
   2  -5  11 1075.19   36.60
  -2  -5 -11 1091.49   36.80
  -2  -5 -11 1047.40   38.30
   2  -5  11 1036.60   36.80
  -2   5 -11 1082.89   39.00
   2   5  11 1111.59   38.00
   3  -5  11   98.69   13.30
   3  -5  11  123.29   14.10
  -3  -5 -11  120.29   16.00
   3   5  11  100.39   13.50
  -3   5 -11   58.49   11.70
   4  -5  11  723.43   29.10
   4  -5  11  686.43   30.90
  -4  -5 -11  692.43   32.00
  -4   5 -11  759.62   33.30
   4   5  11  662.23   30.50
  -3  -6  11  730.73   31.20
   3  -6 -11  723.83   32.60
   3   6 -11  721.93   31.80
  -3   6  11  633.64   30.60
  -2  -6  11   21.30    7.90
   2  -6 -11   12.90    7.70
  -2   6  11   16.70    8.30
   2   6 -11   10.90    7.90
   1  -6 -11  676.23   30.60
  -1  -6  11  777.42   31.40
   1   6 -11  697.13   31.00
  -1   6  11  773.32   30.00
   0  -6 -11  123.99   15.90
   0  -6 -11  112.79   14.20
   0  -6  11  102.99   13.60
   0   6 -11   91.89   13.10
   0   6 -11  101.69   13.90
   0   6  11   95.89   12.80
   1  -6  11  999.30   36.40
  -1  -6 -11  973.70   36.20
   1  -6  11 1030.50   37.90
  -1  -6 -11  994.70   38.60
   1   6  11  989.60   36.40
  -1   6 -11  983.00   37.70
  -2  -6 -11    0.90    7.70
   2  -6  11   10.20    7.30
   2  -6  11   13.10    7.60
   2   6  11   20.00    7.80
  -2   6 -11   27.90    9.60
   7   0 -12    0.20    5.50
  -7   0  12   -2.30    6.00
  -6   0  12 1554.64   45.30
   6   0 -12 1546.95   44.70
   5   0 -12    0.80    5.20
  -5   0  12    2.10    4.90
  -5   0  12    1.40    4.40
  -4   0  12  544.55   21.70
  -4   0  12  505.45   21.40
   4   0 -12  521.65   23.30
   3   0 -12    5.90    5.40
  -3   0  12    0.30    4.10
  -3   0  12    3.10    4.10
  -2   0  12  977.50   31.30
  -2   0  12 1058.79   29.40
   2   0 -12  995.50   33.50
  -1   0  12   -2.20    4.00
   1   0 -12    6.50    5.30
   0   0  12 3444.26   75.49
   0   0 -12 3314.47   77.09
   1   0  12    3.20    4.60
  -1   0 -12   -3.70    3.80
   2   0  12 2869.91   67.99
  -2   0 -12 2983.00   71.19
  -3   0 -12  -12.60    4.50
   3   0  12   -0.90    5.10
  -4   0 -12 1889.31   53.19
   4   0  12 1828.82   50.09
   5   0  12   -6.20    5.20
  -5   0 -12    5.90    6.90
  -6   0 -12 1783.92   52.19
   6   0  12 1632.04   48.20
  -7   0 -12   -3.10    6.70
   7   0  12    5.40    6.40
   7  -1 -12 1429.66   44.20
  -7  -1  12 1463.15   45.50
   7   1 -12 1444.16   44.70
  -7   1  12 1323.97   44.30
  -6  -1  12  150.38   13.60
   6  -1 -12  137.69   14.80
  -6  -1  12  152.38   16.70
   6   1 -12  142.89   14.30
  -6   1  12  158.18   15.70
   6   1 -12  164.38   15.60
  -5  -1  12 1267.47   37.00
   5  -1 -12 1324.27   40.70
  -5   1  12 1285.57   39.30
   5   1 -12 1278.47   40.80
   5   1 -12 1234.08   38.10
  -5   1  12 1318.47   36.20
   4  -1 -12   24.40    7.80
  -4  -1  12   22.40    6.40
   4   1 -12   24.60    6.80
  -4   1  12   36.60    7.00
  -4   1  12   36.70    7.90
  -3  -1  12 1058.39   33.00
   3  -1 -12 1069.19   35.20
  -3   1  12 1056.89   32.40
   3   1 -12 1090.09   34.60
  -3   1  12 1068.99   32.10
   2  -1 -12   -5.20    4.50
  -2  -1  12   -0.60    3.90
  -2   1  12   -0.10    3.90
   2   1 -12    0.70    4.40
  -2   1  12   -9.00    3.10
  -1  -1  12 1673.13   44.80
   1  -1 -12 1642.34   46.30
  -1   1  12 1666.73   41.70
  -1   1  12 1662.03   44.20
   1   1 -12 1648.83   46.50
   0  -1 -12    7.70    5.00
   0  -1  12   -5.00    3.90
   0   1 -12    7.30    5.70
   0   1  12    1.80    4.80
   1  -1  12 1741.03   47.10
  -1  -1 -12 1692.93   48.20
  -1  -1 -12 1706.73   42.40
  -1   1 -12 1734.73   49.10
   1   1  12 1747.33   46.90
  -2  -1 -12   13.20    5.00
  -2  -1 -12   23.80    7.50
   2  -1  12   11.40    6.50
  -2   1 -12    9.80    6.10
   2   1  12   21.50    7.00
  -3  -1 -12 1392.86   43.80
   3  -1  12 1396.16   42.00
  -3  -1 -12 1462.25   38.80
  -3   1 -12 1445.46   44.70
   3   1  12 1473.95   42.50
   4  -1  12   -7.00    4.50
  -4  -1 -12    5.40    5.00
  -4  -1 -12   -2.00    5.00
  -4   1 -12    3.90    6.10
   4   1  12    0.80    5.10
   5  -1  12 1167.58   37.20
  -5  -1 -12 1040.20   37.50
   5   1  12 1034.00   36.10
  -5   1 -12 1065.09   38.20
  -6  -1 -12   58.99   11.00
   6  -1  12   62.99   10.90
  -6   1 -12   72.49   12.40
   6   1  12   61.19   11.50
   7  -2 -12   10.70    7.50
  -7  -2  12    4.20    5.70
   7   2 -12    6.80    6.80
  -7   2  12    3.80    6.60
  -6  -2  12 1082.79   34.50
   6  -2 -12 1056.49   37.50
  -6   2  12 1065.69   37.50
   6   2 -12 1045.30   36.00
   5  -2 -12  145.09   15.80
  -5  -2  12  142.89   14.10
   5   2 -12  137.59   13.80
  -5   2  12  134.49   14.30
   5   2 -12  140.19   13.70
   4  -2 -12 1980.40   53.89
  -4  -2  12 1917.01   50.59
   4   2 -12 2045.30   50.59
  -4   2  12 1971.30   48.00
   4   2 -12 1971.00   50.99
  -4   2  12 2030.90   52.49
  -3  -2  12  112.59   12.00
   3  -2 -12  141.59   15.20
   3   2 -12  136.59   12.70
  -3   2  12  148.59   14.00
  -3   2  12  147.39   11.70
   3   2 -12  157.38   14.50
  -2  -2  12 1259.67   37.30
   2  -2 -12 1170.58   38.30
  -2   2  12 1228.18   35.90
   2   2 -12 1142.69   33.30
   2   2 -12 1208.88   37.60
  -2   2  12 1161.78   34.80
  -1  -2  12    9.10    5.20
   1  -2 -12    3.90    5.80
  -1   2  12   -0.60    4.00
   1   2 -12   15.80    6.70
   1   2 -12    3.60    4.30
  -1   2  12    9.30    5.30
   0  -2  12 1283.67   39.20
   0  -2 -12 1313.97   40.40
   0  -2 -12 1352.16   37.10
   0   2  12 1285.87   38.30
   0   2 -12 1348.17   41.10
   0   2 -12 1254.97   34.50
  -1  -2 -12   21.20    6.90
   1  -2  12   19.30    6.70
  -1  -2 -12   27.00    6.90
   1  -2  12   20.60    5.40
  -1   2 -12   38.90    9.20
   1   2  12   29.10    7.50
   2  -2  12  615.74   22.30
  -2  -2 -12  638.64   24.40
  -2  -2 -12  667.43   27.40
   2  -2  12  608.24   25.60
  -2   2 -12  616.74   27.40
   2   2  12  609.04   25.60
   3  -2  12   25.50    7.70
  -3  -2 -12   19.30    6.60
   3  -2  12   30.50    6.80
  -3  -2 -12   20.10    7.60
   3   2  12   19.50    7.00
  -3   2 -12   17.80    7.50
  -4  -2 -12  880.11   30.60
  -4  -2 -12  805.62   31.90
   4  -2  12  848.92   31.60
   4  -2  12  831.32   28.50
   4   2  12  841.62   31.90
  -4   2 -12  846.72   33.30
  -5  -2 -12   44.10    9.30
   5  -2  12   39.60    8.90
  -5  -2 -12   46.00   10.00
   5  -2  12   53.39    9.30
   5   2  12   27.10    8.80
  -5   2 -12   38.00   10.10
  -6  -2 -12  630.74   28.10
   6  -2  12  725.63   29.10
   6   2  12  655.73   29.20
  -6   2 -12  692.73   31.40
  -6  -3  12   59.89   10.30
   6  -3 -12   64.89   11.20
   6   3 -12   51.59   10.60
  -6   3  12   60.99   11.60
  -5  -3  12 1180.88   37.80
   5  -3 -12 1176.68   40.50
  -5   3  12 1163.08   39.30
   5   3 -12 1198.48   38.40
   4  -3 -12    0.00    4.80
  -4  -3  12   -4.30    4.60
   4   3 -12    4.10    5.20
  -4   3  12    7.70    6.00
   4   3 -12    5.30    5.00
   3  -3 -12 1313.97   42.30
  -3  -3  12 1350.16   40.70
   3   3 -12 1365.36   39.70
   3   3 -12 1374.06   40.30
  -3   3  12 1387.06   38.20
  -3   3  12 1377.76   41.20
  -2  -3  12   47.30    8.70
   2  -3 -12   37.20    8.60
   2   3 -12   48.40    8.70
  -2   3  12   34.80    8.10
  -2   3  12   63.09    9.50
   2   3 -12   49.30    9.20
  -1  -3  12 1183.78   37.30
   1  -3 -12 1204.08   38.70
   1   3 -12 1164.98   38.00
  -1   3  12 1182.98   36.10
  -1   3  12 1202.18   37.00
   1   3 -12 1137.59   34.70
   0  -3 -12  213.28   15.00
   0  -3 -12  195.68   15.80
   0  -3  12  241.88   16.40
   0   3 -12  213.28   14.20
   0   3  12  223.98   15.30
   0   3 -12  195.38   17.80
   1  -3  12  577.54   25.10
  -1  -3 -12  594.24   24.80
   1  -3  12  572.34   22.90
  -1  -3 -12  577.84   26.20
   1   3  12  649.04   26.30
  -1   3 -12  624.44   27.20
  -2  -3 -12  114.79   13.40
  -2  -3 -12  103.19   12.50
   2  -3  12  102.99   12.90
   2  -3  12   98.59   11.50
   2   3  12   74.39   10.80
  -2   3 -12   98.79   13.50
   3  -3  12 1034.80   33.70
  -3  -3 -12 1020.10   35.20
  -3  -3 -12 1002.30   36.00
   3  -3  12 1007.10   35.50
  -3   3 -12 1049.40   37.80
   3   3  12 1097.89   36.60
  -4  -3 -12   37.30    9.00
  -4  -3 -12   53.39   10.50
   4  -3  12   39.40    8.50
   4  -3  12   49.50   10.10
  -4   3 -12   18.00    8.10
   4   3  12   45.20    9.50
   5  -3  12 1015.00   36.20
  -5  -3 -12 1095.69   37.80
   5  -3  12 1041.20   35.80
   5   3  12 1033.20   37.30
  -5   3 -12 1009.60   38.70
   6  -3  12   58.89   10.70
  -6  -3 -12   20.30    9.00
  -6   3 -12   41.80   11.70
   6   3  12   43.80   10.40
   5  -4 -12   33.20   10.60
  -5  -4  12   27.60    8.50
  -5   4  12   18.80    8.60
   5   4 -12   11.40    7.70
  -4  -4  12 1064.79   36.30
   4  -4 -12 1001.30   37.80
   4   4 -12 1012.70   35.60
  -4   4  12 1034.50   37.50
   3  -4 -12  226.68   20.20
  -3  -4  12  254.97   17.50
   3   4 -12  263.37   17.60
   3   4 -12  237.08   16.50
  -3   4  12  244.98   17.80
  -2  -4  12 1887.61   52.09
   2  -4 -12 1912.61   53.79
   2   4 -12 1910.21   51.09
  -2   4  12 1804.02   48.40
   2   4 -12 1841.52   50.59
  -2   4  12 1807.92   51.69
   1  -4 -12   -7.40    5.10
  -1  -4  12    0.70    5.20
  -1   4  12   12.70    6.10
   1   4 -12   -0.80    5.60
   1   4 -12   -8.00    4.40
   0  -4  12  922.51   33.30
   0  -4 -12  876.01   32.60
   0  -4 -12  911.41   33.90
   0   4 -12  891.31   31.60
   0   4  12  954.00   33.00
   0   4 -12  855.81   33.10
  -1  -4 -12   18.40    6.90
  -1  -4 -12   18.00    7.70
   1  -4  12   18.50    6.90
   1  -4  12   19.70    7.50
   1   4  12    6.90    6.00
  -1   4 -12    6.60    6.50
  -2  -4 -12 1564.34   47.60
   2  -4  12 1597.64   47.20
  -2  -4 -12 1602.44   48.00
   2  -4  12 1563.94   45.60
  -2   4 -12 1659.23   50.09
   2   4  12 1634.84   47.80
  -3  -4 -12   -1.10    6.10
   3  -4  12    3.00    6.30
   3  -4  12    6.30    5.50
  -3  -4 -12    3.10    6.20
   3   4  12    5.60    6.70
  -3   4 -12   13.40    7.10
  -4  -4 -12 1234.28   42.40
   4  -4  12 1230.18   41.10
   4  -4  12 1279.27   41.50
  -4   4 -12 1270.97   44.40
   4   4  12 1254.67   42.60
  -5  -4 -12  101.69   14.80
   5  -4  12  119.89   14.40
   5  -4  12  108.79   14.20
  -5   4 -12  104.59   15.90
   5   4  12  101.39   14.60
  -4  -5  12   17.30    8.20
   4  -5 -12   11.00    7.80
   4   5 -12   17.30    8.60
  -4   5  12   14.10    8.10
  -3  -5  12 1725.53   51.29
   3  -5 -12 1789.02   53.79
  -3   5  12 1761.02   53.09
   3   5 -12 1753.62   51.69
  -2  -5  12   41.50    9.50
   2  -5 -12   60.99   11.60
   2   5 -12   57.39   10.40
   2   5 -12   60.59   11.00
  -2   5  12   68.39   10.50
  -2   5  12   83.69   13.20
   1  -5 -12 1248.88   42.80
  -1  -5  12 1277.27   42.00
   1   5 -12 1348.77   42.60
  -1   5  12 1259.07   40.20
   1   5 -12 1299.87   42.20
   0  -5 -12   22.90    8.60
   0  -5  12   33.60    8.70
   0  -5 -12   28.90    8.90
   0   5 -12   12.30    7.20
   0   5  12   29.70    8.20
   0   5 -12   31.60    9.10
   1  -5  12 2033.40   56.09
  -1  -5 -12 1991.20   57.59
   1  -5  12 2062.29   56.99
  -1  -5 -12 2075.39   57.29
  -1   5 -12 2020.50   57.79
   1   5  12 1997.90   55.89
  -2  -5 -12    6.50    7.50
   2  -5  12   25.80    8.30
  -2  -5 -12   19.80    8.30
   2  -5  12   15.70    7.90
  -2   5 -12   19.60    9.00
   2   5  12   22.40    8.90
   3  -5  12 1347.47   43.40
   3  -5  12 1281.37   43.10
  -3  -5 -12 1268.27   44.80
  -3   5 -12 1360.46   46.80
   3   5  12 1305.97   44.00
   6   0 -13    0.60    5.80
  -6   0  13   -4.60    5.20
  -5   0  13  711.43   27.80
   5   0 -13  682.03   28.50
  -5   0  13  716.23   26.20
  -4   0  13    4.10    4.90
   4   0 -13   -3.50    5.20
  -3   0  13  256.37   15.90
   3   0 -13  272.77   17.80
   2   0 -13    2.90    5.80
  -2   0  13   -2.30    4.20
   1   0 -13  634.64   27.40
  -1   0  13  699.93   26.80
   0   0  13   -2.30    5.00
   0   0 -13    5.70    6.00
   1   0  13  398.66   20.80
  -1   0 -13  369.66   21.80
  -2   0 -13    5.80    6.50
   2   0  13    5.20    5.60
  -3   0 -13 1596.14   49.40
   3   0  13 1639.44   47.20
  -4   0 -13   -1.60    5.50
   4   0  13   10.60    6.70
   5   0  13 1325.87   42.50
  -5   0 -13 1364.86   45.30
   6   0  13    0.40    6.00
  -6   0 -13   13.60    8.10
  -6  -1  13  942.11   31.90
   6  -1 -13  937.91   35.10
   6   1 -13  918.71   33.40
  -6   1  13  876.11   33.90
   5  -1 -13    9.80    6.50
  -5  -1  13    1.50    5.10
  -5   1  13    0.80    5.10
   5   1 -13   -1.10    5.00
   4  -1 -13 1317.77   42.60
  -4  -1  13 1379.86   40.20
  -4   1  13 1487.65   41.30
  -4   1  13 1365.46   38.90
   4   1 -13 1342.07   41.70
  -3  -1  13  171.08   15.50
   3  -1 -13  178.88   17.20
   3   1 -13  187.78   15.10
  -3   1  13  212.28   14.50
  -3   1  13  207.78   14.40
   2  -1 -13 1384.06   43.50
  -2  -1  13 1409.96   41.80
  -2   1  13 1492.45   40.00
  -2   1  13 1439.36   41.30
   2   1 -13 1478.45   43.70
   1  -1 -13   18.40    7.20
  -1  -1  13    3.40    5.70
   1   1 -13   16.80    7.10
  -1   1  13   18.80    5.80
  -1   1  13   11.80    5.80
   0  -1  13 1435.36   43.20
   0  -1 -13 1469.35   45.30
   0   1  13 1546.75   39.80
   0   1  13 1538.35   43.80
   0   1 -13 1532.65   46.40
  -1  -1 -13  218.98   19.40
  -1  -1 -13  164.78   11.90
   1  -1  13  166.38   15.90
  -1   1 -13  209.08   19.00
   1   1  13  194.88   15.10
  -2  -1 -13 1240.18   41.30
   2  -1  13 1225.98   39.50
   2   1  13 1180.78   38.50
  -2   1 -13 1174.48   40.70
  -3  -1 -13    5.00    6.40
   3  -1  13   -3.00    5.10
  -3   1 -13    3.30    6.40
   3   1  13    6.70    6.10
   4  -1  13  978.00   35.60
  -4  -1 -13  971.60   37.40
  -4   1 -13 1006.20   38.30
   4   1  13 1082.99   36.50
   5  -1  13   22.00    8.40
  -5  -1 -13   44.60   10.50
   5   1  13   51.49   10.20
  -5   1 -13   32.90   10.00
   6  -1  13  959.80   35.10
  -6  -1 -13  907.31   36.60
   6   1  13  927.11   34.90
  -6   1 -13  866.41   36.30
   6  -2 -13   84.59   13.20
  -6  -2  13  109.09   13.40
  -6   2  13  121.49   15.30
   6   2 -13  114.89   14.70
  -5  -2  13 1092.59   36.30
   5  -2 -13 1073.79   38.60
  -5   2  13 1148.39   38.20
   5   2 -13 1088.19   36.10
   5   2 -13 1118.39   39.40
   4  -2 -13   10.70    6.90
  -4  -2  13    4.70    5.30
  -4   2  13    0.10    5.40
   4   2 -13   -4.20    4.70
  -4   2  13    0.70    4.20
   3  -2 -13 2591.94   66.29
  -3  -2  13 2563.34   63.39
  -3   2  13 2660.33   63.79
   3   2 -13 2540.55   63.49
  -3   2  13 2685.33   62.19
   2  -2 -13   -2.50    5.70
  -2  -2  13    1.50    5.30
   2   2 -13    9.20    6.00
  -2   2  13    3.30    4.60
  -2   2  13   -6.60    3.70
  -1  -2  13 2158.28   56.09
   1  -2 -13 2100.19   57.29
  -1   2  13 2082.59   54.39
   1   2 -13 2256.77   58.59
  -1   2  13 2148.49   53.69
   0  -2  13    3.00    4.80
   0  -2 -13    4.70    5.60
   0   2 -13    2.50    6.10
   0   2  13    6.30    5.20
  -1  -2 -13 2029.60   56.39
   1  -2  13 2007.80   54.79
  -1  -2 -13 2078.19   51.99
  -1   2 -13 2079.99   57.39
   1   2  13 2092.59   54.59
   2  -2  13  195.38   17.60
  -2  -2 -13  167.58   13.50
  -2  -2 -13  218.98   19.50
   2   2  13  197.98   15.70
  -2   2 -13  222.78   20.10
  -3  -2 -13 1441.96   41.90
   3  -2  13 1472.25   45.10
  -3  -2 -13 1500.65   46.60
  -3   2 -13 1401.86   46.20
   3   2  13 1489.75   45.00
  -4  -2 -13    4.40    5.60
  -4  -2 -13    7.10    6.40
   4  -2  13   -3.80    5.30
   4   2  13    0.30    6.00
  -4   2 -13    6.10    7.50
   5  -2  13  796.42   31.90
  -5  -2 -13  733.03   29.70
  -5  -2 -13  763.72   32.40
  -5   2 -13  790.12   33.80
   5   2  13  700.83   30.60
   5  -3 -13   63.99   11.50
  -5  -3  13   50.89   10.00
  -5   3  13   47.70   11.00
   5   3 -13   42.80    9.90
   4  -3 -13 1053.59   39.20
  -4  -3  13 1061.09   36.70
   4   3 -13 1141.59   36.70
   4   3 -13 1122.59   36.50
  -4   3  13 1143.59   38.80
  -3  -3  13   84.09   11.70
   3  -3 -13   67.49   11.30
  -3   3  13   78.29   12.00
   3   3 -13   89.59   12.00
   3   3 -13  102.99   12.80
  -3   3  13   87.39   11.30
   2  -3 -13 1115.09   39.90
  -2  -3  13 1211.18   38.90
   2   3 -13 1224.78   39.50
   2   3 -13 1181.78   36.40
  -2   3  13 1176.28   38.00
  -2   3  13 1157.18   36.40
   1  -3 -13   28.40    8.70
  -1  -3  13   30.20    8.40
   1   3 -13   22.70    6.80
  -1   3  13   37.30    8.20
   1   3 -13   23.20    8.50
  -1   3  13   30.40    7.90
   0  -3  13 1178.78   39.20
   0  -3 -13 1141.09   36.80
   0  -3 -13 1184.28   40.40
   0   3 -13 1184.58   40.30
   0   3 -13 1199.68   35.60
   0   3  13 1120.69   37.30
  -1  -3 -13  128.89   14.40
   1  -3  13  136.89   15.60
  -1  -3 -13  145.79   16.00
   1   3  13  151.08   15.40
  -1   3 -13  140.09   15.70
   2  -3  13 1443.56   45.10
   2  -3  13 1444.26   41.20
  -2  -3 -13 1415.96   43.10
  -2  -3 -13 1444.26   46.00
   2   3  13 1441.36   44.70
  -2   3 -13 1530.55   47.50
  -3  -3 -13    8.70    6.90
   3  -3  13   -0.20    5.90
   3  -3  13    2.40    5.20
  -3  -3 -13    2.90    6.20
  -3   3 -13    3.90    6.00
   3   3  13    4.60    6.70
   4  -3  13 1175.38   38.20
   4  -3  13 1180.98   41.00
  -4  -3 -13 1254.77   40.60
  -4  -3 -13 1147.09   40.80
  -4   3 -13 1247.48   43.60
   4   3  13 1217.28   41.70
   5  -3  13   61.49   11.60
  -5  -3 -13   44.00   10.40
  -5   3 -13   46.60   11.70
   5   3  13   44.10   10.70
   4  -4 -13   21.20    8.60
  -4  -4  13   11.40    7.70
   4   4 -13   14.20    7.60
  -4   4  13   25.60    8.90
  -3  -4  13  469.25   24.50
   3  -4 -13  515.15   26.40
   3   4 -13  493.95   24.20
  -3   4  13  483.35   24.90
   3   4 -13  537.85   24.80
   2  -4 -13   -3.80    6.00
  -2  -4  13   -0.30    5.80
  -2   4  13   -5.80    4.40
   2   4 -13   -4.20    5.70
   2   4 -13    0.30    5.60
  -2   4  13    2.40    5.70
   1  -4 -13  562.24   27.90
  -1  -4  13  566.94   26.70
  -1   4  13  575.34   25.70
   1   4 -13  629.34   27.90
   1   4 -13  615.84   26.00
  -1   4  13  540.15   25.90
   0  -4  13   -4.80    5.40
   0  -4 -13   -0.40    6.60
   0  -4 -13   -0.90    5.50
   0   4  13   -0.60    5.60
   0   4 -13    7.40    6.20
   0   4 -13   -6.00    6.70
  -1  -4 -13  835.12   33.80
  -1  -4 -13  786.92   32.30
   1  -4  13  830.02   33.10
   1   4  13  879.31   33.30
  -1   4 -13  853.81   34.30
   2  -4  13   24.80    8.50
  -2  -4 -13   16.90    7.90
  -2  -4 -13   20.20    8.30
   2  -4  13   14.00    6.50
   2   4  13   19.20    7.60
  -2   4 -13   -1.60    6.90
   3  -4  13  762.22   32.40
  -3  -4 -13  778.02   33.20
   3  -4  13  819.52   31.40
  -3  -4 -13  838.02   33.50
   3   4  13  789.42   32.70
  -3   4 -13  755.02   34.10
   2  -5 -13  693.13   31.90
  -2  -5  13  696.23   30.70
  -2   5  13  634.94   30.20
   2   5 -13  638.04   29.40
   1  -5 -13    5.90    7.40
  -1  -5  13    2.70    6.60
  -1   5  13    1.20    6.60
   1   5 -13    2.30    6.80
   1   5 -13    2.60    6.60
  -1   5  13    0.20    5.80
   0  -5  13  817.72   33.80
   0  -5 -13  802.52   34.30
   0  -5 -13  762.22   33.00
   0   5  13  838.72   33.00
   0   5 -13  833.02   32.80
   0   5 -13  792.32   33.70
   1  -5  13   -1.60    6.10
  -1  -5 -13   -6.50    6.30
  -1  -5 -13    2.10    7.30
  -1   5 -13    4.10    7.40
   1   5  13    6.20    6.60
  -5   0  14   -4.20    4.60
   5   0 -14    4.00    6.80
  -4   0  14 2230.88   56.29
   4   0 -14 2160.28   59.09
   3   0 -14    0.60    5.20
  -3   0  14    3.40    5.30
   2   0 -14 1151.08   39.40
  -2   0  14 1102.69   36.40
   1   0 -14   -3.70    5.30
  -1   0  14    0.30    4.90
   0   0  14  765.62   30.00
   0   0 -14  690.63   30.20
  -1   0 -14    9.40    7.10
   1   0  14    0.40    5.50
   2   0  14 1087.69   37.80
  -2   0 -14 1068.99   39.70
   3   0  14    5.90    6.50
  -3   0 -14   19.30    8.50
   4   0  14  486.15   24.90
  -4   0 -14  441.86   25.90
   5   0  14    0.90    6.10
  -5   0 -14   -5.10    6.40
  -5  -1  14  998.90   34.70
   5  -1 -14 1117.09   39.30
  -5   1  14 1037.30   36.70
   5   1 -14 1039.20   36.70
   4  -1 -14   16.00    8.40
  -4  -1  14   24.70    7.70
   4   1 -14   25.60    8.80
  -4   1  14   20.60    7.00
  -4   1  14   19.90    6.60
  -3  -1  14 1307.37   40.90
   3  -1 -14 1339.17   43.70
   3   1 -14 1296.77   42.30
  -3   1  14 1344.67   39.40
  -3   1  14 1312.07   39.70
  -2  -1  14    9.10    6.60
   2  -1 -14   -3.20    6.00
   2   1 -14    8.50    6.40
  -2   1  14    9.90    5.80
   1  -1 -14 1174.18   40.70
  -1  -1  14 1234.18   39.70
  -1   1  14 1260.47   39.60
   1   1 -14 1177.68   40.70
   0  -1 -14   -1.60    5.10
   0  -1  14    3.40    5.90
   0   1 -14    5.70    5.90
   0   1  14    7.60    6.40
   1  -1  14 1207.48   40.30
  -1  -1 -14 1232.58   42.40
  -1   1 -14 1250.57   43.10
   1   1  14 1228.18   40.00
  -2  -1 -14   53.09   11.70
   2  -1  14   58.59   10.50
   2   1  14   59.09   10.40
  -2   1 -14   47.50   10.60
  -3  -1 -14 1308.37   45.50
   3  -1  14 1410.06   44.60
   3   1  14 1321.97   43.00
  -3   1 -14 1343.27   46.10
  -4  -1 -14   88.79   13.90
   4  -1  14   77.69   12.50
  -4   1 -14  107.39   15.30
   4   1  14   67.89   11.60
  -5  -1 -14  924.21   38.00
   5  -1  14  951.50   36.20
   5   1  14  857.01   34.60
  -5   1 -14  911.21   38.10
   5  -2 -14   -7.60    5.50
  -5  -2  14    2.40    5.40
   5   2 -14    6.40    6.60
  -5   2  14   -5.40    5.40
   4  -2 -14  773.52   32.90
  -4  -2  14  712.93   29.50
   4   2 -14  738.73   30.00
  -4   2  14  831.62   31.30
  -4   2  14  726.73   28.30
  -3  -2  14   60.89   10.80
   3  -2 -14   45.10   10.60
  -3   2  14   59.59    9.60
   3   2 -14   33.20    8.80
  -3   2  14   44.10    9.30
   2  -2 -14  759.52   32.60
  -2  -2  14  776.42   30.90
   2   2 -14  807.42   32.00
  -2   2  14  789.42   29.60
  -2   2  14  775.12   28.90
   1  -2 -14   12.70    7.80
  -1  -2  14   16.50    7.30
   1   2 -14   13.10    8.10
  -1   2  14   29.80    7.70
  -1   2  14   16.60    7.00
   0  -2  14 1516.75   46.20
   0  -2 -14 1490.05   47.40
   0   2  14 1422.36   41.30
   0   2 -14 1415.16   46.70
   0   2  14 1451.65   44.10
   1  -2  14   70.99   11.10
  -1  -2 -14   90.89   13.20
  -1  -2 -14   86.79   11.50
   1   2  14  104.09   13.90
  -1   2 -14   75.99   12.40
  -2  -2 -14 1116.99   40.80
  -2  -2 -14 1112.79   35.60
   2  -2  14 1071.69   38.80
  -2   2 -14 1136.99   41.50
   2   2  14 1141.89   38.70
  -3  -2 -14   27.20    9.70
   3  -2  14   42.80    9.90
   3   2  14   51.59   11.00
  -3   2 -14   31.00   10.20
  -4  -2 -14 1526.65   50.19
   4  -2  14 1618.24   49.40
   4   2  14 1551.54   48.80
  -4   2 -14 1604.84   51.99
   4  -3 -14   48.20   11.30
  -4  -3  14   57.79   10.70
   4   3 -14   54.69   10.60
  -4   3  14   52.79   10.80
   3  -3 -14  701.13   31.80
  -3  -3  14  667.23   29.10
   3   3 -14  672.23   29.50
  -3   3  14  736.63   28.20
  -3   3  14  714.63   29.90
  -2  -3  14   20.90    7.70
   2  -3 -14   15.70    8.80
  -2   3  14   13.80    7.20
   2   3 -14   13.20    7.50
  -2   3  14   33.00    8.60
   1  -3 -14  890.11   35.90
  -1  -3  14  909.81   34.70
   1   3 -14  921.51   35.70
  -1   3  14  894.91   33.10
  -1   3  14  931.01   33.40
   0  -3 -14   14.40    8.40
   0  -3  14   40.00   10.20
   0   3 -14   21.30    8.60
   0   3  14   13.70    7.50
  -1  -3 -14 1125.39   41.40
   1  -3  14 1164.18   40.90
  -1  -3 -14 1178.88   38.60
   1   3  14 1188.08   39.90
  -1   3 -14 1211.78   42.90
  -2  -3 -14    1.10    6.10
   2  -3  14    1.10    6.90
  -2  -3 -14   -5.40    5.40
   2   3  14   10.00    7.50
  -2   3 -14    1.20    6.60
  -3  -3 -14 1062.59   37.90
   3  -3  14 1131.39   40.70
  -3  -3 -14 1096.19   40.90
  -3   3 -14 1127.09   42.20
   3   3  14 1132.39   40.10
   2  -4 -14 1326.07   45.90
  -2  -4  14 1296.37   44.00
  -2   4  14 1331.37   41.40
  -2   4  14 1334.87   44.00
   2   4 -14 1339.97   44.30
   2   4 -14 1298.97   42.10
   1  -4 -14  165.38   19.20
  -1  -4  14  138.29   16.10
   1   4 -14  142.29   15.20
  -1   4  14  143.99   16.00
   1   4 -14  117.29   15.30
  -1   4  14  131.59   15.00
   0  -4 -14  986.70   36.80
   0  -4 -14 1027.70   39.90
   0  -4  14 1013.40   38.40
   0   4 -14 1082.79   36.40
   0   4 -14 1020.30   39.00
   0   4  14 1014.30   36.90
  -1  -4 -14   74.49   12.70
  -1  -4 -14   63.49   11.90
   1  -4  14   83.09   13.20
  -1   4 -14   83.69   12.50
   1   4  14   65.09   11.50
  -1   4 -14   67.29   13.00
   2  -4  14  980.40   35.10
  -2  -4 -14  963.40   38.30
   2  -4  14  910.11   36.90
  -2  -4 -14  960.10   36.90
   2   4  14  930.61   36.70
  -2   4 -14  973.80   38.60
   4   0 -15   -2.20    6.20
  -4   0  15    1.50    5.90
   3   0 -15 1645.74   50.59
  -3   0  15 1540.15   46.70
   2   0 -15    5.10    6.60
  -2   0  15   -2.80    5.20
  -1   0  15 2088.19   57.29
   1   0 -15 2117.49   60.29
   0   0  15   -1.40    5.70
   0   0 -15    5.20    7.20
   1   0  15 1125.09   40.10
  -1   0 -15 1158.08   42.60
  -2   0 -15  -15.00    6.20
   2   0  15   -2.30    6.10
  -3   0 -15 1886.41   58.99
   3   0  15 1958.80   56.39
  -4  -1  15 1095.99   37.90
   4  -1 -15 1142.99   41.30
  -4   1  15 1194.08   38.10
   4   1 -15 1132.39   40.40
  -3  -1  15   34.20    9.00
   3  -1 -15   26.90    9.70
   3   1 -15   46.50   10.20
  -3   1  15   39.50    8.60
   2  -1 -15 1046.00   39.30
  -2  -1  15  942.91   35.60
   2   1 -15 1028.90   38.20
  -2   1  15 1037.90   36.10
  -1  -1  15  394.56   22.30
   1  -1 -15  374.56   23.20
   1   1 -15  345.17   22.80
  -1   1  15  344.47   20.90
   0  -1 -15  959.80   38.70
   0  -1  15  991.10   36.80
   0   1 -15 1075.19   40.30
   0   1  15 1014.70   36.50
  -1  -1 -15  108.39   14.60
   1  -1  15  118.79   15.10
  -1   1 -15  119.19   16.00
   1   1  15  120.39   15.40
   2  -1  15  830.12   34.10
  -2  -1 -15  787.02   35.40
   2   1  15  829.32   33.40
  -2   1 -15  846.92   36.40
   3  -1  15   38.80    9.60
  -3  -1 -15   49.10   11.80
   3   1  15   52.99   11.30
  -3   1 -15   20.00    9.00
  -3  -2  15  933.11   35.40
   3  -2 -15  991.70   38.90
  -3   2  15  928.01   33.60
  -3   2  15  935.51   34.20
   3   2 -15  954.90   36.60
   2  -2 -15   93.79   14.90
  -2  -2  15   93.19   13.60
  -2   2  15  111.39   13.60
  -2   2  15  118.49   14.20
   2   2 -15  131.19   16.50
   1  -2 -15  721.03   32.90
  -1  -2  15  702.13   30.70
   1   2 -15  713.33   31.90
  -1   2  15  717.43   29.90
   0  -2 -15   -4.40    6.40
   0  -2  15    1.10    6.00
   0   2  15    4.20    6.30
   0   2 -15   -7.10    6.00
  -1  -2 -15  578.04   29.80
   1  -2  15  581.44   28.50
   1   2  15  566.64   27.10
  -1   2 -15  595.54   30.20
  -2  -2 -15   37.00   10.40
   2  -2  15   24.30    8.50
   2   2  15   34.40    9.80
  -2   2 -15   28.10   10.20
   3  -2  15  441.36   25.10
  -3  -2 -15  408.26   25.60
  -3   2 -15  473.75   27.60
   3   2  15  380.36   23.40
  -2  -3  15  765.82   32.80
   2  -3 -15  803.92   35.20
  -2   3  15  773.22   31.50
  -2   3  15  777.12   30.90
   2   3 -15  799.02   33.60
   1  -3 -15    6.90    7.20
  -1  -3  15   -9.00    5.50
  -1   3  15    5.90    6.70
   1   3 -15    1.00    7.20
  -1   3  15   -1.00    6.20
   0  -3  15 1019.90   39.30
   0  -3 -15 1061.99   41.70
   0   3  15 1053.69   36.60
   0   3  15  985.50   37.00
   0   3 -15 1018.80   39.90
  -1  -3 -15   84.69   12.40
   1  -3  15   89.19   13.80
  -1  -3 -15   76.69   13.40
  -1   3 -15   81.59   13.90
   1   3  15   94.89   13.50
  -2   0  16  616.24   28.60
   2   0 -16  672.03   31.90
  -1   0  16   -2.60    5.70
   1   0 -16  -10.50    6.50
   0   0  16  788.92   33.50
   0   0 -16  813.02   35.60
  -1   0 -16   -4.80    7.00
   1   0  16    1.60    6.50
  -2  -1  16   22.50    8.90
  -2   1  16   14.00    7.80
  -1  -1  16  834.22   34.80
   1  -1 -16  868.71   37.30
   1   1 -16  832.72   36.30
  -1   1  16  884.91   34.60
   0  -1 -16   -5.80    6.80
   0  -1  16   13.90    7.50
   0   1 -16   -1.20    7.00
   0   1  16    3.30    7.20
   1  -1  16  663.13   30.70
  -1  -1 -16  647.44   32.80
   1   1  16  648.84   30.20
  -1   1 -16  658.63   33.00
;
_shelx_hkl_checksum              59694
loop_
_space_group_symop_operation_xyz
'x, y, z'
'-x+1/2, y+1/2, -z+1/2'
'-x, -y, -z'
'x-1/2, -y-1/2, z-1/2'
loop_
_atom_site_label
_atom_site_type_symbol
_atom_site_fract_x
_atom_site_fract_y
_atom_site_fract_z
_atom_site_U_iso_or_equiv
_atom_site_adp_type
_atom_site_occupancy
_atom_site_site_symmetry_order
_atom_site_calc_flag
_atom_site_refinement_flags_posn
_atom_site_refinement_flags_adp
_atom_site_refinement_flags_occupancy
Th1 Th 0.0000 0.0000 0.0000 0.00520(4) Uani 1 2 d S U P
K1 K -0.05025(6) 0.21930(7) 0.34043(4) 0.01219(10) Uani 1 1 d . U .
N1 N -0.0362(2) 0.7267(3) 0.18873(14) 0.0090(4) Uani 1 1 d . U .
N2 N 0.7118(2) 0.2474(3) 0.04769(14) 0.0084(4) Uani 1 1 d . U .
N3 N 0.2202(2) 0.2892(3) 0.11455(14) 0.0078(4) Uani 1 1 d . U .
O1 O 0.07549(17) 0.7073(2) 0.12390(11) 0.0099(3) Uani 1 1 d . U .
O2 O -0.0627(2) 0.6053(2) 0.25785(12) 0.0137(3) Uani 1 1 d . U .
O3 O 0.87748(17) 0.8854(2) 0.17643(11) 0.0091(3) Uani 1 1 d . . .
O4 O 0.59923(18) 0.3599(2) 0.05506(12) 0.0119(3) Uani 1 1 d . U .
O5 O 0.70145(18) 0.0889(2) -0.00965(12) 0.0110(3) Uani 1 1 d . U .
O6 O 0.84729(17) 0.2785(2) 0.09411(11) 0.0091(3) Uani 1 1 d . U .
O7 O 0.19059(18) 0.2985(2) 0.01396(11) 0.0094(3) Uani 1 1 d . U .
O8 O 0.31313(18) 0.3992(2) 0.16090(12) 0.0104(3) Uani 1 1 d . U .
O9 O 0.14306(18) 0.1519(2) 0.16281(11) 0.0095(3) Uani 1 1 d . U .
loop_
_atom_site_aniso_label
_atom_site_aniso_U_11
_atom_site_aniso_U_22
_atom_site_aniso_U_33
_atom_site_aniso_U_23
_atom_site_aniso_U_13
_atom_site_aniso_U_12
Th1 0.00495(6) 0.00518(6) 0.00548(6) -0.00005(4) 0.00017(4) 0.00025(4)
K1 0.0130(2) 0.0104(2) 0.0132(2) 0.00222(19) 0.00169(18) 0.00162(19)
N1 0.0107(9) 0.0081(9) 0.0081(9) -0.0015(7) -0.0026(7) -0.0021(7)
N2 0.0102(9) 0.0084(9) 0.0068(9) 0.0020(7) 0.0021(7) -0.0005(7)
N3 0.0070(8) 0.0066(8) 0.0099(9) -0.0002(7) 0.0019(7) 0.0028(7)
O1 0.0101(8) 0.0119(7) 0.0079(7) -0.0005(6) 0.0018(6) 0.0025(6)
O2 0.0232(9) 0.0087(8) 0.0095(8) 0.0029(6) 0.0027(6) -0.0027(7)
O3 0.0099(8) 0.0076(7) 0.0097(7) -0.0001(6) 0.0000(6) 0.0017(6)
O4 0.0106(8) 0.0104(8) 0.0149(8) 0.0024(6) 0.0036(6) 0.0060(6)
O5 0.0097(8) 0.0098(7) 0.0134(8) -0.0050(6) -0.0003(6) 0.0008(6)
O6 0.0077(7) 0.0094(7) 0.0100(7) -0.0007(6) -0.0003(6) 0.0000(6)
O7 0.0124(8) 0.0108(7) 0.0048(7) 0.0010(6) -0.0018(6) -0.0017(6)
O8 0.0094(8) 0.0088(7) 0.0127(8) -0.0035(6) -0.0042(6) -0.0018(6)
O9 0.0116(8) 0.0089(7) 0.0082(7) 0.0017(6) 0.0013(6) -0.0024(6)
loop_
_atom_type_symbol
_atom_type_description
_atom_type_scat_dispersion_real
_atom_type_scat_dispersion_imag
_atom_type_scat_source
N N 0.0061 0.0033 'International Tables Vol C Tables 4.2.6.8 and 6.1.1.4'
O O 0.0106 0.0060 'International Tables Vol C Tables 4.2.6.8 and 6.1.1.4'
K K 0.2009 0.2494 'International Tables Vol C Tables 4.2.6.8 and 6.1.1.4'
Th Th -7.2400 8.8979 'International Tables Vol C Tables 4.2.6.8 and 6.1.1.4'
loop_
_geom_angle_atom_site_label_1
_geom_angle_atom_site_label_2
_geom_angle_atom_site_label_3
_geom_angle
_geom_angle_site_symmetry_1
_geom_angle_site_symmetry_3
O9 Th1 O9 180.0 . 3
O9 Th1 O7 129.93(4) . 3
O9 Th1 O7 50.07(4) 3 3
O9 Th1 O7 50.07(4) . .
O9 Th1 O7 129.93(4) 3 .
O7 Th1 O7 180.0 3 .
O9 Th1 O1 106.27(5) . 3_565
O9 Th1 O1 73.73(5) 3 3_565
O7 Th1 O1 114.53(5) 3 3_565
O7 Th1 O1 65.46(5) . 3_565
O9 Th1 O1 73.73(5) . 1_545
O9 Th1 O1 106.27(5) 3 1_545
O7 Th1 O1 65.47(5) 3 1_545
O7 Th1 O1 114.54(5) . 1_545
O1 Th1 O1 180.00(7) 3_565 1_545
O9 Th1 O5 67.97(5) . 3_655
O9 Th1 O5 112.03(5) 3 3_655
O7 Th1 O5 115.20(5) 3 3_655
O7 Th1 O5 64.80(5) . 3_655
O1 Th1 O5 115.07(5) 3_565 3_655
O1 Th1 O5 64.93(5) 1_545 3_655
O9 Th1 O5 112.03(5) . 1_455
O9 Th1 O5 67.97(5) 3 1_455
O7 Th1 O5 64.80(5) 3 1_455
O7 Th1 O5 115.20(5) . 1_455
O1 Th1 O5 64.93(5) 3_565 1_455
O1 Th1 O5 115.07(5) 1_545 1_455
O5 Th1 O5 180.000(16) 3_655 1_455
O9 Th1 O6 115.53(5) . 3_655
O9 Th1 O6 64.47(5) 3 3_655
O7 Th1 O6 73.83(5) 3 3_655
O7 Th1 O6 106.17(5) . 3_655
O1 Th1 O6 113.03(5) 3_565 3_655
O1 Th1 O6 66.97(5) 1_545 3_655
O5 Th1 O6 49.81(5) 3_655 3_655
O5 Th1 O6 130.19(5) 1_455 3_655
O9 Th1 O6 64.47(5) . 1_455
O9 Th1 O6 115.53(5) 3 1_455
O7 Th1 O6 106.17(5) 3 1_455
O7 Th1 O6 73.83(5) . 1_455
O1 Th1 O6 66.97(5) 3_565 1_455
O1 Th1 O6 113.03(5) 1_545 1_455
O5 Th1 O6 130.19(5) 3_655 1_455
O5 Th1 O6 49.81(5) 1_455 1_455
O6 Th1 O6 180.00(9) 3_655 1_455
O9 Th1 O3 112.26(4) . 3_665
O9 Th1 O3 67.74(4) 3 3_665
O7 Th1 O3 115.97(4) 3 3_665
O7 Th1 O3 64.03(4) . 3_665
O1 Th1 O3 49.64(4) 3_565 3_665
O1 Th1 O3 130.36(4) 1_545 3_665
O5 Th1 O3 72.20(5) 3_655 3_665
O5 Th1 O3 107.80(5) 1_455 3_665
O6 Th1 O3 66.65(5) 3_655 3_665
O6 Th1 O3 113.35(5) 1_455 3_665
O9 Th1 O3 67.74(4) . 1_445
O9 Th1 O3 112.26(4) 3 1_445
O7 Th1 O3 64.03(4) 3 1_445
O7 Th1 O3 115.97(4) . 1_445
O1 Th1 O3 130.36(4) 3_565 1_445
O1 Th1 O3 49.64(4) 1_545 1_445
O5 Th1 O3 107.80(5) 3_655 1_445
O5 Th1 O3 72.20(5) 1_455 1_445
O6 Th1 O3 113.35(5) 3_655 1_445
O6 Th1 O3 66.65(5) 1_455 1_445
O3 Th1 O3 180.00(9) 3_665 1_445
O4 K1 O2 167.25(5) 2_545 .
O4 K1 O9 109.33(4) 2_545 .
O2 K1 O9 82.54(4) . .
O4 K1 O8 58.60(4) 2_545 2_545
O2 K1 O8 134.02(5) . 2_545
O9 K1 O8 58.13(4) . 2_545
O4 K1 O3 101.98(4) 2_545 2_545
O2 K1 O3 66.56(4) . 2_545
O9 K1 O3 123.83(4) . 2_545
O8 K1 O3 154.60(4) 2_545 2_545
O4 K1 O4 58.87(5) 2_545 4_566
O2 K1 O4 120.72(5) . 4_566
O9 K1 O4 116.69(4) . 4_566
O8 K1 O4 67.08(4) 2_545 4_566
O3 K1 O4 119.36(4) 2_545 4_566
O4 K1 O5 100.58(4) 2_545 4_566
O2 K1 O5 81.66(5) . 4_566
O9 K1 O5 98.64(4) . 4_566
O8 K1 O5 81.84(4) 2_545 4_566
O3 K1 O5 120.17(4) 2_545 4_566
O4 K1 O5 42.25(4) 4_566 4_566
O4 K1 O3 70.02(4) 2_545 1_445
O2 K1 O3 114.87(4) . 1_445
O9 K1 O3 57.60(4) . 1_445
O8 K1 O3 65.27(4) 2_545 1_445
O3 K1 O3 93.76(3) 2_545 1_445
O4 K1 O3 122.74(4) 4_566 1_445
O5 K1 O3 146.07(4) 4_566 1_445
O4 K1 O7 61.38(4) 2_545 4_566
O2 K1 O7 106.05(4) . 4_566
O9 K1 O7 165.78(4) . 4_566
O8 K1 O7 117.65(4) 2_545 4_566
O3 K1 O7 53.18(4) 2_545 4_566
O4 K1 O7 69.12(4) 4_566 4_566
O5 K1 O7 93.88(4) 4_566 4_566
O3 K1 O7 108.19(4) 1_445 4_566
O4 K1 O6 121.58(4) 2_545 1_455
O2 K1 O6 61.38(4) . 1_455
O9 K1 O6 53.29(4) . 1_455
O8 K1 O6 104.12(4) 2_545 1_455
O3 K1 O6 70.66(4) 2_545 1_455
O4 K1 O6 169.97(4) 4_566 1_455
O5 K1 O6 134.18(4) 4_566 1_455
O3 K1 O6 53.57(4) 1_445 1_455
O7 K1 O6 120.49(4) 4_566 1_455
O4 K1 N2 78.16(5) 2_545 4_566
O2 K1 N2 104.00(5) . 4_566
O9 K1 N2 104.14(4) . 4_566
O8 K1 N2 68.09(4) 2_545 4_566
O3 K1 N2 127.60(4) 2_545 4_566
O4 K1 N2 21.05(4) 4_566 4_566
O5 K1 N2 22.52(4) 4_566 4_566
O3 K1 N2 132.36(4) 1_445 4_566
O7 K1 N2 85.05(4) 4_566 4_566
O6 K1 N2 152.44(4) 1_455 4_566
O4 K1 Th1 100.59(3) 2_545 .
O2 K1 Th1 87.34(3) . .
O9 K1 Th1 30.32(3) . .
O8 K1 Th1 70.88(3) 2_545 .
O3 K1 Th1 99.82(3) 2_545 .
O4 K1 Th1 137.89(3) 4_566 .
O5 K1 Th1 128.93(3) 4_566 .
O3 K1 Th1 33.09(3) 1_445 .
O7 K1 Th1 136.90(3) 4_566 .
O6 K1 Th1 33.33(3) 1_455 .
N2 K1 Th1 132.09(3) 4_566 .
O2 N1 O1 123.13(18) . .
O2 N1 O3 121.39(17) . 1_455
O1 N1 O3 115.48(16) . 1_455
O2 N1 Th1 172.92(14) . 1_565
O1 N1 Th1 57.42(10) . 1_565
O3 N1 Th1 58.56(9) 1_455 1_565
O4 N2 O6 123.09(17) . .
O4 N2 O5 121.27(17) . .
O6 N2 O5 115.63(16) . .
O4 N2 Th1 171.72(13) . 1_655
O6 N2 Th1 58.16(9) . 1_655
O5 N2 Th1 58.07(9) . 1_655
O4 N2 K1 61.86(10) . 4_665
O6 N2 K1 153.17(12) . 4_665
O5 N2 K1 65.83(10) . 4_665
Th1 N2 K1 112.99(5) 1_655 4_665
O8 N3 O7 123.06(17) . .
O8 N3 O9 122.36(17) . .
O7 N3 O9 114.58(17) . .
O8 N3 Th1 177.32(14) . .
O7 N3 Th1 57.66(10) . .
O9 N3 Th1 56.98(9) . .
N1 O1 Th1 97.98(11) . 1_565
N1 O2 K1 151.81(13) . .
N1 O3 Th1 96.26(11) 1_655 1_665
N1 O3 K1 102.24(11) 1_655 2
Th1 O3 K1 116.39(5) 1_665 2
N1 O3 K1 114.91(11) 1_655 1_665
Th1 O3 K1 106.35(5) 1_665 1_665
K1 O3 K1 118.66(5) 2 1_665
N2 O4 K1 134.60(13) . 2
N2 O4 K1 97.09(12) . 4_665
K1 O4 K1 121.13(5) 2 4_665
N2 O5 Th1 96.83(11) . 1_655
N2 O5 K1 91.65(11) . 4_665
Th1 O5 K1 140.79(6) 1_655 4_665
N2 O6 Th1 96.95(11) . 1_655
N2 O6 K1 128.67(11) . 1_655
Th1 O6 K1 103.47(5) 1_655 1_655
N3 O7 Th1 97.36(11) . .
N3 O7 K1 124.73(11) . 4_665
Th1 O7 K1 111.63(5) . 4_665
N3 O8 K1 150.71(13) . 2
N3 O9 Th1 97.91(11) . .
N3 O9 K1 124.44(11) . .
Th1 O9 K1 115.41(5) . .
loop_
_geom_bond_atom_site_label_1
_geom_bond_atom_site_label_2
_geom_bond_distance
_geom_bond_site_symmetry_2
Th1 O9 2.5443(15) .
Th1 O9 2.5443(15) 3
Th1 O7 2.5606(15) 3
Th1 O7 2.5607(15) .
Th1 O1 2.5677(15) 3_565
Th1 O1 2.5677(15) 1_545
Th1 O5 2.5694(15) 3_655
Th1 O5 2.5694(15) 1_455
Th1 O6 2.5727(14) 3_655
Th1 O6 2.5727(14) 1_455
Th1 O3 2.5903(14) 3_665
Th1 O3 2.5903(14) 1_445
K1 O4 2.7791(16) 2_545
K1 O2 2.7859(16) .
K1 O9 2.8383(15) .
K1 O8 2.9234(15) 2_545
K1 O3 2.9589(15) 2_545
K1 O4 2.9780(16) 4_566
K1 O5 3.0587(16) 4_566
K1 O3 3.0852(15) 1_445
K1 O7 3.1319(15) 4_566
K1 O6 3.2042(15) 1_455
K1 N2 3.3513(18) 4_566
N1 O2 1.216(2) .
N1 O1 1.269(2) .
N1 O3 1.291(2) 1_455
N1 Th1 3.0178(18) 1_565
N2 O4 1.213(2) .
N2 O6 1.274(2) .
N2 O5 1.284(2) .
N2 Th1 3.0060(17) 1_655
N2 K1 3.3513(18) 4_665
N3 O8 1.206(2) .
N3 O7 1.280(2) .
N3 O9 1.288(2) .
O1 Th1 2.5677(15) 1_565
O3 N1 1.292(2) 1_655
O3 Th1 2.5903(14) 1_665
O3 K1 2.9589(15) 2
O3 K1 3.0852(15) 1_665
O4 K1 2.7791(16) 2
O4 K1 2.9779(16) 4_665
O5 Th1 2.5694(15) 1_655
O5 K1 3.0587(16) 4_665
O6 Th1 2.5727(14) 1_655
O6 K1 3.2042(15) 1_655
O7 K1 3.1319(15) 4_665
O8 K1 2.9234(15) 2
