#------------------------------------------------------------------------------
#$Date: 2017-06-04 13:06:38 +0300 (Sun, 04 Jun 2017) $
#$Revision: 197250 $
#$URL: file:///home/coder/svn-repositories/cod/cif/4/12/61/4126101.cif $
#------------------------------------------------------------------------------
#
# This file is available in the Crystallography Open Database (COD),
# http://www.crystallography.net/
#
# All data on this site have been placed in the public domain by the
# contributors.
#
data_4126101
loop_
_publ_author_name
'Liu, Zhiqiang'
'Ishibashi, Jacob S. A.'
'Darrigan, Clovis'
'Dargelos, Alain'
'Chrostowska, Anna'
'Li, Bo'
'Vasiliu, Monica'
'Dixon, David A.'
'Liu, Shih-Yuan'
_publ_section_title
;
 The Least Stable Isomer of BN Naphthalene: Toward Predictive Trends for
 the Optoelectronic Properties of BN Acenes.
;
_journal_issue                   17
_journal_name_full               'Journal of the American Chemical Society'
_journal_page_first              6082
_journal_page_last               6085
_journal_paper_doi               10.1021/jacs.7b02661
_journal_volume                  139
_journal_year                    2017
_chemical_absolute_configuration unk
_chemical_formula_moiety         'C8 H7 B F N'
_chemical_formula_sum            'C8 H7 B F N'
_chemical_formula_weight         146.96
_space_group_crystal_system      monoclinic
_space_group_IT_number           7
_space_group_name_Hall           'P -2yc'
_space_group_name_H-M_alt        'P 1 c 1'
_symmetry_space_group_name_Hall  'P -2yc'
_symmetry_space_group_name_H-M   'P 1 c 1'
_atom_sites_solution_hydrogens   mixed
_atom_sites_solution_primary     direct
_atom_sites_solution_secondary   difmap
_audit_creation_method           SHELXL-2014/7
_cell_angle_alpha                90
_cell_angle_beta                 103.790(7)
_cell_angle_gamma                90
_cell_formula_units_Z            4
_cell_length_a                   7.465(3)
_cell_length_b                   14.687(6)
_cell_length_c                   6.709(3)
_cell_measurement_reflns_used    1526
_cell_measurement_temperature    100(2)
_cell_measurement_theta_max      28.43
_cell_measurement_theta_min      2.77
_cell_volume                     714.4(5)
_computing_cell_refinement       'SAINT (Bruker, 2014)'
_computing_data_collection       'APEX2 (Bruker, 2014)'
_computing_data_reduction        'SAINT (Bruker, 2014)'
_computing_molecular_graphics    'Bruker SHELXTL'
_computing_publication_material  'Bruker SHELXTL'
_computing_structure_refinement  'SHELXL-2014 (Sheldrick, 2014)'
_computing_structure_solution    'SHELXL-2014 (Sheldrick, 2014)'
_diffrn_ambient_temperature      100(2)
_diffrn_measured_fraction_theta_full 0.985
_diffrn_measured_fraction_theta_max 0.967
_diffrn_measurement_device_type  'Bruker Kappa DUO CCD diffractometer'
_diffrn_measurement_method       '\f and \w scans'
_diffrn_radiation_type           MoK\a
_diffrn_radiation_wavelength     0.71073
_diffrn_reflns_av_R_equivalents  0.0217
_diffrn_reflns_av_unetI/netI     0.0274
_diffrn_reflns_Laue_measured_fraction_full 0.985
_diffrn_reflns_Laue_measured_fraction_max 0.967
_diffrn_reflns_limit_h_max       8
_diffrn_reflns_limit_h_min       -10
_diffrn_reflns_limit_k_max       14
_diffrn_reflns_limit_k_min       -19
_diffrn_reflns_limit_l_max       6
_diffrn_reflns_limit_l_min       -8
_diffrn_reflns_number            3916
_diffrn_reflns_point_group_measured_fraction_full 0.664
_diffrn_reflns_point_group_measured_fraction_max 0.641
_diffrn_reflns_theta_full        25.242
_diffrn_reflns_theta_max         28.431
_diffrn_reflns_theta_min         2.774
_diffrn_source                   'fine-focus sealed tube'
_exptl_absorpt_coefficient_mu    0.097
_exptl_absorpt_correction_T_max  0.7457
_exptl_absorpt_correction_T_min  0.6999
_exptl_absorpt_correction_type   multi-scan
_exptl_absorpt_process_details
;
Sheldrick, G.M. (2013). SADABS. Bruker AXS Inc. Madison, WI USA.
;
_exptl_crystal_colour            colorless
_exptl_crystal_density_diffrn    1.366
_exptl_crystal_density_meas      ?
_exptl_crystal_density_method    none
_exptl_crystal_description       block
_exptl_crystal_F_000             304
_exptl_crystal_size_max          0.600
_exptl_crystal_size_mid          0.380
_exptl_crystal_size_min          0.320
_refine_diff_density_max         0.246
_refine_diff_density_min         -0.218
_refine_diff_density_rms         0.048
_refine_ls_abs_structure_details
;
 Flack x determined using 435 quotients [(I+)-(I-)]/[(I+)+(I-)]
 (Parsons, Flack and Wagner, Acta Cryst. B69 (2013) 249-259).
;
_refine_ls_extinction_coef       na
_refine_ls_extinction_method     none
_refine_ls_goodness_of_fit_ref   1.066
_refine_ls_hydrogen_treatment    mixed
_refine_ls_matrix_type           full
_refine_ls_number_parameters     205
_refine_ls_number_reflns         2294
_refine_ls_number_restraints     2
_refine_ls_restrained_S_all      1.065
_refine_ls_R_factor_all          0.0468
_refine_ls_R_factor_gt           0.0403
_refine_ls_shift/su_max          0.000
_refine_ls_shift/su_mean         0.000
_refine_ls_structure_factor_coef Fsqd
_refine_ls_weighting_details
'w=1/[\s^2^(Fo^2^)+(0.0662P)^2^+0.1056P] where P=(Fo^2^+2Fc^2^)/3'
_refine_ls_weighting_scheme      calc
_refine_ls_wR_factor_gt          0.1094
_refine_ls_wR_factor_ref         0.1176
_reflns_Friedel_coverage         0.319
_reflns_Friedel_fraction_full    0.338
_reflns_Friedel_fraction_max     0.312
_reflns_number_gt                2005
_reflns_number_total             2294
_reflns_threshold_expression     'I > 2\s(I)'
_cod_data_source_file            ja7b02661_si_003.cif
_cod_data_source_block           C8H7BFN
_cod_depositor_comments
;
The following automatic conversions were performed:

'_exptl_crystal_density_meas' value 'not measured' was changed to '?'
- the value is perceived as not measured.

Automatic conversion script
Id: cif_fix_values 4973 2017-02-22 13:04:09Z antanas 
;
_cod_database_code               4126101
_shelx_shelxl_version_number     2014/7
_shelx_space_group_comment
;
The symmetry employed for this shelxl refinement is uniquely defined
by the following loop, which should always be used as a source of
symmetry information in preference to the above space-group names.
They are only intended as comments.
;
_shelx_estimated_absorpt_t_min   0.944
_shelx_estimated_absorpt_t_max   0.969
_shelx_res_file
;

    sad_a.res created by SHELXL-2014/7


TITL sad_a.res in Pc
CELL  0.71073   7.4650  14.6873   6.7094   90.000  103.790   90.000
ZERR   4.000   0.0028   0.0055   0.0026    0.000    0.007    0.000
LATT -1
SYMM X, -Y, 1/2+Z
SFAC C  H  B  N  F
UNIT 32  28 4 4 4

L.S. 10
BOND $H
FMAP 2
PLAN 20
SIZE 0.60 0.38 0.32
TEMP -173
CONF
OMIT 0 1 0
ACTA
WGHT    0.066200    0.105600
FVAR       0.80675
F1    5    0.189989    0.214053    0.303011    11.00000    0.03136    0.01390 =
         0.03815   -0.00122    0.00721   -0.00384
N1    4    0.368331    0.443535    0.346786    11.00000    0.01664    0.01358 =
         0.01425   -0.00027    0.00444    0.00080
B1    3    0.547550    0.487935    0.393237    11.00000    0.01897    0.02293 =
         0.01771   -0.00059    0.00506   -0.00218
H1B   2    0.671159    0.439466    0.420111    11.00000   -1.20000
C1    1    0.358017    0.349250    0.342200    11.00000    0.01836    0.01477 =
         0.01615    0.00092    0.00374    0.00292
AFIX  43
H1    2    0.468236    0.314364    0.365748    11.00000   -1.20000
AFIX   0
C2    1    0.195501    0.306959    0.305190    11.00000    0.02458    0.01331 =
         0.01999   -0.00047    0.00505   -0.00009
C3    1    0.024914    0.354004    0.266855    11.00000    0.01626    0.02522 =
         0.02480   -0.00044    0.00281   -0.00612
AFIX  43
H3    2   -0.089428    0.322536    0.242714    11.00000   -1.20000
AFIX   0
C4    1    0.033320    0.446607    0.266402    11.00000    0.01524    0.02242 =
         0.02163    0.00027    0.00248    0.00101
AFIX  43
H4    2   -0.078171    0.480590    0.237752    11.00000   -1.20000
AFIX   0
C5    1    0.205032    0.493949    0.307788    11.00000    0.01600    0.01732 =
         0.01410    0.00078    0.00368    0.00092
C6    1    0.213533    0.588499    0.310854    11.00000    0.02349    0.01772 =
         0.01696    0.00084    0.00467    0.00297
AFIX  43
H6    2    0.102238    0.622633    0.282979    11.00000   -1.20000
AFIX   0
C7    1    0.381909    0.634256    0.353965    11.00000    0.03012    0.01559 =
         0.01777    0.00049    0.00440   -0.00049
AFIX  43
H7    2    0.381870    0.698937    0.354797    11.00000   -1.20000
AFIX   0
C8    1    0.548524    0.589052    0.395447    11.00000    0.02336    0.02398 =
         0.01892   -0.00171    0.00483   -0.00872
AFIX  43
H8    2    0.661465    0.621849    0.424796    11.00000   -1.20000
AFIX   0
F2    5    0.651775   -0.215089    0.654368    11.00000    0.03495    0.01394 =
         0.03014   -0.00042    0.00637   -0.00220
N2    4    0.803296    0.018848    0.690646    11.00000    0.01826    0.01393 =
         0.01452    0.00001    0.00228   -0.00041
B2    3    0.977552    0.068100    0.734755    11.00000    0.02092    0.02247 =
         0.02419   -0.00075    0.00413   -0.00270
H2B   2    1.106888    0.021161    0.763219    11.00000   -1.20000
C9    1    0.805382   -0.076294    0.692848    11.00000    0.01941    0.01411 =
         0.01510    0.00086    0.00285    0.00372
AFIX  43
H9    2    0.919511   -0.108076    0.723496    11.00000   -1.20000
AFIX   0
C10   1    0.645509   -0.122815    0.651497    11.00000    0.02426    0.01493 =
         0.01645   -0.00053    0.00393   -0.00035
C11   1    0.472052   -0.080459    0.603875    11.00000    0.01930    0.02508 =
         0.01767    0.00062    0.00241   -0.00460
AFIX  43
H11   2    0.361238   -0.114980    0.574005    11.00000   -1.20000
AFIX   0
C12   1    0.469328    0.012161    0.602301    11.00000    0.01672    0.02435 =
         0.01928    0.00010    0.00339    0.00107
AFIX  43
H12   2    0.354161    0.043012    0.570668    11.00000   -1.20000
AFIX   0
C13   1    0.635687    0.063855    0.647129    11.00000    0.01911    0.01680 =
         0.01308    0.00134    0.00346    0.00206
C14   1    0.632394    0.158940    0.645416    11.00000    0.02468    0.01950 =
         0.01939    0.00120    0.00602    0.00410
AFIX  43
H14   2    0.517029    0.189604    0.616543    11.00000   -1.20000
AFIX   0
C15   1    0.794622    0.209817    0.685132    11.00000    0.03806    0.01451 =
         0.02686   -0.00089    0.00763   -0.00274
AFIX  43
H15   2    0.787004    0.274386    0.681586    11.00000   -1.20000
AFIX   0
C16   1    0.965591    0.169065    0.729357    11.00000    0.02749    0.02242 =
         0.02974   -0.00190    0.00480   -0.00999
AFIX  43
H16   2    1.074489    0.205028    0.756072    11.00000   -1.20000
AFIX   0
HKLF 4

REM  sad_a.res in Pc
REM R1 =  0.0403 for    2005 Fo > 4sig(Fo)  and  0.0468 for all    2294 data
REM    205 parameters refined using      2 restraints

END

WGHT      0.0663      0.1057

REM Highest difference peak  0.246,  deepest hole -0.218,  1-sigma level  0.048
Q1    1   0.3627  0.4016  0.3269  11.00000  0.05    0.25
Q2    1   0.2146  0.5421  0.3119  11.00000  0.05    0.25
Q3    1   0.6370  0.1049  0.6476  11.00000  0.05    0.25
Q4    1   0.9643  0.1169  0.7471  11.00000  0.05    0.23
Q5    1   0.5407  0.5420  0.4227  11.00000  0.05    0.23
Q6    1   0.1939  0.2799  0.3025  11.00000  0.05    0.22
Q7    1   0.5595 -0.1017  0.6259  11.00000  0.05    0.21
Q8    1   0.7197  0.0369  0.6614  11.00000  0.05    0.21
Q9    1   0.4777 -0.0414  0.6352  11.00000  0.05    0.20
Q10   1   0.0427  0.3979  0.2492  11.00000  0.05    0.20
Q11   1   0.7958 -0.0386  0.6845  11.00000  0.05    0.20
Q12   1   0.5629  0.0345  0.6279  11.00000  0.05    0.19
Q13   1   0.2817  0.3258  0.3723  11.00000  0.05    0.19
Q14   1   0.7153  0.1796  0.7168  11.00000  0.05    0.18
Q15   1   0.2990  0.4679  0.3312  11.00000  0.05    0.18
Q16   1   0.7197 -0.0995  0.6393  11.00000  0.05    0.18
Q17   1   0.3691  0.7220  0.3620  11.00000  0.05    0.18
Q18   1   0.1164  0.4664  0.2636  11.00000  0.05    0.16
Q19   1   0.7954  0.3021  0.6867  11.00000  0.05    0.16
Q20   1   0.8772  0.0437  0.7351  11.00000  0.05    0.16
;
_shelx_res_checksum              7690
_shelx_hkl_file
;
   0   0  -1   -7.20    0.30
   0   0  -1   -7.50    0.30
   0   0  -2 5916.61  106.49
   0   0  -2 5869.41  106.59
   0   0  -2 6265.17  107.39
   0   0  -3   -0.10    0.30
   0   0  -3    0.20    0.40
   0   0  -3   -0.40    0.40
   0   0  -4  394.46    8.40
   0   0  -4  376.16    8.40
   0   0  -4  396.66    7.80
   0   0  -5    0.00    0.60
   0   0  -5    0.10    0.40
   0   0  -6  129.89    3.70
   0   0  -6  130.59    4.40
   0   0  -7    0.90    0.60
   0   0  -7    0.10    0.90
   0   0  -8    4.20    1.30
  -1   0  -8    4.70    1.40
  -1   0  -7   -1.80    0.70
  -1   0  -6    2.20    0.90
  -1   0  -6    1.10    0.60
  -1   0  -6    2.60    0.90
  -1   0  -5   -0.30    0.40
  -1   0  -5   -0.60    0.50
  -1   0  -5    0.70    0.70
  -1   0  -4   59.79    1.90
  -1   0  -4   61.99    2.40
  -1   0  -4   62.69    2.40
  -1   0  -3    0.10    0.30
  -1   0  -3    0.20    0.40
  -1   0  -3    0.40    0.50
  -1   0  -2  802.22   14.30
  -1   0  -2  804.92   14.90
  -1   0  -2  799.62   14.70
  -1   0  -1    0.40    0.30
  -1   0  -1    0.00    0.30
  -1   0  -1   -0.10    0.20
   1   0   1   -0.30    0.10
  -1   0   0  438.66    7.80
   1   0   0  459.05    7.90
   1   0  -1   -0.70    0.20
   1   0  -1   -0.90    0.20
   1   0  -2 9681.43  172.78
   1   0  -2 9999.00  174.28
   1   0  -3   -2.20    0.30
   1   0  -3   -1.90    0.40
   1   0  -4 8038.80  143.59
   1   0  -4 8025.70  141.49
   1   0  -5    0.00    0.50
   1   0  -5   -0.10    0.40
   1   0  -6  218.18    6.00
   1   0  -6  208.08    5.30
   1   0  -7    0.60    0.60
   1   0  -7   -0.40    0.70
  -2   0  -8    2.40    1.10
  -2   0  -7    1.90    1.10
  -2   0  -7    0.10    0.80
  -2   0  -6   23.40    2.10
  -2   0  -6   25.90    2.10
  -2   0  -5   -0.20    0.60
  -2   0  -5   -0.50    0.60
  -2   0  -5    0.50    0.40
  -2   0  -4   20.50    1.50
  -2   0  -4   21.70    1.50
  -2   0  -4   19.30    1.00
  -2   0  -3   -1.00    0.40
  -2   0  -3   -0.90    0.20
  -2   0  -3   -0.50    0.40
  -2   0  -2   19.00    1.20
  -2   0  -2   19.80    1.10
  -2   0  -2   19.00    0.70
  -2   0  -1    0.10    0.30
  -2   0  -1    0.50    0.30
  -2   0   0  273.07    5.50
  -2   0   0  269.07    4.80
   2   0  -1   -0.30    0.20
   2   0  -1    0.20    0.20
   2   0  -2  679.53   12.20
   2   0  -2  659.53   12.30
   2   0  -3   -0.20    0.30
   2   0  -3   -0.40    0.30
   2   0  -4    6.40    0.90
   2   0  -4    9.30    0.90
   2   0  -5    0.50    0.50
   2   0  -5   -0.10    0.50
   2   0  -6 1446.36   27.00
   2   0  -6 1474.35   27.90
   2   0  -7   -0.10    0.50
   2   0  -7   -0.50    0.60
   2   0  -8  857.11   17.40
   2   0  -8  876.31   18.60
  -3   0  -7   -0.80    0.80
  -3   0  -7   -0.30    0.80
  -3   0  -6    3.50    1.10
  -3   0  -6    3.70    1.10
  -3   0  -5   -0.40    0.70
  -3   0  -5    0.20    0.70
  -3   0  -4   27.30    1.90
  -3   0  -4   26.50    1.60
  -3   0  -3    0.00    0.40
  -3   0  -3    0.00    0.50
  -3   0  -2  109.19    3.20
  -3   0  -2  103.69    2.70
  -3   0  -1   -0.60    0.40
  -3   0  -1   -0.90    0.20
  -3   0   0   33.00    1.50
  -3   0   0   32.50    0.80
   3   0  -1   -0.10    0.20
   3   0  -1    0.70    0.20
   3   0  -2   29.80    1.10
   3   0  -2   28.20    1.10
   3   0  -3    0.00    0.30
   3   0  -3   -0.60    0.30
   3   0  -4   69.59    2.40
   3   0  -4   66.89    2.20
   3   0  -5   -0.30    0.50
   3   0  -5    0.10    0.40
   3   0  -6   93.79    3.60
   3   0  -6  104.19    3.30
   3   0  -7    0.40    0.60
   3   0  -7    0.60    0.70
   3   0  -8    7.70    1.40
   3   0  -8    8.30    1.20
  -4   0  -7    0.70    1.00
  -4   0  -6  568.34   12.70
  -4   0  -6  560.14   13.40
  -4   0  -5    0.10    0.70
  -4   0  -5   -0.70    0.60
  -4   0  -4  708.03   15.00
  -4   0  -4  692.53   14.10
  -4   0  -3    0.60    0.50
  -4   0  -3   -0.60    0.50
  -4   0  -2   13.90    0.90
  -4   0  -2   14.90    1.20
  -4   0  -1   -0.50    0.40
  -4   0  -1    0.30    0.20
  -4   0   0  114.69    3.30
   4   0  -1    0.00    0.20
   4   0  -2   90.09    2.10
   4   0  -2   90.99    2.30
   4   0  -3   -0.60    0.30
   4   0  -3    0.00    0.30
   4   0  -4    6.20    0.80
   4   0  -4    3.50    0.70
   4   0  -5   -0.80    0.40
   4   0  -5   -0.50    0.40
   4   0  -6    7.20    1.00
   4   0  -6    7.00    1.10
   4   0  -7   -0.20    0.70
   4   0  -7   -0.20    0.60
   4   0  -8    5.80    1.30
   4   0  -8    4.20    1.00
  -5   0  -6  310.67    9.00
  -5   0  -5    0.50    0.90
  -5   0  -4   31.90    2.40
  -5   0  -3    0.30    0.70
  -5   0  -2 1900.01   35.40
  -5   0  -1    0.10    0.50
  -5   0   0 1017.70   19.70
   5   0  -2   29.10    1.10
   5   0  -2   29.00    0.90
   5   0  -3   -0.20    0.30
   5   0  -3   -0.40    0.30
   5   0  -4   28.80    1.50
   5   0  -4   30.60    1.40
   5   0  -5    0.00    0.40
   5   0  -5   -0.60    0.40
   5   0  -6   15.00    1.60
   5   0  -6   17.80    1.40
   5   0  -7   -0.60    0.50
   5   0  -7   -0.10    0.60
   5   0  -8    0.70    0.70
   5   0  -8    0.10    0.70
  -6   0  -5   -0.40    0.70
  -6   0  -4  278.07    8.10
  -6   0  -3    0.00    0.70
  -6   0  -2  431.96   10.30
  -6   0  -1   -0.40    0.60
  -6   0   0  361.26    8.60
  -6   0   1    0.20    0.60
   6   0  -3    0.30    0.30
   6   0  -4  350.46    7.50
   6   0  -5   -0.10    0.50
   6   0  -6   17.80    1.40
   6   0  -6   16.40    1.40
   6   0  -7   -0.40    0.50
   6   0  -7    0.10    0.60
   6   0  -8    2.90    1.10
  -7   0  -4    5.30    1.40
  -7   0  -3   -0.60    0.70
  -7   0  -2   51.49    3.00
  -7   0  -1   -0.80    0.60
  -7   0   0  452.05   10.70
  -7   0   1   -0.10    0.60
  -8   0  -3   -0.10    0.90
  -8   0  -2    1.30    1.00
  -8   0  -1    0.50    0.90
  -8   0   0    3.20    1.10
  -8   0   1    0.00    0.70
  -8   0   2   54.69    3.10
  -9   0  -1   -0.20    0.90
  -9   0   0   23.20    2.60
  -9   0   1    0.40    0.80
  -9   0   2    2.00    1.00
  -9   0   3   -0.30    0.70
 -10   0   2    6.40    1.60
  -9  -1   2    4.10    1.20
  -9  -1   1   12.30    1.90
  -9  -1   0    4.50    1.40
  -9  -1  -1    0.30    0.90
  -8  -1   2    6.50    1.30
  -8  -1   1   23.50    2.10
  -8  -1   0    3.00    1.10
  -8  -1  -1    5.20    1.30
  -8  -1  -2    5.50    1.40
  -8  -1  -3    8.30    1.70
  -7  -1   1   75.19    3.40
  -7  -1   0    6.80    1.30
  -7  -1  -1   71.19    3.40
  -7  -1  -2    6.60    1.40
  -7  -1  -3   15.10    2.00
  -7  -1  -4    0.90    0.90
   6   1  -8    0.30    0.70
   6   1  -7   16.70    1.80
   6   1  -6   12.80    1.40
   6   1  -5    2.50    0.80
  -6  -1   0 1138.29   22.20
  -6  -1  -1  118.69    4.20
  -6  -1  -2  332.27    8.50
  -6  -1  -3   60.79    3.10
  -6  -1  -4    8.70    1.50
  -6  -1  -5   34.40    2.70
   5   1  -8    1.70    1.00
   5   1  -7    0.80    0.70
   5   1  -6    6.80    1.10
   5   1  -6    6.70    1.00
   5   1  -5   18.00    1.30
   5   1  -5   16.90    1.30
   5   1  -4   10.70    0.90
   5   1  -4   11.50    1.10
   5   1  -3   71.79    2.10
   5   1  -3   72.69    2.20
  -5  -1   0  185.48    3.40
  -5  -1   0  182.58    4.90
  -5  -1  -1  121.19    3.90
  -5  -1  -2  171.98    5.10
  -5  -1  -3  140.39    4.60
  -5  -1  -4  778.92   16.70
  -5  -1  -5   50.39    3.00
  -5  -1  -6   81.19    4.00
   4   1  -8    4.10    1.20
   4   1  -7    2.50    0.80
   4   1  -7    1.60    0.80
   4   1  -6    4.20    0.90
   4   1  -6    4.30    0.90
   4   1  -5    1.60    0.60
   4   1  -5    1.40    0.60
   4   1  -4   21.30    1.20
   4   1  -4   17.40    1.10
   4   1  -3    3.90    0.60
   4   1  -3    4.00    0.60
   4   1  -2    9.50    0.60
   4   1  -2    8.50    0.60
  -4  -1   0   35.20    1.70
  -4  -1  -1   82.39    2.80
  -4  -1  -1   81.59    2.00
  -4  -1  -2   55.39    2.40
  -4  -1  -2   59.99    1.90
  -4  -1  -3   18.10    1.50
  -4  -1  -3   21.80    1.40
  -4  -1  -4   53.69    2.70
  -4  -1  -4   53.69    2.40
  -4  -1  -5   56.89    2.70
  -4  -1  -5   58.89    3.00
  -4  -1  -6  162.18    5.70
  -4  -1  -6  163.38    5.30
  -4  -1  -7   33.30    2.70
   3   1  -8  143.79    5.20
   3   1  -7    7.00    1.20
   3   1  -7    6.80    1.10
   3   1  -6    3.80    1.00
   3   1  -6    3.40    0.80
   3   1  -5   72.39    2.70
   3   1  -5   72.69    2.50
   3   1  -4    4.80    0.70
   3   1  -4    4.40    0.70
   3   1  -3   67.69    2.10
   3   1  -3   68.49    2.00
   3   1  -2   28.30    1.00
   3   1  -2   28.40    1.10
  -3  -1   0   84.29    2.50
  -3  -1  -1   22.00    1.20
  -3  -1  -2   11.80    0.90
  -3  -1  -2   11.70    1.00
  -3  -1  -2   12.20    0.50
  -3  -1  -3   60.09    1.50
  -3  -1  -3   59.69    2.40
  -3  -1  -3   58.49    2.20
  -3  -1  -4   23.20    1.70
  -3  -1  -4   23.40    1.10
  -3  -1  -4   22.90    1.60
  -3  -1  -5   11.40    1.50
  -3  -1  -5    9.10    1.30
  -3  -1  -6   20.90    2.00
  -3  -1  -6   24.10    2.10
  -3  -1  -7   10.20    1.70
  -3  -1  -7   11.20    1.70
   2   1  -8  108.29    4.50
   2   1  -7   14.30    1.80
   2   1  -7   19.40    1.70
   2   1  -6  322.87    8.00
   2   1  -6  321.67    7.30
   2   1  -5    6.70    0.90
   2   1  -5    8.70    1.10
   2   1  -4  802.62   16.60
   2   1  -4  945.91   16.40
   2   1  -3  188.28    4.20
   2   1  -3  190.78    4.40
   2   1  -2   23.80    1.00
   2   1  -2   23.20    1.00
   2   1  -1  635.04   11.30
   2   1   1  134.59    2.50
  -2  -1  -1  138.69    2.50
  -2  -1  -1  139.29    3.20
  -2  -1  -2   36.80    1.00
  -2  -1  -2   36.60    1.50
  -2  -1  -3    6.50    0.60
  -2  -1  -3    5.80    0.90
  -2  -1  -3    7.10    0.90
  -2  -1  -4   13.60    0.80
  -2  -1  -4   14.70    1.30
  -2  -1  -4   14.40    1.30
  -2  -1  -5    0.20    0.60
  -2  -1  -5    0.50    0.40
  -2  -1  -5    0.50    0.70
  -2  -1  -6    6.80    1.30
  -2  -1  -6    5.30    1.20
  -2  -1  -7    1.80    0.90
  -2  -1  -7    1.00    1.00
  -2  -1  -8    5.40    1.40
   1   1  -8   62.19    3.40
   1   1  -7   25.60    2.00
   1   1  -6  820.72   16.10
   1   1  -6  834.32   17.00
   1   1  -5   53.89    2.10
   1   1  -5   56.29    2.50
   1   1  -4  203.98    5.10
   1   1  -4  197.08    4.50
   1   1  -3  181.08    4.20
   1   1  -3  175.18    3.90
   1   1  -2 4577.74   79.69
   1   1  -2 4353.96   78.69
   1   1  -1  113.49    2.40
   1   1  -1  115.29    2.30
  -1  -1  -1  816.32   14.70
  -1  -1  -1  822.22   14.30
  -1  -1  -2   20.50    0.80
  -1  -1  -2   14.60    0.90
  -1  -1  -3  308.87    6.10
  -1  -1  -3  313.17    6.70
  -1  -1  -3  316.17    6.70
  -1  -1  -4    7.10    0.70
  -1  -1  -4    7.00    1.00
  -1  -1  -4    6.90    0.90
  -1  -1  -5   16.00    1.10
  -1  -1  -5   18.30    1.50
  -1  -1  -5   19.30    1.60
  -1  -1  -6    5.30    0.80
  -1  -1  -6    3.60    1.00
  -1  -1  -6    4.00    1.00
  -1  -1  -7    2.70    0.80
  -1  -1  -7    1.90    1.00
  -1  -1  -8    3.80    1.30
   0   1  -8    1.40    1.00
   0   1  -7   27.60    2.20
   0   1  -6    0.90    0.60
   0   1  -6    0.80    0.80
   0   1  -5  145.89    4.40
   0   1  -5  146.99    3.80
   0   1  -4  497.65   10.50
   0   1  -4  525.45    9.90
   0   1  -4  503.65   10.60
   0   1  -3  129.79    3.00
   0   1  -3  127.59    3.40
   0   1  -3  136.39    3.50
   0   1  -2 5977.60  108.09
   0   1  -2 6389.26  109.59
   0   1  -2 5995.90  109.29
   0   1  -1  315.87    6.00
   0   1  -1  317.37    5.90
   0  -1   0   -0.80    0.10
   0  -1  -1  332.27    6.00
   0  -1  -1  329.07    6.10
   0  -1  -2 6217.78  109.29
   0  -1  -2 6191.18  109.99
   0  -1  -3  133.19    3.10
   0  -1  -3  133.99    3.40
   0  -1  -3  132.59    3.50
   0  -1  -4  510.05   10.00
   0  -1  -4  523.85   10.70
   0  -1  -5  147.79    3.80
   0  -1  -5  144.79    4.40
   0  -1  -6    0.10    0.70
   0  -1  -6    0.70    0.50
   0  -1  -7   33.50    1.80
   0  -1  -7   28.60    2.20
   0  -1  -8    1.70    0.70
   0  -1  -8    1.40    1.10
  -1   1  -8    3.60    1.20
  -1   1  -7    1.00    0.90
  -1   1  -6    3.90    1.10
  -1   1  -6    4.90    1.10
  -1   1  -5   19.90    1.70
  -1   1  -5   19.40    1.60
  -1   1  -4    8.70    1.10
  -1   1  -4    7.00    0.70
  -1   1  -4    6.20    0.90
  -1   1  -3  301.57    6.50
  -1   1  -3  290.37    5.80
  -1   1  -3  290.67    6.40
  -1   1  -2   13.50    0.90
  -1   1  -2   13.40    1.00
  -1   1  -1  852.61   15.00
  -1   1  -1  833.92   15.20
  -1   1   0 3264.67   56.89
  -1   1   0 3309.07   58.39
   1  -1   0 3240.68   56.99
   1  -1   0 3240.68   56.99
   1  -1  -1  115.99    2.40
   1  -1  -2 4594.14   81.79
   1  -1  -3  179.08    4.30
   1  -1  -3  181.38    4.00
   1  -1  -4  193.48    4.90
   1  -1  -4  195.98    4.50
   1  -1  -5   57.29    2.50
   1  -1  -6  822.62   16.90
   1  -1  -6  824.52   16.00
   1  -1  -7   21.90    1.60
   1  -1  -7   25.70    2.10
   1  -1  -8   61.29    2.80
   1  -1  -8   60.49    3.40
  -2   1  -8    3.10    1.10
  -2   1  -7    2.50    1.10
  -2   1  -7    2.00    1.10
  -2   1  -6    3.80    1.10
  -2   1  -6    4.50    1.10
  -2   1  -5    0.10    0.60
  -2   1  -5    0.00    0.70
  -2   1  -4   13.90    1.40
  -2   1  -4   14.70    1.30
  -2   1  -3    7.00    0.90
  -2   1  -3    7.00    1.00
  -2   1  -2   33.70    1.30
  -2   1  -2   33.10    1.50
  -2   1  -1  140.39    3.40
  -2   1  -1  138.89    2.90
   2  -1   1  133.39    2.50
  -2   1   0    9.80    0.80
  -2   1   0   10.70    0.40
   2  -1   0   11.00    0.40
   2  -1   0   11.80    0.40
   2  -1  -1  593.74   10.70
   2  -1  -2   22.00    1.00
   2  -1  -2   23.40    1.00
   2  -1  -3  192.48    4.40
   2  -1  -3  183.08    4.10
   2  -1  -4  807.62   16.60
   2  -1  -4  940.71   16.40
   2  -1  -5    8.90    1.20
   2  -1  -5    7.30    0.90
   2  -1  -6  317.27    7.90
   2  -1  -6  316.07    7.20
   2  -1  -7   13.40    1.70
   2  -1  -7   17.50    1.40
   2  -1  -8  102.69    3.70
   2  -1  -8  100.19    4.40
  -3   1  -7   10.30    1.60
  -3   1  -7    9.70    1.80
  -3   1  -6   26.00    2.10
  -3   1  -6   20.50    2.20
  -3   1  -5   11.90    1.50
  -3   1  -5    9.50    1.40
  -3   1  -4   25.00    1.60
  -3   1  -4   25.00    1.80
  -3   1  -3   57.89    2.20
  -3   1  -3   60.99    2.50
  -3   1  -2   12.30    1.10
  -3   1  -2   10.80    0.90
  -3   1  -1   21.10    0.80
  -3   1  -1   19.80    1.20
  -3   1   0   75.89    2.30
   3  -1   0   80.19    1.60
   3  -1  -1    9.80    0.40
   3  -1  -1   10.30    0.60
   3  -1  -2   28.90    1.10
   3  -1  -2   28.10    1.10
   3  -1  -3   67.29    2.10
   3  -1  -3   70.69    2.10
   3  -1  -4    4.90    0.70
   3  -1  -4    6.50    0.90
   3  -1  -5   73.79    2.60
   3  -1  -5   71.19    2.70
   3  -1  -6    4.40    0.80
   3  -1  -6    2.70    0.90
   3  -1  -7    9.00    1.40
   3  -1  -7    6.80    1.00
   3  -1  -8  151.08    5.40
   3  -1  -8  153.58    4.80
  -4   1  -7   36.30    3.00
  -4   1  -6  161.68    5.80
  -4   1  -6  152.78    5.00
  -4   1  -5   52.99    3.00
  -4   1  -5   51.89    2.50
  -4   1  -4   50.29    2.70
  -4   1  -4   49.10    2.30
  -4   1  -3   17.70    1.20
  -4   1  -3   21.80    1.70
  -4   1  -2   56.69    2.40
  -4   1  -2   57.29    1.80
  -4   1  -1   80.89    2.80
  -4   1  -1   80.29    1.90
  -4   1   0   36.30    1.70
   4  -1   0   36.40    0.80
   4  -1  -1  157.78    3.30
   4  -1  -2    8.70    0.60
   4  -1  -2    8.20    0.50
   4  -1  -3    4.80    0.60
   4  -1  -3    4.80    0.60
   4  -1  -4   18.00    1.20
   4  -1  -4   18.90    1.20
   4  -1  -5    1.90    0.70
   4  -1  -5    2.30    0.70
   4  -1  -6    3.00    0.70
   4  -1  -6    3.30    0.90
   4  -1  -7    0.90    0.80
   4  -1  -7    3.40    0.80
   4  -1  -8    1.90    1.00
   4  -1  -8    2.50    0.90
  -5   1  -6   68.49    3.80
  -5   1  -5   45.10    2.90
  -5   1  -4  779.22   16.80
  -5   1  -3  133.39    4.60
  -5   1  -2  181.88    5.30
  -5   1  -1  119.59    3.90
  -5   1   0  191.58    5.20
   5  -1  -1    5.10    0.50
   5  -1  -2   48.50    1.50
   5  -1  -2   49.30    1.20
   5  -1  -3   71.39    2.00
   5  -1  -3   73.29    2.20
   5  -1  -4   12.20    1.10
   5  -1  -4   10.20    0.90
   5  -1  -5   18.00    1.30
   5  -1  -5   16.20    1.30
   5  -1  -6    5.90    0.90
   5  -1  -6    7.60    1.20
   5  -1  -7   -0.20    0.60
   5  -1  -7    0.10    0.70
   5  -1  -8    1.10    0.80
   5  -1  -8    1.30    0.80
  -6   1  -5   33.90    2.80
  -6   1  -4    7.60    1.50
  -6   1  -2  329.07    8.50
  -6   1  -1  116.39    4.20
  -6   1   0 1052.59   20.70
  -6   1   1  160.48    4.90
   6  -1  -2   38.70    1.40
   6  -1  -3   41.00    1.60
   6  -1  -4  169.38    4.30
   6  -1  -5    3.70    0.80
   6  -1  -6   12.80    1.60
   6  -1  -6   14.40    1.50
   6  -1  -7   11.90    1.50
   6  -1  -7   15.50    1.60
   6  -1  -8    0.40    1.00
   6  -1  -8    0.80    0.70
  -7   1  -4    1.70    1.10
  -7   1  -3   18.70    2.30
  -7   1  -2    2.10    1.00
  -7   1  -1   74.49    3.50
  -7   1   0    6.20    1.30
  -7   1   1   71.69    3.20
   7  -1  -3   75.69    2.40
   7  -1  -4  552.04   11.10
   7  -1  -5   41.20    2.00
   7  -1  -6    1.90    0.70
   7  -1  -7    1.50    0.70
  -8   1  -3    6.30    1.60
  -8   1  -2    6.60    1.50
  -8   1  -1    7.40    1.50
  -8   1   0    5.40    1.30
  -8   1   1   23.10    2.00
  -8   1   2    5.10    1.20
  -9   1  -1    1.10    1.10
  -9   1   0    5.10    1.40
  -9   1   1   10.60    1.80
  -9   1   2    3.10    1.20
  -9   1   3    3.90    1.20
  -9  -2   2    6.80    1.50
  -9  -2   1    2.30    1.10
  -9  -2   0   34.30    2.70
  -9  -2  -1   22.60    2.50
  -8  -2   1    9.10    1.60
  -8  -2   0   10.10    1.70
  -8  -2  -1   26.20    2.30
  -8  -2  -2    9.80    1.70
  -8  -2  -3    0.40    0.90
  -7  -2   1   28.40    2.10
  -7  -2   0    3.50    1.00
  -7  -2  -1    2.50    1.00
  -7  -2  -2   25.90    2.20
  -7  -2  -3    4.10    1.20
  -7  -2  -4    6.90    1.50
   6   2  -8   19.40    2.10
   6   2  -7    0.90    0.70
   6   2  -6    1.00    0.60
   6   2  -5   25.60    1.60
  -6  -2   0    2.50    0.80
  -6  -2  -1   26.50    1.90
  -6  -2  -2   63.39    3.10
  -6  -2  -3   24.30    2.00
  -6  -2  -4    1.90    1.00
  -6  -2  -5    3.80    1.30
   5   2  -8   15.50    1.90
   5   2  -7   44.50    2.50
   5   2  -6   27.20    1.80
   5   2  -5    9.20    1.10
   5   2  -4  128.59    3.50
   5   2  -3   19.70    1.00
  -5  -2   0    0.30    0.20
  -5  -2   0    0.10    0.50
  -5  -2  -1   42.00    2.10
  -5  -2  -1   45.90    2.00
  -5  -2  -2   36.00    2.10
  -5  -2  -3   11.60    1.50
  -5  -2  -4    5.80    1.30
  -5  -2  -5   17.10    2.00
  -5  -2  -6   33.00    2.60
   4   2  -8   19.20    2.10
   4   2  -7   22.70    1.90
   4   2  -6   17.90    1.50
   4   2  -5  187.58    5.00
   4   2  -4   52.29    2.00
   4   2  -3  167.18    3.90
   4   2  -2  275.87    5.50
  -4  -2   0  295.87    5.50
  -4  -2   0  301.77    6.70
  -4  -2  -1   32.00    1.60
  -4  -2  -2   12.50    1.20
  -4  -2  -3   22.30    1.60
  -4  -2  -3   20.80    1.40
  -4  -2  -4    6.60    1.20
  -4  -2  -4    4.20    0.90
  -4  -2  -5   20.30    1.90
  -4  -2  -5   21.50    1.80
  -4  -2  -6   25.60    2.20
  -4  -2  -6   26.60    2.10
  -4  -2  -7    1.20    1.00
   3   2  -8    4.70    1.30
   3   2  -7   23.80    1.90
   3   2  -6    6.90    1.20
   3   2  -5   24.10    1.60
   3   2  -5   25.30    1.50
   3   2  -4  182.18    4.30
   3   2  -4  177.28    4.50
   3   2  -3  231.78    5.10
   3   2  -2  166.48    3.60
  -3  -2  -1  208.18    4.70
  -3  -2  -1  198.38    3.70
  -3  -2  -2  337.17    7.30
  -3  -2  -2  336.57    6.20
  -3  -2  -3   37.20    1.20
  -3  -2  -3   35.90    1.70
  -3  -2  -3   41.00    1.90
  -3  -2  -4   86.79    3.00
  -3  -2  -4   84.09    2.20
  -3  -2  -4   82.99    3.20
  -3  -2  -5    6.70    1.20
  -3  -2  -5    6.60    1.20
  -3  -2  -6    4.10    1.10
  -3  -2  -6    3.30    1.00
  -3  -2  -7    4.70    1.30
  -3  -2  -7    1.50    1.00
   2   2  -8   29.70    2.40
   2   2  -7    2.50    1.00
   2   2  -6   11.50    1.50
   2   2  -5   62.19    2.60
   2   2  -5   59.19    2.20
   2   2  -4   43.50    1.70
   2   2  -4   44.30    1.90
   2   2  -3  177.08    4.10
   2   2  -3  172.88    3.90
   2   2  -2  212.68    4.50
   2   2  -1  176.88    3.50
  -2  -2  -1  646.04   11.90
  -2  -2  -1  625.54   11.20
  -2  -2  -2  158.98    3.80
  -2  -2  -2  159.68    3.20
  -2  -2  -3  362.16    7.00
  -2  -2  -3  370.96    7.90
  -2  -2  -4   44.00    2.10
  -2  -2  -4   46.40    2.10
  -2  -2  -4   47.20    1.60
  -2  -2  -5   25.80    1.80
  -2  -2  -5   24.00    1.30
  -2  -2  -5   23.40    1.70
  -2  -2  -6   65.79    3.20
  -2  -2  -6   70.89    3.30
  -2  -2  -7    9.40    1.60
  -2  -2  -7   11.00    1.70
  -2  -2  -8    8.30    1.70
   1   2  -8    2.60    1.10
   1   2  -7   30.90    2.30
   1   2  -6    3.40    1.00
   1   2  -5   23.20    1.70
   1   2  -4   84.09    2.50
   1   2  -4   79.09    2.70
   1   2  -3   37.10    1.60
   1   2  -2    3.20    0.50
   1   2  -1  700.93   12.60
  -1  -2   0  182.58    3.40
  -1  -2  -1  387.86    7.20
  -1  -2  -1  392.36    7.10
  -1  -2  -2  340.87    6.40
  -1  -2  -2  344.07    6.80
  -1  -2  -3   56.39    1.70
  -1  -2  -3   62.29    2.10
  -1  -2  -4  126.99    3.70
  -1  -2  -4  132.79    3.20
  -1  -2  -4  133.99    3.90
  -1  -2  -5   92.69    3.30
  -1  -2  -5   99.39    3.50
  -1  -2  -5   98.39    2.80
  -1  -2  -6   31.20    1.60
  -1  -2  -6   33.80    2.20
  -1  -2  -7   48.00    2.90
  -1  -2  -7   47.40    2.20
  -1  -2  -8    5.10    1.30
   0   2  -8    4.80    1.30
   0   2  -7    2.50    1.00
   0   2  -6   41.60    2.40
   0   2  -5   29.00    1.80
   0   2  -4   18.60    1.30
   0   2  -4   16.60    1.30
   0   2  -3  268.67    5.90
   0   2  -3  273.97    6.10
   0   2  -2   23.50    1.20
   0   2  -2   24.30    1.10
   0   2  -1  199.78    4.00
   0   2   0  526.85    9.30
   0  -2   0  535.15    9.60
   0  -2   0  535.45    9.40
   0   2   1  176.48    3.50
   0  -2  -1  194.48    3.60
   0  -2  -2   24.90    1.00
   0  -2  -2   24.10    0.90
   0  -2  -3  286.57    6.00
   0  -2  -3  285.37    5.80
   0  -2  -4   18.40    1.10
   0  -2  -4   15.90    1.30
   0  -2  -5   26.00    1.40
   0  -2  -5   30.00    1.90
   0  -2  -6   40.50    1.90
   0  -2  -6   41.70    2.40
   0  -2  -7    1.60    1.00
   0  -2  -7    2.00    0.70
   0  -2  -8    7.60    1.10
   0  -2  -8    6.60    1.40
  -1   2  -8    7.30    1.60
  -1   2  -7   50.69    2.90
  -1   2  -6   36.20    2.30
  -1   2  -6   35.30    2.30
  -1   2  -5   97.59    3.60
  -1   2  -5   97.59    3.50
  -1   2  -4  127.89    3.90
  -1   2  -4  128.99    3.80
  -1   2  -3   57.39    2.10
  -1   2  -3   54.69    2.10
  -1   2  -2  316.67    6.50
  -1   2  -2  330.07    6.80
  -1   2  -1  404.56    7.60
  -1   2  -1  408.36    7.80
  -1   2   0  191.68    3.70
   1  -2   0  185.78    3.50
   1  -2  -1  694.33   12.40
   1  -2  -2    3.70    0.50
   1  -2  -3   35.70    1.40
   1  -2  -4   82.59    2.40
   1  -2  -4   82.79    2.80
   1  -2  -5   25.50    1.40
   1  -2  -5   25.90    1.70
   1  -2  -6    3.30    0.70
   1  -2  -6    3.90    1.00
   1  -2  -7   27.00    1.70
   1  -2  -7   30.70    2.30
   1  -2  -8    4.90    1.30
   1  -2  -8    3.40    0.90
  -2   2  -8    8.10    1.60
  -2   2  -7   10.50    1.60
  -2   2  -7   10.20    1.70
  -2   2  -6   71.79    3.20
  -2   2  -6   65.99    3.30
  -2   2  -5   26.90    2.00
  -2   2  -5   24.70    1.80
  -2   2  -4   49.40    2.20
  -2   2  -4   49.20    2.40
  -2   2  -3  369.56    7.90
  -2   2  -3  381.46    8.30
  -2   2  -2  159.08    4.10
  -2   2  -2  159.98    3.70
  -2   2  -1  651.63   12.20
  -2   2  -1  640.44   11.60
   2  -2   1  629.14   11.20
  -2   2   0  693.33   12.80
   2  -2   0  689.43   12.20
   2  -2  -1  181.38    3.60
   2  -2  -3  179.48    4.00
   2  -2  -4   47.10    1.80
   2  -2  -4   46.00    2.00
   2  -2  -5   60.39    2.50
   2  -2  -5   56.99    2.20
   2  -2  -6   12.70    1.30
   2  -2  -6   11.80    1.50
   2  -2  -7    3.30    0.80
   2  -2  -7    2.30    1.00
   2  -2  -8   32.70    2.50
   2  -2  -8   29.00    2.00
  -3   2  -7    4.40    1.20
  -3   2  -7    4.40    1.30
  -3   2  -6    2.90    1.10
  -3   2  -6    2.50    1.00
  -3   2  -5    5.20    1.10
  -3   2  -5    7.70    1.20
  -3   2  -4   82.09    3.30
  -3   2  -4   82.09    2.90
  -3   2  -3   37.70    1.70
  -3   2  -3   36.20    2.00
  -3   2  -2  348.07    7.70
  -3   2  -2  340.77    6.90
  -3   2  -1  209.98    5.00
  -3   2  -1  208.18    4.20
   3  -2   1  210.58    3.80
  -3   2   0  142.99    3.60
   3  -2   0  141.49    2.80
   3  -2   0  144.49    2.80
   3  -2  -1  895.81   15.90
   3  -2  -2  161.98    3.60
   3  -2  -3  251.07    5.40
   3  -2  -3  241.48    5.30
   3  -2  -4  181.88    4.60
   3  -2  -4  186.58    4.40
   3  -2  -5   24.00    1.40
   3  -2  -5   26.00    1.60
   3  -2  -6    8.70    1.10
   3  -2  -6    6.90    1.20
   3  -2  -7   20.90    1.60
   3  -2  -7   20.80    1.90
   3  -2  -8    3.50    0.90
   3  -2  -8    4.00    1.10
  -4   2  -7   -0.30    0.90
  -4   2  -6   21.70    2.00
  -4   2  -6   21.30    2.40
  -4   2  -5   22.90    1.70
  -4   2  -5   19.90    2.10
  -4   2  -4    4.20    0.90
  -4   2  -4    3.30    1.00
  -4   2  -3   18.60    1.60
  -4   2  -3   21.50    1.30
  -4   2  -2    9.20    1.20
  -4   2  -2   10.80    0.80
  -4   2  -1   32.10    1.70
  -4   2  -1   32.60    1.00
  -4   2   0  288.77    6.50
   4  -2   0  281.07    5.20
   4  -2  -1   55.39    1.50
   4  -2  -2  263.57    5.10
   4  -2  -2  255.57    5.30
   4  -2  -3  163.88    3.80
   4  -2  -3  165.08    3.90
   4  -2  -4   51.09    2.00
   4  -2  -4   52.29    2.00
   4  -2  -5  186.68    4.80
   4  -2  -5  198.28    5.10
   4  -2  -6   20.00    1.50
   4  -2  -6   18.40    1.60
   4  -2  -7   21.90    1.60
   4  -2  -7   21.80    1.90
   4  -2  -8   18.00    1.70
   4  -2  -8   17.60    2.00
  -5   2  -6   28.00    2.50
  -5   2  -5   16.80    2.10
  -5   2  -4    5.80    1.30
  -5   2  -3   12.30    1.60
  -5   2  -2   36.10    2.20
  -5   2  -1   43.20    2.20
  -5   2   0    1.20    0.60
   5  -2   0    0.30    0.10
   5  -2  -1   44.60    1.30
   5  -2  -2   12.30    0.80
   5  -2  -2   10.80    0.50
   5  -2  -3   17.60    1.10
   5  -2  -3   19.20    1.00
   5  -2  -4  128.49    3.50
   5  -2  -4  128.29    3.40
   5  -2  -5   10.60    1.20
   5  -2  -5    8.30    1.00
   5  -2  -6   25.70    1.80
   5  -2  -6   24.20    1.60
   5  -2  -7   44.50    2.50
   5  -2  -7   46.00    2.30
   5  -2  -8   17.40    2.00
   5  -2  -8   14.80    1.70
  -6   2  -5    5.10    1.40
  -6   2  -4    3.50    1.20
  -6   2  -3   22.10    2.30
  -6   2  -2   63.19    3.10
  -6   2  -1   27.50    2.00
  -6   2   0    2.10    0.90
  -6   2   1   19.50    1.60
   6  -2  -2   43.30    1.50
   6  -2  -3   34.20    1.50
   6  -2  -4    0.20    0.40
   6  -2  -5   22.80    1.50
   6  -2  -6    0.80    1.00
   6  -2  -6    1.30    0.60
   6  -2  -7    1.20    0.70
   6  -2  -7    1.00    1.00
   6  -2  -8   19.00    1.80
  -7   2  -4    6.30    1.50
  -7   2  -3    2.80    1.10
  -7   2  -2   22.80    2.10
  -7   2  -1    0.90    0.80
  -7   2   0    4.80    1.20
  -7   2   1   33.70    2.30
  -7   2   2   53.99    2.80
   7  -2  -3   22.40    1.20
   7  -2  -4    2.10    0.60
   7  -2  -5   14.30    1.40
   7  -2  -6   33.80    2.00
   7  -2  -7   12.80    1.50
  -8   2  -3   -0.60    0.80
  -8   2  -2    6.70    1.50
  -8   2  -1   26.40    2.40
  -8   2   0   10.30    1.70
  -8   2   1    8.30    1.40
  -8   2   2   27.10    2.20
   8  -2  -5   15.80    1.50
   8  -2  -6   17.60    1.60
  -9   2  -1   22.70    2.60
  -9   2   0   36.80    2.90
  -9   2   1    3.00    1.10
  -9   2   2    8.70    1.70
  -9   2   3   31.90    2.60
  -9  -3   2   27.50    2.40
  -9  -3   1  132.99    5.20
  -9  -3   0   69.09    3.70
  -9  -3  -1   65.79    3.70
  -8  -3   1    3.70    1.10
  -8  -3   0   10.50    1.70
  -8  -3  -1   36.70    2.60
  -8  -3  -2   49.40    3.20
  -8  -3  -3  113.69    4.90
  -7  -3   1    4.60    1.10
  -7  -3   0   10.10    1.50
  -7  -3  -1    1.10    0.80
  -7  -3  -2   24.10    2.10
  -7  -3  -3    1.50    0.90
  -7  -3  -4    1.60    1.00
   6   3  -8   13.80    1.90
   6   3  -7   15.70    1.80
   6   3  -6    5.40    1.00
   6   3  -5    2.30    0.70
  -6  -3   0    0.40    0.60
  -6  -3  -1   -0.10    0.60
  -6  -3  -2   11.50    1.50
  -6  -3  -3    7.40    1.30
  -6  -3  -4    3.30    1.00
  -6  -3  -5   -0.10    0.80
   5   3  -8    4.30    1.20
   5   3  -7   52.89    2.80
   5   3  -6  129.59    4.20
   5   3  -5  212.78    5.50
   5   3  -4   48.50    1.90
   5   3  -3   59.29    1.90
  -5  -3   0    4.00    0.40
  -5  -3   0    4.60    0.90
  -5  -3  -1   31.70    1.80
  -5  -3  -2    3.00    0.80
  -5  -3  -3    4.60    1.00
  -5  -3  -4    0.40    0.70
  -5  -3  -5    0.30    0.70
  -5  -3  -6    6.00    1.40
   4   3  -8   29.70    2.30
   4   3  -7   97.99    3.90
   4   3  -6   79.89    3.20
   4   3  -5   12.00    1.30
   4   3  -4   87.09    2.80
   4   3  -3  520.25   10.10
  -4  -3   0  126.99    2.60
  -4  -3   0  122.39    3.50
  -4  -3  -1   64.59    1.40
  -4  -3  -1   60.49    2.30
  -4  -3  -2    7.50    1.00
  -4  -3  -2    6.80    0.40
  -4  -3  -3   11.50    1.30
  -4  -3  -4    1.10    0.70
  -4  -3  -4   -0.50    0.60
  -4  -3  -5    9.40    1.40
  -4  -3  -5    7.00    1.20
  -4  -3  -6   -0.70    0.80
  -4  -3  -6    0.10    0.70
  -4  -3  -7    1.00    1.30
  -4  -3  -7    1.60    1.00
   3   3  -8    1.40    0.90
   3   3  -7    5.40    1.20
   3   3  -6    0.30    0.70
   3   3  -5  114.39    3.60
   3   3  -4  255.17    5.90
   3   3  -3  539.75   10.50
   3   3  -2  246.28    5.10
  -3  -3   0  597.34   10.70
  -3  -3  -1 1402.26   25.60
  -3  -3  -1 1423.16   24.70
  -3  -3  -2  667.93   12.90
  -3  -3  -2  657.03   11.90
  -3  -3  -3  422.76    7.90
  -3  -3  -3  409.86    8.90
  -3  -3  -4   17.00    0.90
  -3  -3  -4   17.90    1.50
  -3  -3  -5    8.10    1.20
  -3  -3  -5   11.40    1.40
  -3  -3  -6    2.20    1.00
  -3  -3  -6    5.60    1.20
  -3  -3  -7    4.90    1.30
  -3  -3  -7    3.90    1.20
   2   3  -8    0.00    0.90
   2   3  -7    4.10    1.10
   2   3  -6    2.30    0.90
   2   3  -5   16.90    1.40
   2   3  -4   26.20    1.50
   2   3  -3   65.19    2.10
   2   3  -2   39.00    1.40
  -2  -3   0  973.00   17.10
  -2  -3  -1  778.82   13.70
  -2  -3  -1  770.52   14.20
  -2  -3  -2   93.19    2.10
  -2  -3  -2   88.69    2.50
  -2  -3  -3  112.99    2.70
  -2  -3  -3  116.89    3.30
  -2  -3  -4  277.77    6.60
  -2  -3  -4  281.27    5.80
  -2  -3  -5  362.66    8.60
  -2  -3  -5  373.86    7.60
  -2  -3  -5  366.96    8.60
  -2  -3  -6  119.39    4.20
  -2  -3  -6  113.89    4.30
  -2  -3  -7   60.69    3.30
  -2  -3  -8    1.60    1.10
   1   3  -8    4.90    1.30
   1   3  -7    0.40    0.80
   1   3  -6    5.50    1.10
   1   3  -5   16.50    1.40
   1   3  -4   21.70    1.40
   1   3  -3   58.49    2.00
   1   3  -2   73.39    2.10
   1   3  -1  138.49    3.00
  -1  -3   0  199.28    3.80
  -1  -3  -1  172.78    3.40
  -1  -3  -1  169.78    3.40
  -1  -3  -2   79.19    1.90
  -1  -3  -2   77.29    2.10
  -1  -3  -3  319.97    6.60
  -1  -3  -3  312.07    6.20
  -1  -3  -4  242.18    5.70
  -1  -3  -4  239.48    5.20
  -1  -3  -5   52.89    2.00
  -1  -3  -5   51.29    2.50
  -1  -3  -5   55.39    2.40
  -1  -3  -6    2.80    0.70
  -1  -3  -6    5.00    1.10
  -1  -3  -7   46.70    2.90
  -1  -3  -7   49.30    2.20
  -1  -3  -8   58.99    3.40
   0   3  -8   38.40    2.80
   0   3  -7   27.50    2.20
   0   3  -6   12.40    1.50
   0   3  -5   17.00    1.50
   0   3  -4   39.70    2.00
   0   3  -4   39.50    1.90
   0   3  -3   27.90    1.40
   0   3  -3   28.30    1.50
   0   3  -2  102.49    2.80
   0   3  -2  105.09    2.70
   0   3  -1  155.08    3.30
   0   3  -1  152.88    3.30
   0   3   0   98.39    2.00
   0  -3   0  102.49    2.10
   0  -3   0  101.49    2.00
   0   3   1  138.99    2.60
   0  -3  -2  102.69    2.40
   0  -3  -3   29.40    1.20
   0  -3  -4   39.50    1.60
   0  -3  -5   14.80    1.50
   0  -3  -5   14.90    1.10
   0  -3  -6   11.70    1.50
   0  -3  -6    8.60    1.10
   0  -3  -7   28.80    1.70
   0  -3  -7   23.00    2.00
   0  -3  -8   28.60    2.50
   0  -3  -8   33.20    2.00
  -1   3  -8   67.59    3.60
  -1   3  -7   54.99    3.10
  -1   3  -6    3.90    1.10
  -1   3  -6    3.90    1.10
  -1   3  -5   49.20    2.50
  -1   3  -5   50.89    2.40
  -1   3  -4  226.58    5.60
  -1   3  -4  224.38    5.80
  -1   3  -3  317.57    6.80
  -1   3  -3  310.87    7.00
  -1   3  -2   75.39    2.20
  -1   3  -2   78.69    2.40
  -1   3  -1  174.98    3.60
  -1   3  -1  168.38    3.80
  -1   3   0  210.38    4.10
   1  -3   0  204.88    4.00
   1  -3  -1  139.59    2.90
   1  -3  -2   74.09    1.90
   1  -3  -3   57.69    1.80
   1  -3  -4   26.20    1.30
   1  -3  -5   17.70    1.20
   1  -3  -5   18.80    1.50
   1  -3  -6    8.90    1.40
   1  -3  -6    9.70    1.10
   1  -3  -7    1.60    0.70
   1  -3  -7    0.40    0.80
   1  -3  -8    4.40    1.00
   1  -3  -8    2.20    1.10
  -2   3  -8    0.10    0.90
  -2   3  -7   55.89    3.30
  -2   3  -7   56.89    3.10
  -2   3  -6  115.09    4.20
  -2   3  -6  113.49    4.50
  -2   3  -5  364.96    8.60
  -2   3  -5  369.96    9.10
  -2   3  -4  279.57    6.60
  -2   3  -4  277.77    7.00
  -2   3  -3  114.09    3.20
  -2   3  -3  119.29    3.70
  -2   3  -2   91.29    2.80
  -2   3  -2   89.59    2.50
  -2   3  -1  735.63   13.40
  -2   3  -1  748.13   14.00
   2  -3   1  743.93   13.10
  -2   3   0  997.70   18.20
   2  -3   0 1007.40   17.60
   2  -3  -1  777.42   13.90
   2  -3  -2   40.00    1.30
   2  -3  -3   67.79    2.00
   2  -3  -4   23.70    1.30
   2  -3  -5   17.30    1.40
   2  -3  -5   17.70    1.20
   2  -3  -6    2.10    0.90
   2  -3  -6    4.90    0.90
   2  -3  -7    4.50    1.00
   2  -3  -7    4.80    1.20
   2  -3  -8    1.50    0.70
   2  -3  -8    1.80    1.10
  -3   3  -7    5.80    1.30
  -3   3  -7    6.80    1.60
  -3   3  -6    4.90    1.30
  -3   3  -6    3.40    1.00
  -3   3  -5    9.70    1.50
  -3   3  -5   11.80    1.40
  -3   3  -4   17.50    1.80
  -3   3  -4   15.30    1.30
  -3   3  -3  405.56    8.40
  -3   3  -3  399.66    9.20
  -3   3  -2  668.43   12.40
  -3   3  -2  658.13   13.20
   3  -3   2  652.33   11.80
  -3   3  -1 1360.56   24.20
  -3   3  -1 1360.96   25.20
   3  -3   1 1385.76   23.90
  -3   3   0  592.54   11.30
   3  -3   0  568.04   10.40
   3  -3  -1   54.59    1.50
   3  -3  -2  242.28    5.00
   3  -3  -3  550.24   10.60
   3  -3  -4  243.68    5.50
   3  -3  -5  115.99    3.40
   3  -3  -5  117.59    3.70
   3  -3  -6   -0.20    0.40
   3  -3  -6    1.00    0.60
   3  -3  -7    7.00    1.10
   3  -3  -7    5.40    1.20
   3  -3  -8    2.10    0.90
   3  -3  -8    1.60    0.80
  -4   3  -7    0.90    1.10
  -4   3  -6   -0.10    0.80
  -4   3  -6   -0.20    0.80
  -4   3  -5   10.70    1.30
  -4   3  -5    8.70    1.50
  -4   3  -4    0.00    0.70
  -4   3  -4    0.70    0.60
  -4   3  -3   13.30    1.50
  -4   3  -3   11.20    1.00
  -4   3  -2    7.00    0.70
  -4   3  -2    6.00    1.00
   4  -3   2    6.80    0.30
  -4   3  -1   64.49    2.50
   4  -3   1   61.79    1.30
  -4   3   0  114.89    3.40
   4  -3   0  118.89    2.40
   4  -3  -1  782.52   14.10
   4  -3  -2  653.33   12.20
   4  -3  -3  536.45   10.40
   4  -3  -4   81.49    2.60
   4  -3  -4   87.49    2.70
   4  -3  -5   15.30    1.40
   4  -3  -5   15.20    1.30
   4  -3  -6   85.99    3.30
   4  -3  -6   83.49    3.00
   4  -3  -7   96.99    3.90
   4  -3  -7   94.49    3.50
   4  -3  -8   28.20    2.30
   4  -3  -8   29.60    2.00
  -5   3  -6    5.60    1.50
  -5   3  -5    0.60    0.90
  -5   3  -4   -0.10    0.80
  -5   3  -3    4.80    1.10
  -5   3  -2    2.70    0.90
  -5   3  -1   28.10    1.80
  -5   3   0    3.10    0.80
  -5   3   1    6.70    1.00
   5  -3  -1    6.50    0.60
   5  -3  -2    9.50    0.70
   5  -3  -2    8.20    0.50
   5  -3  -3   60.49    1.90
   5  -3  -3   64.29    2.10
   5  -3  -4   49.00    1.90
   5  -3  -4   49.20    2.00
   5  -3  -5  199.38    5.20
   5  -3  -5  199.48    5.10
   5  -3  -6  134.29    4.30
   5  -3  -6  131.89    4.10
   5  -3  -7   51.99    2.50
   5  -3  -7   50.79    2.70
   5  -3  -8    4.90    1.20
   5  -3  -8    3.70    0.90
  -6   3  -5    0.50    0.90
  -6   3  -4    3.60    1.20
  -6   3  -3   12.10    1.70
  -6   3  -2   12.40    1.70
  -6   3  -1    0.00    0.60
  -6   3   0    1.20    0.70
  -6   3   1   11.50    1.40
   6  -3  -2    5.30    0.60
   6  -3  -3   15.80    1.00
   6  -3  -4    1.70    0.50
   6  -3  -5    0.80    0.50
   6  -3  -6    4.90    0.90
   6  -3  -7   13.20    1.50
   6  -3  -8   11.50    1.50
  -7   3  -4    0.70    1.00
  -7   3  -3    1.70    1.00
  -7   3  -2   23.60    2.10
  -7   3  -1    0.70    0.80
  -7   3   0   11.90    1.70
  -7   3   1    5.60    1.20
  -7   3   2    9.00    1.40
   7  -3  -3    0.70    0.40
   7  -3  -4    0.20    0.50
   7  -3  -5    1.80    0.60
   7  -3  -6    0.70    0.50
   7  -3  -7    1.90    0.70
  -8   3  -3  111.79    5.10
  -8   3  -2   49.99    3.20
  -8   3  -1   34.70    2.70
  -8   3   0   11.30    1.80
  -8   3   1    3.40    1.10
  -8   3   2   26.10    2.20
   8  -3  -5    0.00    0.50
   8  -3  -6    1.10    0.60
  -9   3  -1   68.29    4.00
  -9   3   0   81.39    4.20
  -9   3   1  135.89    5.50
  -9   3   2   31.00    2.60
  -9   3   3   17.40    2.20
  -9  -4   2   38.10    2.80
  -9  -4   1    1.70    0.90
  -9  -4   0    4.80    1.30
  -9  -4  -1   19.40    2.30
  -8  -4   1    9.20    1.50
  -8  -4   0   71.89    3.50
  -8  -4  -1   36.70    2.60
  -8  -4  -2   20.70    2.30
  -8  -4  -3   -0.60    0.70
  -7  -4   1    0.90    0.70
  -7  -4   0    4.20    1.00
  -7  -4  -1   -0.30    0.60
  -7  -4  -2   20.50    2.20
  -7  -4  -3   14.40    1.90
  -7  -4  -4   37.00    2.70
   6   4  -8    2.70    1.10
   6   4  -7   13.50    1.70
   6   4  -6    4.80    1.00
   6   4  -5    1.90    0.70
   6   4  -4   -0.30    0.50
  -6  -4   0    1.30    0.70
  -6  -4  -1   16.80    1.50
  -6  -4  -2   -0.80    0.50
  -6  -4  -3    0.90    0.70
  -6  -4  -4    1.80    0.90
  -6  -4  -5   -0.50    0.80
   5   4  -8   72.19    3.60
   5   4  -7   46.50    2.60
   5   4  -6   19.30    1.70
   5   4  -5   12.60    1.30
   5   4  -4   14.50    1.10
  -5  -4   0    2.90    0.70
  -5  -4   0    2.80    0.40
  -5  -4  -1   15.40    1.30
  -5  -4  -2    1.80    0.70
  -5  -4  -3   11.20    1.40
  -5  -4  -4    1.30    0.80
  -5  -4  -5    3.20    1.00
   4   4  -8    2.40    1.00
   4   4  -7    5.30    1.10
   4   4  -6  103.39    3.80
   4   4  -5  162.58    4.60
   4   4  -4  325.67    7.20
   4   4  -3  101.39    2.90
  -4  -4   0   66.79    1.70
  -4  -4  -1   96.79    3.00
  -4  -4  -1   97.29    2.10
  -4  -4  -2   16.00    0.70
  -4  -4  -2   16.60    1.20
  -4  -4  -3    2.90    0.70
  -4  -4  -4    0.10    0.60
  -4  -4  -4    0.00    0.70
  -4  -4  -5    3.10    0.90
  -4  -4  -5    4.60    1.10
  -4  -4  -6    0.90    0.80
  -4  -4  -6   -0.60    0.80
   3   4  -8    1.60    0.90
   3   4  -7    1.70    0.90
   3   4  -6   10.70    1.40
   3   4  -5   24.30    1.60
   3   4  -4   46.30    2.00
   3   4  -3   53.39    1.90
   3   4  -2  692.23   12.90
  -3  -4   0  755.72   13.60
  -3  -4  -1   69.19    1.70
  -3  -4  -1   71.29    2.20
  -3  -4  -2    7.30    0.80
  -3  -4  -2    6.00    0.50
  -3  -4  -3  103.59    3.20
  -3  -4  -3  103.59    2.50
  -3  -4  -4   52.09    1.70
  -3  -4  -4   50.59    2.30
  -3  -4  -5   25.10    1.90
  -3  -4  -5   20.70    1.70
  -3  -4  -6    6.20    1.30
  -3  -4  -6    5.00    1.20
  -3  -4  -7    0.50    1.00
   2   4  -8    1.60    1.00
   2   4  -7   -0.10    0.60
   2   4  -6    1.30    0.70
   2   4  -5    0.10    0.60
   2   4  -4   12.00    1.20
   2   4  -3   31.20    1.50
   2   4  -2   24.20    1.20
  -2  -4   0  311.37    5.90
  -2  -4  -1  184.88    3.70
  -2  -4  -1  186.88    4.00
  -2  -4  -2  730.13   13.40
  -2  -4  -2  704.93   13.00
  -2  -4  -3  347.57    7.30
  -2  -4  -3  340.97    6.80
  -2  -4  -4  154.28    4.30
  -2  -4  -4  154.38    3.70
  -2  -4  -5    6.00    1.00
  -2  -4  -5    2.50    0.90
  -2  -4  -5    5.10    0.70
  -2  -4  -6    9.70    1.50
  -2  -4  -6    5.90    1.20
  -2  -4  -7   19.50    2.10
   1   4  -8    1.90    0.90
   1   4  -7   -0.10    0.70
   1   4  -6    3.70    1.00
   1   4  -5    0.60    0.60
   1   4  -4    2.50    0.70
   1   4  -3    2.80    0.60
   1   4  -2   42.90    1.60
  -1  -4   0   39.00    1.10
  -1  -4  -1   81.79    1.80
  -1  -4  -1   81.89    1.90
  -1  -4  -2   24.80    1.00
  -1  -4  -2   25.70    1.00
  -1  -4  -3   51.99    1.70
  -1  -4  -3   54.19    1.80
  -1  -4  -4  113.09    3.00
  -1  -4  -4  111.59    3.30
  -1  -4  -5   77.89    2.90
  -1  -4  -5   84.49    2.60
  -1  -4  -6  134.09    3.80
  -1  -4  -6  128.69    4.50
  -1  -4  -7   54.99    2.40
  -1  -4  -7   59.79    3.20
  -1  -4  -8   10.50    1.80
   0   4  -8   23.90    2.50
   0   4  -7    3.20    1.10
   0   4  -6    1.70    0.80
   0   4  -5   10.30    1.20
   0   4  -4    6.50    0.90
   0   4  -4    4.50    0.80
   0   4  -3    3.00    0.70
   0   4  -3    2.80    0.70
   0   4  -2   60.69    2.00
   0   4  -2   62.69    2.00
   0   4  -1    2.70    0.50
   0   4  -1    3.20    0.50
   0   4   0   -0.30    0.20
   0  -4   0    0.20    0.20
   0  -4   0   -0.10    0.20
   0  -4  -1    2.90    0.40
   0  -4  -2   66.19    1.80
   0  -4  -3    2.00    0.40
   0  -4  -4    5.00    0.70
   0  -4  -5   12.40    1.20
   0  -4  -6    2.30    0.70
   0  -4  -6    2.80    1.00
   0  -4  -7    2.60    0.80
   0  -4  -7    1.10    1.00
   0  -4  -8   19.40    2.30
   0  -4  -8   18.60    1.70
  -1   4  -8   13.20    1.90
  -1   4  -7   61.69    3.30
  -1   4  -6  141.99    4.70
  -1   4  -6  131.69    4.80
  -1   4  -5   74.29    3.20
  -1   4  -5   78.89    3.10
  -1   4  -4  113.69    3.70
  -1   4  -4  105.29    3.40
  -1   4  -3   54.49    2.20
  -1   4  -3   55.79    2.10
  -1   4  -2   24.10    1.20
  -1   4  -2   26.10    1.30
  -1   4  -1   80.49    2.10
  -1   4  -1   80.69    2.20
   1  -4   1   81.39    1.90
  -1   4   0   40.40    1.20
   1  -4   0   40.40    1.20
   1  -4  -1    3.70    0.40
   1  -4  -2   47.50    1.50
   1  -4  -3    2.40    0.50
   1  -4  -4    3.60    0.60
   1  -4  -5    1.00    0.50
   1  -4  -6    4.60    1.10
   1  -4  -6    3.80    0.80
   1  -4  -7    0.70    0.80
   1  -4  -7    0.70    0.60
   1  -4  -8    2.10    1.10
   1  -4  -8    2.10    0.80
  -2   4  -7   21.60    2.50
  -2   4  -7   23.90    2.40
  -2   4  -6    6.70    1.20
  -2   4  -6    8.60    1.50
  -2   4  -5    6.50    1.10
  -2   4  -5    5.10    1.20
  -2   4  -4  156.28    4.40
  -2   4  -4  157.88    4.80
  -2   4  -3  339.97    7.80
  -2   4  -3  334.87    7.30
  -2   4  -2  751.52   14.70
  -2   4  -2  762.02   14.20
  -2   4  -1  187.58    4.00
   2  -4   1  185.58    3.70
  -2   4   0  319.77    6.60
   2  -4   0  333.87    6.20
   2  -4  -1  156.58    3.30
   2  -4  -2   24.50    1.10
   2  -4  -3   34.00    1.40
   2  -4  -4   13.40    1.00
   2  -4  -5    0.10    0.40
   2  -4  -6    2.70    0.70
   2  -4  -6    1.30    0.70
   2  -4  -7   -0.30    0.50
   2  -4  -7   -0.40    0.70
   2  -4  -8    0.60    0.70
   2  -4  -8   -0.10    0.80
  -3   4  -7    0.50    0.90
  -3   4  -7    0.80    0.90
  -3   4  -6    5.60    1.40
  -3   4  -6    4.30    1.10
  -3   4  -5   20.50    2.10
  -3   4  -5   21.60    1.80
  -3   4  -4   54.49    2.30
  -3   4  -4   52.39    2.70
  -3   4  -3  107.19    3.70
  -3   4  -3  103.89    3.10
  -3   4  -2    5.20    0.70
  -3   4  -2    5.50    0.90
   3  -4   2    5.60    0.40
  -3   4  -1   73.39    2.50
   3  -4   1   71.69    1.70
  -3   4   0  772.42   14.50
   3  -4   0  749.53   13.60
  -3   4   1  678.03   12.80
   3  -4  -1  661.73   12.20
   3  -4  -2  714.43   13.20
   3  -4  -3   52.99    1.80
   3  -4  -4   50.29    1.90
   3  -4  -5   23.10    1.40
   3  -4  -5   20.60    1.60
   3  -4  -6   10.20    1.40
   3  -4  -6   11.60    1.30
   3  -4  -7    2.00    0.90
   3  -4  -7    2.80    0.80
   3  -4  -8    2.20    0.90
   3  -4  -8    2.30    0.90
  -4   4  -6    0.00    0.70
  -4   4  -6    0.80    1.00
  -4   4  -5    2.00    0.80
  -4   4  -5    3.70    1.10
  -4   4  -4    0.70    0.60
  -4   4  -4    0.00    0.70
  -4   4  -3    3.70    0.70
  -4   4  -3    4.50    1.10
  -4   4  -2   16.20    1.00
  -4   4  -2   16.40    1.40
   4  -4   2   17.50    0.60
  -4   4  -1   88.59    3.10
   4  -4   1   92.69    2.00
  -4   4   0   62.49    2.40
   4  -4   0   65.29    1.60
  -4   4   1  137.29    3.80
   4  -4  -1  131.79    3.00
   4  -4  -2   38.80    1.40
   4  -4  -3  103.49    2.90
   4  -4  -4  316.77    6.90
   4  -4  -5  156.98    4.50
   4  -4  -5  156.78    4.30
   4  -4  -6  106.29    3.80
   4  -4  -6   98.89    3.40
   4  -4  -7    5.20    1.00
   4  -4  -7    6.00    1.30
   4  -4  -8    2.60    0.80
   4  -4  -8    2.70    1.10
  -5   4  -6    0.20    0.90
  -5   4  -5    5.40    1.40
  -5   4  -4    0.70    0.90
  -5   4  -3   14.90    1.80
  -5   4  -2    1.40    0.70
  -5   4  -1   15.40    1.50
  -5   4   0    2.30    0.80
   5  -4   0    2.60    0.30
  -5   4   1    1.90    0.60
   5  -4  -1    3.20    0.40
   5  -4  -2   13.00    0.90
   5  -4  -3   68.69    2.20
   5  -4  -4   15.40    1.10
   5  -4  -4   15.30    1.10
   5  -4  -5   11.40    1.30
   5  -4  -5    8.80    1.00
   5  -4  -6   19.90    1.60
   5  -4  -6   18.70    1.50
   5  -4  -7   42.70    2.50
   5  -4  -7   37.10    2.20
   5  -4  -8   79.89    3.30
   5  -4  -8   69.49    3.50
  -6   4  -5    0.50    1.00
  -6   4  -4    1.90    1.10
  -6   4  -3    0.50    0.80
  -6   4  -2    0.20    0.60
  -6   4  -1   13.90    1.70
  -6   4   0    2.60    0.80
  -6   4   1   18.30    1.60
  -6   4   2    1.80    0.70
   6  -4  -2    2.30    0.50
   6  -4  -3    5.90    0.70
   6  -4  -4    0.70    0.50
   6  -4  -5    2.00    0.70
   6  -4  -6    7.20    1.10
   6  -4  -7    9.10    1.30
   6  -4  -8    3.30    0.90
  -7   4  -4   34.90    2.90
  -7   4  -3   16.90    2.20
  -7   4  -2   18.40    2.10
  -7   4  -1    0.30    0.70
  -7   4   0    5.90    1.20
  -7   4   1    1.00    0.70
  -7   4   2   -0.20    0.60
   7  -4  -3   12.40    1.10
   7  -4  -4    0.60    0.50
   7  -4  -5    1.80    0.60
   7  -4  -6    0.00    0.50
   7  -4  -7    0.90    0.70
  -8   4  -3   -1.60    0.70
  -8   4  -2   20.30    2.40
  -8   4  -1   35.40    2.70
  -8   4   0   73.89    3.70
  -8   4   1   18.20    2.10
  -8   4   2   17.70    2.00
  -8   4   3   -0.70    0.70
   8  -4  -5    1.70    0.60
   8  -4  -6    0.60    0.50
  -9   4  -1   22.30    2.70
  -9   4   0    3.40    1.40
  -9   4   1    2.30    1.10
  -9   4   2   39.30    2.80
  -9   4   3   34.70    2.80
  -9   4   4   51.49    3.30
  -9  -5   2    8.60    1.60
  -9  -5   1   13.20    1.90
  -9  -5   0   12.70    1.90
  -9  -5  -1    5.60    1.40
  -8  -5   1    1.10    0.90
  -8  -5   0    2.00    0.90
  -8  -5  -1    7.30    1.50
  -8  -5  -2   12.50    1.80
  -8  -5  -3   13.50    1.90
  -7  -5   1    5.10    1.10
  -7  -5   0    9.20    1.40
  -7  -5  -1    3.30    1.10
  -7  -5  -2    0.80    0.80
  -7  -5  -3    0.30    0.70
  -7  -5  -4    5.30    2.00
   6   5  -7    2.50    0.90
   6   5  -6   -0.40    0.50
   6   5  -5    6.90    1.10
  -6  -5   0    4.00    0.90
  -6  -5  -1    8.10    1.20
  -6  -5  -2    7.70    1.20
  -6  -5  -3    2.80    0.90
  -6  -5  -4    3.90    1.10
   5   5  -8    0.40    0.80
   5   5  -7    3.10    1.00
   5   5  -6    9.00    1.30
   5   5  -5    5.00    0.90
   5   5  -4    2.70    0.60
  -5  -5   0   19.20    1.40
  -5  -5   0   20.30    0.90
  -5  -5  -1   11.40    1.30
  -5  -5  -2   16.20    1.40
  -5  -5  -3    7.20    1.20
  -5  -5  -4    0.50    0.70
  -5  -5  -5    4.30    1.10
   4   5  -8    5.20    1.30
   4   5  -7    2.90    0.90
   4   5  -6    1.10    0.70
   4   5  -5    5.00    1.00
   4   5  -4    3.50    0.70
   4   5  -3   10.60    0.90
  -4  -5   0    1.90    0.30
  -4  -5  -1   76.19    2.60
  -4  -5  -1   76.19    1.90
  -4  -5  -2    0.60    0.30
  -4  -5  -2    0.30    0.40
  -4  -5  -3    4.60    0.90
  -4  -5  -4    6.00    1.10
  -4  -5  -5    3.80    1.00
  -4  -5  -5    2.90    0.90
  -4  -5  -6    0.70    0.90
   3   5  -8    0.30    0.80
   3   5  -7    4.60    1.10
   3   5  -6    3.90    1.00
   3   5  -5    1.00    0.60
   3   5  -4    8.20    1.00
   3   5  -3   10.80    0.90
  -3  -5   0   29.00    1.00
  -3  -5  -1   18.00    1.00
  -3  -5  -1   18.10    0.80
  -3  -5  -2   18.70    0.80
  -3  -5  -2   17.10    1.10
  -3  -5  -3   25.10    1.10
  -3  -5  -3   22.00    1.40
  -3  -5  -4    0.30    0.40
  -3  -5  -4    0.40    0.50
  -3  -5  -5   15.10    1.60
  -3  -5  -6    0.60    0.90
  -3  -5  -6   -0.30    0.70
  -3  -5  -7    1.20    1.00
   2   5  -8    3.40    1.20
   2   5  -7    3.10    1.10
   2   5  -6   16.70    1.70
   2   5  -5   11.80    1.40
   2   5  -4    3.40    0.70
   2   5  -3   31.50    1.50
   2   5  -2   26.20    1.30
  -2  -5   0   56.09    1.50
  -2  -5  -1   35.80    1.20
  -2  -5  -1   34.60    1.20
  -2  -5  -2   20.30    1.00
  -2  -5  -2   21.60    0.90
  -2  -5  -3    5.00    0.60
  -2  -5  -3    5.70    0.70
  -2  -5  -4   13.70    0.90
  -2  -5  -4   12.70    1.10
  -2  -5  -5    8.00    0.90
  -2  -5  -5    8.60    1.10
  -2  -5  -6    7.50    1.20
  -2  -5  -6    9.50    1.50
  -2  -5  -7    2.80    1.10
   1   5  -8    1.90    1.00
   1   5  -7    3.80    1.10
   1   5  -6    4.50    1.10
   1   5  -5   14.50    1.50
   1   5  -4  114.09    3.50
   1   5  -3   38.50    1.70
   1   5  -2  149.59    3.70
  -1  -5   0   16.30    0.70
  -1  -5  -1   47.00    1.40
  -1  -5  -1   49.10    1.10
  -1  -5  -2   41.00    1.40
  -1  -5  -2   41.40    1.20
  -1  -5  -3    0.60    0.30
  -1  -5  -3    0.40    0.30
  -1  -5  -4   16.60    1.00
  -1  -5  -4   14.90    1.10
  -1  -5  -5    6.50    0.80
  -1  -5  -6    1.60    0.60
  -1  -5  -6    0.40    0.70
  -1  -5  -7    1.10    0.90
  -1  -5  -7    1.70    0.70
  -1  -5  -8    5.20    1.40
   0   5  -8    0.50    0.90
   0   5  -7    3.40    1.10
   0   5  -6    9.90    1.40
   0   5  -5    6.30    1.10
   0   5  -4   17.00    1.40
   0   5  -4   13.60    1.20
   0   5  -3   26.70    1.40
   0   5  -3   29.60    1.60
   0   5  -2   92.69    2.60
   0   5  -2   93.29    2.70
   0   5  -1   80.09    2.10
   0  -5   1   82.19    2.00
   0   5   0  565.24   10.10
   0  -5  -1   83.69    2.10
   0  -5  -2   90.89    2.30
   0  -5  -3   25.00    1.20
   0  -5  -4   14.00    1.00
   0  -5  -5    5.80    0.80
   0  -5  -6    9.40    1.40
   0  -5  -6   10.10    1.10
   0  -5  -7    3.40    1.10
   0  -5  -7    4.50    0.90
   0  -5  -8    0.90    0.70
   0  -5  -8   -0.30    0.90
  -1   5  -8    7.50    1.60
  -1   5  -7    1.90    1.00
  -1   5  -6    2.90    1.00
  -1   5  -6    2.10    1.00
  -1   5  -5    9.30    1.30
  -1   5  -5    8.80    1.40
  -1   5  -4   15.70    1.40
  -1   5  -4   14.90    1.40
  -1   5  -3    0.20    0.50
  -1   5  -3    0.20    0.50
  -1   5  -2   45.80    1.70
  -1   5  -2   43.30    1.80
  -1   5  -1   48.50    1.70
   1  -5   1   49.00    1.40
  -1   5   0   15.90    0.80
   1  -5   0   15.70    0.80
  -1   5   1   53.09    1.30
   1  -5  -1   52.69    1.50
   1  -5  -2  160.28    3.60
   1  -5  -3   39.20    1.50
   1  -5  -4  107.99    3.00
   1  -5  -5   14.10    1.20
   1  -5  -6    3.90    0.80
   1  -5  -7    4.30    1.20
   1  -5  -7    4.10    0.90
   1  -5  -8    2.50    1.20
   1  -5  -8    2.90    0.90
  -2   5  -7    2.80    1.20
  -2   5  -7    3.20    1.10
  -2   5  -6    8.90    1.60
  -2   5  -6    8.70    1.50
  -2   5  -5    8.90    1.30
  -2   5  -5   10.80    1.60
  -2   5  -4   13.90    1.60
  -2   5  -4   15.20    1.40
  -2   5  -3    7.90    1.00
  -2   5  -3    5.40    0.90
  -2   5  -2   22.10    1.20
  -2   5  -2   20.70    1.30
   2  -5   2   21.90    0.90
  -2   5  -1   37.00    1.60
   2  -5   1   35.40    1.10
  -2   5   0   51.79    1.70
   2  -5   0   54.79    1.50
  -2   5   1    8.40    0.70
   2  -5  -1    8.30    0.60
   2  -5  -2   26.20    1.10
   2  -5  -3   28.00    1.30
   2  -5  -4    3.70    0.70
   2  -5  -5    9.90    1.00
   2  -5  -6   16.70    1.40
   2  -5  -6   17.30    1.80
   2  -5  -7    4.30    1.10
   2  -5  -7    2.90    0.80
   2  -5  -8    4.30    1.30
   2  -5  -8    5.20    1.10
  -3   5  -7    2.40    1.20
  -3   5  -7    1.70    1.00
  -3   5  -6    1.50    0.90
  -3   5  -6    0.50    0.90
  -3   5  -5   11.90    1.40
  -3   5  -5   15.10    1.90
  -3   5  -4    1.10    0.70
  -3   5  -4    0.60    0.60
  -3   5  -3   21.10    1.60
  -3   5  -3   21.70    1.30
   3  -5   3   23.40    1.00
  -3   5  -2   16.20    1.30
  -3   5  -2   17.70    1.10
   3  -5   2   18.40    0.80
  -3   5  -1   19.20    1.30
   3  -5   1   17.60    0.70
  -3   5   0   28.20    1.40
   3  -5   0   28.20    1.00
  -3   5   1   31.40    1.40
   3  -5  -1   31.90    1.20
   3  -5  -2   12.20    0.80
   3  -5  -4    7.00    0.90
   3  -5  -5    2.10    0.60
   3  -5  -6    3.70    0.80
   3  -5  -6    5.30    1.10
   3  -5  -7    6.60    1.10
   3  -5  -7    6.80    1.30
   3  -5  -8   -0.60    0.50
   3  -5  -8    0.00    0.90
  -4   5  -6   -0.40    0.80
  -4   5  -5    2.50    0.90
  -4   5  -5    1.20    0.90
  -4   5  -4    7.40    1.10
  -4   5  -4    7.00    1.40
  -4   5  -3    5.80    1.20
  -4   5  -3    4.70    0.80
  -4   5  -2    0.30    0.60
  -4   5  -2    0.50    0.40
   4  -5   2    0.60    0.20
  -4   5  -1   70.19    2.80
   4  -5   1   75.89    1.80
  -4   5   0    1.40    0.60
   4  -5   0    2.00    0.30
  -4   5   1   29.60    1.50
   4  -5  -1   22.00    1.00
   4  -5  -2   19.40    1.00
   4  -5  -3   10.10    0.90
   4  -5  -4    5.60    0.80
   4  -5  -5    5.10    0.90
   4  -5  -6    1.30    0.70
   4  -5  -6    1.30    0.60
   4  -5  -7    1.70    0.80
   4  -5  -7    2.10    0.70
   4  -5  -8    6.30    1.50
   4  -5  -8    6.20    1.20
  -5   5  -6    3.70    1.40
  -5   5  -5    3.50    1.20
  -5   5  -4    0.80    0.90
  -5   5  -3   10.00    1.50
  -5   5  -2   15.00    1.60
  -5   5  -1   10.00    1.40
  -5   5   0   17.90    1.50
   5  -5   0   19.90    0.80
  -5   5   1    9.50    1.20
   5  -5  -1   13.00    0.80
   5  -5  -2    1.10    0.40
   5  -5  -3   30.40    1.40
   5  -5  -4    0.40    0.50
   5  -5  -5    4.30    0.90
   5  -5  -5    3.80    0.80
   5  -5  -6    6.80    1.10
   5  -5  -6    4.70    1.00
   5  -5  -7    4.20    1.10
   5  -5  -7    5.40    1.00
   5  -5  -8    0.40    0.70
   5  -5  -8    2.00    1.10
  -6   5  -5    2.40    1.20
  -6   5  -4    4.80    1.40
  -6   5  -3    3.20    1.00
  -6   5  -2    6.60    1.30
  -6   5  -1    6.80    1.20
  -6   5   0    4.60    1.00
  -6   5   1    7.60    1.20
  -6   5   2   24.00    1.80
   6  -5  -2   24.50    1.20
   6  -5  -3    3.30    0.60
   6  -5  -4    4.50    0.80
   6  -5  -5    6.40    1.00
   6  -5  -6    1.10    0.60
   6  -5  -7    3.50    0.90
  -7   5  -4    5.60    1.60
  -7   5  -3    0.30    0.80
  -7   5  -2    0.70    0.80
  -7   5  -1    4.10    1.20
  -7   5   0    6.30    1.30
  -7   5   1    7.00    1.30
  -7   5   2    2.60    1.00
   7  -5  -3    5.90    0.80
   7  -5  -4    1.80    0.60
   7  -5  -5    5.00    0.90
   7  -5  -6    3.20    0.80
   7  -5  -7   -0.20    0.50
  -8   5  -3   14.20    2.20
  -8   5  -2   10.10    1.90
  -8   5  -1    4.70    1.30
  -8   5   0    0.90    0.90
  -8   5   1    0.20    0.80
  -8   5   2    3.00    1.10
  -8   5   3    1.60    0.90
   8  -5  -5    2.90    0.80
   8  -5  -6    2.00    0.70
  -9   5  -1    8.70    1.80
  -9   5   0    6.40    1.60
  -9   5   1   11.00    1.90
  -9   5   2    9.40    1.70
  -9   5   3    3.20    1.20
  -9   5   4    0.30    0.90
  -9  -6   2    1.60    0.90
  -9  -6   1    1.40    0.90
  -9  -6   0   -0.50    0.70
  -8  -6   1    0.70    0.80
  -8  -6   0    2.50    1.00
  -8  -6  -1    0.50    0.80
  -8  -6  -2    1.20    0.90
  -7  -6   1   46.90    2.60
  -7  -6   0    2.20    0.80
  -7  -6  -1    3.80    1.00
  -7  -6  -2    0.50    0.70
  -7  -6  -3    1.50    0.80
   6   6  -7    3.10    1.00
   6   6  -6    1.80    0.80
   6   6  -5    3.50    0.80
  -6  -6   0    0.50    0.60
  -6  -6  -1   25.30    1.80
  -6  -6  -2    8.60    1.30
  -6  -6  -3   38.20    2.30
   5   6  -8   -0.40    0.80
   5   6  -7    1.90    0.90
   5   6  -6   -0.30    0.60
   5   6  -5   20.00    1.50
   5   6  -4    0.10    0.50
  -5  -6   1   10.70    0.80
  -5  -6   0    7.20    0.60
  -5  -6   0    7.40    1.00
  -5  -6  -1   23.10    1.60
  -5  -6  -2    1.20    0.60
  -5  -6  -3    0.80    0.60
  -5  -6  -4    2.70    0.90
   4   6  -8   -0.80    0.70
   4   6  -7    2.50    1.00
   4   6  -6    2.60    0.90
   4   6  -5    0.00    0.50
   4   6  -4    0.30    0.50
  -4  -6   0    1.00    0.30
  -4  -6  -1   11.60    0.70
  -4  -6  -1   10.30    1.00
  -4  -6  -2    4.00    0.70
  -4  -6  -2    3.30    0.50
  -4  -6  -3   15.20    1.30
  -4  -6  -4    3.30    0.90
  -4  -6  -6    0.40    0.90
   3   6  -8    2.00    1.10
   3   6  -7    2.50    1.10
   3   6  -6    1.00    0.80
   3   6  -5   25.30    1.70
   3   6  -4    4.60    0.80
   3   6  -3   55.69    2.10
  -3  -6   0    0.70    0.30
  -3  -6  -1  107.79    2.90
  -3  -6  -1  111.69    2.60
  -3  -6  -2    2.00    0.40
  -3  -6  -2    1.90    0.50
  -3  -6  -3   43.80    1.90
  -3  -6  -3   43.20    1.50
  -3  -6  -4    1.20    0.50
  -3  -6  -4    0.30    0.40
  -3  -6  -5    0.50    0.60
  -3  -6  -6    2.00    0.90
  -3  -6  -7    6.60    1.50
   2   6  -8    0.60    0.90
   2   6  -7   69.29    3.40
   2   6  -6    3.20    1.10
   2   6  -5   11.40    1.40
   2   6  -4    9.50    1.10
   2   6  -3   24.00    1.40
  -2  -6   0   32.90    1.20
  -2  -6  -1   76.89    2.00
  -2  -6  -1   79.89    2.00
  -2  -6  -2   14.20    0.80
  -2  -6  -2   14.60    0.80
  -2  -6  -3    7.60    0.70
  -2  -6  -3    7.40    0.80
  -2  -6  -4    0.70    0.40
  -2  -6  -4    0.40    0.40
  -2  -6  -5   17.40    1.20
  -2  -6  -5   19.40    1.50
  -2  -6  -7    0.40    0.90
   1   6  -8    2.00    1.10
   1   6  -7    5.90    1.40
   1   6  -6    3.70    1.00
   1   6  -5   53.09    2.50
   1   6  -4    3.00    0.80
   1   6  -3  227.18    5.40
   1   6  -2   26.00    1.30
  -1  -6   1    4.00    0.50
  -1  -6   0   51.89    1.50
  -1  -6  -1   72.29    1.90
  -1  -6  -2    1.20    0.30
  -1  -6  -2    0.70    0.30
  -1  -6  -3  103.89    2.60
  -1  -6  -3  106.39    2.80
  -1  -6  -4    8.40    0.90
  -1  -6  -5    4.10    0.80
  -1  -6  -6   -0.10    0.50
  -1  -6  -7    0.70    0.60
  -1  -6  -7    1.20    1.00
  -1  -6  -8    0.60    1.00
   0   6  -8    0.70    0.90
   0   6  -7    5.30    1.40
   0   6  -6    0.50    0.70
   0   6  -5   23.70    1.80
   0   6  -4   12.20    1.30
   0   6  -4   10.70    1.20
   0   6  -3    2.80    0.60
   0   6  -3    2.80    0.60
   0   6  -2   33.00    1.50
   0   6  -2   30.20    1.40
   0   6  -1  383.56    7.50
   0  -6   1  379.96    7.40
   0   6   0   16.00    0.70
   0  -6   0   15.60    0.80
   0  -6  -1  399.46    7.70
   0  -6  -2   29.50    1.20
   0  -6  -3    2.50    0.50
   0  -6  -4   11.60    0.90
   0  -6  -5   22.30    1.40
   0  -6  -6    0.50    0.50
   0  -6  -7    6.40    1.30
   0  -6  -7    7.80    1.10
   0  -6  -8    0.50    0.60
   0  -6  -8    0.20    0.90
  -1   6  -8    0.80    1.10
  -1   6  -7    2.00    1.10
  -1   6  -6    0.50    0.70
  -1   6  -6    2.50    1.00
  -1   6  -5    4.90    1.10
  -1   6  -5    3.50    0.90
  -1   6  -4    6.20    1.10
  -1   6  -4    8.90    1.20
  -1   6  -3  104.69    3.20
  -1   6  -3  106.99    3.40
  -1   6  -2    1.00    0.50
  -1   6  -2    1.40    0.50
  -1   6  -1   70.19    2.20
   1  -6   1   73.99    1.90
  -1   6   0   55.09    1.60
   1  -6   0   54.99    1.60
  -1   6   1    4.40    0.40
   1  -6  -1    3.50    0.50
   1  -6  -2   24.40    1.10
   1  -6  -3  241.78    5.30
   1  -6  -4    2.70    0.60
   1  -6  -5   57.19    2.20
   1  -6  -6    5.20    0.90
   1  -6  -7    3.90    0.90
   1  -6  -7    2.20    1.00
   1  -6  -8    1.20    1.00
   1  -6  -8    3.00    0.90
  -2   6  -7    1.70    1.00
  -2   6  -7    1.80    1.10
  -2   6  -6    0.50    0.80
  -2   6  -6    0.50    0.80
  -2   6  -5   19.00    2.00
  -2   6  -5   19.80    1.80
  -2   6  -4    0.00    0.60
  -2   6  -4   -0.10    0.60
  -2   6  -3    8.40    1.00
  -2   6  -3    6.80    1.00
  -2   6  -2   13.70    1.00
  -2   6  -2   11.50    1.20
   2  -6   2   15.10    0.80
  -2   6  -1   80.59    2.50
   2  -6   1   77.89    2.00
  -2   6   0   32.90    1.40
   2  -6   0   35.90    1.20
  -2   6   1  214.58    4.50
   2  -6  -1  211.48    4.50
   2  -6  -2    1.30    0.40
   2  -6  -3   25.00    1.20
   2  -6  -4    8.90    1.00
   2  -6  -5    8.80    1.00
   2  -6  -6    2.70    0.80
   2  -6  -7   66.09    3.30
   2  -6  -7   67.19    2.80
   2  -6  -8    0.00    0.90
   2  -6  -8   -0.10    0.60
  -3   6  -7   10.10    1.70
  -3   6  -7   14.90    2.20
  -3   6  -6    1.30    0.90
  -3   6  -6    1.20    0.90
  -3   6  -5    1.20    0.90
  -3   6  -5    0.40    0.70
  -3   6  -4    0.70    0.60
  -3   6  -4   -0.30    0.60
  -3   6  -3   46.20    2.40
  -3   6  -3   41.50    1.90
   3  -6   3   41.10    1.40
  -3   6  -2    2.00    0.70
  -3   6  -2    2.30    0.60
   3  -6   2    2.40    0.40
  -3   6  -1  108.59    3.30
   3  -6   1  110.29    2.60
  -3   6   0    0.60    0.40
   3  -6   0    0.10    0.20
  -3   6   1    1.80    0.50
   3  -6  -1    1.60    0.40
   3  -6  -2   17.60    1.00
   3  -6  -3   60.99    2.10
   3  -6  -4    4.40    0.70
   3  -6  -5   27.40    1.60
   3  -6  -6    1.00    0.50
   3  -6  -7    0.60    0.60
   3  -6  -7    1.50    0.80
   3  -6  -8    1.70    0.80
   3  -6  -8    3.40    1.10
  -4   6  -6   -0.60    0.80
  -4   6  -5   25.10    1.90
  -4   6  -5   24.30    2.20
  -4   6  -4    2.90    1.00
  -4   6  -4    2.10    0.80
  -4   6  -3   18.00    1.90
  -4   6  -3   18.30    1.30
  -4   6  -2    4.00    0.90
   4  -6   2    4.90    0.50
  -4   6  -1   11.90    1.30
   4  -6   1   11.20    0.60
  -4   6   0    1.00    0.50
   4  -6   0    0.60    0.30
  -4   6   1   98.39    3.10
   4  -6  -1  103.49    2.60
   4  -6  -2    2.60    0.50
   4  -6  -4    0.90    0.50
   4  -6  -5    0.10    0.50
   4  -6  -6    1.10    0.80
   4  -6  -6    1.90    0.70
   4  -6  -7    3.90    1.10
   4  -6  -7    5.60    1.00
   4  -6  -8    0.60    0.70
   4  -6  -8    0.80    0.80
  -5   6  -5   25.20    2.60
  -5   6  -4    5.40    1.40
  -5   6  -3    0.00    0.70
  -5   6  -2    1.10    0.80
  -5   6  -1   18.80    1.60
  -5   6   0    7.50    1.10
   5  -6   0    7.20    0.60
  -5   6   1   12.00    1.30
   5  -6  -1   10.60    0.80
  -5   6   2    4.10    0.80
   5  -6  -2    4.00    0.60
   5  -6  -3   12.70    1.00
   5  -6  -4    0.60    0.50
   5  -6  -5   17.50    1.40
   5  -6  -6    0.10    0.60
   5  -6  -6   -0.30    0.50
   5  -6  -7    1.40    0.70
   5  -6  -7    2.10    0.90
   5  -6  -8    0.00    0.60
   5  -6  -8    0.30    0.90
  -6   6  -5    1.60    1.20
  -6   6  -4    1.40    1.00
  -6   6  -3   41.10    2.80
  -6   6  -2    6.90    1.40
  -6   6  -1   25.30    2.00
  -6   6   0    0.70    0.70
  -6   6   1    1.40    0.70
  -6   6   2    1.10    0.70
   6  -6  -2    2.40    0.50
   6  -6  -3   26.00    1.40
   6  -6  -4    5.00    0.80
   6  -6  -5    2.60    0.70
   6  -6  -6    2.20    0.80
   6  -6  -7    1.70    0.80
  -7   6  -4   -1.30    0.90
  -7   6  -3    2.00    1.00
  -7   6  -2    0.30    0.80
  -7   6  -1    8.00    1.40
  -7   6   0    2.10    0.90
  -7   6   1   46.00    2.70
  -7   6   2    5.90    1.20
  -7   6   3    8.40    1.40
   7  -6  -3    5.80    0.80
   7  -6  -4    1.00    0.50
   7  -6  -5   20.60    1.50
   7  -6  -6    1.50    0.70
   7  -6  -7   19.70    1.90
  -8   6  -2    0.10    0.90
  -8   6  -1    1.30    0.90
  -8   6   0    3.20    1.20
  -8   6   1    1.40    1.00
  -8   6   2    1.00    0.80
  -8   6   3    8.30    1.50
   8  -6  -5   23.70    2.40
   8  -6  -6    2.00    0.70
  -9   6   0   -0.20    0.90
  -9   6   1    2.50    1.20
  -9   6   2    0.40    0.90
  -9   6   3    0.70    1.00
  -9   6   4    1.00    1.00
  -9  -7   2    0.80    0.80
  -9  -7   1   -0.50    0.70
  -9  -7   0    2.80    1.10
  -8  -7   1    0.10    0.70
  -8  -7   0    3.20    1.00
  -8  -7  -1    1.60    0.90
  -7  -7   1   34.70    2.20
  -7  -7   0   11.60    1.60
  -7  -7  -1    1.80    0.80
  -7  -7  -2    5.30    1.20
   6   7  -7   -0.10    0.70
   6   7  -6    0.30    0.70
  -6  -7   0   34.30    2.00
  -6  -7  -1  227.58    6.10
  -6  -7  -2    0.90    0.60
   5   7  -7    1.60    0.90
   5   7  -6    0.40    0.70
   5   7  -5    0.30    0.60
  -5  -7   1   31.60    1.30
  -5  -7   0   44.70    1.50
  -5  -7   0   40.30    2.00
  -5  -7  -1    1.50    0.60
  -5  -7  -2   71.19    2.80
  -5  -7  -3  160.98    4.80
   4   7  -8    3.30    1.20
   4   7  -7    0.20    0.80
   4   7  -6   -0.40    0.70
   4   7  -5    6.70    1.10
   4   7  -4    0.70    0.60
  -4  -7   1    3.30    0.50
  -4  -7   0   23.00    1.10
  -4  -7  -1    2.00    0.50
  -4  -7  -1    0.50    0.30
  -4  -7  -2    6.70    0.70
  -4  -7  -2    7.60    0.90
  -4  -7  -3   24.20    1.50
   3   7  -8    1.60    1.00
   3   7  -7   24.30    2.00
   3   7  -6    4.20    1.10
   3   7  -5    3.10    0.90
   3   7  -4   11.50    1.20
  -3  -7   1    9.70    0.80
  -3  -7   0    1.00    0.30
  -3  -7  -1    1.20    0.40
  -3  -7  -1    0.90    0.30
  -3  -7  -2   11.60    0.80
  -3  -7  -2   10.00    0.80
  -3  -7  -3    6.70    0.80
  -3  -7  -3    6.60    0.70
  -3  -7  -4    5.60    1.30
  -3  -7  -4    5.30    0.70
  -3  -7  -7    9.00    1.60
   2   7  -8   24.20    2.50
   2   7  -7    1.60    0.90
   2   7  -6   53.49    2.80
   2   7  -5  216.78    5.90
   2   7  -4    6.30    1.00
   2   7  -3   57.39    2.20
  -2  -7   1    0.40    0.30
  -2  -7   0   71.89    2.00
  -2  -7  -1   10.50    0.60
  -2  -7  -1   12.30    0.80
  -2  -7  -2   10.70    0.70
  -2  -7  -2   10.20    0.80
  -2  -7  -3    5.70    0.60
  -2  -7  -3    5.80    0.70
  -2  -7  -4    0.80    0.50
  -2  -7  -4    1.60    0.60
  -2  -7  -5   -0.10    0.40
  -2  -7  -7    4.30    1.20
   1   7  -8    3.40    1.30
   1   7  -7  129.49    4.90
   1   7  -6   16.20    1.80
   1   7  -5  234.78    6.30
   1   7  -4  198.28    5.20
   1   7  -3   86.59    2.80
  -1  -7   1 1021.50   18.60
  -1  -7   0    3.60    0.50
  -1  -7  -1   94.49    2.40
  -1  -7  -2   72.69    2.10
  -1  -7  -3    0.70    0.40
  -1  -7  -4   15.20    1.10
  -1  -7  -5    6.70    0.90
  -1  -7  -6    0.80    0.60
  -1  -7  -7    0.70    0.60
  -1  -7  -7    3.50    1.20
   0   7  -8   -0.40    0.90
   0   7  -7    0.20    0.90
   0   7  -6   14.70    1.80
   0   7  -5   14.60    1.60
   0   7  -4    2.10    0.70
   0   7  -3  586.74   11.70
   0   7  -3  551.14   11.50
   0   7  -2  215.08    5.00
   0   7  -1  618.44   11.50
   0  -7   1  608.54   11.50
   0  -7   0  746.33   13.80
   0  -7  -1  597.64   11.20
   0  -7  -2  208.18    4.60
   0  -7  -3  594.24   11.50
   0  -7  -4    2.60    0.60
   0  -7  -5   16.30    1.20
   0  -7  -6   14.20    1.40
   0  -7  -7   -0.10    0.80
   0  -7  -7   -0.20    0.60
   0  -7  -8    0.70    0.80
   0  -7  -8   -0.60    0.70
  -1   7  -7    0.70    1.00
  -1   7  -6    2.00    1.00
  -1   7  -6    2.50    1.00
  -1   7  -5    5.30    1.10
  -1   7  -5    6.30    1.30
  -1   7  -4   13.40    1.50
  -1   7  -4   17.00    1.40
  -1   7  -3    0.40    0.50
  -1   7  -3   -0.10    0.50
  -1   7  -2   75.29    2.50
   1  -7   2   77.99    2.20
  -1   7  -1   87.59    2.50
   1  -7   1   84.59    2.30
  -1   7   0    2.80    0.40
   1  -7   0    3.70    0.50
  -1   7   1 1089.39   19.10
   1  -7  -1 1074.69   19.60
   1  -7  -2  285.07    6.00
   1  -7  -3   93.09    2.70
   1  -7  -4  223.58    5.30
   1  -7  -5  246.78    5.90
   1  -7  -6   18.50    1.50
   1  -7  -7  119.29    4.00
   1  -7  -7  125.39    4.90
   1  -7  -8    1.10    0.70
   1  -7  -8    2.80    1.20
  -2   7  -7    6.00    1.60
  -2   7  -7    4.90    1.30
  -2   7  -6    0.70    0.90
  -2   7  -6   -0.30    0.70
  -2   7  -5    1.20    0.80
  -2   7  -5   -0.40    0.70
  -2   7  -4    0.60    0.70
  -2   7  -4    0.30    0.60
  -2   7  -3    6.40    0.90
  -2   7  -3    4.60    0.90
  -2   7  -2    9.20    1.10
   2  -7   2   11.80    0.80
  -2   7  -1   11.10    1.00
   2  -7   1   10.60    0.70
  -2   7   0   77.79    2.30
   2  -7   0   73.89    2.10
  -2   7   1    0.40    0.30
   2  -7  -1    0.10    0.30
   2  -7  -2   47.10    1.70
   2  -7  -3   64.49    2.10
   2  -7  -4    4.30    0.70
   2  -7  -5  219.38    5.50
   2  -7  -6   50.49    2.40
   2  -7  -7    1.10    0.90
   2  -7  -7    0.10    0.60
   2  -7  -8   20.60    2.40
   2  -7  -8   25.70    1.90
  -3   7  -7   11.00    1.90
  -3   7  -7   10.40    1.70
  -3   7  -6    3.30    1.30
  -3   7  -6    2.50    1.00
  -3   7  -5   -0.40    0.60
  -3   7  -5    0.00    0.80
  -3   7  -4    6.70    1.20
  -3   7  -4    3.70    0.90
   3  -7   4    7.00    0.70
  -3   7  -3    7.20    1.00
  -3   7  -3    8.60    1.30
   3  -7   3    8.20    0.70
  -3   7  -2    8.40    1.10
   3  -7   2   12.70    0.70
  -3   7  -1    1.40    0.50
   3  -7   1    0.30    0.30
  -3   7   0    0.60    0.40
   3  -7   0    0.80    0.30
  -3   7   1   10.40    0.90
   3  -7  -1   10.20    0.80
   3  -7  -2   10.90    0.80
   3  -7  -3    5.00    0.80
   3  -7  -4   13.70    1.20
   3  -7  -5    2.80    0.70
   3  -7  -6    4.30    0.90
   3  -7  -7   25.70    1.80
   3  -7  -7   25.70    2.20
   3  -7  -8    3.50    1.20
   3  -7  -8    1.20    0.70
  -4   7  -6   19.70    2.50
  -4   7  -5    2.30    0.90
  -4   7  -5    2.40    1.10
  -4   7  -4   27.40    1.80
  -4   7  -4   22.60    2.10
  -4   7  -3   24.60    1.50
  -4   7  -3   24.80    2.00
  -4   7  -2    6.20    1.10
   4  -7   2    7.10    0.70
  -4   7  -1    0.30    0.50
   4  -7   1    1.20    0.30
  -4   7   0   25.90    1.60
   4  -7   0   25.90    1.10
  -4   7   1    2.00    0.60
   4  -7  -1    3.00    0.50
  -4   7   2    9.80    1.10
   4  -7  -2   10.20    0.90
   4  -7  -3    3.10    0.60
   4  -7  -4    1.00    0.50
   4  -7  -5    7.40    1.10
   4  -7  -6    0.30    0.50
   4  -7  -7    0.30    0.60
   4  -7  -7    0.80    0.80
   4  -7  -8    0.70    0.70
   4  -7  -8    1.50    1.00
  -5   7  -5  125.19    5.30
  -5   7  -4   12.10    1.80
  -5   7  -3  171.58    5.80
  -5   7  -2   74.49    3.40
  -5   7  -1    1.90    0.80
  -5   7   0   41.40    2.20
   5  -7   0   43.70    1.50
  -5   7   1   35.10    2.00
   5  -7  -1   33.60    1.40
  -5   7   2    7.70    1.10
   5  -7  -2    7.40    0.80
   5  -7  -3    0.50    0.50
   5  -7  -4    7.70    1.00
   5  -7  -5    1.10    0.60
   5  -7  -6   -0.20    0.50
   5  -7  -6    0.60    0.70
   5  -7  -7    4.20    1.00
   5  -7  -7    1.30    0.90
  -6   7  -4   11.10    1.90
  -6   7  -3   11.20    1.70
  -6   7  -2    2.30    1.00
  -6   7  -1  233.48    6.70
  -6   7   0   35.00    2.30
  -6   7   1  130.29    4.40
  -6   7   2   66.99    3.00
   6  -7  -2   73.79    2.30
   6  -7  -3   13.50    1.10
   6  -7  -4   18.90    1.40
   6  -7  -5   30.50    1.80
   6  -7  -6    0.20    0.50
   6  -7  -7   -0.90    0.50
  -7   7  -3    0.40    1.00
  -7   7  -2    6.00    1.40
  -7   7  -1    2.60    1.10
  -7   7   0   14.80    1.90
  -7   7   1   33.40    2.40
  -7   7   2    1.70    0.80
  -7   7   3  218.28    6.40
   7  -7  -3  212.88    5.20
   7  -7  -4   27.40    1.60
   7  -7  -5   38.00    2.00
   7  -7  -6   25.40    1.80
  -8   7  -2    0.30    0.90
  -8   7  -1    1.70    1.10
  -8   7   0    1.40    1.00
  -8   7   1   -0.30    0.80
  -8   7   2    3.60    1.10
  -8   7   3    1.20    0.80
  -8   7   4    5.20    1.20
  -9   7   0    5.10    1.50
  -9   7   1    0.80    1.00
  -9   7   2    1.50    1.10
  -9   7   3    0.40    0.90
  -9   7   4    1.80    1.10
  -9  -8   2    1.00    0.90
  -9  -8   1    1.90    1.00
  -8  -8   1    4.70    1.20
  -8  -8   0    2.90    1.00
  -7  -8   1   54.99    2.80
  -7  -8   0    2.70    0.90
  -7  -8  -1   27.80    2.10
   6   8  -7    0.00    0.80
  -6  -8   0   12.30    1.40
  -6  -8  -1    0.60    0.50
   5   8  -7    3.70    1.20
   5   8  -6    0.40    0.70
  -5  -8   1    0.50    0.40
  -5  -8   0   25.80    1.60
  -5  -8   0   23.90    1.20
  -5  -8  -1  252.57    6.10
  -5  -8  -2   12.90    1.20
   4   8  -8   -1.90    0.60
   4   8  -7   11.50    1.70
   4   8  -6    4.10    1.10
   4   8  -5    2.70    0.90
  -4  -8   1   63.59    2.00
  -4  -8   0    4.50    0.60
  -4  -8  -1   14.30    0.90
  -4  -8  -1   14.90    1.10
  -4  -8  -2   18.70    1.00
  -4  -8  -2   16.20    1.20
  -4  -8  -6    6.20    1.40
   3   8  -8   11.60    1.80
   3   8  -7    8.50    1.50
   3   8  -6    4.30    1.10
   3   8  -5   20.10    1.70
   3   8  -4    1.10    0.70
  -3  -8   1    7.10    0.70
  -3  -8   0   16.60    1.00
  -3  -8  -1   87.89    2.40
  -3  -8  -1   86.99    2.40
  -3  -8  -2    3.20    0.50
  -3  -8  -2    2.70    0.50
  -3  -8  -3   24.60    1.30
  -3  -8  -4    2.60    0.60
   2   8  -8    6.00    1.50
   2   8  -7  223.08    6.80
   2   8  -6   21.00    1.90
   2   8  -5   43.40    2.40
   2   8  -4   33.60    1.90
  -2  -8   1  121.39    3.10
  -2  -8   0    0.30    0.30
  -2  -8  -1   67.39    2.00
  -2  -8  -1   65.49    1.60
  -2  -8  -2   18.80    0.80
  -2  -8  -2   19.20    1.00
  -2  -8  -3   11.90    0.90
  -2  -8  -4   10.70    1.00
  -2  -8  -5   23.20    1.40
  -2  -8  -7    2.50    1.20
   1   8  -8    2.70    1.20
   1   8  -7    9.00    1.60
   1   8  -6   20.50    2.10
   1   8  -5  283.07    7.20
   1   8  -4   45.60    2.30
   1   8  -3 1163.18   22.00
  -1  -8   1   70.99    2.10
  -1  -8   0   49.00    1.70
  -1  -8  -1  148.49    3.50
  -1  -8  -2    2.00    0.40
  -1  -8  -3   77.69    2.40
  -1  -8  -4    0.60    0.50
  -1  -8  -5    7.90    1.00
  -1  -8  -6    6.00    1.00
  -1  -8  -7    4.90    1.00
   0   8  -7    9.30    1.60
   0   8  -6   -0.20    0.80
   0   8  -5   51.39    2.60
   0   8  -4   17.90    1.50
   0   8  -3    0.70    0.50
   0   8  -3    0.30    0.50
   0   8  -2   99.69    3.00
   0  -8   2   98.99    2.70
   0   8  -1 1868.21   32.60
   0  -8   1 1791.92   32.50
   0  -8   0  165.88    3.80
   0  -8  -1 1726.53   30.80
   0  -8  -2  102.49    2.80
   0  -8  -3    0.80    0.40
   0  -8  -4   16.80    1.20
   0  -8  -5   50.39    2.20
   0  -8  -6    0.80    0.60
   0  -8  -7    9.20    1.30
  -1   8  -7    4.30    1.20
  -1   8  -6    8.20    1.50
  -1   8  -5    7.70    1.20
  -1   8  -5   10.90    1.60
  -1   8  -4   -0.60    0.60
  -1   8  -4    1.20    0.70
  -1   8  -3   74.09    2.70
  -1   8  -3   70.59    2.80
  -1   8  -2    1.20    0.50
   1  -8   2    2.30    0.50
  -1   8  -1  155.58    3.80
   1  -8   1  160.38    3.70
  -1   8   0   46.90    1.50
   1  -8   0   48.10    1.60
  -1   8   1   72.49    1.70
   1  -8  -1   73.59    2.20
  -1   8   2  105.39    2.10
   1  -8  -2  101.29    2.80
   1  -8  -3 1165.98   21.50
   1  -8  -4   43.90    1.90
   1  -8  -5  300.77    7.00
   1  -8  -6   24.10    1.70
   1  -8  -7    6.30    1.10
   1  -8  -8    2.20    0.80
   1  -8  -8    4.00    1.20
  -2   8  -7    1.80    1.10
  -2   8  -7    2.10    1.10
  -2   8  -6    1.50    1.10
  -2   8  -6    0.20    0.80
  -2   8  -5   26.00    2.20
  -2   8  -5   26.10    2.00
  -2   8  -4    7.30    1.10
  -2   8  -4    6.60    1.20
  -2   8  -3   14.20    1.50
  -2   8  -3   10.80    1.20
   2  -8   3   11.60    0.90
  -2   8  -2   19.20    1.40
   2  -8   2   19.00    1.00
  -2   8  -1   67.69    2.40
   2  -8   1   66.59    2.00
  -2   8   0    0.90    0.40
   2  -8   0    0.30    0.30
  -2   8   1  119.79    2.90
   2  -8  -1  120.89    3.10
  -2   8   2    5.70    0.60
   2  -8  -2    4.80    0.70
   2  -8  -3   62.39    2.20
   2  -8  -4   35.70    1.70
   2  -8  -5   38.20    1.90
   2  -8  -6   21.60    1.60
   2  -8  -7  246.68    6.60
   2  -8  -8    3.50    0.90
   2  -8  -8    6.70    1.50
  -3   8  -6    7.00    1.60
  -3   8  -6    3.40    1.10
  -3   8  -5    9.90    1.70
  -3   8  -5    9.20    1.40
  -3   8  -4    1.10    0.70
  -3   8  -4    2.90    1.00
   3  -8   4    2.10    0.50
  -3   8  -3   24.10    1.90
   3  -8   3   25.80    1.20
  -3   8  -2    3.10    0.80
   3  -8   2    3.40    0.50
  -3   8  -1   89.99    3.10
   3  -8   1   93.09    2.50
  -3   8   0   17.20    1.20
   3  -8   0   18.60    1.00
  -3   8   1    6.90    0.80
   3  -8  -1    9.70    0.90
  -3   8   2   14.50    1.00
   3  -8  -2   13.20    0.90
   3  -8  -3   60.19    2.20
   3  -8  -4    1.20    0.60
   3  -8  -5   18.70    1.40
   3  -8  -6    5.30    0.90
   3  -8  -7   12.50    1.50
   3  -8  -8    9.90    1.40
   3  -8  -8    7.40    1.60
  -4   8  -6    7.90    1.80
  -4   8  -5  137.89    5.50
  -4   8  -5  136.79    4.70
  -4   8  -4    9.90    1.60
  -4   8  -4   10.90    1.40
  -4   8  -3    6.10    1.20
  -4   8  -2   17.80    1.60
   4  -8   2   16.70    0.90
  -4   8  -1   12.20    1.30
   4  -8   1   12.90    0.80
  -4   8   0    4.00    0.80
   4  -8   0    4.70    0.60
  -4   8   1   61.99    2.40
   4  -8  -1   58.59    1.90
  -4   8   2    2.20    0.60
   4  -8  -2    4.50    0.70
   4  -8  -3   45.00    1.90
   4  -8  -4   14.50    1.40
   4  -8  -5    1.50    0.70
   4  -8  -6    4.10    0.90
   4  -8  -7   16.10    2.00
   4  -8  -7    9.00    1.30
   4  -8  -8   -1.00    0.50
   4  -8  -8   -0.20    0.80
  -5   8  -5   15.80    2.30
  -5   8  -4    5.60    1.40
  -5   8  -3  147.19    5.30
  -5   8  -2    9.50    1.40
  -5   8   0   23.70    1.70
   5  -8   0   23.70    1.10
  -5   8   1    0.70    0.60
   5  -8  -1    1.30    0.40
  -5   8   2   14.40    1.30
   5  -8  -2   17.20    1.10
  -5   8   3    8.70    1.20
   5  -8  -3    8.90    1.00
   5  -8  -4    1.40    0.60
   5  -8  -5   24.30    1.70
   5  -8  -6    0.00    0.50
   5  -8  -7    5.00    1.10
   5  -8  -7    4.40    1.20
  -6   8  -4    4.20    1.30
  -6   8  -3   64.69    3.60
  -6   8  -2    0.80    0.90
  -6   8  -1    0.60    0.70
  -6   8   0   12.20    1.50
  -6   8   1  275.27    7.30
  -6   8   2   15.30    1.60
   6  -8  -2   14.60    1.10
  -6   8   3  155.68    4.90
   6  -8  -3  158.28    4.20
   6  -8  -4   22.30    1.50
   6  -8  -5    1.20    0.60
   6  -8  -6    4.10    1.00
   6  -8  -7    0.50    0.70
  -7   8  -3    2.80    1.20
  -7   8  -2    5.10    1.40
  -7   8  -1   23.40    2.10
  -7   8   0    3.90    1.10
  -7   8   1   57.79    3.10
  -7   8   2    4.40    1.10
  -7   8   3    3.10    1.00
   7  -8  -3    2.00    0.70
  -7   8   4    9.60    1.50
   7  -8  -4   13.30    1.40
   7  -8  -5  166.88    4.90
   7  -8  -6    9.30    1.30
  -8   8  -2    1.00    1.10
  -8   8  -1    7.40    1.60
  -8   8   0    4.10    1.30
  -8   8   1    5.70    1.30
  -8   8   2    5.60    1.30
  -8   8   3   20.10    2.20
  -8   8   4    0.40    0.90
  -9   8   1    1.10    1.00
  -9   8   2    1.70    1.10
  -9   8   3    4.20    1.30
  -8  -9   1    6.40    1.30
  -7  -9   1    8.10    1.30
  -7  -9   0   34.90    2.80
  -6  -9   2   27.80    1.50
  -6  -9   1   17.80    1.80
  -6  -9   0   38.00    2.10
   5   9  -7   61.69    3.30
   5   9  -6   53.59    2.80
  -5  -9   2    7.50    0.90
  -5  -9   1    3.40    0.60
  -5  -9   0   15.60    1.30
  -5  -9   0   17.20    1.10
  -5  -9  -1   14.90    2.10
   4   9  -7   21.20    2.20
   4   9  -6   12.30    1.70
   4   9  -5   38.20    2.30
  -4  -9   1   38.20    1.60
  -4  -9   0   28.80    1.40
  -4  -9  -1   42.80    1.70
  -4  -9  -1   42.70    1.60
  -4  -9  -2    6.40    0.80
   3   9  -7    1.90    1.00
   3   9  -6    8.60    1.40
   3   9  -5   19.50    1.70
  -3  -9   1   86.69    2.60
  -3  -9   0  134.59    3.40
  -3  -9  -1  202.08    4.70
  -3  -9  -1  209.48    4.50
  -3  -9  -2  100.79    2.80
  -3  -9  -3   14.20    1.00
  -3  -9  -4   14.10    1.10
   2   9  -7    1.10    0.90
   2   9  -6   14.80    1.80
   2   9  -5   25.40    1.90
   2   9  -4    0.40    0.60
  -2  -9   1   51.39    1.80
  -2  -9   0   56.99    1.90
  -2  -9  -1  119.49    3.20
  -2  -9  -1  122.69    2.50
  -2  -9  -2    9.60    0.90
  -2  -9  -3   61.89    2.10
  -2  -9  -4  133.29    3.70
  -2  -9  -5   90.29    3.00
   1   9  -7    7.40    1.60
   1   9  -6    3.20    1.00
   1   9  -5   39.10    2.30
   1   9  -4   44.20    2.30
  -1  -9   2   72.99    2.30
  -1  -9   1   60.19    2.00
  -1  -9   0   18.00    1.10
  -1  -9  -1   54.19    1.90
  -1  -9  -2  105.09    2.90
  -1  -9  -3   29.00    1.40
  -1  -9  -4   19.20    1.30
  -1  -9  -5   52.09    2.20
  -1  -9  -6   13.00    1.40
  -1  -9  -7   30.30    2.00
   0   9  -7    9.80    1.70
   0   9  -6   22.70    2.30
   0   9  -5   14.20    1.60
   0   9  -4   17.60    1.50
   0  -9   2   49.50    1.80
   0  -9   1   80.39    2.40
   0  -9   0  213.38    4.80
   0  -9  -1   74.99    2.30
   0  -9  -2   49.80    1.80
   0  -9  -3   29.10    1.40
   0  -9  -4   17.60    1.30
   0  -9  -5   16.80    1.30
   0  -9  -6   19.40    1.50
   0  -9  -7   13.20    1.50
  -1   9  -7   29.10    2.50
  -1   9  -6   12.70    1.70
  -1   9  -5   53.99    3.00
  -1   9  -5   55.29    2.80
  -1   9  -4   18.80    1.70
  -1   9  -4   20.90    1.60
  -1   9  -3   32.20    1.90
   1  -9   3   31.50    1.50
  -1   9  -2   99.09    3.10
   1  -9   2  106.29    2.90
  -1   9  -1   54.79    2.00
   1  -9   1   56.39    1.90
  -1   9   0   15.90    0.90
   1  -9   0   15.50    1.00
  -1   9   1   61.79    1.50
   1  -9  -1   62.79    2.00
   1  -9  -2   69.99    2.30
   1  -9  -3   29.30    1.50
   1  -9  -4   48.80    2.10
   1  -9  -5   40.80    2.00
   1  -9  -6    3.50    0.90
   1  -9  -7    7.10    1.20
  -2   9  -7    2.40    1.10
  -2   9  -6   61.09    3.50
  -2   9  -6   61.69    3.30
  -2   9  -5   87.69    3.60
  -2   9  -5   88.49    3.90
  -2   9  -4  143.79    4.50
  -2   9  -4  147.49    4.90
   2  -9   4  136.39    3.70
  -2   9  -3   74.89    3.00
   2  -9   3   68.89    2.30
  -2   9  -2    9.00    1.10
   2  -9   2    9.10    0.90
  -2   9  -1  111.49    3.40
   2  -9   1  119.89    3.10
  -2   9   0   59.19    2.00
   2  -9   0   51.99    1.80
  -2   9   1   53.79    1.70
   2  -9  -1   52.09    1.90
  -2   9   2   83.89    2.20
   2  -9  -2   87.09    2.60
   2  -9  -3   29.30    1.50
   2  -9  -4   -0.30    0.40
   2  -9  -5   26.70    1.70
   2  -9  -6   10.30    1.20
   2  -9  -7    2.30    0.80
  -3   9  -6    2.70    1.10
  -3   9  -6    5.60    1.50
  -3   9  -5   23.60    2.40
  -3   9  -5   24.70    2.00
  -3   9  -4   14.80    1.60
  -3   9  -4   12.10    1.70
   3  -9   4   13.00    1.00
  -3   9  -3   18.30    1.90
   3  -9   3   17.20    1.10
  -3   9  -2  107.79    3.70
   3  -9   2  104.99    2.90
  -3   9  -1  194.98    5.20
   3  -9   1  206.18    4.60
  -3   9   0  134.49    3.80
   3  -9   0  136.99    3.40
  -3   9   1   90.09    2.70
   3  -9  -1   89.99    2.60
  -3   9   2    1.20    0.40
   3  -9  -2    0.40    0.40
   3  -9  -3   74.59    2.60
   3  -9  -4   30.30    1.70
   3  -9  -5   21.40    1.60
   3  -9  -6   14.10    1.60
   3  -9  -7    2.60    0.80
  -4   9  -6   13.40    2.10
  -4   9  -5    5.30    1.50
  -4   9  -4   13.20    1.80
  -4   9  -3    7.70    1.40
  -4   9  -2    6.80    1.20
   4  -9   2    6.30    0.70
  -4   9  -1   42.70    2.20
   4  -9   1   40.60    1.50
  -4   9   0   29.30    1.80
   4  -9   0   31.40    1.40
  -4   9   1   43.90    2.00
   4  -9  -1   43.60    1.70
  -4   9   2  106.99    3.20
   4  -9  -2  108.39    3.10
  -4   9   3  177.78    4.60
   4  -9  -3  178.78    4.60
   4  -9  -4   45.20    2.10
   4  -9  -5   30.70    1.80
   4  -9  -6   14.70    1.60
   4  -9  -7   26.20    2.00
  -5   9  -5   11.10    1.90
  -5   9  -4   20.10    2.30
  -5   9  -3   32.00    2.50
  -5   9  -2   38.50    2.50
  -5   9  -1   17.00    1.80
  -5   9   0   17.50    1.50
   5  -9   0   16.10    1.00
  -5   9   1    3.30    0.80
   5  -9  -1    2.70    0.60
  -5   9   2    9.50    1.10
   5  -9  -2    8.90    1.00
  -5   9   3   23.10    1.60
   5  -9  -3   25.00    1.50
   5  -9  -4   19.90    1.40
   5  -9  -5   39.40    2.10
   5  -9  -6   57.19    2.70
   5  -9  -7   61.89    3.30
   5  -9  -7   60.19    3.00
  -6   9  -4   26.90    2.80
  -6   9  -3    5.90    1.40
  -6   9  -2   19.90    2.20
  -6   9  -1   24.40    2.00
  -6   9   0   35.30    2.30
  -6   9   1   18.70    1.70
  -6   9   2   32.00    2.10
   6  -9  -2   32.60    1.60
  -6   9   3   16.60    1.70
   6  -9  -3   16.00    1.30
  -6   9   4    2.50    0.90
   6  -9  -4    3.30    0.80
   6  -9  -5    0.70    0.60
   6  -9  -6    2.40    0.80
  -7   9  -3    8.40    1.70
  -7   9  -2   19.10    2.30
  -7   9  -1    4.40    1.20
  -7   9   0   45.40    2.80
  -7   9   1    7.30    1.30
  -7   9   2   17.50    2.00
  -7   9   3   30.30    2.20
  -7   9   4   21.00    1.90
   7  -9  -4   20.20    1.50
   7  -9  -5    3.00    0.80
   7  -9  -6    4.60    1.10
  -8   9  -1   15.60    2.10
  -8   9   0   16.10    2.10
  -8   9   1    8.80    1.60
  -8   9   2   14.20    1.90
  -8   9   3    9.00    1.50
  -8   9   4   18.10    2.10
  -6 -10   2    5.00    0.80
   5  10  -7  101.29    4.30
  -5 -10   2   15.30    1.20
  -5 -10   1    0.70    0.40
  -5 -10   0    1.20    0.50
   4  10  -7   30.50    2.50
   4  10  -6  230.58    6.80
  -4 -10   2  143.59    3.90
  -4 -10   1  390.96    8.20
  -4 -10   0  153.18    3.90
  -4 -10  -1  157.58    3.90
  -4 -10  -2   14.30    1.00
   3  10  -7    2.70    1.10
   3  10  -6   15.00    1.90
  -3 -10   2  711.73   13.80
  -3 -10   1  727.73   14.00
  -3 -10   0  794.12   15.10
  -3 -10  -1  277.77    6.10
  -3 -10  -2  149.09    3.80
  -3 -10  -3  345.17    7.40
  -3 -10  -4  113.99    3.40
   2  10  -7    1.60    1.00
   2  10  -6    1.00    0.90
   2  10  -5   12.90    1.60
  -2 -10   2   37.90    1.70
  -2 -10   1  208.08    4.90
  -2 -10   0  268.77    6.00
  -2 -10  -1  236.08    5.40
  -2 -10  -2  768.82   14.70
  -2 -10  -3  519.65   10.50
  -2 -10  -4  312.47    7.00
  -2 -10  -5  113.69    3.60
   1  10  -7    2.50    1.20
   1  10  -6    2.00    1.00
   1  10  -5   12.10    1.50
  -1 -10   2   13.50    1.10
  -1 -10   1   31.00    1.50
  -1 -10   0    6.10    0.70
  -1 -10  -1   75.89    2.40
  -1 -10  -2   39.50    1.70
  -1 -10  -3  100.89    3.00
  -1 -10  -4  155.38    4.20
  -1 -10  -5  157.98    4.50
  -1 -10  -6  310.57    7.50
  -1 -10  -7  170.88    5.10
   0  10  -7   14.40    2.00
   0  10  -6    6.60    1.40
   0  10  -5   31.10    2.20
   0  10  -4    8.20    1.20
   0 -10   3   14.00    1.10
   0 -10   2    7.40    0.90
   0 -10   1   84.09    2.50
   0 -10   0   66.59    2.20
   0 -10  -1   81.49    2.50
   0 -10  -2    7.50    0.90
   0 -10  -3   12.20    1.00
   0 -10  -4    6.80    0.90
   0 -10  -5   29.00    1.70
   0 -10  -6    6.20    1.10
   0 -10  -7   12.10    1.50
  -1  10  -7  177.98    6.30
  -1  10  -6  320.07    8.70
  -1  10  -5  152.28    5.00
  -1  10  -5  152.68    5.30
  -1  10  -4  143.39    4.60
  -1  10  -4  153.18    4.90
  -1  10  -3  101.59    3.50
   1 -10   3  100.49    3.00
  -1  10  -2   35.50    1.80
   1 -10   2   35.40    1.60
  -1  10  -1   82.59    2.50
   1 -10   1   77.59    2.40
  -1  10   0    7.00    0.70
   1 -10   0    6.40    0.80
  -1  10   1   32.00    1.00
   1 -10  -1   31.90    1.50
   1 -10  -2   13.10    1.00
   1 -10  -3   38.40    1.70
   1 -10  -4   18.60    1.30
   1 -10  -5   11.90    1.30
   1 -10  -6    1.60    0.70
   1 -10  -7    1.30    0.80
  -2  10  -6   76.79    4.10
  -2  10  -6   84.19    3.80
  -2  10  -5  115.19    4.30
  -2  10  -5  109.09    4.50
   2 -10   5  110.79    3.40
  -2  10  -4  314.97    8.20
   2 -10   4  313.27    7.00
  -2  10  -3  545.45   11.90
   2 -10   3  538.85   10.80
  -2  10  -2  759.82   15.20
   2 -10   2  766.52   14.50
  -2  10  -1  240.38    5.80
   2 -10   1  250.67    5.50
  -2  10   0  255.37    5.70
   2 -10   0  259.77    5.70
  -2  10   1  214.88    4.60
   2 -10  -1  205.88    4.90
   2 -10  -2   38.40    1.70
   2 -10  -3   30.40    1.60
   2 -10  -4    1.30    0.60
   2 -10  -5   12.70    1.40
   2 -10  -6    1.90    0.70
   2 -10  -7   -0.10    0.60
  -3  10  -6    3.50    1.20
  -3  10  -6    8.30    1.70
  -3  10  -5   58.99    3.40
  -3  10  -5   61.69    3.10
  -3  10  -4  119.89    4.60
   3 -10   4  113.59    3.30
  -3  10  -3  361.66    8.80
   3 -10   3  343.97    7.40
  -3  10  -2  156.58    4.80
   3 -10   2  150.28    3.80
  -3  10  -1  272.67    6.60
   3 -10   1  270.57    5.90
  -3  10   0  772.42   15.10
   3 -10   0  774.52   14.70
  -3  10   1  745.83   14.20
   3 -10  -1  724.43   14.10
  -3  10   2  740.93   14.00
   3 -10  -2  733.03   14.20
   3 -10  -3  141.09    3.90
   3 -10  -4   99.39    3.30
   3 -10  -5   85.79    3.20
   3 -10  -6   16.00    1.70
   3 -10  -7    6.30    1.20
  -4  10  -5    0.70    1.00
  -4  10  -4    2.20    1.00
  -4  10  -3   -0.70    0.70
  -4  10  -2   13.40    1.60
   4 -10   2   12.80    0.90
  -4  10  -1  173.78    5.10
   4 -10   1  174.08    4.20
  -4  10   0  146.59    4.30
   4 -10   0  145.89    3.70
  -4  10   1  419.06    9.00
   4 -10  -1  410.46    8.60
  -4  10   2  153.28    4.10
   4 -10  -2  151.18    4.00
   4 -10  -3  249.38    6.00
   4 -10  -4  561.44   11.70
   4 -10  -5  374.96    8.70
   4 -10  -6  230.68    6.30
   4 -10  -7   35.50    2.30
  -5  10  -5    8.20    1.70
  -5  10  -4    2.40    1.10
  -5  10  -3    5.80    1.40
  -5  10  -2    6.90    1.30
  -5  10  -1    4.70    1.10
  -5  10   0    0.90    0.60
   5 -10   0    0.20    0.40
  -5  10   1    0.60    0.60
   5 -10  -1    0.50    0.40
  -5  10   2   15.60    1.40
   5 -10  -2   16.60    1.20
  -5  10   3  160.28    4.60
   5 -10  -3  157.08    4.40
   5 -10  -4   67.39    2.70
   5 -10  -5  122.59    4.00
   5 -10  -6   73.59    3.20
   5 -10  -7  112.79    4.30
  -6  10  -4    1.20    1.10
  -6  10  -3    0.90    0.90
  -6  10  -2   21.30    2.30
  -6  10  -1   18.90    2.00
  -6  10   0    1.20    0.80
  -6  10   1    7.00    1.20
  -6  10   2    4.80    1.10
   6 -10  -2    4.50    0.80
  -6  10   3    3.10    0.90
   6 -10  -3    2.70    0.70
   6 -10  -4    0.70    0.60
   6 -10  -5    1.70    0.70
   6 -10  -6    6.20    1.20
  -7  10  -2   21.50    2.40
  -7  10  -1   12.60    1.80
  -7  10   0    5.70    1.30
  -7  10   1   -0.20    0.70
  -7  10   2   14.00    1.70
  -7  10   3   17.40    1.90
   7 -10  -4    1.00    0.60
   7 -10  -5    2.30    0.80
  -8  10  -1   70.19    3.90
  -8  10   0  114.29    4.90
  -8  10   1    6.80    1.50
  -8  10   2   22.20    2.40
  -8  10   3    8.00    1.60
  -6 -11   3    7.30    1.00
  -6 -11   2    3.10    0.70
  -5 -11   3   66.29    2.50
  -5 -11   2    6.30    0.90
  -5 -11   1    0.80    0.50
  -5 -11   0    4.50    0.70
  -4 -11   2  493.75   10.20
  -4 -11   1  644.64   12.70
  -4 -11   0   49.80    2.00
  -4 -11  -1   58.69    2.20
  -4 -11  -2    6.50    0.80
   3  11  -7   -0.30    0.90
  -3 -11   2  325.87    7.20
  -3 -11   1   67.79    2.40
  -3 -11   0  351.96    7.60
  -3 -11  -1  965.80   18.20
  -3 -11  -2  466.55    9.60
  -3 -11  -3  419.36    8.80
  -3 -11  -4    8.40    1.00
   2  11  -7    1.30    1.00
   2  11  -6    2.20    1.00
  -2 -11   3    9.00    1.00
  -2 -11   2   55.59    2.10
  -2 -11   1  370.96    7.90
  -2 -11   0  559.94   11.20
  -2 -11  -1  376.36    7.90
  -2 -11  -2  227.08    5.40
  -2 -11  -3  125.99    3.60
  -2 -11  -4  287.77    6.70
  -2 -11  -5  529.15   11.20
   1  11  -7    3.60    1.20
   1  11  -6    3.50    1.20
  -1 -11   3    9.60    1.00
  -1 -11   2    6.70    0.90
  -1 -11   1    9.40    1.00
  -1 -11   0    3.60    0.70
  -1 -11  -1   31.40    1.50
  -1 -11  -2   99.39    3.00
  -1 -11  -3  212.88    5.20
  -1 -11  -4  301.07    7.00
  -1 -11  -5   95.79    3.30
  -1 -11  -6   44.80    2.30
   0  11  -7   82.49    4.00
   0  11  -6   36.80    2.60
   0  11  -5   14.80    1.90
   0 -11   3    3.10    0.70
   0 -11   2    7.60    0.90
   0 -11   1   18.70    1.20
   0 -11   0    7.20    0.80
   0 -11  -1   18.00    1.10
   0 -11  -2    9.80    1.10
   0 -11  -3    3.70    0.70
   0 -11  -4    5.50    0.90
   0 -11  -5   11.90    1.30
   0 -11  -6   41.20    2.20
   0 -11  -7   75.39    3.30
  -1  11  -6   51.89    3.10
  -1  11  -5  104.49    4.20
  -1  11  -4  309.17    8.00
   1 -11   4  311.47    7.10
  -1  11  -3  253.67    6.50
   1 -11   3  251.47    5.90
  -1  11  -2   93.19    3.10
   1 -11   2   95.49    2.90
  -1  11  -1   31.50    1.50
   1 -11   1   29.50    1.50
  -1  11   0    3.80    0.50
   1 -11   0    3.20    0.60
   1 -11  -1    7.40    0.90
   1 -11  -2    7.10    0.90
   1 -11  -3   10.20    1.10
   1 -11  -4    3.10    0.70
   1 -11  -5    4.00    0.90
   1 -11  -6    1.20    0.60
   1 -11  -7    0.50    0.70
  -2  11  -6  162.88    5.70
  -2  11  -6  165.48    6.20
  -2  11  -5  531.25   12.80
   2 -11   5  546.55   11.30
  -2  11  -4  292.77    7.90
   2 -11   4  292.27    6.70
  -2  11  -3  143.79    4.70
   2 -11   3  144.59    3.90
  -2  11  -2  233.38    6.00
   2 -11   2  236.88    5.50
  -2  11  -1  377.36    8.20
   2 -11   1  375.86    7.90
  -2  11   0  576.84   11.30
   2 -11   0  571.44   11.30
   2 -11  -1  396.36    8.40
   2 -11  -2   53.59    2.10
   2 -11  -3    8.20    1.00
   2 -11  -4    0.10    0.40
   2 -11  -5    0.80    0.50
   2 -11  -6    3.90    0.90
   2 -11  -7    1.80    0.80
  -3  11  -6    5.10    1.50
  -3  11  -5   13.20    2.00
  -3  11  -4    9.60    1.60
   3 -11   4    9.20    1.10
  -3  11  -3  430.06   10.20
   3 -11   3  433.46    9.00
  -3  11  -2  494.45   11.00
   3 -11   2  486.05    9.90
  -3  11  -1 1007.40   19.50
   3 -11   1  995.00   18.70
  -3  11   0  342.77    7.60
   3 -11   0  343.37    7.40
  -3  11   1   69.19    2.40
   3 -11  -1   69.59    2.40
   3 -11  -2  386.16    8.30
   3 -11  -3  434.86    9.30
   3 -11  -4  285.47    6.90
   3 -11  -5  138.99    4.40
   3 -11  -6    7.30    1.20
   3 -11  -7    0.90    0.70
  -4  11  -5    3.50    1.30
  -4  11  -4    4.60    1.30
  -4  11  -3    0.10    0.80
  -4  11  -2    7.30    1.30
   4 -11   2    8.90    0.90
  -4  11  -1   65.09    2.90
   4 -11   1   64.59    2.20
  -4  11   0   49.10    2.30
   4 -11   0   47.80    1.90
  -4  11   1  627.54   12.90
   4 -11  -1  649.43   12.60
   4 -11  -2  497.25   10.30
   4 -11  -3  587.44   12.10
   4 -11  -4  141.39    4.30
   4 -11  -5   31.40    2.00
   4 -11  -6  198.48    5.80
   4 -11  -7  184.98    5.80
  -5  11  -4    6.40    1.50
  -5  11  -3    1.10    0.90
  -5  11  -2    6.70    1.30
  -5  11  -1   12.20    1.60
  -5  11   0    3.40    0.90
   5 -11   0    5.30    0.80
  -5  11   1   -0.10    0.50
   5 -11  -1    0.40    0.40
  -5  11   2    7.30    1.40
   5 -11  -2    7.50    1.00
   5 -11  -3   69.29    2.70
   5 -11  -4   53.49    2.50
   5 -11  -5  321.07    7.90
   5 -11  -6  194.88    5.80
  -6  11  -3    4.30    1.40
  -6  11  -2   -0.10    0.80
  -6  11  -1    5.10    1.20
  -6  11   0   12.80    1.60
  -6  11   1    4.40    1.10
  -6  11   2    1.50    0.80
   6 -11  -2    3.20    0.70
   6 -11  -3    8.00    1.10
   6 -11  -4    1.50    0.60
   6 -11  -5    1.30    0.70
   6 -11  -6    2.40    0.90
  -7  11  -2   37.00    2.90
  -7  11  -1    7.40    1.50
  -7  11   0    4.40    1.20
  -7  11   1    4.50    1.20
  -7  11   2    0.50    0.80
   7 -11  -4   10.50    1.40
   7 -11  -5    0.80    0.70
  -8  11   0   21.50    2.40
  -8  11   1   16.30    2.10
  -7 -12   4    0.60    0.60
  -6 -12   3    1.30    0.60
  -6 -12   2    4.80    0.80
  -5 -12   3   13.60    1.40
  -5 -12   2    0.90    0.50
  -5 -12   1    4.30    0.80
  -5 -12   0   10.60    1.10
  -4 -12   3  133.39    4.00
  -4 -12   2   25.90    1.50
  -4 -12   1    6.80    0.90
  -4 -12   0   88.69    2.90
  -4 -12  -1   32.60    1.70
  -4 -12  -2    2.20    0.60
  -3 -12   3   97.59    3.30
  -3 -12   2   53.59    2.20
  -3 -12   1  397.16    8.50
  -3 -12   0   86.19    2.80
  -3 -12  -1  112.59    3.30
  -3 -12  -2   44.50    2.00
  -3 -12  -3   16.40    1.20
  -3 -12  -4   34.40    1.80
   2  12  -7    0.30    1.00
  -2 -12   3   -0.10    0.40
  -2 -12   2   57.29    2.30
  -2 -12   1    8.20    1.00
  -2 -12   0   89.09    2.90
  -2 -12  -1  172.08    4.40
  -2 -12  -2  104.89    3.20
  -2 -12  -3  277.57    6.50
  -2 -12  -4   42.70    2.10
  -2 -12  -5   24.90    1.70
   1  12  -7    3.50    1.30
  -1 -12   4    2.60    0.70
  -1 -12   3    1.90    0.60
  -1 -12   2    7.80    1.00
  -1 -12   1    8.50    1.00
  -1 -12   0    0.70    0.50
  -1 -12  -1    0.70    0.50
  -1 -12  -2   92.09    3.00
  -1 -12  -3   11.00    1.20
  -1 -12  -4   34.30    1.90
  -1 -12  -5  110.79    3.70
  -1 -12  -6   67.69    2.90
   0 -12   4    0.20    0.50
   0 -12   3    8.40    1.00
   0 -12   2    7.80    1.00
   0 -12   1    5.90    0.90
   0 -12   0    0.00    0.40
   0 -12  -1    6.20    0.90
   0 -12  -2    5.80    0.80
   0 -12  -3    9.30    1.10
   0 -12  -4   -0.20    0.40
   0 -12  -5    0.90    0.60
   0 -12  -6   32.00    2.00
   1 -12   6   65.09    2.80
   1 -12   5  111.69    3.70
  -1  12  -4   33.60    2.30
   1 -12   4   32.90    1.80
  -1  12  -3    9.40    1.30
   1 -12   3   10.90    1.10
  -1  12  -2   88.29    3.10
   1 -12   2   87.49    2.90
  -1  12  -1    1.30    0.50
   1 -12   1    0.20    0.40
   1 -12   0    0.50    0.40
   1 -12  -1    9.80    1.10
   1 -12  -2    7.30    0.90
   1 -12  -3    0.90    0.50
   1 -12  -4    1.60    0.60
   1 -12  -5    4.00    0.90
   1 -12  -6    0.80    0.70
   1 -12  -7    3.40    1.00
  -2  12  -6   27.30    2.80
  -2  12  -5   20.10    2.20
   2 -12   5   23.50    1.60
  -2  12  -4   38.40    2.50
   2 -12   4   40.80    1.90
  -2  12  -3  282.17    7.30
   2 -12   3  277.67    6.50
  -2  12  -2   91.79    3.30
   2 -12   2   96.29    3.00
  -2  12  -1  188.58    4.80
   2 -12   1  183.78    4.70
   2 -12   0   92.49    2.90
   2 -12  -1    9.30    1.10
   2 -12  -2   56.99    2.30
   2 -12  -3    0.40    0.40
   2 -12  -4    2.90    0.70
   2 -12  -5    1.00    0.60
   2 -12  -6    1.00    0.80
   2 -12  -7    0.60    0.70
  -3  12  -5   21.00    2.40
  -3  12  -4   35.40    2.50
  -3  12  -3   17.70    1.90
   3 -12   3   16.90    1.30
  -3  12  -2   44.80    2.40
   3 -12   2   45.50    1.90
  -3  12  -1  108.09    3.70
   3 -12   1  115.49    3.30
  -3  12   0   84.49    2.90
   3 -12   0   80.99    2.70
   3 -12  -1  388.96    8.30
   3 -12  -2   60.89    2.40
   3 -12  -3  112.69    3.60
   3 -12  -4   45.60    2.20
   3 -12  -5    1.60    0.70
   3 -12  -6    8.70    1.30
   3 -12  -7    0.20    0.60
  -4  12  -5   -0.30    0.90
  -4  12  -4    3.80    1.20
  -4  12  -3    0.80    0.80
  -4  12  -2    1.70    0.90
   4 -12   2    2.70    0.60
  -4  12  -1   32.80    2.10
   4 -12   1   31.00    1.60
  -4  12   0   90.29    3.30
   4 -12   0   89.19    2.90
   4 -12  -1    9.80    1.10
   4 -12  -2   23.10    1.50
   4 -12  -3  130.09    4.00
   4 -12  -4   67.49    2.80
   4 -12  -5  197.68    5.60
   4 -12  -6   10.00    1.50
  -5  12  -4   10.80    1.80
  -5  12  -3    2.00    1.00
  -5  12  -2    8.10    1.40
  -5  12  -1    0.30    0.70
  -5  12   0    8.00    1.20
   5 -12   0   10.40    1.10
   5 -12  -1    5.10    0.80
   5 -12  -2    1.00    0.50
   5 -12  -3   11.60    1.30
   5 -12  -4   66.69    2.80
   5 -12  -5    1.30    0.70
   5 -12  -6    2.30    0.90
  -6  12  -3    7.40    1.60
  -6  12  -2   14.70    1.90
  -6  12  -1   17.40    2.00
  -6  12   0   11.20    1.60
  -6  12   1    0.50    0.90
   6 -12  -2    4.50    0.90
   6 -12  -3    1.70    0.70
   6 -12  -4    5.40    1.00
   6 -12  -5    1.70    0.80
  -7  12  -1    2.50    1.10
  -7  12   0    5.40    1.30
  -7  12   1    8.20    1.60
   7 -12  -4    0.90    0.70
  -6 -13   4   11.60    1.30
  -6 -13   3   37.80    2.10
  -6 -13   2    5.70    1.00
  -5 -13   4    7.10    1.10
  -5 -13   3    6.50    1.00
  -5 -13   2    1.70    0.60
  -5 -13   1    5.00    0.90
  -5 -13   0   18.90    1.40
  -4 -13   4    2.90    0.80
  -4 -13   3    6.90    1.00
  -4 -13   2    2.40    0.70
  -4 -13   1   19.60    1.40
  -4 -13   0   21.20    1.40
  -4 -13  -1    2.50    0.70
  -4 -13  -2    1.00    0.50
  -3 -13   4    0.90    0.50
  -3 -13   3    7.80    1.00
  -3 -13   2    1.80    0.70
  -3 -13   1    1.00    0.60
  -3 -13   0   10.10    1.10
  -3 -13  -1   16.40    1.30
  -3 -13  -2    2.40    0.60
  -3 -13  -3    6.90    1.00
  -3 -13  -4   13.40    1.50
  -2 -13   4   19.50    1.50
  -2 -13   3    6.50    1.00
  -2 -13   2    7.70    1.00
  -2 -13   1   44.50    2.00
  -2 -13   0    0.80    0.50
  -2 -13  -1   10.80    1.10
  -2 -13  -2    2.10    0.60
  -2 -13  -3    0.00    0.50
  -2 -13  -4    8.20    1.10
  -2 -13  -5    3.90    0.90
  -1 -13   5   57.99    2.60
  -1 -13   4   15.90    1.50
  -1 -13   3  138.19    4.10
  -1 -13   2   65.49    2.50
  -1 -13   1   35.20    1.80
  -1 -13   0   14.60    1.30
  -1 -13  -1   24.60    1.50
  -1 -13  -2    9.00    1.10
  -1 -13  -3   29.70    1.70
  -1 -13  -4    0.90    0.60
  -1 -13  -5    1.60    0.70
  -1 -13  -6    0.90    0.70
   0 -13   6    1.20    0.70
   0 -13   5   12.20    1.40
   0 -13   4    7.00    1.10
   0 -13   3   11.50    1.20
   0 -13   2   92.09    3.10
   0 -13   1  171.78    4.60
   0 -13   0   18.90    1.30
   0 -13  -1  180.78    4.70
   0 -13  -2   85.39    2.90
   0 -13  -3   11.40    1.30
   0 -13  -4    7.60    1.10
   0 -13  -5   14.50    1.60
   0 -13  -6    1.70    0.80
   1 -13   6    1.30    0.80
   1 -13   5    2.40    0.80
   1 -13   4    1.60    0.70
  -1  13  -3   29.50    2.00
   1 -13   3   28.40    1.70
  -1  13  -2    7.30    1.10
   1 -13   2    7.90    1.00
   1 -13   1   24.10    1.50
   1 -13   0   15.80    1.20
   1 -13  -1   34.20    1.80
   1 -13  -2   68.49    2.60
   1 -13  -3  137.59    4.10
   1 -13  -4   18.60    1.50
   1 -13  -5   58.39    2.70
   1 -13  -6   52.59    2.70
  -2  13  -5    2.80    1.20
   2 -13   5    4.60    0.90
  -2  13  -4    6.00    1.30
   2 -13   4    9.70    1.20
  -2  13  -3    0.30    0.70
   2 -13   3    0.70    0.60
  -2  13  -2    1.90    0.80
   2 -13   2    3.50    0.80
   2 -13   1   13.70    1.30
   2 -13   0    3.00    0.70
   2 -13  -1   46.20    2.10
   2 -13  -2    9.60    1.20
   2 -13  -3    6.60    1.00
   2 -13  -4   18.80    1.50
   2 -13  -5   21.70    1.70
   2 -13  -6   30.50    2.10
  -3  13  -5    2.10    1.10
  -3  13  -4   15.40    2.00
  -3  13  -3    4.90    1.20
   3 -13   3    7.90    1.00
  -3  13  -2    0.40    0.60
   3 -13   2    1.00    0.60
  -3  13  -1   14.50    1.70
   3 -13   1   15.40    1.20
   3 -13   0    9.60    1.10
   3 -13  -1    1.90    0.60
   3 -13  -2    0.20    0.50
   3 -13  -3    9.50    1.20
   3 -13  -4    1.10    0.60
   3 -13  -5    9.70    1.40
   3 -13  -6    2.10    0.80
  -4  13  -4    9.80    1.80
  -4  13  -3    8.70    1.50
  -4  13  -2    1.10    0.80
   4 -13   2    1.10    0.50
  -4  13  -1    2.70    0.90
   4 -13   1    3.50    0.70
   4 -13   0   22.90    1.50
   4 -13  -1   18.50    1.40
   4 -13  -2    3.80    0.80
   4 -13  -3    7.30    1.10
   4 -13  -4    6.20    1.10
   4 -13  -5    1.90    0.80
   4 -13  -6    1.80    0.80
  -5  13  -3   45.10    3.00
  -5  13  -2   17.80    2.00
  -5  13  -1   61.99    3.10
   5 -13   0   17.30    1.30
   5 -13  -1    5.30    0.90
   5 -13  -2    1.70    0.70
   5 -13  -3    6.40    1.10
   5 -13  -4    6.50    1.10
   5 -13  -5    8.30    1.30
  -6  13  -2   18.00    2.20
  -6  13  -1    7.70    1.50
   6 -13  -2    6.30    1.10
   6 -13  -3   44.90    2.30
   6 -13  -4   13.30    1.50
   6 -13  -5    0.00    0.60
  -6 -14   4   36.60    2.20
  -6 -14   3   -0.60    0.50
  -6 -14   2  190.68    5.20
  -5 -14   5    1.20    0.60
  -5 -14   4    2.80    0.80
  -5 -14   3   10.10    1.30
  -5 -14   2    3.60    0.80
  -5 -14   1    8.20    1.10
  -5 -14   0   94.49    3.20
  -4 -14   5    5.90    1.10
  -4 -14   4    0.30    0.60
  -4 -14   3    3.20    0.80
  -4 -14   2    0.80    0.60
  -4 -14   1    4.10    0.80
  -4 -14   0    6.30    1.00
  -4 -14  -1   14.20    1.40
  -4 -14  -2    1.10    0.60
  -3 -14   5    3.40    0.90
  -3 -14   4    8.60    1.20
  -3 -14   3    1.80    0.70
  -3 -14   2    0.00    0.50
  -3 -14   1   17.00    1.40
  -3 -14   0    2.40    0.70
  -3 -14  -1    0.60    0.50
  -3 -14  -2    1.10    0.60
  -3 -14  -3    4.20    0.90
  -2 -14   5   11.70    1.40
  -2 -14   4   -0.20    0.50
  -2 -14   3   19.00    1.50
  -2 -14   2   54.89    2.40
  -2 -14   1    4.90    0.90
  -2 -14   0   21.60    1.50
  -2 -14  -1    8.90    1.10
  -2 -14  -2    1.70    0.60
  -2 -14  -3   10.60    1.30
  -2 -14  -4    5.60    1.00
  -2 -14  -5    0.00    0.60
  -1 -14   6   12.30    1.50
  -1 -14   5   10.00    1.30
  -1 -14   4  276.77    6.90
  -1 -14   3    1.20    0.60
  -1 -14   2  162.28    4.60
  -1 -14   1   31.30    1.80
  -1 -14   0   10.50    1.10
  -1 -14  -1   24.00    1.60
  -1 -14  -2   59.89    2.50
  -1 -14  -3    3.40    0.80
  -1 -14  -4    5.70    1.00
  -1 -14  -5    5.30    1.10
   0 -14   6   24.30    1.90
   0 -14   5   10.60    1.30
   0 -14   4   23.90    1.70
   0 -14   3   33.90    1.90
   0 -14   2   86.39    3.00
   0 -14   1    9.60    1.20
   0 -14   0  446.06    9.60
   0 -14  -1   10.00    1.20
   0 -14  -2   87.59    3.10
   0 -14  -3   32.60    1.90
   0 -14  -4   26.40    1.80
   0 -14  -5   12.10    1.40
   0 -14  -6   27.90    2.00
   1 -14   5    4.50    1.00
   1 -14   4    9.10    1.20
   1 -14   3    2.80    0.70
   1 -14   2   64.09    2.60
   1 -14   1   24.50    1.60
   1 -14   0   12.90    1.30
   1 -14  -1   28.90    1.70
   1 -14  -2  153.28    4.40
   1 -14  -3    1.20    0.60
   1 -14  -4  273.87    6.90
   1 -14  -5   12.00    1.50
   1 -14  -6   15.10    1.70
   2 -14   5   -0.20    0.50
  -2  14  -4    4.20    1.20
   2 -14   4    2.80    0.70
  -2  14  -3    8.10    1.30
   2 -14   3   10.30    1.20
   2 -14   2    2.10    0.70
   2 -14   1    7.80    1.10
   2 -14   0   23.40    1.50
   2 -14  -1    4.30    0.90
   2 -14  -2   52.69    2.30
   2 -14  -3   18.40    1.40
   2 -14  -4    2.00    0.70
   2 -14  -5   12.20    1.50
   2 -14  -6   92.39    3.80
  -3  14  -4    2.00    1.00
  -3  14  -3    5.30    1.20
   3 -14   3    5.80    0.90
   3 -14   2    1.50    0.60
   3 -14   1    1.50    0.60
   3 -14   0    1.80    0.60
   3 -14  -1   14.00    1.30
   3 -14  -2    0.90    0.60
   3 -14  -3    3.50    0.90
   3 -14  -4    8.60    1.20
   3 -14  -5    4.70    0.90
   3 -14  -6   19.70    2.00
  -4  14  -4   75.89    4.00
  -4  14  -3    2.80    1.10
   4 -14   2    0.80    0.50
   4 -14   1   14.00    1.40
   4 -14   0    5.10    0.90
   4 -14  -1    4.60    0.90
   4 -14  -2    0.60    0.50
   4 -14  -3    3.20    0.90
   4 -14  -4    0.20    0.60
   4 -14  -5    5.70    1.10
  -5  14  -3   20.00    2.30
  -5  14  -2  184.88    7.00
   5 -14   0   92.19    3.10
   5 -14  -1    7.20    1.00
   5 -14  -2    1.50    0.70
   5 -14  -3    9.70    1.30
   5 -14  -4    3.50    1.00
   5 -14  -5    1.00    0.80
   6 -14  -2  215.28    5.70
   6 -14  -3    0.20    0.60
   6 -14  -4   39.20    2.30
  -6 -15   3    3.10    0.90
  -6 -15   2    0.60    0.60
  -5 -15   4    3.70    0.90
  -5 -15   3    7.30    1.20
  -5 -15   2   23.80    1.70
  -5 -15   1    9.40    1.20
  -5 -15   0   21.30    1.60
  -4 -15   5    0.20    0.60
  -4 -15   4    5.80    1.10
  -4 -15   3    3.20    0.80
  -4 -15   2    1.60    0.70
  -4 -15   1   13.20    1.40
  -4 -15   0    5.70    1.00
  -4 -15  -1    9.40    1.20
  -4 -15  -2   22.40    1.60
  -3 -15   5    1.90    0.80
  -3 -15   4    1.50    0.70
  -3 -15   3    3.60    0.80
  -3 -15   2    8.70    1.20
  -3 -15   1    3.00    0.80
  -3 -15   0    4.00    0.80
  -3 -15  -1    9.90    1.30
  -3 -15  -2    4.10    0.90
  -3 -15  -3    7.70    1.10
  -2 -15   5    1.70    0.80
  -2 -15   4   35.00    2.10
  -2 -15   3    3.70    0.90
  -2 -15   2    1.90    0.70
  -2 -15   1   11.20    1.30
  -2 -15   0    5.90    1.00
  -2 -15  -1    2.40    0.70
  -2 -15  -2    7.00    1.10
  -2 -15  -3    1.90    0.70
  -2 -15  -4    0.00    0.60
  -1 -15   5    1.60    0.70
  -1 -15   4    2.00    0.80
  -1 -15   3    0.30    0.60
  -1 -15   2   38.80    2.10
  -1 -15   1    1.10    0.60
  -1 -15   0   38.80    2.00
  -1 -15  -1    9.40    1.20
  -1 -15  -2   -0.40    0.50
  -1 -15  -3    4.90    1.00
  -1 -15  -4    4.40    1.00
  -1 -15  -5    0.00    0.60
   0 -15   5    2.50    0.80
   0 -15   4   30.70    1.90
   0 -15   3    1.80    0.70
   0 -15   2   52.69    2.40
   0 -15   1    0.40    0.60
   0 -15   0    0.70    0.50
   0 -15  -1    0.60    0.50
   0 -15  -2   51.19    2.30
   0 -15  -3    3.00    0.80
   0 -15  -4   26.20    1.80
   0 -15  -5    8.40    1.30
   1 -15   5    0.10    0.60
   1 -15   4    4.10    0.90
   1 -15   3    5.70    1.00
   1 -15   2    1.80    0.70
   1 -15   1    8.60    1.10
   1 -15   0   35.80    1.90
   1 -15  -1    1.00    0.60
   1 -15  -2   34.20    1.90
   1 -15  -3    0.00    0.50
   1 -15  -4    3.60    0.90
   1 -15  -5    0.50    0.70
   2 -15   4    2.30    0.70
   2 -15   3    0.90    0.70
   2 -15   2    8.90    1.20
   2 -15   1    3.50    0.80
   2 -15   0    4.90    0.90
   2 -15  -1   11.40    1.30
   2 -15  -2    1.00    0.60
   2 -15  -3    4.00    0.90
   2 -15  -4   31.10    2.00
   2 -15  -5    1.10    0.70
   3 -15   3   12.50    1.40
   3 -15   2    5.20    0.90
   3 -15   1   12.00    1.40
   3 -15   0    8.00    1.10
   3 -15  -1    1.60    0.60
   3 -15  -2   12.40    1.50
   3 -15  -3    2.30    0.70
   3 -15  -4    2.00    0.80
   3 -15  -5    3.10    0.90
   4 -15   1   11.10    1.30
   4 -15   0    4.80    0.90
   4 -15  -1   13.50    1.40
   4 -15  -2    1.60    0.70
   4 -15  -3    5.90    1.10
   4 -15  -4    3.90    1.00
   4 -15  -5    0.70    0.70
   5 -15   0   18.80    1.50
   5 -15  -1    9.20    1.20
   5 -15  -2   21.00    1.60
   5 -15  -3    8.20    1.30
   5 -15  -4    3.30    0.90
   6 -15  -2    0.30    0.60
   6 -15  -3    2.50    0.80
  -5 -16   3   10.00    1.30
  -5 -16   2    2.20    0.80
  -5 -16   1    1.30    0.60
  -5 -16   0    0.60    0.60
  -4 -16   4    7.10    1.20
  -4 -16   3    3.00    0.90
  -4 -16   2   -0.30    0.50
  -4 -16   1    7.00    1.10
  -4 -16   0    5.40    1.00
  -4 -16  -1   12.70    1.40
  -4 -16  -2    1.00    0.60
  -3 -16   4    1.70    0.80
  -3 -16   3    4.90    1.00
  -3 -16   2   20.60    1.80
  -3 -16   1   20.50    1.60
  -3 -16   0   11.40    1.40
  -3 -16  -1    1.30    0.60
  -3 -16  -2    1.70    0.70
  -3 -16  -3    8.40    1.20
  -2 -16   5    0.80    0.70
  -2 -16   4    1.70    0.80
  -2 -16   3    4.50    0.90
  -2 -16   2    2.20    0.70
  -2 -16   1    1.40    0.60
  -2 -16   0   16.80    1.60
  -2 -16  -1   13.20    1.50
  -2 -16  -2   16.50    1.60
  -2 -16  -3   13.50    1.50
  -2 -16  -4    1.60    0.70
  -1 -16   5    0.40    0.70
  -1 -16   4    1.20    0.70
  -1 -16   3    1.00    0.60
  -1 -16   2    1.10    0.60
  -1 -16   1    2.10    0.70
  -1 -16   0    4.60    1.00
  -1 -16  -1    7.20    1.20
  -1 -16  -2    2.10    0.80
  -1 -16  -3    0.40    0.60
  -1 -16  -4    8.00    1.20
   0 -16   5    1.30    0.70
   0 -16   4    2.60    0.80
   0 -16   3    1.40    0.70
   0 -16   2    2.10    0.80
   0 -16   1    3.10    0.90
   0 -16   0    6.60    1.10
   0 -16  -1    2.30    0.70
   0 -16  -2    2.00    0.70
   0 -16  -3    0.70    0.60
   0 -16  -4    3.30    0.90
   0 -16  -5    0.10    0.70
   1 -16   4   14.40    1.60
   1 -16   3    0.20    0.60
   1 -16   2    1.80    0.80
   1 -16   1    6.10    1.10
   1 -16   0    4.50    0.90
   1 -16  -1    2.40    0.80
   1 -16  -2    1.30    0.70
   1 -16  -3    3.10    0.90
   1 -16  -4    1.10    0.70
   1 -16  -5    0.40    0.60
   2 -16   4    3.00    0.90
   2 -16   3   13.00    1.50
   2 -16   2   20.50    1.60
   2 -16   1   10.70    1.30
   2 -16   0   16.00    1.60
   2 -16  -1    1.30    0.60
   2 -16  -2    2.40    0.80
   2 -16  -3    7.10    1.20
   2 -16  -4    2.00    0.80
   2 -16  -5    1.50    0.70
   3 -16   3    9.60    1.30
   3 -16   2    1.00    0.60
   3 -16   1    1.00    0.70
   3 -16   0    7.20    1.20
   3 -16  -1   20.10    1.60
   3 -16  -2   17.50    1.70
   3 -16  -3    5.20    1.00
   3 -16  -4    1.60    0.80
   4 -16   1   12.70    1.50
   4 -16   0    3.80    0.90
   4 -16  -1    5.30    1.00
   4 -16  -2    0.20    0.50
   4 -16  -3    4.10    1.00
   4 -16  -4    6.70    1.20
   5 -16   0    0.20    0.80
   5 -16  -1    1.10    0.70
   5 -16  -2    3.50    0.90
   5 -16  -3    5.50    1.10
  -5 -17   1    1.60    0.80
  -4 -17   3   25.70    1.90
  -4 -17   2   36.40    2.20
  -4 -17   1    8.60    1.30
  -4 -17   0    2.40    0.80
  -4 -17  -1   16.00    1.60
  -3 -17   4   10.80    1.50
  -3 -17   3   14.00    1.60
  -3 -17   2   28.10    2.00
  -3 -17   1   36.60    2.20
  -3 -17   0   55.99    2.60
  -3 -17  -1   27.20    1.90
  -3 -17  -2   27.00    1.90
  -2 -17   4    0.20    0.60
  -2 -17   3    3.90    0.90
  -2 -17   2    2.30    0.80
  -2 -17   1    3.10    0.90
  -2 -17   0   26.00    1.80
  -2 -17  -1   16.60    1.70
  -2 -17  -2   23.60    1.80
  -2 -17  -3   30.30    2.00
  -1 -17   4    0.40    0.60
  -1 -17   3    0.80    0.70
  -1 -17   2    3.20    0.80
  -1 -17   1    2.10    0.80
  -1 -17   0    0.30    0.60
  -1 -17  -1    5.90    1.10
  -1 -17  -2    3.60    0.90
  -1 -17  -3    2.80    0.90
  -1 -17  -4   12.20    1.50
   0 -17   4   -0.50    0.50
   0 -17   3    2.70    0.90
   0 -17   2    2.30    0.80
   0 -17   1    2.20    0.80
   0 -17   0    0.50    0.50
   0 -17  -1    2.70    0.80
   0 -17  -2    2.60    0.80
   0 -17  -3    1.80    0.80
   0 -17  -4    0.40    0.60
   1 -17   4   12.40    1.50
   1 -17   3    2.30    0.80
   1 -17   2    5.00    1.00
   1 -17   1    5.60    1.00
   1 -17   0    0.60    0.60
   1 -17  -1    0.50    0.60
   1 -17  -2    1.90    0.70
   1 -17  -3    0.70    0.60
   1 -17  -4    0.10    0.60
   2 -17   3   28.20    1.90
   2 -17   2   25.70    1.80
   2 -17   1   15.20    1.60
   2 -17   0   26.90    1.90
   2 -17  -1    3.40    0.90
   2 -17  -2    3.20    0.90
   2 -17  -3    2.00    0.80
   2 -17  -4    0.80    0.70
   3 -17   2   23.50    1.80
   3 -17   1   28.20    1.90
   3 -17   0   50.39    2.50
   3 -17  -1   35.80    2.10
   3 -17  -2   23.80    1.80
   3 -17  -3   16.10    1.70
   3 -17  -4    9.60    1.50
   4 -17   1   17.50    1.70
   4 -17   0    1.00    0.70
   4 -17  -1    9.80    1.40
   4 -17  -2   31.20    2.00
   4 -17  -3   24.60    1.90
   5 -17  -1    1.80    0.70
  -4 -18   1   63.69    3.00
  -3 -18   3   14.60    1.60
  -3 -18   2   49.70    2.70
  -3 -18   1   51.39    2.60
  -3 -18   0   63.39    2.90
  -3 -18  -1   62.29    2.90
  -2 -18   3    6.20    1.20
  -2 -18   2    6.20    1.10
  -2 -18   1   28.60    2.00
  -2 -18   0   21.30    1.70
  -2 -18  -1   19.50    1.90
  -2 -18  -2   51.19    2.60
  -1 -18   3    8.90    1.30
  -1 -18   2   10.10    1.40
  -1 -18   1    3.80    1.00
  -1 -18   0    3.50    0.90
  -1 -18  -1    6.90    1.20
  -1 -18  -2    9.10    1.40
  -1 -18  -3   12.40    1.60
   0 -18   3    4.80    1.10
   0 -18   2   15.80    1.70
   0 -18   1    8.20    1.30
   0 -18   0    4.20    1.00
   0 -18  -1   14.40    1.70
   0 -18  -2    9.40    1.40
   0 -18  -3    2.40    0.90
   1 -18   3   13.90    1.70
   1 -18   2    7.50    1.30
   1 -18   1    4.90    1.10
   1 -18   0    1.90    0.80
   1 -18  -1    2.80    0.90
   1 -18  -2   10.60    1.40
   1 -18  -3   11.30    1.50
   2 -18   2   59.99    2.90
   2 -18   1   12.70    1.50
   2 -18   0   21.00    1.70
   2 -18  -1   29.10    2.00
   2 -18  -2    5.30    1.10
   2 -18  -3    5.00    1.10
   3 -18   1   75.99    3.20
   3 -18   0   60.09    2.80
   3 -18  -1   48.20    2.50
   3 -18  -2   55.29    2.80
   4 -18  -1   61.79    2.90
  -2 -19   1   12.20    1.60
  -2 -19   0   44.30    2.50
  -2 -19  -1   41.70    2.50
  -1 -19   2    0.00    0.60
  -1 -19   1   31.50    2.20
  -1 -19   0    0.70    0.70
  -1 -19  -1   17.70    1.90
   0 -19   2    0.20    0.70
   0 -19   1   17.30    1.90
   0 -19   0    0.40    0.70
   0 -19  -1   13.90    1.60
   0 -19  -2    1.50    0.70
   1 -19   1   14.80    1.60
   1 -19   0    2.70    0.90
   1 -19  -1   26.40    2.00
   1 -19  -2    0.20    0.60
   2 -19   1   40.20    2.40
   2 -19   0   47.80    2.60
   2 -19  -1   15.60    1.80

_computing_structure_solution     'SHELXT 2014/4 (Sheldrick, 2014)'
;
_shelx_hkl_checksum              31984
loop_
_space_group_symop_operation_xyz
'x, y, z'
'x, -y, z+1/2'
loop_
_atom_site_label
_atom_site_type_symbol
_atom_site_fract_x
_atom_site_fract_y
_atom_site_fract_z
_atom_site_U_iso_or_equiv
_atom_site_adp_type
_atom_site_occupancy
_atom_site_site_symmetry_order
_atom_site_calc_flag
_atom_site_refinement_flags_posn
_atom_site_refinement_flags_adp
F1 F 0.1900(2) 0.21405(8) 0.3030(3) 0.0280(4) Uani 1 1 d . .
N1 N 0.3683(3) 0.44354(12) 0.3468(3) 0.0147(4) Uani 1 1 d . .
B1 B 0.5475(4) 0.48793(18) 0.3932(4) 0.0198(5) Uani 1 1 d . .
H1B H 0.671(4) 0.4395(18) 0.420(5) 0.024 Uiso 1 1 d . U
C1 C 0.3580(3) 0.34925(15) 0.3422(3) 0.0165(5) Uani 1 1 d . .
H1 H 0.4682 0.3144 0.3657 0.020 Uiso 1 1 calc R U
C2 C 0.1955(4) 0.30696(14) 0.3052(4) 0.0193(5) Uani 1 1 d . .
C3 C 0.0249(3) 0.35400(16) 0.2669(4) 0.0224(5) Uani 1 1 d . .
H3 H -0.0894 0.3225 0.2427 0.027 Uiso 1 1 calc R U
C4 C 0.0333(3) 0.44661(16) 0.2664(4) 0.0201(5) Uani 1 1 d . .
H4 H -0.0782 0.4806 0.2378 0.024 Uiso 1 1 calc R U
C5 C 0.2050(3) 0.49395(15) 0.3078(3) 0.0158(4) Uani 1 1 d . .
C6 C 0.2135(3) 0.58850(15) 0.3109(4) 0.0194(5) Uani 1 1 d . .
H6 H 0.1022 0.6226 0.2830 0.023 Uiso 1 1 calc R U
C7 C 0.3819(4) 0.63426(14) 0.3540(4) 0.0214(5) Uani 1 1 d . .
H7 H 0.3819 0.6989 0.3548 0.026 Uiso 1 1 calc R U
C8 C 0.5485(4) 0.58905(16) 0.3954(4) 0.0221(5) Uani 1 1 d . .
H8 H 0.6615 0.6218 0.4248 0.027 Uiso 1 1 calc R U
F2 F 0.6518(2) -0.21509(8) 0.6544(3) 0.0266(4) Uani 1 1 d . .
N2 N 0.8033(3) 0.01885(12) 0.6906(3) 0.0158(4) Uani 1 1 d . .
B2 B 0.9776(4) 0.06810(19) 0.7348(5) 0.0227(6) Uani 1 1 d . .
H2B H 1.107(4) 0.0212(19) 0.763(5) 0.027 Uiso 1 1 d . U
C9 C 0.8054(3) -0.07629(14) 0.6928(3) 0.0164(5) Uani 1 1 d . .
H9 H 0.9195 -0.1081 0.7235 0.020 Uiso 1 1 calc R U
C10 C 0.6455(4) -0.12281(14) 0.6515(4) 0.0187(5) Uani 1 1 d . .
C11 C 0.4721(3) -0.08046(16) 0.6039(4) 0.0210(5) Uani 1 1 d . .
H11 H 0.3612 -0.1150 0.5740 0.025 Uiso 1 1 calc R U
C12 C 0.4693(3) 0.01216(16) 0.6023(4) 0.0203(5) Uani 1 1 d . .
H12 H 0.3542 0.0430 0.5707 0.024 Uiso 1 1 calc R U
C13 C 0.6357(3) 0.06385(14) 0.6471(3) 0.0164(5) Uani 1 1 d . .
C14 C 0.6324(4) 0.15894(15) 0.6454(4) 0.0211(5) Uani 1 1 d . .
H14 H 0.5170 0.1896 0.6165 0.025 Uiso 1 1 calc R U
C15 C 0.7946(4) 0.20982(14) 0.6851(4) 0.0265(6) Uani 1 1 d . .
H15 H 0.7870 0.2744 0.6816 0.032 Uiso 1 1 calc R U
C16 C 0.9656(4) 0.16907(16) 0.7294(5) 0.0269(6) Uani 1 1 d . .
H16 H 1.0745 0.2050 0.7561 0.032 Uiso 1 1 calc R U
loop_
_atom_site_aniso_label
_atom_site_aniso_U_11
_atom_site_aniso_U_22
_atom_site_aniso_U_33
_atom_site_aniso_U_23
_atom_site_aniso_U_13
_atom_site_aniso_U_12
F1 0.0314(8) 0.0139(6) 0.0382(9) -0.0012(6) 0.0072(7) -0.0038(6)
N1 0.0166(11) 0.0136(8) 0.0143(9) -0.0003(8) 0.0044(8) 0.0008(8)
B1 0.0190(14) 0.0229(11) 0.0177(12) -0.0006(10) 0.0051(11) -0.0022(11)
C1 0.0184(13) 0.0148(9) 0.0162(10) 0.0009(9) 0.0037(9) 0.0029(9)
C2 0.0246(12) 0.0133(9) 0.0200(11) -0.0005(9) 0.0051(9) -0.0001(10)
C3 0.0163(13) 0.0252(12) 0.0248(12) -0.0004(10) 0.0028(10) -0.0061(10)
C4 0.0152(13) 0.0224(11) 0.0216(12) 0.0003(9) 0.0025(10) 0.0010(9)
C5 0.0160(12) 0.0173(9) 0.0141(10) 0.0008(10) 0.0037(8) 0.0009(9)
C6 0.0235(14) 0.0177(10) 0.0170(11) 0.0008(9) 0.0047(10) 0.0030(9)
C7 0.0301(14) 0.0156(9) 0.0178(10) 0.0005(9) 0.0044(10) -0.0005(9)
C8 0.0234(13) 0.0240(10) 0.0189(11) -0.0017(9) 0.0048(10) -0.0087(10)
F2 0.0350(9) 0.0139(6) 0.0301(8) -0.0004(6) 0.0064(6) -0.0022(6)
N2 0.0183(10) 0.0139(8) 0.0145(9) 0.0000(7) 0.0023(8) -0.0004(7)
B2 0.0209(15) 0.0225(12) 0.0242(13) -0.0008(11) 0.0041(11) -0.0027(11)
C9 0.0194(12) 0.0141(9) 0.0151(11) 0.0009(8) 0.0029(9) 0.0037(9)
C10 0.0243(13) 0.0149(9) 0.0165(10) -0.0005(9) 0.0039(9) -0.0003(10)
C11 0.0193(13) 0.0251(11) 0.0177(11) 0.0006(9) 0.0024(9) -0.0046(9)
C12 0.0167(12) 0.0243(11) 0.0193(12) 0.0001(9) 0.0034(9) 0.0011(9)
C13 0.0191(12) 0.0168(9) 0.0131(10) 0.0013(10) 0.0035(9) 0.0021(10)
C14 0.0247(13) 0.0195(10) 0.0194(11) 0.0012(9) 0.0060(10) 0.0041(10)
C15 0.0381(15) 0.0145(9) 0.0269(13) -0.0009(9) 0.0076(11) -0.0027(10)
C16 0.0275(14) 0.0224(10) 0.0297(13) -0.0019(10) 0.0048(11) -0.0100(10)
loop_
_atom_type_symbol
_atom_type_description
_atom_type_scat_dispersion_real
_atom_type_scat_dispersion_imag
_atom_type_scat_source
C C 0.0033 0.0016 'International Tables Vol C Tables 4.2.6.8 and 6.1.1.4'
H H 0.0000 0.0000 'International Tables Vol C Tables 4.2.6.8 and 6.1.1.4'
B B 0.0013 0.0007 'International Tables Vol C Tables 4.2.6.8 and 6.1.1.4'
N N 0.0061 0.0033 'International Tables Vol C Tables 4.2.6.8 and 6.1.1.4'
F F 0.0171 0.0103 'International Tables Vol C Tables 4.2.6.8 and 6.1.1.4'
loop_
_geom_angle_atom_site_label_1
_geom_angle_atom_site_label_2
_geom_angle_atom_site_label_3
_geom_angle
C1 N1 C5 118.94(18)
C1 N1 B1 119.74(19)
C5 N1 B1 121.32(19)
N1 B1 C8 116.9(2)
N1 B1 H1B 114.9(14)
C8 B1 H1B 128.2(14)
C2 C1 N1 120.9(2)
C2 C1 H1 119.6
N1 C1 H1 119.6
C1 C2 F1 119.5(2)
C1 C2 C3 123.04(19)
F1 C2 C3 117.5(2)
C4 C3 C2 116.6(2)
C4 C3 H3 121.7
C2 C3 H3 121.7
C3 C4 C5 121.8(2)
C3 C4 H4 119.1
C5 C4 H4 119.1
C6 C5 N1 119.5(2)
C6 C5 C4 121.7(2)
N1 C5 C4 118.81(19)
C5 C6 C7 121.4(2)
C5 C6 H6 119.3
C7 C6 H6 119.3
C8 C7 C6 122.37(19)
C8 C7 H7 118.8
C6 C7 H7 118.8
C7 C8 B1 118.5(2)
C7 C8 H8 120.7
B1 C8 H8 120.7
C13 N2 C9 119.16(19)
C13 N2 B2 121.66(18)
C9 N2 B2 119.2(2)
N2 B2 C16 116.5(2)
N2 B2 H2B 113.9(14)
C16 B2 H2B 129.6(14)
C10 C9 N2 119.9(2)
C10 C9 H9 120.0
N2 C9 H9 120.0
C9 C10 F2 118.6(2)
C9 C10 C11 123.16(19)
F2 C10 C11 118.2(2)
C12 C11 C10 117.2(2)
C12 C11 H11 121.4
C10 C11 H11 121.4
C11 C12 C13 121.4(2)
C11 C12 H12 119.3
C13 C12 H12 119.3
N2 C13 C14 119.5(2)
N2 C13 C12 119.26(18)
C14 C13 C12 121.2(2)
C15 C14 C13 121.5(2)
C15 C14 H14 119.3
C13 C14 H14 119.3
C16 C15 C14 121.8(2)
C16 C15 H15 119.1
C14 C15 H15 119.1
C15 C16 B2 119.1(2)
C15 C16 H16 120.4
B2 C16 H16 120.4
loop_
_geom_bond_atom_site_label_1
_geom_bond_atom_site_label_2
_geom_bond_distance
F1 C2 1.365(2)
N1 C1 1.387(2)
N1 C5 1.397(3)
N1 B1 1.454(3)
B1 C8 1.485(3)
B1 H1B 1.15(3)
C1 C2 1.333(3)
C1 H1 0.9500
C2 C3 1.417(4)
C3 C4 1.362(3)
C3 H3 0.9500
C4 C5 1.426(3)
C4 H4 0.9500
C5 C6 1.390(3)
C6 C7 1.394(4)
C6 H6 0.9500
C7 C8 1.378(4)
C7 H7 0.9500
C8 H8 0.9500
F2 C10 1.356(2)
N2 C13 1.383(3)
N2 C9 1.398(2)
N2 B2 1.456(3)
B2 C16 1.486(3)
B2 H2B 1.16(3)
C9 C10 1.345(3)
C9 H9 0.9500
C10 C11 1.403(4)
C11 C12 1.360(3)
C11 H11 0.9500
C12 C13 1.425(3)
C12 H12 0.9500
C13 C14 1.397(3)
C14 C15 1.394(4)
C14 H14 0.9500
C15 C16 1.376(4)
C15 H15 0.9500
C16 H16 0.9500
loop_
_geom_torsion_atom_site_label_1
_geom_torsion_atom_site_label_2
_geom_torsion_atom_site_label_3
_geom_torsion_atom_site_label_4
_geom_torsion
C1 N1 B1 C8 180.0(2)
C5 N1 B1 C8 -0.5(3)
C5 N1 C1 C2 -1.3(3)
B1 N1 C1 C2 178.3(2)
N1 C1 C2 F1 -179.6(2)
N1 C1 C2 C3 0.6(4)
C1 C2 C3 C4 0.9(4)
F1 C2 C3 C4 -179.0(2)
C2 C3 C4 C5 -1.6(4)
C1 N1 C5 C6 -179.7(2)
B1 N1 C5 C6 0.8(3)
C1 N1 C5 C4 0.6(3)
B1 N1 C5 C4 -179.0(2)
C3 C4 C5 C6 -178.8(2)
C3 C4 C5 N1 0.9(4)
N1 C5 C6 C7 -0.6(4)
C4 C5 C6 C7 179.2(2)
C5 C6 C7 C8 0.1(4)
C6 C7 C8 B1 0.2(4)
N1 B1 C8 C7 0.0(3)
C13 N2 B2 C16 -0.3(4)
C9 N2 B2 C16 179.8(2)
C13 N2 C9 C10 0.5(3)
B2 N2 C9 C10 -179.7(2)
N2 C9 C10 F2 179.88(19)
N2 C9 C10 C11 0.4(4)
C9 C10 C11 C12 -0.6(4)
F2 C10 C11 C12 179.9(2)
C10 C11 C12 C13 0.0(3)
C9 N2 C13 C14 179.7(2)
B2 N2 C13 C14 -0.1(3)
C9 N2 C13 C12 -1.0(3)
B2 N2 C13 C12 179.1(2)
C11 C12 C13 N2 0.8(4)
C11 C12 C13 C14 -180.0(2)
N2 C13 C14 C15 0.5(4)
C12 C13 C14 C15 -178.7(2)
C13 C14 C15 C16 -0.5(4)
C14 C15 C16 B2 0.0(4)
N2 B2 C16 C15 0.3(4)
