#------------------------------------------------------------------------------
#$Date: 2017-11-30 01:41:29 +0200 (Thu, 30 Nov 2017) $
#$Revision: 203796 $
#$URL: file:///home/coder/svn-repositories/cod/cif/4/12/67/4126788.cif $
#------------------------------------------------------------------------------
#
# This file is available in the Crystallography Open Database (COD),
# http://www.crystallography.net/
#
# All data on this site have been placed in the public domain by the
# contributors.
#
data_4126788
loop_
_publ_author_name
'Jin, Geng Bang'
'Lin, Jian'
'Estes, Shanna L.'
'Skanthakumar, Suntharalingam'
'Soderholm, Lynda'
_publ_section_title
;
 Influence of Counter-Cation Hydration Enthalpies on the Formation of
 Molecular Complexes: A Thorium-Nitrate Example.
;
_journal_name_full               'Journal of the American Chemical Society'
_journal_paper_doi               10.1021/jacs.7b09363
_journal_year                    2017
_chemical_formula_moiety         'Th (N O3)6 Cs2'
_chemical_formula_sum            'Cs2 N6 O18 Th'
_chemical_formula_weight         869.92
_chemical_name_common            'cesium thorium hexanitrate'
_space_group_crystal_system      monoclinic
_space_group_IT_number           14
_space_group_name_Hall           '-P 2yn'
_space_group_name_H-M_alt        'P 1 21/n 1'
_symmetry_space_group_name_Hall  '-P 2yn'
_symmetry_space_group_name_H-M   'P 1 21/n 1'
_audit_creation_method           SHELXL-2014/7
_cell_angle_alpha                90
_cell_angle_beta                 90.80(3)
_cell_angle_gamma                90
_cell_formula_units_Z            2
_cell_length_a                   8.1310(16)
_cell_length_b                   7.1970(14)
_cell_length_c                   13.396(3)
_cell_measurement_reflns_used    6116
_cell_measurement_temperature    100(2)
_cell_measurement_theta_max      32.99
_cell_measurement_theta_min      2.91
_cell_volume                     783.8(3)
_computing_cell_refinement       'Bruker SAINT'
_computing_data_collection       'Bruker APEX2'
_computing_data_reduction        'Bruker SAINT, SADABS and XPREP'
_computing_molecular_graphics    'CrystalMaker for Windows ver. 2.0.6 (2008)'
_computing_publication_material  'Bruker SHELXTL'
_computing_structure_refinement  'SHELXL-2014/7 (Sheldrick, 2014)'
_computing_structure_solution    'SHELXS-97 (Sheldrick 2008)'
_diffrn_ambient_temperature      100(2)
_diffrn_detector_area_resol_mean '\f and \w scans'
_diffrn_measured_fraction_theta_full 0.998
_diffrn_measured_fraction_theta_max 0.932
_diffrn_measurement_device_type  'Mo Kalpha Microfocus X-ray Source'
_diffrn_measurement_method       'Bruker APEX-II CCD'
_diffrn_radiation_type           MoK\a
_diffrn_radiation_wavelength     0.71073
_diffrn_reflns_av_unetI/netI     0.0398
_diffrn_reflns_Laue_measured_fraction_full 0.998
_diffrn_reflns_Laue_measured_fraction_max 0.932
_diffrn_reflns_limit_h_max       12
_diffrn_reflns_limit_h_min       -12
_diffrn_reflns_limit_k_max       10
_diffrn_reflns_limit_k_min       0
_diffrn_reflns_limit_l_max       20
_diffrn_reflns_limit_l_min       0
_diffrn_reflns_number            3511
_diffrn_reflns_point_group_measured_fraction_full 0.998
_diffrn_reflns_point_group_measured_fraction_max 0.932
_diffrn_reflns_theta_full        25.242
_diffrn_reflns_theta_max         33.026
_diffrn_reflns_theta_min         2.913
_exptl_absorpt_coefficient_mu    14.203
_exptl_absorpt_correction_T_max  0.492
_exptl_absorpt_correction_T_min  0.353
_exptl_absorpt_correction_type   multi-scan
_exptl_absorpt_process_details   SADABS
_exptl_crystal_colour            colorless
_exptl_crystal_density_diffrn    3.686
_exptl_crystal_density_meas      ?
_exptl_crystal_density_method    'not measured'
_exptl_crystal_description       block
_exptl_crystal_F_000             772
_exptl_crystal_size_max          0.076
_exptl_crystal_size_mid          0.064
_exptl_crystal_size_min          0.050
_refine_diff_density_max         3.924
_refine_diff_density_min         -1.493
_refine_diff_density_rms         0.392
_refine_ls_extinction_method     none
_refine_ls_goodness_of_fit_ref   1.030
_refine_ls_hydrogen_treatment    undef
_refine_ls_matrix_type           full
_refine_ls_number_parameters     127
_refine_ls_number_reflns         3511
_refine_ls_number_restraints     0
_refine_ls_restrained_S_all      1.030
_refine_ls_R_factor_all          0.0463
_refine_ls_R_factor_gt           0.0319
_refine_ls_shift/su_max          0.000
_refine_ls_shift/su_mean         0.000
_refine_ls_structure_factor_coef Fsqd
_refine_ls_weighting_details
'w=1/[\s^2^(Fo^2^)+(0.0515P)^2^] where P=(Fo^2^+2Fc^2^)/3'
_refine_ls_weighting_scheme      calc
_refine_ls_wR_factor_gt          0.0809
_refine_ls_wR_factor_ref         0.0859
_reflns_Friedel_coverage         0.000
_reflns_number_gt                2735
_reflns_number_total             3511
_reflns_threshold_expression     'I > 2\s(I)'
_cod_data_source_file            ja7b09363_si_003.cif
_cod_data_source_block           Cs
_cod_depositor_comments
;
The following automatic conversions were performed:

'_exptl_crystal_density_meas' value 'not measured' was changed to '?'
- the value is perceived as not measured.

Automatic conversion script
Id: cif_fix_values 4973 2017-02-22 13:04:09Z antanas 
;
_cod_database_code               4126788
_shelx_shelxl_version_number     2014/7
_shelx_space_group_comment
;
The symmetry employed for this shelxl refinement is uniquely defined
by the following loop, which should always be used as a source of
symmetry information in preference to the above space-group names.
They are only intended as comments.
;
_shelx_res_file
;

    FINAL.res created by SHELXL-2014/7


TITL P21N in P2(1)/n
CELL 0.71073   8.13100   7.19700  13.39600  90.0000  90.8000  90.0000
ZERR    2.00   0.00163   0.00144   0.00268   0.0000   0.0300   0.0000
LATT  1
SYMM 0.5-X, 0.5+Y, 0.5-Z
SFAC N O CS TH
UNIT 12 36 4 2

L.S. 4
ACTA
LIST 7
BOND
TEMP -173.0
FMAP 2
PLAN 20

WGHT    0.051500
BASF   0.03144  -0.02441   0.02328
FVAR       0.32274
TH1   4    0.000000    0.000000    0.000000    10.50000    0.01009    0.00925 =
         0.00934    0.00006   -0.00019    0.00021
CS1   3   -0.011007    0.245480    0.337816    11.00000    0.01640    0.01207 =
         0.01294    0.00064    0.00038    0.00183
N1    1   -0.029854    0.745187    0.177287    11.00000    0.01356    0.01300 =
         0.01028    0.00086    0.00022   -0.00329
N2    1    0.727255    0.249760    0.064714    11.00000    0.01637    0.01063 =
         0.01342    0.00120    0.00143    0.00327
N3    1    0.227878    0.260376    0.108525    11.00000    0.01196    0.00910 =
         0.01265   -0.00326    0.00128    0.00011
O1    2    0.085627    0.728149    0.113878    11.00000    0.01335    0.01695 =
         0.01551    0.00260    0.00368    0.00373
O2    2   -0.058274    0.631228    0.241318    11.00000    0.03090    0.01198 =
         0.01738    0.00508    0.00194   -0.00094
O3    2    0.881770    0.894302    0.166484    11.00000    0.01275    0.01277 =
         0.01606    0.00151    0.00078   -0.00069
O4    2    0.618407    0.364564    0.075537    11.00000    0.01982    0.01787 =
         0.02268   -0.00127    0.00430    0.00572
O5    2    0.700558    0.095792    0.017751    11.00000    0.01420    0.01326 =
         0.01459   -0.00232   -0.00057    0.00059
O6    2    0.872640    0.272700    0.098359    11.00000    0.01229    0.01469 =
         0.01454    0.00031    0.00184   -0.00173
O7    2    0.198253    0.277985    0.014851    11.00000    0.01651    0.01638 =
         0.01098    0.00037   -0.00147   -0.00172
O8    2    0.298059    0.378377    0.159048    11.00000    0.01479    0.01348 =
         0.02059   -0.00537   -0.00271   -0.00236
O9    2    0.174790    0.109469    0.147508    11.00000    0.01631    0.01315 =
         0.01309    0.00291    0.00079   -0.00354
HKLF 5

REM  P21N in P2(1)/n
REM R1 =  0.0319 for    2735 Fo > 4sig(Fo)  and  0.0463 for all    3511 data
REM    127 parameters refined using      0 restraints

END

WGHT      0.0516      0.0000

REM Highest difference peak  3.924,  deepest hole -1.493,  1-sigma level  0.392
Q1    1   0.5147  0.2585  0.1605  11.00000  0.05    3.92
Q2    1   0.0979 -0.0006 -0.0151  11.00000  0.05    2.77
Q3    1   0.0000  0.5000  0.0000  10.50000  0.05    2.53
Q4    1   0.4674  0.5116  0.1765  11.00000  0.05    1.92
Q5    1   0.0256  0.4955  0.3249  11.00000  0.05    1.80
Q6    1   0.1658  0.1939  0.3787  11.00000  0.05    1.48
Q7    1   0.0732  0.2482  0.3456  11.00000  0.05    1.41
Q8    1  -0.2203  0.2231  0.3183  11.00000  0.05    1.41
Q9    1   0.0111 -0.0024  0.0584  11.00000  0.05    1.38
Q10   1  -0.1133  0.2281  0.3611  11.00000  0.05    1.36
Q11   1   0.0780  0.0983  0.4014  11.00000  0.05    1.22
Q12   1   0.0185  0.7346  0.0798  11.00000  0.05    1.21
Q13   1   0.0900  0.4240 -0.0242  11.00000  0.05    1.16
Q14   1   1.0116  0.4228  0.0790  11.00000  0.05    1.14
Q15   1   0.4084  0.3841  0.0734  11.00000  0.05    1.14
Q16   1   0.3371  0.1276  0.1390  11.00000  0.05    1.13
Q17   1   0.6794  0.1800 -0.0996  11.00000  0.05    1.12
Q18   1   0.0484  0.6381  0.3159  11.00000  0.05    1.09
Q19   1   0.5992  0.1759  0.1218  11.00000  0.05    1.09
Q20   1   0.6368  0.1458  0.0085  11.00000  0.05    1.07
;
_shelx_res_checksum              61934
_shelx_hkl_file
;
   1   0   0 2.31819 2.08417  -3
   1   0   0 2.31819 2.08417   1
  -1   0   3 7808.57 126.226  -4
   2   0   0 7808.57 126.226   1
   2   0   0 7803.13 143.922  -3
   2   0   0 7803.13 143.922   1
   3   0   0 7.80696 4.45353  -3
   3   0   0 7.80696 4.45353   1
   4   0   0 6500.95 166.349  -3
   4   0   0 6500.95 166.349   1
   5   0   0 1.90140 2.19982   1
   6   0   0 4037.38 80.1644   1
  -4   0  10 5.23397 9.05460  -2
   7   0   0 5.23397 9.05460   1
   8   0   0 2356.74 38.9393   1
   9   0   0 4.34473 5.00672   1
  10   0   0 1693.02 40.4677   1
   0   1   0 1.94918 2.32202  -4
   0   1   0 1.94918 2.32202  -3
   0   1   0 1.94918 2.32202  -2
   0   1   0 1.94918 2.32202   1
   1   1   0 3091.28 58.1437  -3
   1   1   0 3091.28 58.1437   1
   2   1   0 54.9070 4.13911  -3
   2   1   0 54.9070 4.13911   1
  -1   1   3 58.4591 5.78654  -4
   2   1   0 58.4591 5.78654   1
  -1   1   3 74.6001 5.95481  -4
  -1   1   3 74.6001 5.95481  -2
   2   1   0 74.6001 5.95481   1
   3   1   0 1047.86 22.1278  -3
   3   1   0 1047.86 22.1278   1
  -2   1   6 477.910 9.57158  -4
   4   1   0 477.910 9.57158   1
   4   1   0 476.291 13.3385  -3
   4   1   0 476.291 13.3385   1
   5   1   0 1083.21 11.8038   1
   6   1   0 12.4013 2.26653   1
  -4   1  10 1133.43 19.6783  -2
   7   1   0 1133.43 19.6783   1
   8   1   0 212.346 6.00430   1
   9   1   0 584.370 12.3586   1
  10   1   0 76.6191 7.65446   1
  -6   1  15 407.443 29.6486  -2
  11   1   0 407.443 29.6486   1
  12   1   0 110.514 15.8725   1
   0   2   0 3222.70 58.0708  -4
   0   2   0 3222.70 58.0708  -3
   0   2   0 3222.70 58.0708  -2
   0   2   0 3222.70 58.0708   1
   1   2   0 1.96831 2.27066  -3
   1   2   0 1.96831 2.27066   1
  -1   2   3 44.6363 6.35785  -4
   2   2   0 44.6363 6.35785   1
  -1   2   3 51.0680 6.90069  -4
  -1   2   3 51.0680 6.90069  -2
   2   2   0 51.0680 6.90069   1
  -1   2   3 62.6217 8.97512  -4
   2   2   0 62.6217 8.97512  -3
  -1   2   3 62.6217 8.97512  -2
   2   2   0 62.6217 8.97512   1
   3   2   0 208.607 6.96065  -3
   3   2   0 208.607 6.96065   1
  -2   2   6 99.5723 10.2309  -4
  -2   2   6 99.5723 10.2309  -2
   4   2   0 99.5723 10.2309   1
   4   2   0 87.4184 8.00452  -3
   4   2   0 87.4184 8.00452   1
  -2   2   6 111.098 10.2640  -4
   4   2   0 111.098 10.2640   1
   5   2   0 154.702 4.04259   1
   6   2   0 23.7545 2.68806   1
  -4   2  10 166.487 8.72911  -2
   7   2   0 166.487 8.72911   1
   8   2   0 10.3201 3.35334   1
  -5   2  13 64.3330 21.2629  -2
   9   2   0 64.3330 21.2629   1
  10   2   0 21.0392 8.95791   1
  -6   2  15 5.45613 12.5923  -2
  11   2   0 5.45613 12.5923   1
  12   2   0 43.0270 15.9053   1
   0   3   0 -0.5019 4.45523  -4
   0   3   0 -0.5019 4.45523  -3
   0   3   0 -0.5019 4.45523  -2
   0   3   0 -0.5019 4.45523   1
   1   3   0 1550.90 18.8521  -3
   1   3   0 1550.90 18.8521   1
  -1   3   3 694.635 16.0168  -4
   2   3   0 694.635 16.0168  -3
  -1   3   3 694.635 16.0168  -2
   2   3   0 694.635 16.0168   1
   3   3   0 1586.38 27.8258  -3
   3   3   0 1586.38 27.8258   1
   4   3   0 313.406 12.8037  -3
   4   3   0 313.406 12.8037   1
  -2   3   6 290.943 10.3598  -4
   4   3   0 290.943 10.3598   1
  -2   3   6 292.879 14.9715  -4
  -2   3   6 292.879 14.9715  -2
   4   3   0 292.879 14.9715   1
  -3   3   7 842.547 25.2167  -2
   5   3   0 842.547 25.2167   1
   6   3   0 2.90680 2.57034   1
  -4   3  10 448.715 11.0887  -2
   7   3   0 448.715 11.0887   1
   8   3   0 191.499 7.06314   1
   9   3   0 331.503 13.6362   1
  10   3   0 75.1154 11.6294   1
  -6   3  15 252.244 20.9539  -2
  11   3   0 252.244 20.9539   1
  12   3   0 166.886 35.5652   1
   0   4   0 6936.13 99.3144  -4
   0   4   0 6936.13 99.3144  -3
   0   4   0 6936.13 99.3144  -2
   0   4   0 6936.13 99.3144   1
   1   4   0 0.61709 3.25784  -3
   1   4   0 0.61709 3.25784   1
  -1   4   3 6669.74 122.048  -4
  -1   4   3 6669.74 122.048  -2
   2   4   0 6669.74 122.048   1
  -1   4   3 7071.79 121.755  -4
   2   4   0 7071.79 121.755  -3
  -1   4   3 7071.79 121.755  -2
   2   4   0 7071.79 121.755   1
   3   4   0 10.5862 5.95587  -3
   3   4   0 10.5862 5.95587   1
  -2   4   6 6347.21 177.630  -4
  -2   4   6 6347.21 177.630  -2
   4   4   0 6347.21 177.630   1
   4   4   0 5783.44 150.216  -3
   4   4   0 5783.44 150.216   1
   5   4   0 6.82864 2.56659   1
  -3   4   8 2515.21 70.1842  -4
   6   4   0 2515.21 70.1842   1
  -4   4  10 6.61439 8.10694  -2
   7   4   0 6.61439 8.10694   1
  -4   4  11 2114.98 50.6793  -4
   8   4   0 2114.98 50.6793   1
   9   4   0 3.55118 6.04313   1
  -5   4  14 934.383 52.5189  -4
  10   4   0 934.383 52.5189   1
  -6   4  15 11.4107 26.5984  -2
  11   4   0 11.4107 26.5984   1
   0   5   0 -0.2038 7.53585  -4
   0   5   0 -0.2038 7.53585  -3
   0   5   0 -0.2038 7.53585  -2
   0   5   0 -0.2038 7.53585   1
   1   5   0 895.040 13.6169  -3
   1   5   0 895.040 13.6169   1
  -1   5   3 112.980 9.92702  -4
   2   5   0 112.980 9.92702  -3
  -1   5   3 112.980 9.92702  -2
   2   5   0 112.980 9.92702   1
  -1   5   3 113.920 9.96391  -4
  -1   5   3 113.920 9.96391  -2
   2   5   0 113.920 9.96391   1
   3   5   0 1997.15 38.7570  -3
   3   5   0 1997.15 38.7570   1
   4   5   0 267.382 9.14289   1
   5   5   0 1036.45 19.3947   1
  -3   5   8 28.3870 15.3906  -4
   6   5   0 28.3870 15.3906   1
  -4   5  10 602.449 16.8285  -2
   7   5   0 602.449 16.8285   1
  -4   5  11 166.743 17.6897  -4
   8   5   0 166.743 17.6897   1
  -5   5  13 270.348 29.6136  -2
   9   5   0 270.348 29.6136   1
  -5   5  14 52.5188 28.8936  -4
  10   5   0 52.5188 28.8936   1
   0   6   0 544.009 16.5578  -4
   0   6   0 544.009 16.5578  -3
   0   6   0 544.009 16.5578  -2
   0   6   0 544.009 16.5578   1
   1   6   0 3.80667 4.91411  -3
   1   6   0 3.80667 4.91411   1
  -1   6   3 4.85523 9.77819  -4
  -1   6   3 4.85523 9.77819  -2
   2   6   0 4.85523 9.77819   1
  -1   6   3 20.8956 8.21071  -4
   2   6   0 20.8956 8.21071  -3
  -1   6   3 20.8956 8.21071  -2
   2   6   0 20.8956 8.21071   1
   3   6   0 -2.3553 11.0648  -3
   3   6   0 -2.3553 11.0648   1
   4   6   0 32.7083 5.17562   1
  -3   6   7 82.5099 24.1342  -2
   5   6   0 82.5099 24.1342   1
  -3   6   8 3.14496 13.3225  -4
   6   6   0 3.14496 13.3225   1
  -4   6  10 40.6403 11.8067  -2
   7   6   0 40.6403 11.8067   1
  -4   6  11 20.0012 15.5490  -4
   8   6   0 20.0012 15.5490   1
  -5   6  13 69.4559 28.0422  -2
   9   6   0 69.4559 28.0422   1
  -5   6  14 24.2662 31.9266  -4
  10   6   0 24.2662 31.9266   1
   0   7   0 -5.9491 9.10581  -4
   0   7   0 -5.9491 9.10581  -3
   0   7   0 -5.9491 9.10581  -2
   0   7   0 -5.9491 9.10581   1
   1   7   0 591.388 14.2082  -3
   1   7   0 591.388 14.2082   1
  -1   7   3 8.24724 7.94449  -4
  -1   7   3 8.24724 7.94449  -2
   2   7   0 8.24724 7.94449   1
   3   7   0 160.820 19.5797  -3
   3   7   0 160.820 19.5797   1
  -2   7   5 84.0756 18.2418  -4
   4   7   0 84.0756 18.2418   1
   5   7   0 336.761 11.5775   1
  -3   7   8 32.4897 14.5210  -4
   6   7   0 32.4897 14.5210   1
  -4   7  10 209.385 13.4397  -2
   7   7   0 209.385 13.4397   1
  -4   7  11 86.8043 18.2762  -4
   8   7   0 86.8043 18.2762   1
   9   7   0 275.675 20.5391   1
   1   8   0 5.77720 14.4022  -3
   1   8   0 5.77720 14.4022   1
  -1   8   3 2153.25 66.9695  -4
  -1   8   3 2153.25 66.9695  -2
   2   8   0 2153.25 66.9695   1
   3   8   0 21.5432 17.8730  -3
   3   8   0 21.5432 17.8730   1
  -2   8   5 1896.87 48.9184  -4
   4   8   0 1896.87 48.9184   1
   5   8   0 15.6901 7.86519   1
  -3   8   8 1165.64 37.8764  -4
   6   8   0 1165.64 37.8764   1
  -4   8  10 30.7153 13.9501  -2
   7   8   0 30.7153 13.9501   1
   8   8   0 841.234 42.7452   1
   0   9   0 -32.616 20.3410  -4
   0   9   0 -32.616 20.3410  -3
   0   9   0 -32.616 20.3410  -2
   0   9   0 -32.616 20.3410   1
   1   9   0 556.855 30.9475  -3
   1   9   0 556.855 30.9475   1
  -1   9   3 1.07913 19.6452  -4
  -1   9   3 1.07913 19.6452  -2
   2   9   0 1.07913 19.6452   1
  -1   9   3 16.1248 15.5637  -2
   2   9   0 16.1248 15.5637   1
   3   9   0 478.847 14.8763   1
  -2   9   5 6.12623 16.0132  -4
   4   9   0 6.12623 16.0132   1
   5   9   0 384.041 19.3010   1
  -3   9   8 44.9106 18.0474  -4
   6   9   0 44.9106 18.0474   1
   1  10   0 -1.5596 7.80302   1
  -1  10   3 -2.6378 28.1230  -2
   2  10   0 -2.6378 28.1230   1
   3  10   0 10.1899 7.42736   1
  -2  10   5 -0.6743 22.1669  -4
   4  10   0 -0.6743 22.1669   1
   5  10   0 20.5658 17.4497   1
 -11   0   1 8.87822 12.0512   1
  -5   0  14 3.16409 18.2714  -2
 -10   0   1 3.16409 18.2714   1
  -9   0   1 51.3133 6.50750   1
  -8   0   2 74.9076 20.6317  -3
  -4   0  12 74.9076 20.6317  -2
  -8   0   1 74.9076 20.6317   1
  -4   0  12 50.3963 14.8827  -2
  -8   0   1 50.3963 14.8827   1
  -7   0   1 40.8924 5.21126   1
  -3   0   9 105.176 9.07149  -2
  -6   0   1 105.176 9.07149   1
  -5   0   1 19.2240 9.85802  -3
  -5   0   1 19.2240 9.85802   1
  -2   0   8 34.4043 9.59984  -4
  -5   0   1 34.4043 9.59984   1
  -4   0   1 -9.6091 7.56107  -3
  -4   0   1 -9.6091 7.56107   1
  -3   0   1 270.687 11.9635  -3
  -3   0   1 270.687 11.9635   1
  -1   0   5 288.960 7.90454  -4
  -3   0   1 288.960 7.90454   1
  -2   0   1 -4.4633 3.51196  -3
  -2   0   1 -4.4633 3.51196   1
   0   0   2 871.482 26.1155  -4
  -1   0   1 871.482 26.1155  -3
   0   0   2 871.482 26.1155  -2
  -1   0   1 871.482 26.1155   1
   0   0   1 0.53788 1.84894  -3
   0   0   1 0.53788 1.84894   1
  -1   0   1 1029.11 24.9065  -4
   1   0   1 1029.11 24.9065   1
   1   0   1 1029.48 27.5391  -3
   1   0   1 1029.48 27.5391   1
   2   0   1 2.96560 5.03413  -3
   2   0   1 2.96560 5.03413   1
   3   0   1 1797.30 49.4531  -3
   3   0   1 1797.30 49.4531   1
  -2   0   4 1529.49 38.8183  -4
   3   0   1 1529.49 38.8183   1
   4   0   1 -1.1920 7.79810  -3
   4   0   1 -1.1920 7.79810   1
   5   0   1 554.391 14.3343   1
   6   0   1 -0.5188 2.45711   1
   7   0   1 614.299 12.4460   1
  -5   0  11 35.2321 15.6620  -2
   8   0   1 35.2321 15.6620   1
   9   0   1 825.558 20.2955   1
  -6   0  13 21.3311 20.1926  -2
  10   0   1 21.3311 20.1926   1
  11   0   1 617.049 23.3992   1
  -6   1  17 237.536 28.6784  -2
 -12   1   1 237.536 28.6784   1
 -11   1   1 19.9854 9.15383   1
  -5   1  14 318.552 18.7392  -2
 -10   1   1 318.552 18.7392   1
  -9   1   1 81.9135 6.22405   1
  -8   1   1 548.151 12.0865   1
  -7   1   1 154.904 4.67977   1
  -3   1   9 1713.46 34.4723  -2
  -6   1   1 1713.46 34.4723   1
  -5   1   1 690.393 8.43154   1
  -4   1   1 1085.52 32.8448  -3
  -4   1   1 1085.52 32.8448   1
  -1   1   5 2135.91 37.7946  -4
  -3   1   1 2135.91 37.7946   1
  -1   1   5 2160.72 51.6316  -4
  -1   1   5 2160.72 51.6316  -2
  -3   1   1 2160.72 51.6316   1
  -3   1   1 2086.74 41.6627  -3
  -3   1   1 2086.74 41.6627   1
  -2   1   1 1915.53 31.0381  -3
  -2   1   1 1915.53 31.0381   1
   0   1   2 1281.82 19.5011  -4
  -1   1   1 1281.82 19.5011  -3
   0   1   2 1281.82 19.5011  -2
  -1   1   1 1281.82 19.5011   1
   0   1   2 1189.34 29.3173  -2
  -1   1   1 1189.34 29.3173   1
   0   1   2 1172.81 29.6287  -4
   0   1   2 1172.81 29.6287  -2
  -1   1   1 1172.81 29.6287   1
   0   1   1 2620.76 29.1950  -3
   0   1   1 2620.76 29.1950   1
   1   1   1 1279.37 38.3355  -3
   1   1   1 1279.37 38.3355   1
   2   1   1 1415.03 23.1722  -3
   2   1   1 1415.03 23.1722   1
   3   1   1 932.270 17.0362  -3
   3   1   1 932.270 17.0362   1
  -2   1   4 906.031 14.1898  -4
   3   1   1 906.031 14.1898   1
   4   1   1 1976.75 41.3608  -3
   4   1   1 1976.75 41.3608   1
   5   1   1 2001.45 21.1221   1
  -4   1   8 688.025 11.7044  -2
   6   1   1 688.025 11.7044   1
   7   1   1 1757.33 19.9016   1
  -5   1  11 560.293 20.1514  -2
   8   1   1 560.293 20.1514   1
   9   1   1 464.048 11.0904   1
  -6   1  13 583.785 19.1153  -2
  10   1   1 583.785 19.1153   1
  11   1   1 238.556 14.3425   1
 -11   2   1 1145.74 32.7024   1
  -5   2  14 13.5047 21.9411  -2
 -10   2   1 13.5047 21.9411   1
  -4   2  13 2114.69 77.3927  -4
  -9   2   1 2114.69 77.3927   1
  -4   2  12 23.2726 10.0851  -2
  -8   2   1 23.2726 10.0851   1
  -7   2   1 3537.17 42.6891   1
  -3   2   9 0.25082 12.5532  -2
  -6   2   1 0.25082 12.5532   1
  -5   2   1 3945.67 38.5862   1
  -4   2   1 167.198 3.44729   1
  -1   2   5 6887.16 159.303  -4
  -3   2   1 6887.16 159.303   1
  -1   2   5 6920.15 121.643  -4
  -1   2   5 6920.15 121.643  -2
  -3   2   1 6920.15 121.643   1
  -1   2   5 7297.30 170.414  -2
  -3   2   1 7297.30 170.414   1
  -3   2   1 6778.89 170.711  -3
  -3   2   1 6778.89 170.711   1
  -2   2   1 5.71581 2.40928  -3
  -2   2   1 5.71581 2.40928   1
   0   2   2 4579.91 82.7882  -4
   0   2   2 4579.91 82.7882  -2
  -1   2   1 4579.91 82.7882   1
   0   2   2 4708.95 80.0764  -4
  -1   2   1 4708.95 80.0764  -3
   0   2   2 4708.95 80.0764  -2
  -1   2   1 4708.95 80.0764   1
   0   2   2 4640.40 79.0960  -2
  -1   2   1 4640.40 79.0960   1
   0   2   1 1.88106 2.16105  -3
   0   2   1 1.88106 2.16105   1
  -1   2   1 3597.57 65.2230  -4
   1   2   1 3597.57 65.2230  -3
  -1   2   1 3597.57 65.2230  -2
   1   2   1 3597.57 65.2230   1
  -1   2   1 3590.71 83.8234  -4
   1   2   1 3590.71 83.8234  -3
   1   2   1 3590.71 83.8234   1
   2   2   1 309.129 6.75031  -3
   2   2   1 309.129 6.75031   1
  -2   2   4 3933.96 70.6088  -4
  -2   2   4 3933.96 70.6088  -2
   3   2   1 3933.96 70.6088   1
   3   2   1 3927.58 76.2635  -3
   3   2   1 3927.58 76.2635   1
  -2   2   4 4056.57 96.5671  -4
   3   2   1 4056.57 96.5671   1
   4   2   1 3.98817 5.07249  -3
   4   2   1 3.98817 5.07249   1
   5   2   1 1700.65 51.1678  -3
   5   2   1 1700.65 51.1678   1
  -4   2   8 94.4851 6.01628  -2
   6   2   1 94.4851 6.01628   1
   7   2   1 824.549 12.8739   1
   8   2   1 20.5950 3.84395   1
   9   2   1 253.563 8.66923   1
  -6   2  13 12.7041 11.6798  -2
  10   2   1 12.7041 11.6798   1
  11   2   1 123.607 14.0134   1
  -7   2  16 7.17937 22.2020  -2
  12   2   1 7.17937 22.2020   1
 -11   3   1 2.09172 11.9882   1
  -5   3  14 586.142 36.7049  -2
 -10   3   1 586.142 36.7049   1
  -4   3  13 174.724 26.5451  -4
  -9   3   1 174.724 26.5451   1
  -4   3  12 660.985 24.4752  -2
  -8   3   1 660.985 24.4752   1
  -7   3   1 108.718 5.45843   1
  -3   3   9 656.345 17.5225  -2
  -6   3   1 656.345 17.5225   1
  -5   3   1 239.245 13.0769  -3
  -5   3   1 239.245 13.0769   1
  -4   3   1 1402.09 45.2735  -3
  -4   3   1 1402.09 45.2735   1
  -1   3   5 1219.25 32.7540  -4
  -3   3   1 1219.25 32.7540  -3
  -1   3   5 1219.25 32.7540  -2
  -3   3   1 1219.25 32.7540   1
  -3   3   1 795.398 31.3838  -3
  -3   3   1 795.398 31.3838   1
  -2   3   1 1493.01 21.1393  -3
  -2   3   1 1493.01 21.1393   1
   0   3   2 2272.47 35.3539  -4
  -1   3   1 2272.47 35.3539  -3
   0   3   2 2272.47 35.3539  -2
  -1   3   1 2272.47 35.3539   1
   0   3   2 2179.88 39.5768  -2
  -1   3   1 2179.88 39.5768   1
   0   3   2 2198.86 42.7532  -4
   0   3   2 2198.86 42.7532  -2
  -1   3   1 2198.86 42.7532   1
   0   3   1 3121.53 32.9330  -3
   0   3   1 3121.53 32.9330   1
  -1   3   1 2449.11 47.1834  -4
  -1   3   1 2449.11 47.1834  -2
   1   3   1 2449.11 47.1834   1
  -1   3   1 2486.99 33.4248  -4
   1   3   1 2486.99 33.4248  -3
  -1   3   1 2486.99 33.4248  -2
   1   3   1 2486.99 33.4248   1
   2   3   1 1668.11 23.3930  -3
   2   3   1 1668.11 23.3930   1
  -2   3   4 691.782 16.1890  -4
  -2   3   4 691.782 16.1890  -2
   3   3   1 691.782 16.1890   1
   3   3   1 715.411 16.3776  -3
   3   3   1 715.411 16.3776   1
  -2   3   4 699.764 23.5169  -4
   3   3   1 699.764 23.5169   1
   4   3   1 922.356 31.5304  -3
   4   3   1 922.356 31.5304   1
   5   3   1 1265.95 41.1713  -3
   5   3   1 1265.95 41.1713   1
  -4   3   8 1020.04 22.4083  -2
   6   3   1 1020.04 22.4083   1
   7   3   1 1004.96 15.0177   1
  -5   3  11 631.099 20.7670  -2
   8   3   1 631.099 20.7670   1
   9   3   1 561.633 14.8465   1
  -6   3  13 323.443 30.0110  -2
  10   3   1 323.443 30.0110   1
  11   3   1 190.400 13.0872   1
 -11   4   1 8.37164 13.4060   1
  -5   4  14 10.3399 17.7511  -2
 -10   4   1 10.3399 17.7511   1
  -4   4  13 25.3223 14.4694  -4
  -9   4   1 25.3223 14.4694   1
  -4   4  12 68.1053 12.2413  -2
  -8   4   1 68.1053 12.2413   1
  -3   4  10 50.5682 13.2431  -4
  -7   4   1 50.5682 13.2431   1
  -3   4   9 67.9169 11.1897  -2
  -6   4   1 67.9169 11.1897   1
  -5   4   1 53.0004 3.27859   1
  -4   4   1 12.0576 8.84079  -3
  -4   4   1 12.0576 8.84079   1
  -1   4   5 90.6931 8.92667  -4
  -3   4   1 90.6931 8.92667  -3
  -1   4   5 90.6931 8.92667  -2
  -3   4   1 90.6931 8.92667   1
  -2   4   1 113.986 6.20814  -3
  -2   4   1 113.986 6.20814   1
   0   4   2 415.191 12.8770  -4
   0   4   2 415.191 12.8770  -2
  -1   4   1 415.191 12.8770   1
   0   4   2 437.859 9.17539  -4
  -1   4   1 437.859 9.17539  -3
   0   4   2 437.859 9.17539  -2
  -1   4   1 437.859 9.17539   1
   0   4   2 399.254 15.1802  -2
  -1   4   1 399.254 15.1802   1
   0   4   1 20.0255 3.29980  -3
   0   4   1 20.0255 3.29980   1
  -1   4   1 724.723 11.1597  -4
   1   4   1 724.723 11.1597  -3
  -1   4   1 724.723 11.1597  -2
   1   4   1 724.723 11.1597   1
  -1   4   1 736.614 18.8814  -4
  -1   4   1 736.614 18.8814  -2
   1   4   1 736.614 18.8814   1
   2   4   1 16.0520 3.82149  -3
   2   4   1 16.0520 3.82149   1
   3   4   1 24.3158 8.94572  -3
   3   4   1 24.3158 8.94572   1
  -2   4   4 53.5172 9.87597  -4
   3   4   1 53.5172 9.87597   1
   4   4   1 91.9090 13.1002  -3
   4   4   1 91.9090 13.1002   1
   5   4   1 461.877 23.3774  -3
   5   4   1 461.877 23.3774   1
  -4   4   8 6.65163 7.07651  -2
   6   4   1 6.65163 7.07651   1
  -4   4   9 640.942 30.8101  -4
   7   4   1 640.942 30.8101   1
  -5   4  11 43.3698 13.2697  -2
   8   4   1 43.3698 13.2697   1
  -5   4  12 591.435 40.6566  -4
   9   4   1 591.435 40.6566   1
  -6   4  13 -12.157 17.2377  -2
  10   4   1 -12.157 17.2377   1
  11   4   1 384.108 16.7810   1
  -5   5  16 57.6718 32.9834  -4
 -11   5   1 57.6718 32.9834   1
  -5   5  14 248.198 31.0086  -2
 -10   5   1 248.198 31.0086   1
  -4   5  13 72.1862 17.0791  -4
  -9   5   1 72.1862 17.0791   1
  -4   5  12 390.880 15.0265  -2
  -8   5   1 390.880 15.0265   1
  -3   5  10 115.033 14.9285  -4
  -7   5   1 115.033 14.9285   1
  -3   5   9 163.081 19.3549  -2
  -6   5   1 163.081 19.3549   1
  -5   5   1 256.288 8.00420   1
  -4   5   1 754.655 10.6267   1
  -1   5   5 540.319 26.9344  -4
  -1   5   5 540.319 26.9344  -2
  -3   5   1 540.319 26.9344   1
  -1   5   5 551.406 17.0018  -4
  -3   5   1 551.406 17.0018  -3
  -1   5   5 551.406 17.0018  -2
  -3   5   1 551.406 17.0018   1
  -2   5   1 1034.60 20.5554  -3
  -2   5   1 1034.60 20.5554   1
   0   5   2 1268.29 29.4220  -4
   0   5   2 1268.29 29.4220  -2
  -1   5   1 1268.29 29.4220   1
   0   5   2 1365.32 25.0029  -4
  -1   5   1 1365.32 25.0029  -3
   0   5   2 1365.32 25.0029  -2
  -1   5   1 1365.32 25.0029   1
   0   5   1 300.942 7.21186  -3
   0   5   1 300.942 7.21186   1
  -1   5   1 1279.26 17.9679  -4
   1   5   1 1279.26 17.9679  -3
  -1   5   1 1279.26 17.9679  -2
   1   5   1 1279.26 17.9679   1
  -1   5   1 1261.92 29.6896  -4
  -1   5   1 1261.92 29.6896  -2
   1   5   1 1261.92 29.6896   1
   2   5   1 1333.12 18.6045  -3
   2   5   1 1333.12 18.6045   1
  -2   5   4 802.364 29.2397  -4
   3   5   1 802.364 29.2397   1
   4   5   1 703.056 12.4888   1
   5   5   1 819.548 14.2569   1
  -4   5   8 1010.51 31.0305  -2
   6   5   1 1010.51 31.0305   1
  -4   5   9 589.821 24.2781  -4
   7   5   1 589.821 24.2781   1
  -5   5  11 515.084 22.8822  -2
   8   5   1 515.084 22.8822   1
  -5   5  12 380.646 37.5900  -4
   9   5   1 380.646 37.5900   1
  -6   5  13 179.395 20.5674  -2
  10   5   1 179.395 20.5674   1
 -10   6   1 2.91194 17.0361   1
  -4   6  13 1229.17 40.0263  -4
  -9   6   1 1229.17 40.0263   1
  -4   6  12 -13.794 10.8355  -2
  -8   6   1 -13.794 10.8355   1
  -3   6  10 1459.77 40.7671  -4
  -7   6   1 1459.77 40.7671   1
  -3   6   9 31.6094 14.4264  -2
  -6   6   1 31.6094 14.4264   1
  -2   6   7 2413.16 70.7226  -4
  -5   6   1 2413.16 70.7226   1
  -4   6   1 24.6025 3.83814   1
  -1   6   5 2722.56 44.5079  -4
  -1   6   5 2722.56 44.5079  -2
  -3   6   1 2722.56 44.5079   1
  -1   6   5 2945.46 86.8822  -4
  -3   6   1 2945.46 86.8822  -3
  -1   6   5 2945.46 86.8822  -2
  -3   6   1 2945.46 86.8822   1
  -1   6   5 2832.02 96.9174  -4
  -3   6   1 2832.02 96.9174  -3
  -3   6   1 2832.02 96.9174   1
  -1   6   5 2678.18 73.8176  -2
  -3   6   1 2678.18 73.8176   1
  -2   6   1 10.8064 5.97681  -3
  -2   6   1 10.8064 5.97681   1
   0   6   2 2086.78 42.1139  -4
  -1   6   1 2086.78 42.1139  -3
   0   6   2 2086.78 42.1139  -2
  -1   6   1 2086.78 42.1139   1
   0   6   2 2066.12 58.3204  -4
   0   6   2 2066.12 58.3204  -2
  -1   6   1 2066.12 58.3204   1
   0   6   1 20.5535 5.40437  -3
   0   6   1 20.5535 5.40437   1
  -1   6   1 1832.88 32.8309  -4
   1   6   1 1832.88 32.8309  -3
  -1   6   1 1832.88 32.8309  -2
   1   6   1 1832.88 32.8309   1
  -1   6   1 1824.98 41.3426  -4
  -1   6   1 1824.98 41.3426  -2
   1   6   1 1824.98 41.3426   1
   2   6   1 18.1438 5.95931  -3
   2   6   1 18.1438 5.95931   1
  -2   6   4 1504.48 47.0236  -4
   3   6   1 1504.48 47.0236   1
   4   6   1 97.8535 5.83398   1
   5   6   1 1119.58 18.3857   1
  -4   6   8 55.8478 23.3233  -2
   6   6   1 55.8478 23.3233   1
  -4   6   9 390.628 21.6668  -4
   7   6   1 390.628 21.6668   1
  -5   6  11 29.6558 12.2074  -2
   8   6   1 29.6558 12.2074   1
  -5   6  12 162.989 20.4914  -4
   9   6   1 162.989 20.4914   1
  -6   6  13 39.5079 34.1396  -2
  10   6   1 39.5079 34.1396   1
  -4   7  13 72.6935 33.0033  -4
  -9   7   1 72.6935 33.0033   1
  -4   7  12 375.163 16.9903  -2
  -8   7   1 375.163 16.9903   1
  -3   7  10 101.773 17.0211  -4
  -7   7   1 101.773 17.0211   1
  -3   7   9 730.966 29.2746  -2
  -6   7   1 730.966 29.2746   1
  -2   7   7 232.387 22.5962  -4
  -5   7   1 232.387 22.5962   1
  -4   7   1 776.646 36.0534  -3
  -4   7   1 776.646 36.0534   1
  -1   7   5 328.730 18.5191  -2
  -3   7   1 328.730 18.5191   1
  -1   7   5 377.389 24.6389  -4
  -1   7   5 377.389 24.6389  -2
  -3   7   1 377.389 24.6389   1
  -2   7   1 918.175 24.4203  -3
  -2   7   1 918.175 24.4203   1
   0   7   2 406.339 16.4175  -4
  -1   7   1 406.339 16.4175  -3
   0   7   2 406.339 16.4175  -2
  -1   7   1 406.339 16.4175   1
   0   7   1 1020.52 18.1154  -3
   0   7   1 1020.52 18.1154   1
  -1   7   1 468.704 19.0781  -4
  -1   7   1 468.704 19.0781  -2
   1   7   1 468.704 19.0781   1
  -1   7   1 454.734 20.0020  -4
   1   7   1 454.734 20.0020  -3
  -1   7   1 454.734 20.0020  -2
   1   7   1 454.734 20.0020   1
   2   7   1 623.739 17.4379  -3
   2   7   1 623.739 17.4379   1
  -2   7   4 552.578 19.9497  -4
  -2   7   4 552.578 19.9497  -2
   3   7   1 552.578 19.9497   1
  -2   7   4 542.143 29.5465  -4
   3   7   1 542.143 29.5465  -3
   3   7   1 542.143 29.5465   1
   4   7   1 506.910 11.5452   1
  -3   7   6 526.009 23.7758  -4
   5   7   1 526.009 23.7758   1
  -4   7   8 296.477 33.4263  -2
   6   7   1 296.477 33.4263   1
  -4   7   9 437.430 24.2659  -4
   7   7   1 437.430 24.2659   1
  -5   7  11 311.982 19.2448  -2
   8   7   1 311.982 19.2448   1
  -5   7  12 213.847 36.3169  -4
   9   7   1 213.847 36.3169   1
  -3   8  10 11.4459 15.4961  -4
  -7   8   1 11.4459 15.4961   1
  -3   8   9 53.3076 28.7816  -2
  -6   8   1 53.3076 28.7816   1
  -2   8   7 -5.6725 14.9265  -4
  -5   8   1 -5.6725 14.9265   1
  -4   8   1 9.04111 4.97059   1
  -1   8   5 19.2267 14.2565  -2
  -3   8   1 19.2267 14.2565   1
  -1   8   5 16.2582 18.4625  -4
  -1   8   5 16.2582 18.4625  -2
  -3   8   1 16.2582 18.4625   1
  -2   8   1 14.7493 16.3253  -3
  -2   8   1 14.7493 16.3253   1
   0   8   2 118.997 13.5867  -4
  -1   8   1 118.997 13.5867  -3
   0   8   2 118.997 13.5867  -2
  -1   8   1 118.997 13.5867   1
   0   8   2 105.736 16.7204  -4
   0   8   2 105.736 16.7204  -2
  -1   8   1 105.736 16.7204   1
   0   8   1 0.43478 10.6200  -3
   0   8   1 0.43478 10.6200   1
  -1   8   1 132.932 18.6442  -4
  -1   8   1 132.932 18.6442  -2
   1   8   1 132.932 18.6442   1
   2   8   1 84.5770 17.1158  -3
   2   8   1 84.5770 17.1158   1
  -2   8   4 366.190 19.7714  -4
  -2   8   4 366.190 19.7714  -2
   3   8   1 366.190 19.7714   1
  -2   8   4 356.982 23.0141  -4
   3   8   1 356.982 23.0141  -3
   3   8   1 356.982 23.0141   1
   4   8   1 36.5117 6.24380   1
  -3   8   6 249.068 20.4971  -4
   5   8   1 249.068 20.4971   1
  -4   8   8 -0.6559 20.4491  -2
   6   8   1 -0.6559 20.4491   1
  -4   8   9 221.886 21.7116  -4
   7   8   1 221.886 21.7116   1
  -3   9   9 239.094 27.2648  -2
  -6   9   1 239.094 27.2648   1
  -2   9   7 67.2891 17.8840  -4
  -5   9   1 67.2891 17.8840   1
  -4   9   1 178.275 13.4746   1
  -1   9   5 241.252 27.2708  -4
  -1   9   5 241.252 27.2708  -2
  -3   9   1 241.252 27.2708   1
  -2   9   1 245.211 13.0743   1
   0   9   2 208.494 21.8415  -2
  -1   9   1 208.494 21.8415   1
   0   9   1 186.075 22.1348  -3
   0   9   1 186.075 22.1348   1
   2   9   1 295.953 11.1787   1
  -2   9   3 228.610 35.9054  -4
   3   9   1 228.610 35.9054   1
   4   9   1 349.693 20.1383   1
  -3   9   6 297.814 23.4124  -4
   5   9   1 297.814 23.4124   1
  -4   9   8 292.588 31.3573  -2
   6   9   1 292.588 31.3573   1
  -5  10   1 681.149 41.1534   1
  -4  10   1 4.85917 9.06898   1
  -1  10   5 896.174 57.7435  -2
  -3  10   1 896.174 57.7435   1
  -2  10   1 37.2419 10.3828   1
   0  10   1 12.3773 10.5108   1
   2  10   1 54.9600 11.8582   1
  -2  10   3 436.468 31.9024  -4
   3  10   1 436.468 31.9024   1
   4  10   1 38.2704 11.8373   1
 -12   0   2 295.548 25.6301   1
  -9   0   2 -3.2775 4.37271   1
  -8   0   2 532.156 12.1905   1
  -3   0  11 36.2011 12.5642  -2
  -7   0   2 36.2011 12.5642   1
  -6   0   2 1141.17 18.2177   1
  -5   0   2 0.15252 2.27115   1
  -1   0   7 641.977 14.4985  -4
  -4   0   2 641.977 14.4985   1
  -3   0   2 -2.1834 7.18993  -3
  -3   0   2 -2.1834 7.18993   1
  -1   0   2 -5.4998 5.01537  -3
  -1   0   2 -5.4998 5.01537   1
   1   0   1 1080.03 31.9395  -4
   0   0   2 1080.03 31.9395  -3
   1   0   1 1080.03 31.9395  -2
   0   0   2 1080.03 31.9395   1
   1   0   2 7.63402 4.55739  -3
   1   0   2 7.63402 4.55739   1
  -2   0   2 263.819 10.2574  -4
   2   0   2 263.819 10.2574   1
   2   0   2 271.031 11.3504  -3
   2   0   2 271.031 11.3504   1
   3   0   2 -0.4552 6.54023  -3
   3   0   2 -0.4552 6.54023   1
  -3   0   5 156.640 10.3704  -4
   4   0   2 156.640 10.3704   1
   4   0   2 167.514 12.1032  -3
   4   0   2 167.514 12.1032   1
  -4   0   6 139.198 11.1773  -2
   5   0   2 139.198 11.1773   1
   6   0   2 14.5597 3.02533   1
  -5   0   9 60.8891 13.3253  -2
   7   0   2 60.8891 13.3253   1
   8   0   2 50.5716 6.08664   1
  -6   0  11 -12.508 17.2582  -2
   9   0   2 -12.508 17.2582   1
  10   0   2 66.0405 10.1373   1
  -7   0  14 46.9752 21.5119  -2
  11   0   2 46.9752 21.5119   1
  12   0   2 -1.8004 14.6127   1
 -12   1   2 205.223 24.8333   1
  -5   1  16 257.232 19.3486  -2
 -11   1   2 257.232 19.3486   1
 -10   1   2 388.504 12.0636   1
  -9   1   2 506.248 12.4607   1
  -8   1   2 387.366 8.32165   1
  -3   1  11 1031.12 27.0459  -2
  -7   1   2 1031.12 27.0459   1
  -6   1   2 1485.54 16.9917   1
  -5   1   2 629.634 8.49676   1
  -1   1   7 759.199 24.9892  -4
  -4   1   2 759.199 24.9892   1
  -4   1   2 744.940 24.4198  -3
  -4   1   2 744.940 24.4198   1
  -3   1   2 3037.92 41.7913  -3
  -3   1   2 3037.92 41.7913   1
   0   1   4 7566.90 123.054  -2
  -2   1   2 7566.90 123.054   1
   0   1   4 6911.52 161.518  -4
  -2   1   2 6911.52 161.518   1
   0   1   4 7782.54 214.299  -4
  -2   1   2 7782.54 214.299  -3
   0   1   4 7782.54 214.299  -2
  -2   1   2 7782.54 214.299   1
  -1   1   2 2094.51 33.7916  -3
  -1   1   2 2094.51 33.7916   1
   1   1   1 1438.76 15.3970  -4
   0   1   2 1438.76 15.3970  -3
   1   1   1 1438.76 15.3970  -2
   0   1   2 1438.76 15.3970   1
   1   1   1 1359.81 33.2371  -2
   0   1   2 1359.81 33.2371   1
   1   1   1 1439.23 36.4428  -4
   1   1   1 1439.23 36.4428  -2
   0   1   2 1439.23 36.4428   1
   1   1   2 2469.74 28.9213  -3
   1   1   2 2469.74 28.9213   1
  -2   1   2 5516.59 73.5571  -4
   2   1   2 5516.59 73.5571   1
   2   1   2 5599.59 84.4266  -3
   2   1   2 5599.59 84.4266   1
   3   1   2 2366.66 45.4099  -3
   3   1   2 2366.66 45.4099   1
   4   1   2 2396.39 47.1305  -3
   4   1   2 2396.39 47.1305   1
  -3   1   5 2357.06 41.3044  -4
   4   1   2 2357.06 41.3044   1
  -4   1   6 892.553 25.9031  -2
   5   1   2 892.553 25.9031   1
   6   1   2 199.499 4.45340   1
  -5   1   9 743.417 15.2854  -2
   7   1   2 743.417 15.2854   1
   8   1   2 297.633 8.33925   1
  -6   1  11 338.946 18.3929  -2
   9   1   2 338.946 18.3929   1
  10   1   2 47.7836 6.76141   1
  -7   1  14 350.813 16.9265  -2
  11   1   2 350.813 16.9265   1
  12   1   2 34.4841 9.68524   1
 -12   2   2 121.462 24.9009   1
  -5   2  16 10.5650 16.2877  -2
 -11   2   2 10.5650 16.2877   1
 -10   2   2 185.792 21.8295   1
  -4   2  14 49.6692 19.4018  -2
  -9   2   2 49.6692 19.4018   1
  -3   2  12 820.944 34.1012  -4
  -8   2   2 820.944 34.1012   1
  -3   2  11 41.3557 6.95717  -2
  -7   2   2 41.3557 6.95717   1
  -6   2   2 908.802 11.0358   1
  -5   2   2 1.49181 1.64836   1
  -1   2   7 2381.09 71.8299  -4
  -1   2   7 2381.09 71.8299  -2
  -4   2   2 2381.09 71.8299   1
  -1   2   7 2123.93 57.0806  -4
  -4   2   2 2123.93 57.0806   1
  -4   2   2 2219.70 59.8803  -3
  -4   2   2 2219.70 59.8803   1
  -3   2   2 308.223 6.87577  -3
  -3   2   2 308.223 6.87577   1
   0   2   4 4962.26 82.5554  -2
  -2   2   2 4962.26 82.5554   1
   0   2   4 5030.02 114.351  -4
  -2   2   2 5030.02 114.351  -3
   0   2   4 5030.02 114.351  -2
  -2   2   2 5030.02 114.351   1
   0   2   4 5059.45 142.165  -4
   0   2   4 5059.45 142.165  -2
  -2   2   2 5059.45 142.165   1
  -1   2   2 50.3429 3.05605  -3
  -1   2   2 50.3429 3.05605   1
   1   2   1 3803.12 65.2333  -2
   0   2   2 3803.12 65.2333   1
   1   2   1 3896.59 48.5346  -4
   0   2   2 3896.59 48.5346  -3
   1   2   1 3896.59 48.5346  -2
   0   2   2 3896.59 48.5346   1
   1   2   1 3816.95 91.9925  -4
   1   2   1 3816.95 91.9925  -2
   0   2   2 3816.95 91.9925   1
   1   2   2 2.11819 1.77309  -3
   1   2   2 2.11819 1.77309   1
  -2   2   2 7513.78 134.652  -4
   2   2   2 7513.78 134.652   1
   2   2   2 7765.28 216.245  -3
   2   2   2 7765.28 216.245   1
   3   2   2 0.08872 4.25142  -3
   3   2   2 0.08872 4.25142   1
  -3   2   5 4441.64 75.2383  -4
   4   2   2 4441.64 75.2383   1
   4   2   2 4559.94 85.0828  -3
   4   2   2 4559.94 85.0828   1
   5   2   2 55.6879 11.7982  -3
   5   2   2 55.6879 11.7982   1
   6   2   2 3843.40 41.9084   1
  -5   2   9 6.98212 7.80057  -2
   7   2   2 6.98212 7.80057   1
   8   2   2 1549.50 21.0429   1
  -6   2  11 -18.859 17.1449  -2
   9   2   2 -18.859 17.1449   1
  10   2   2 1295.00 21.6284   1
  -7   2  14 3.98687 14.8867  -2
  11   2   2 3.98687 14.8867   1
  12   2   2 645.607 29.7505   1
  -5   3  16 278.720 21.9574  -2
 -11   3   2 278.720 21.9574   1
  -4   3  15 410.627 38.8271  -4
 -10   3   3 410.627 38.8271  -3
 -10   3   2 410.627 38.8271   1
  -4   3  15 387.624 36.6123  -4
 -10   3   2 387.624 36.6123   1
  -4   3  14 405.786 31.5599  -2
  -9   3   2 405.786 31.5599   1
  -3   3  12 267.390 16.8288  -4
  -8   3   2 267.390 16.8288   1
  -3   3  11 629.130 18.1841  -2
  -7   3   2 629.130 18.1841   1
  -6   3   2 1376.03 16.9443   1
  -5   3   2 1333.48 35.9911  -3
  -5   3   2 1333.48 35.9911   1
  -4   3   2 1543.13 24.6603   1
  -3   3   2 664.830 14.0698  -3
  -3   3   2 664.830 14.0698   1
   0   3   4 2880.43 51.1642  -4
  -2   3   2 2880.43 51.1642  -3
   0   3   4 2880.43 51.1642  -2
  -2   3   2 2880.43 51.1642   1
   0   3   4 2760.23 53.1882  -4
   0   3   4 2760.23 53.1882  -2
  -2   3   2 2760.23 53.1882   1
   0   3   4 2815.78 69.9475  -2
  -2   3   2 2815.78 69.9475   1
  -1   3   2 1656.75 26.5849  -3
  -1   3   2 1656.75 26.5849   1
   1   3   1 2624.85 34.1647  -4
   0   3   2 2624.85 34.1647  -3
   1   3   1 2624.85 34.1647  -2
   0   3   2 2624.85 34.1647   1
   1   3   1 2585.46 46.1064  -2
   0   3   2 2585.46 46.1064   1
   1   3   1 2545.45 64.7821  -4
   1   3   1 2545.45 64.7821  -2
   0   3   2 2545.45 64.7821   1
   1   3   2 1548.65 19.0520  -3
   1   3   2 1548.65 19.0520   1
  -2   3   2 2109.20 41.4947  -4
   2   3   2 2109.20 41.4947   1
  -2   3   2 2172.52 55.3431  -4
  -2   3   2 2172.52 55.3431  -2
   2   3   2 2172.52 55.3431   1
   2   3   2 1844.73 35.3082  -3
   2   3   2 1844.73 35.3082   1
   3   3   2 1355.10 31.3102  -3
   3   3   2 1355.10 31.3102   1
   4   3   2 916.658 24.5837  -3
   4   3   2 916.658 24.5837   1
  -3   3   5 940.283 30.6299  -4
   4   3   2 940.283 30.6299   1
   5   3   2 1254.26 22.0725   1
   6   3   2 524.765 9.57207   1
  -5   3   9 760.946 19.1754  -2
   7   3   2 760.946 19.1754   1
   8   3   2 62.0720 5.03649   1
  -6   3  11 736.607 27.6640  -2
   9   3   2 736.607 27.6640   1
  10   3   2 79.3207 11.6212   1
  -7   3  14 350.058 17.8807  -2
  11   3   2 350.058 17.8807   1
  -5   4  16 -2.2580 17.7647  -2
 -11   4   2 -2.2580 17.7647   1
  -4   4  15 542.603 41.0579  -4
 -10   4   2 542.603 41.0579   1
  -4   4  14 33.1193 21.4542  -2
  -9   4   2 33.1193 21.4542   1
  -3   4  12 237.590 17.4490  -4
  -8   4   2 237.590 17.4490   1
  -3   4  11 9.73665 9.78264  -2
  -7   4   2 9.73665 9.78264   1
  -2   4   9 772.303 31.7782  -4
  -6   4   2 772.303 31.7782   1
  -5   4   2 41.5645 3.05397   1
  -4   4   3 517.292 23.9179  -3
  -1   4   7 517.292 23.9179  -2
  -4   4   2 517.292 23.9179   1
  -3   4   2 26.5304 6.91323  -3
  -3   4   2 26.5304 6.91323   1
   0   4   4 311.572 11.8052  -4
   0   4   4 311.572 11.8052  -2
  -2   4   2 311.572 11.8052   1
   0   4   4 333.241 14.0023  -4
  -2   4   2 333.241 14.0023  -3
   0   4   4 333.241 14.0023  -2
  -2   4   2 333.241 14.0023   1
   0   4   4 295.462 15.2994  -2
  -2   4   2 295.462 15.2994   1
  -1   4   2 24.4888 3.73127  -3
  -1   4   2 24.4888 3.73127   1
   1   4   1 823.721 28.2040  -4
   1   4   1 823.721 28.2040  -2
   0   4   2 823.721 28.2040   1
   1   4   1 786.093 14.9783  -4
   0   4   2 786.093 14.9783  -3
   1   4   1 786.093 14.9783  -2
   0   4   2 786.093 14.9783   1
   1   4   1 796.752 17.5452  -2
   0   4   2 796.752 17.5452   1
   1   4   2 0.81789 3.19932  -3
   1   4   2 0.81789 3.19932   1
  -2   4   2 63.9940 10.4445  -4
  -2   4   2 63.9940 10.4445  -2
   2   4   2 63.9940 10.4445   1
  -2   4   2 71.0169 10.5261  -4
   2   4   2 71.0169 10.5261  -3
   2   4   2 71.0169 10.5261   1
  -2   4   2 74.0170 12.5495  -4
   2   4   2 74.0170 12.5495  -3
  -2   4   2 74.0170 12.5495  -2
   2   4   2 74.0170 12.5495   1
   3   4   2 7.36697 6.16573  -3
   3   4   2 7.36697 6.16573   1
   4   4   2 70.4640 10.3804  -3
   4   4   2 70.4640 10.3804   1
  -3   4   5 83.2357 12.4373  -4
   4   4   2 83.2357 12.4373   1
   5   4   2 28.7989 3.80975   1
   6   4   2 14.4349 3.34575   1
  -5   4   9 89.5540 9.32021  -2
   7   4   2 89.5540 9.32021   1
   8   4   2 68.1815 5.53802   1
   9   4   2 -2.1292 5.09888   1
  10   4   2 15.0823 6.98832   1
  -7   4  14 -19.167 23.8843  -2
  11   4   2 -19.167 23.8843   1
  -4   5  15 280.085 23.2958  -4
 -10   5   2 280.085 23.2958   1
  -4   5  14 557.301 37.9586  -2
  -9   5   2 557.301 37.9586   1
  -3   5  12 263.947 18.3310  -4
  -8   5   2 263.947 18.3310   1
  -3   5  11 499.543 15.2810  -2
  -7   5   2 499.543 15.2810   1
  -2   5   9 1090.15 40.7740  -4
  -6   5   2 1090.15 40.7740   1
  -5   5   2 751.511 15.8005   1
  -4   5   3 808.226 32.5598  -3
  -1   5   7 808.226 32.5598  -2
  -4   5   2 808.226 32.5598   1
  -3   5   2 734.043 29.4677  -3
  -3   5   2 734.043 29.4677   1
   0   5   4 1926.01 33.1729  -4
  -2   5   2 1926.01 33.1729  -3
   0   5   4 1926.01 33.1729  -2
  -2   5   2 1926.01 33.1729   1
   0   5   4 1867.62 40.4377  -4
   0   5   4 1867.62 40.4377  -2
  -2   5   2 1867.62 40.4377   1
   0   5   4 1815.40 36.1120  -2
  -2   5   2 1815.40 36.1120   1
  -1   5   2 933.355 18.8067  -3
  -1   5   2 933.355 18.8067   1
   1   5   1 1443.26 22.0005  -4
   0   5   2 1443.26 22.0005  -3
   1   5   1 1443.26 22.0005  -2
   0   5   2 1443.26 22.0005   1
   1   5   2 828.110 14.4962  -3
   1   5   2 828.110 14.4962   1
  -2   5   2 1313.47 33.2369  -4
   2   5   2 1313.47 33.2369  -3
  -2   5   2 1313.47 33.2369  -2
   2   5   2 1313.47 33.2369   1
  -2   5   2 1391.25 41.2805  -4
   2   5   2 1391.25 41.2805  -3
   2   5   2 1391.25 41.2805   1
  -2   5   2 1391.34 44.1004  -4
  -2   5   2 1391.34 44.1004  -2
   2   5   2 1391.34 44.1004   1
   3   5   2 570.344 31.2772  -3
   3   5   2 570.344 31.2772   1
  -3   5   5 525.167 24.1226  -4
   4   5   2 525.167 24.1226   1
   4   5   2 303.028 22.2890  -3
   4   5   2 303.028 22.2890   1
   5   5   2 615.084 11.9924   1
   6   5   2 210.323 7.64345   1
  -5   5   9 420.782 13.4539  -2
   7   5   2 420.782 13.4539   1
  -5   5  10 94.7189 16.8692  -4
   8   5   2 94.7189 16.8692   1
   9   5   2 215.993 14.4670   1
  -6   5  13 119.013 29.9365  -4
  10   5   2 119.013 29.9365   1
  -4   6  14 47.8614 27.5547  -2
  -9   6   2 47.8614 27.5547   1
  -3   6  12 481.002 24.6042  -4
  -8   6   2 481.002 24.6042   1
  -3   6  11 16.2296 9.83378  -2
  -7   6   2 16.2296 9.83378   1
  -2   6   9 455.130 21.7032  -4
  -6   6   2 455.130 21.7032   1
  -5   6   2 35.5128 5.41523   1
  -4   6   3 1129.32 42.0639  -3
  -1   6   7 1129.32 42.0639  -2
  -4   6   2 1129.32 42.0639   1
  -3   6   2 -20.777 12.9868  -3
  -3   6   2 -20.777 12.9868   1
   0   6   4 2158.75 47.7008  -2
  -2   6   2 2158.75 47.7008   1
   0   6   4 2296.53 45.7691  -4
  -2   6   2 2296.53 45.7691  -3
   0   6   4 2296.53 45.7691  -2
  -2   6   2 2296.53 45.7691   1
   0   6   4 2226.53 48.1883  -4
   0   6   4 2226.53 48.1883  -2
  -2   6   2 2226.53 48.1883   1
  -1   6   2 21.6225 6.76087  -3
  -1   6   2 21.6225 6.76087   1
   1   6   1 1771.39 27.0298  -4
   0   6   2 1771.39 27.0298  -3
   1   6   1 1771.39 27.0298  -2
   0   6   2 1771.39 27.0298   1
   1   6   1 1784.22 36.5714  -2
   0   6   2 1784.22 36.5714   1
   1   6   2 68.9343 6.25912  -3
   1   6   2 68.9343 6.25912   1
  -2   6   2 2937.05 61.1116  -4
  -2   6   2 2937.05 61.1116  -2
   2   6   2 2937.05 61.1116   1
  -2   6   2 2932.36 64.4121  -4
   2   6   2 2932.36 64.4121  -3
  -2   6   2 2932.36 64.4121  -2
   2   6   2 2932.36 64.4121   1
  -2   6   2 2681.14 71.9902  -4
   2   6   2 2681.14 71.9902  -3
   2   6   2 2681.14 71.9902   1
   3   6   2 -2.7986 10.0476  -3
   3   6   2 -2.7986 10.0476   1
   4   6   2 907.787 43.4808  -3
   4   6   2 907.787 43.4808   1
  -4   6   6 65.4856 22.5801  -2
   5   6   2 65.4856 22.5801   1
  -4   6   7 2137.66 51.8848  -4
   6   6   2 2137.66 51.8848   1
  -5   6   9 9.63915 10.1713  -2
   7   6   2 9.63915 10.1713   1
  -5   6  10 1132.28 37.0270  -4
   8   6   2 1132.28 37.0270   1
   9   6   2 -5.3849 6.68488   1
  -6   6  13 737.881 52.8922  -4
  10   6   2 737.881 52.8922   1
  -9   7   2 184.147 32.0698   1
  -3   7  12 218.149 20.8017  -4
  -8   7   2 218.149 20.8017   1
  -3   7  11 224.324 15.9807  -2
  -7   7   2 224.324 15.9807   1
  -2   7   9 492.709 23.7153  -4
  -6   7   2 492.709 23.7153   1
  -5   7   2 506.497 14.2586   1
  -4   7   2 293.362 15.6096   1
  -3   7   2 593.940 30.7727  -3
  -3   7   2 593.940 30.7727   1
   0   7   4 1180.83 28.5791  -2
  -2   7   2 1180.83 28.5791   1
   0   7   4 1195.62 31.9404  -4
   0   7   4 1195.62 31.9404  -2
  -2   7   2 1195.62 31.9404   1
   0   7   4 1247.83 47.1984  -4
  -2   7   2 1247.83 47.1984  -3
   0   7   4 1247.83 47.1984  -2
  -2   7   2 1247.83 47.1984   1
  -1   7   2 1141.62 20.7074  -3
  -1   7   2 1141.62 20.7074   1
   1   7   1 464.303 12.8259  -4
   0   7   2 464.303 12.8259  -3
   1   7   1 464.303 12.8259  -2
   0   7   2 464.303 12.8259   1
   1   7   2 984.214 22.5025  -3
   1   7   2 984.214 22.5025   1
  -2   7   2 1031.98 37.7121  -4
   2   7   2 1031.98 37.7121  -3
   2   7   2 1031.98 37.7121   1
  -2   7   2 1042.72 28.2086  -4
  -2   7   2 1042.72 28.2086  -2
   2   7   2 1042.72 28.2086   1
  -2   7   2 1016.00 31.7229  -4
   2   7   2 1016.00 31.7229  -3
  -2   7   2 1016.00 31.7229  -2
   2   7   2 1016.00 31.7229   1
   3   7   2 557.771 22.2725  -3
   3   7   2 557.771 22.2725   1
  -3   7   4 433.541 26.7573  -4
   4   7   2 433.541 26.7573   1
  -4   7   6 644.274 42.8135  -2
   5   7   2 644.274 42.8135   1
  -4   7   7 106.194 16.9705  -4
   6   7   2 106.194 16.9705   1
  -5   7   9 488.846 17.5400  -2
   7   7   2 488.846 17.5400   1
  -5   7  10 177.704 21.0299  -4
   8   7   2 177.704 21.0299   1
   9   7   2 385.007 23.4919   1
  -3   8  11 35.3383 14.7029  -2
  -7   8   2 35.3383 14.7029   1
  -2   8   9 247.284 20.5976  -4
  -6   8   2 247.284 20.5976   1
  -5   8   2 13.2836 6.76042   1
  -4   8   2 173.691 15.6845   1
  -3   8   2 18.1758 18.8091  -3
  -3   8   2 18.1758 18.8091   1
   0   8   4 148.822 15.0405  -4
   0   8   4 148.822 15.0405  -2
  -2   8   2 148.822 15.0405   1
   0   8   4 131.090 18.8622  -2
  -2   8   2 131.090 18.8622   1
   0   8   4 163.450 23.2421  -4
  -2   8   2 163.450 23.2421  -3
   0   8   4 163.450 23.2421  -2
  -2   8   2 163.450 23.2421   1
  -1   8   2 -6.7303 15.8273  -3
  -1   8   2 -6.7303 15.8273   1
   1   8   1 109.547 11.6672  -4
   0   8   2 109.547 11.6672  -3
   1   8   1 109.547 11.6672  -2
   0   8   2 109.547 11.6672   1
   1   8   1 64.7034 11.8537  -2
   0   8   2 64.7034 11.8537   1
   1   8   2 83.1550 10.6583  -3
   1   8   2 83.1550 10.6583   1
  -2   8   2 50.6765 18.7508  -4
   2   8   2 50.6765 18.7508  -3
   2   8   2 50.6765 18.7508   1
  -2   8   2 34.9851 15.6848  -2
   2   8   2 34.9851 15.6848   1
   3   8   2 4.91616 24.3481  -3
   3   8   2 4.91616 24.3481   1
   4   8   2 59.3972 6.86088   1
  -4   8   6 84.1471 30.2012  -2
   5   8   2 84.1471 30.2012   1
  -4   8   7 -3.7561 16.3224  -4
   6   8   2 -3.7561 16.3224   1
  -5   8   9 76.0123 13.1542  -2
   7   8   2 76.0123 13.1542   1
   8   8   2 44.2265 14.6928   1
  -2   9   9 246.022 21.5655  -4
  -6   9   2 246.022 21.5655   1
  -5   9   2 160.065 13.6032   1
  -1   9   6 274.921 21.6160  -4
  -4   9   2 274.921 21.6160   1
  -3   9   2 472.701 14.3369   1
   0   9   4 491.273 30.6646  -2
  -2   9   2 491.273 30.6646   1
  -1   9   2 222.474 14.4610   1
   1   9   2 307.818 36.1659  -3
   1   9   2 307.818 36.1659   1
  -2   9   2 395.608 29.2741  -4
   2   9   2 395.608 29.2741  -3
   2   9   2 395.608 29.2741   1
  -2   9   2 479.882 40.8138  -2
   2   9   2 479.882 40.8138   1
  -2   9   2 491.400 22.6296  -4
  -2   9   2 491.400 22.6296  -2
   2   9   2 491.400 22.6296   1
   3   9   2 288.434 14.7699   1
  -3   9   4 245.869 21.6267  -4
   4   9   2 245.869 21.6267   1
   5   9   2 192.440 23.3702   1
  -4   9   7 172.250 26.3797  -4
   6   9   2 172.250 26.3797   1
  -5  10   2 38.5313 12.6401   1
  -3  10   2 57.1589 11.9186   1
   0  10   4 571.212 28.2510  -2
  -2  10   2 571.212 28.2510   1
  -1  10   2 17.5546 11.6318   1
   1  10   2 10.4769 9.04825   1
  -2  10   2 976.212 60.1014  -2
   2  10   2 976.212 60.1014   1
  -2  10   2 904.814 43.3581  -4
   2  10   2 904.814 43.3581  -3
   2  10   2 904.814 43.3581   1
   3  10   2 17.0325 27.4001  -3
  -3  10   3 17.0325 27.4001  -2
   3  10   2 17.0325 27.4001   1
  -3  10   4 703.635 39.5120  -4
   4  10   2 703.635 39.5120   1
 -11   0   3 635.432 32.6834   1
 -10   0   3 -0.8732 6.57315   1
  -8   0   3 1.19885 8.69356   1
  -7   0   3 3442.87 46.8401   1
  -6   0   3 2.36056 3.16425   1
  -5   0   3 7734.73 96.2969   1
  -4   0   3 0.90743 2.26184   1
   0   0   6 9999.99 232.970  -4
  -3   0   3 9999.99 232.970   1
  -2   0   3 -1.5721 7.34221  -3
  -2   0   3 -1.5721 7.34221   1
   1   0   3 7172.77 120.155  -2
  -1   0   3 7172.77 120.155   1
   1   0   3 7557.38 208.041  -4
  -1   0   3 7557.38 208.041  -3
   1   0   3 7557.38 208.041  -2
  -1   0   3 7557.38 208.041   1
   0   0   3 0.50438 3.33268  -3
   0   0   3 0.50438 3.33268   1
   2   0   0 7756.49 175.738  -4
   1   0   3 7756.49 175.738   1
   2   0   3 5.53680 6.04548  -3
   2   0   3 5.53680 6.04548   1
   3   0   3 9178.72 231.631  -3
   3   0   3 9178.72 231.631   1
  -3   0   3 9069.65 207.294  -4
   3   0   3 9069.65 207.294   1
   4   0   3 -2.4414 7.92767  -3
   4   0   3 -2.4414 7.92767   1
   5   0   3 4622.71 59.2391   1
  -5   0   7 -3.0320 6.13311  -2
   6   0   3 -3.0320 6.13311   1
   7   0   3 2434.94 39.2565   1
  -6   0  10 6.49940 15.4502  -2
   8   0   3 6.49940 15.4502   1
   9   0   3 2060.37 46.2623   1
  -7   0  12 3.59323 13.4332  -2
  10   0   3 3.59323 13.4332   1
  11   0   3 1190.96 34.3090   1
  -8   0  15 -13.490 21.3463  -2
  12   0   3 -13.490 21.3463   1
  -5   1  18 244.411 28.6498  -2
 -12   1   3 244.411 28.6498   1
 -10   1   3 411.079 17.9183   1
  -3   1  14 226.224 22.4515  -4
  -9   1   3 226.224 22.4515   1
  -3   1  13 531.126 19.7098  -2
  -8   1   3 531.126 19.7098   1
  -7   1   3 434.461 7.25517   1
  -6   1   3 987.029 11.6240   1
  -5   1   3 446.750 6.35814   1
  -4   1   3 1590.66 46.5152  -3
  -4   1   3 1590.66 46.5152   1
   0   1   6 122.277 9.25347  -4
  -3   1   3 122.277 9.25347   1
   0   1   6 107.197 7.63271  -2
  -3   1   3 107.197 7.63271   1
   0   1   6 130.893 11.8448  -4
   0   1   6 130.893 11.8448  -2
  -3   1   3 130.893 11.8448   1
  -2   1   3 1239.22 20.4635  -3
  -2   1   3 1239.22 20.4635   1
   1   1   3 666.235 13.0263  -4
  -1   1   3 666.235 13.0263  -3
   1   1   3 666.235 13.0263  -2
  -1   1   3 666.235 13.0263   1
   1   1   3 653.705 13.1755  -2
  -1   1   3 653.705 13.1755   1
   0   1   3 2352.16 31.9872  -3
   0   1   3 2352.16 31.9872   1
   2   1   0 93.1757 5.22845  -4
   1   1   3 93.1757 5.22845  -3
   2   1   0 93.1757 5.22845  -2
   1   1   3 93.1757 5.22845   1
   2   1   0 77.7332 7.11424  -4
   1   1   3 77.7332 7.11424   1
   1   1   3 99.1348 8.86362  -3
   1   1   3 99.1348 8.86362   1
   2   1   3 2003.38 28.0444  -3
   2   1   3 2003.38 28.0444   1
   3   1   3 13.5660 4.21030  -3
   3   1   3 13.5660 4.21030   1
  -3   1   3 15.2548 3.71074  -4
   3   1   3 15.2548 3.71074   1
   4   1   3 2878.17 79.2738  -3
   4   1   3 2878.17 79.2738   1
   5   1   3 73.4396 12.1495  -3
   5   1   3 73.4396 12.1495   1
  -5   1   7 865.725 12.6311  -2
   6   1   3 865.725 12.6311   1
   7   1   3 157.234 6.18113   1
  -6   1  10 466.165 18.8774  -2
   8   1   3 466.165 18.8774   1
   9   1   3 209.350 8.27758   1
  -7   1  12 498.249 18.2622  -2
  10   1   3 498.249 18.2622   1
  11   1   3 192.540 11.8210   1
  -8   1  15 234.645 29.1575  -2
  12   1   3 234.645 29.1575   1
  -4   2  17 78.2702 31.9076  -4
 -11   2   4 78.2702 31.9076  -3
 -11   2   3 78.2702 31.9076   1
 -10   2   3 5.59416 6.71398   1
  -9   2   3 55.6515 7.40058   1
  -3   2  13 76.4125 9.67703  -2
  -8   2   3 76.4125 9.67703   1
  -7   2   3 13.4424 2.89744   1
  -6   2   3 90.7318 14.1637  -3
  -2   2  10 90.7318 14.1637  -2
  -6   2   3 90.7318 14.1637   1
  -1   2   9 145.514 14.0311  -4
  -5   2   3 145.514 14.0311   1
  -4   2   3 0.97396 1.37413   1
   0   2   6 9.48361 5.19096  -2
  -3   2   3 9.48361 5.19096   1
   0   2   6 7.92047 10.7876  -4
   0   2   6 7.92047 10.7876  -2
  -3   2   3 7.92047 10.7876   1
  -2   2   3 87.6723 2.39745  -3
  -2   2   3 87.6723 2.39745   1
   1   2   3 30.6126 2.31994  -4
  -1   2   3 30.6126 2.31994  -3
   1   2   3 30.6126 2.31994  -2
  -1   2   3 30.6126 2.31994   1
   1   2   3 27.5649 3.73232  -2
  -1   2   3 27.5649 3.73232   1
   0   2   3 154.725 3.57833  -3
   0   2   3 154.725 3.57833   1
   2   2   0 43.6289 6.62704  -2
   1   2   3 43.6289 6.62704   1
   1   2   3 53.7229 7.34233  -3
   1   2   3 53.7229 7.34233   1
   2   2   0 42.0061 8.06999  -4
   1   2   3 42.0061 8.06999  -3
   2   2   0 42.0061 8.06999  -2
   1   2   3 42.0061 8.06999   1
   2   2   3 411.493 8.21903  -3
   2   2   3 411.493 8.21903   1
   3   2   3 2.58678 4.71955  -3
   3   2   3 2.58678 4.71955   1
  -3   2   3 -4.5892 5.21523  -4
   3   2   3 -4.5892 5.21523   1
   4   2   3 46.5683 9.38769  -3
   4   2   3 46.5683 9.38769   1
   5   2   3 25.6397 10.8876  -3
   5   2   3 25.6397 10.8876   1
  -5   2   7 135.926 8.94872  -2
   6   2   3 135.926 8.94872   1
   7   2   3 11.0394 3.14060   1
  -6   2  10 70.0538 16.1154  -2
   8   2   3 70.0538 16.1154   1
   9   2   3 8.87661 4.32832   1
  -7   2  12 17.8425 13.8116  -2
  10   2   3 17.8425 13.8116   1
  11   2   3 24.2464 8.18800   1
  -4   3  17 107.844 35.2881  -4
 -11   3   4 107.844 35.2881  -3
 -11   3   3 107.844 35.2881   1
 -10   3   3 288.646 14.4564   1
  -3   3  14 528.767 23.3431  -4
  -9   3   3 528.767 23.3431   1
  -3   3  13 448.630 14.3267  -2
  -8   3   3 448.630 14.3267   1
  -2   3  11 281.888 20.4364  -4
  -7   3   3 281.888 20.4364   1
  -6   3   3 766.541 13.3234   1
  -5   3   3 510.701 7.21729   1
  -4   3   3 998.216 11.1035   1
   0   3   6 23.7461 11.4004  -4
  -3   3   3 23.7461 11.4004  -3
   0   3   6 23.7461 11.4004  -2
  -3   3   3 23.7461 11.4004   1
   0   3   6 37.5072 6.54036  -2
  -3   3   3 37.5072 6.54036   1
   0   3   6 34.6546 12.4604  -4
   0   3   6 34.6546 12.4604  -2
  -3   3   3 34.6546 12.4604   1
  -2   3   3 1486.94 20.5207  -3
  -2   3   3 1486.94 20.5207   1
   1   3   3 213.076 6.84595  -4
  -1   3   3 213.076 6.84595  -3
   1   3   3 213.076 6.84595  -2
  -1   3   3 213.076 6.84595   1
   1   3   3 202.788 5.92724  -2
  -1   3   3 202.788 5.92724   1
   0   3   3 1272.75 18.0410  -3
   0   3   3 1272.75 18.0410   1
   2   3   0 482.910 17.6184  -2
   1   3   3 482.910 17.6184   1
   2   3   0 490.800 19.8985  -4
   1   3   3 490.800 19.8985  -3
   2   3   0 490.800 19.8985  -2
   1   3   3 490.800 19.8985   1
   2   3   0 498.402 14.1381  -4
   2   3   0 498.402 14.1381  -2
   1   3   3 498.402 14.1381   1
   2   3   3 761.187 15.2900  -3
   2   3   3 761.187 15.2900   1
   3   3   3 105.709 9.01591  -3
   3   3   3 105.709 9.01591   1
  -3   3   3 119.441 11.9983  -4
   3   3   3 119.441 11.9983   1
   4   3   3 467.193 8.84005   1
   5   3   3 229.079 17.9901  -3
   5   3   3 229.079 17.9901   1
  -5   3   7 678.111 17.3196  -2
   6   3   3 678.111 17.3196   1
   7   3   3 44.0096 4.39106   1
  -6   3  10 518.082 20.2238  -2
   8   3   3 518.082 20.2238   1
   9   3   3 184.223 8.45982   1
  -7   3  12 368.438 21.4189  -2
  10   3   3 368.438 21.4189   1
  11   3   3 81.0651 11.3048   1
  -4   4  17 811.219 52.7554  -4
 -11   4   3 811.219 52.7554   1
 -10   4   4 6.32766 21.3893  -3
 -10   4   3 6.32766 21.3893   1
  -3   4  14 1099.42 34.9262  -4
  -9   4   3 1099.42 34.9262   1
  -3   4  13 -10.505 10.6212  -2
  -8   4   3 -10.505 10.6212   1
  -2   4  11 2181.27 50.4484  -4
  -7   4   3 2181.27 50.4484   1
  -6   4   3 12.8978 4.44685   1
  -5   4   3 3337.69 52.7135   1
  -4   4   3 3.05893 1.92360   1
   0   4   6 4064.56 71.4773  -2
  -3   4   3 4064.56 71.4773   1
   0   4   6 4149.39 79.7738  -4
   0   4   6 4149.39 79.7738  -2
  -3   4   3 4149.39 79.7738   1
   0   4   6 4153.09 112.792  -4
  -3   4   3 4153.09 112.792  -3
   0   4   6 4153.09 112.792  -2
  -3   4   3 4153.09 112.792   1
  -2   4   3 25.2743 4.74918  -3
  -2   4   3 25.2743 4.74918   1
   1   4   3 6914.66 86.2914  -4
  -1   4   3 6914.66 86.2914  -3
   1   4   3 6914.66 86.2914  -2
  -1   4   3 6914.66 86.2914   1
   1   4   3 6642.48 114.225  -2
  -1   4   3 6642.48 114.225   1
   0   4   3 26.5940 3.56137  -3
   0   4   3 26.5940 3.56137   1
   2   4   0 6820.13 160.400  -2
   1   4   3 6820.13 160.400   1
   2   4   0 6966.68 127.611  -4
   2   4   0 6966.68 127.611  -2
   1   4   3 6966.68 127.611   1
   2   4   0 7163.90 137.473  -4
   1   4   3 7163.90 137.473  -3
   2   4   0 7163.90 137.473  -2
   1   4   3 7163.90 137.473   1
   2   4   3 5.30315 2.69985  -3
   2   4   3 5.30315 2.69985   1
   3   4   3 4150.09 126.087  -3
   3   4   3 4150.09 126.087   1
  -3   4   3 4086.75 104.946  -4
   3   4   3 4086.75 104.946   1
   4   4   3 5.96653 3.26532   1
   5   4   3 3704.59 104.044  -3
   5   4   3 3704.59 104.044   1
  -5   4   7 17.8647 9.30747  -2
   6   4   3 17.8647 9.30747   1
   7   4   3 2662.28 35.2378   1
   8   4   3 1.80050 4.48579   1
  -6   4  11 1300.92 59.5769  -4
   9   4   3 1300.92 59.5769   1
  -7   4  12 -2.2443 15.3922  -2
  10   4   3 -2.2443 15.3922   1
  11   4   3 790.020 28.6233   1
  -4   5  15 314.425 31.0914  -2
 -10   5   3 314.425 31.0914   1
 -10   5   4 299.188 31.5698  -3
 -10   5   3 299.188 31.5698   1
  -4   5  16 302.604 36.1769  -2
 -10   5   3 302.604 36.1769   1
  -3   5  14 284.539 21.2094  -4
  -9   5   3 284.539 21.2094   1
  -3   5  13 789.738 20.5416  -2
  -8   5   3 789.738 20.5416   1
  -2   5  11 274.946 18.4736  -4
  -7   5   3 274.946 18.4736   1
  -2   5  10 572.268 37.0055  -2
  -6   5   3 572.268 37.0055   1
  -5   5   3 194.249 8.67771   1
  -4   5   3 800.890 12.7614   1
   0   5   6 31.9892 8.23453  -2
  -3   5   3 31.9892 8.23453   1
   0   5   6 7.67271 14.7600  -4
  -3   5   3 7.67271 14.7600  -3
   0   5   6 7.67271 14.7600  -2
  -3   5   3 7.67271 14.7600   1
   0   5   6 22.5664 9.27006  -4
   0   5   6 22.5664 9.27006  -2
  -3   5   3 22.5664 9.27006   1
  -2   5   3 1724.52 34.4612  -3
  -2   5   3 1724.52 34.4612   1
   1   5   3 1.15948 4.96955  -4
  -1   5   3 1.15948 4.96955  -3
   1   5   3 1.15948 4.96955  -2
  -1   5   3 1.15948 4.96955   1
   1   5   3 1.59515 4.27647  -2
  -1   5   3 1.59515 4.27647   1
   0   5   3 1487.02 22.4053  -3
   0   5   3 1487.02 22.4053   1
   2   5   0 9.43543 9.29101  -4
   1   5   3 9.43543 9.29101  -3
   2   5   0 9.43543 9.29101  -2
   1   5   3 9.43543 9.29101   1
   2   5   0 29.9468 9.24219  -4
   2   5   0 29.9468 9.24219  -2
   1   5   3 29.9468 9.24219   1
   2   5   0 28.1501 7.88925  -2
   1   5   3 28.1501 7.88925   1
   2   5   3 1718.07 30.9575  -3
   2   5   3 1718.07 30.9575   1
   3   5   3 26.4631 8.51619  -3
   3   5   3 26.4631 8.51619   1
   4   5   3 523.519 11.3297   1
   5   5   3 136.775 14.4555  -3
   5   5   3 136.775 14.4555   1
  -5   5   7 895.635 21.4134  -2
   6   5   3 895.635 21.4134   1
  -5   5   8 34.2680 18.0254  -4
   7   5   3 34.2680 18.0254   1
   8   5   3 576.025 15.1075   1
  -6   5  11 110.534 29.5099  -4
   9   5   3 110.534 29.5099   1
  -7   5  12 194.306 20.8547  -2
  10   5   3 194.306 20.8547   1
 -10   6   3 13.5889 25.1769   1
  -3   6  14 61.0834 18.3048  -4
  -9   6   3 61.0834 18.3048   1
  -3   6  13 52.6133 11.8434  -2
  -8   6   3 52.6133 11.8434   1
  -2   6  11 -2.3569 13.2457  -4
  -7   6   3 -2.3569 13.2457   1
  -6   6   3 0.85921 5.26268   1
  -1   6   8 3.54175 15.7239  -4
  -5   6   3 3.54175 15.7239   1
  -4   6   3 10.9666 14.8323  -3
  -4   6   3 10.9666 14.8323   1
   0   6   6 42.9059 10.6477  -4
   0   6   6 42.9059 10.6477  -2
  -3   6   3 42.9059 10.6477   1
   0   6   6 44.3438 8.17018  -2
  -3   6   3 44.3438 8.17018   1
   0   6   6 41.3518 18.5243  -4
  -3   6   3 41.3518 18.5243  -3
   0   6   6 41.3518 18.5243  -2
  -3   6   3 41.3518 18.5243   1
  -2   6   3 17.8758 7.78793  -3
  -2   6   3 17.8758 7.78793   1
   1   6   3 16.4358 6.29391  -4
  -1   6   3 16.4358 6.29391  -3
   1   6   3 16.4358 6.29391  -2
  -1   6   3 16.4358 6.29391   1
   1   6   3 2.52862 9.54400  -2
  -1   6   3 2.52862 9.54400   1
   0   6   3 13.5543 5.35911  -3
   0   6   3 13.5543 5.35911   1
   2   6   0 5.30592 10.8743  -4
   1   6   3 5.30592 10.8743  -3
   2   6   0 5.30592 10.8743  -2
   1   6   3 5.30592 10.8743   1
   2   6   0 6.42691 16.2526  -4
   2   6   0 6.42691 16.2526  -2
   1   6   3 6.42691 16.2526   1
   2   6   3 27.2835 7.42373  -3
   2   6   3 27.2835 7.42373   1
  -3   6   3 24.3063 14.2837  -4
   3   6   3 24.3063 14.2837   1
   4   6   3 6.23351 12.9992  -3
   4   6   3 6.23351 12.9992   1
   5   6   3 2.55787 21.2451  -3
   5   6   3 2.55787 21.2451   1
  -5   6   7 60.9316 16.3872  -4
   6   6   3 60.9316 16.3872   1
  -5   6   7 100.334 11.9029  -2
   6   6   3 100.334 11.9029   1
  -5   6   8 -7.0248 14.6651  -4
   7   6   3 -7.0248 14.6651   1
  -6   6  10 38.9072 13.4371  -2
   8   6   3 38.9072 13.4371   1
  -6   6  11 2.15396 29.5622  -4
   9   6   3 2.15396 29.5622   1
  -7   6  12 -37.568 32.1618  -2
  10   6   3 -37.568 32.1618   1
  -3   7  13 149.066 14.2299  -2
  -8   7   3 149.066 14.2299   1
  -2   7  11 158.733 17.8935  -4
  -7   7   3 158.733 17.8935   1
  -2   7  10 377.678 35.2366  -2
  -6   7   3 377.678 35.2366   1
  -1   7   8 112.549 20.0526  -4
  -5   7   3 112.549 20.0526   1
  -4   7   3 339.387 26.2219  -3
  -4   7   3 339.387 26.2219   1
   0   7   6 43.8405 12.1754  -4
   0   7   6 43.8405 12.1754  -2
  -3   7   3 43.8405 12.1754   1
   0   7   6 36.9176 12.9459  -2
  -3   7   3 36.9176 12.9459   1
   0   7   6 51.2986 20.6723  -4
  -3   7   3 51.2986 20.6723  -3
   0   7   6 51.2986 20.6723  -2
  -3   7   3 51.2986 20.6723   1
  -2   7   3 195.286 20.0049  -3
  -2   7   3 195.286 20.0049   1
   1   7   3 154.082 10.7460  -2
  -1   7   3 154.082 10.7460   1
   1   7   3 153.196 12.2627  -4
  -1   7   3 153.196 12.2627  -3
   1   7   3 153.196 12.2627  -2
  -1   7   3 153.196 12.2627   1
   0   7   3 363.410 13.1487  -3
   0   7   3 363.410 13.1487   1
   2   7   0 39.7784 20.6565  -4
   2   7   0 39.7784 20.6565  -2
   1   7   3 39.7784 20.6565   1
   2   7   0 32.9678 7.84915  -2
   1   7   3 32.9678 7.84915   1
   2   7   0 29.4910 13.8160  -4
   1   7   3 29.4910 13.8160  -3
   2   7   0 29.4910 13.8160  -2
   1   7   3 29.4910 13.8160   1
   2   7   3 395.542 14.3921  -3
   2   7   3 395.542 14.3921   1
  -3   7   3 4.10568 18.7162  -4
   3   7   3 4.10568 18.7162  -3
   3   7   3 4.10568 18.7162   1
   4   7   3 390.327 21.1070  -3
  -4   7   4 390.327 21.1070  -2
   4   7   3 390.327 21.1070   1
  -4   7   5 39.3443 15.3854  -4
   5   7   3 39.3443 15.3854   1
  -5   7   7 222.217 14.7962  -2
   6   7   3 222.217 14.7962   1
  -5   7   8 60.4929 17.7739  -4
   7   7   3 60.4929 17.7739   1
  -6   7  10 216.712 23.8449  -2
   8   7   3 216.712 23.8449   1
   9   7   3 72.3531 23.5723   1
  -2   8  11 1011.84 36.4672  -4
  -7   8   3 1011.84 36.4672   1
  -2   8  10 -14.871 26.6598  -2
  -6   8   3 -14.871 26.6598   1
  -1   8   8 1690.62 46.4738  -4
  -5   8   3 1690.62 46.4738   1
  -4   8   3 7.25267 5.13346   1
   0   8   6 2134.75 52.3457  -2
  -3   8   3 2134.75 52.3457   1
   0   8   6 2111.05 65.9314  -4
   0   8   6 2111.05 65.9314  -2
  -3   8   3 2111.05 65.9314   1
  -2   8   3 49.1501 18.2241  -3
  -2   8   3 49.1501 18.2241   1
   1   8   3 1918.38 42.1330  -2
  -1   8   3 1918.38 42.1330   1
   1   8   3 2049.43 68.0389  -4
  -1   8   3 2049.43 68.0389  -3
   1   8   3 2049.43 68.0389  -2
  -1   8   3 2049.43 68.0389   1
   0   8   3 -14.948 8.99319  -3
   0   8   3 -14.948 8.99319   1
   2   8   0 1970.40 43.4706  -2
   1   8   3 1970.40 43.4706   1
   2   8   0 2080.72 53.1427  -4
   1   8   3 2080.72 53.1427  -3
   2   8   0 2080.72 53.1427  -2
   1   8   3 2080.72 53.1427   1
   2   8   3 9.42970 9.84809  -3
   2   8   3 9.42970 9.84809   1
  -3   8   3 1984.03 63.4175  -4
   3   8   3 1984.03 63.4175  -3
   3   8   3 1984.03 63.4175   1
  -3   8   3 2062.74 68.9655  -4
  -3   8   3 2062.74 68.9655  -2
   3   8   3 2062.74 68.9655   1
   3   8   3 1899.10 79.6674  -3
   3   8   3 1899.10 79.6674   1
  -3   8   3 2004.04 61.7280  -2
   3   8   3 2004.04 61.7280   1
   4   8   3 -7.0078 16.6659  -3
  -4   8   4 -7.0078 16.6659  -2
   4   8   3 -7.0078 16.6659   1
  -4   8   5 1480.27 71.3166  -4
   5   8   3 1480.27 71.3166   1
  -5   8   7 4.66958 12.5707  -2
   6   8   3 4.66958 12.5707   1
  -5   8   8 783.364 32.4553  -4
   7   8   3 783.364 32.4553   1
   8   8   3 18.7305 13.7533   1
  -6   9   3 260.949 19.2077   1
  -1   9   8 72.1030 18.6320  -4
  -5   9   3 72.1030 18.6320   1
  -4   9   3 528.964 36.4780  -3
  -4   9   3 528.964 36.4780   1
   0   9   6 55.7798 28.1999  -2
  -3   9   3 55.7798 28.1999   1
  -2   9   3 654.793 36.9650  -3
  -2   9   3 654.793 36.9650   1
   1   9   3 5.43803 20.6055  -4
  -1   9   3 5.43803 20.6055  -3
   1   9   3 5.43803 20.6055  -2
  -1   9   3 5.43803 20.6055   1
   1   9   3 28.4820 17.2674  -2
  -1   9   3 28.4820 17.2674   1
   0   9   3 613.177 44.8658  -3
   0   9   3 613.177 44.8658   1
   2   9   0 -21.103 32.5794  -4
   1   9   3 -21.103 32.5794  -3
   2   9   0 -21.103 32.5794  -2
   1   9   3 -21.103 32.5794   1
   2   9   0 -1.5194 20.2519  -4
   2   9   0 -1.5194 20.2519  -2
   1   9   3 -1.5194 20.2519   1
   2   9   3 625.102 26.5404  -3
   2   9   3 625.102 26.5404   1
  -3   9   3 -1.0803 16.7074  -2
   3   9   3 -1.0803 16.7074   1
   4   9   3 693.477 38.6113  -3
  -4   9   4 693.477 38.6113  -2
   4   9   3 693.477 38.6113   1
  -4   9   5 48.0946 29.9213  -4
   5   9   3 48.0946 29.9213   1
   6   9   3 383.595 29.5527   1
  -4  10   3 9.40673 9.98119   1
  -3  10   3 9.22743 11.6433   1
  -2  10   3 29.0462 9.61643   1
   1  10   3 10.3550 19.4284  -2
  -1  10   3 10.3550 19.4284   1
   0  10   3 16.2235 9.34575   1
   2  10   0 -14.153 12.6324  -2
   1  10   3 -14.153 12.6324   1
   2  10   3 -21.988 34.6620  -3
   2  10   3 -21.988 34.6620   1
  -3  10   2 45.4525 32.8629  -4
   3  10   3 45.4525 32.8629   1
  -3  10   3 -9.4499 23.3364  -2
   3  10   3 -9.4499 23.3364   1
   4  10   3 13.6263 25.8336  -3
  -4  10   4 13.6263 25.8336  -2
   4  10   3 13.6263 25.8336   1
  -3   0  16 48.0556 20.3400  -4
 -10   0   4 48.0556 20.3400   1
  -9   0   4 -0.0486 5.77643   1
  -2   0  13 132.029 21.4384  -4
  -8   0   4 132.029 21.4384   1
  -2   0  12 113.891 11.7805  -2
  -7   0   4 113.891 11.7805   1
  -6   0   4 80.6661 5.10439   1
  -5   0   4 -0.7486 2.62984   1
  -4   0   5 132.466 9.41413  -3
   0   0   8 132.466 9.41413  -2
  -4   0   4 132.466 9.41413   1
  -3   0   4 2.43594 9.63201  -3
  -3   0   4 2.43594 9.63201   1
   1   0   5 793.698 29.5532  -4
  -2   0   4 793.698 29.5532  -3
   1   0   5 793.698 29.5532  -2
  -2   0   4 793.698 29.5532   1
   1   0   5 656.041 17.2100  -2
  -2   0   4 656.041 17.2100   1
  -1   0   4 1.05755 4.48107  -3
  -1   0   4 1.05755 4.48107   1
   2   0   2 107.686 10.2404  -4
   0   0   4 107.686 10.2404  -3
   2   0   2 107.686 10.2404  -2
   0   0   4 107.686 10.2404   1
   1   0   4 -1.8647 4.17168  -3
   1   0   4 -1.8647 4.17168   1
  -3   0   1 22.7577 3.70685  -4
   2   0   4 22.7577 3.70685   1
   3   0   4 -6.0683 7.51271  -3
   3   0   4 -6.0683 7.51271   1
   4   0   4 1073.85 35.3166  -3
   4   0   4 1073.85 35.3166   1
  -4   0   4 1022.62 31.0164  -4
   4   0   4 1022.62 31.0164   1
  -5   0   5 35.6076 9.07170  -2
   5   0   4 35.6076 9.07170   1
   6   0   4 311.682 7.86445   1
  -6   0   8 19.6018 12.9180  -2
   7   0   4 19.6018 12.9180   1
   8   0   4 444.273 16.9763   1
  -7   0  10 8.78890 12.9788  -2
   9   0   4 8.78890 12.9788   1
  10   0   4 245.320 16.3576   1
  -8   0  13 7.43684 14.9305  -2
  11   0   4 7.43684 14.9305   1
  12   0   4 192.562 22.9234   1
  -4   1  17 346.243 30.1031  -2
 -11   1   4 346.243 30.1031   1
 -10   1   4 27.7163 12.2265   1
  -3   1  15 593.147 32.4446  -2
  -9   1   4 593.147 32.4446   1
  -8   1   4 288.955 7.76443   1
  -2   1  12 645.208 21.5600  -2
  -7   1   4 645.208 21.5600   1
  -6   1   4 138.956 4.48912   1
  -5   1   4 572.364 8.07100   1
  -4   1   5 637.066 21.2350  -3
   0   1   8 637.066 21.2350  -2
  -4   1   4 637.066 21.2350   1
   0   1   8 606.022 17.0831  -4
  -4   1   4 606.022 17.0831   1
  -3   1   4 3076.67 91.7208  -3
  -3   1   4 3076.67 91.7208   1
   1   1   5 560.702 18.7405  -4
   1   1   5 560.702 18.7405  -2
  -2   1   4 560.702 18.7405   1
   1   1   5 608.589 25.0463  -4
  -2   1   4 608.589 25.0463  -3
   1   1   5 608.589 25.0463  -2
  -2   1   4 608.589 25.0463   1
   1   1   5 565.421 12.6468  -2
  -2   1   4 565.421 12.6468   1
  -1   1   4 1186.04 16.8784  -3
  -1   1   4 1186.04 16.8784   1
   2   1   2 5689.65 75.2317  -4
   0   1   4 5689.65 75.2317  -3
   2   1   2 5689.65 75.2317  -2
   0   1   4 5689.65 75.2317   1
   2   1   2 5586.26 128.516  -2
   0   1   4 5586.26 128.516   1
   1   1   4 729.006 9.03793  -3
   1   1   4 729.006 9.03793   1
  -3   1   1 3499.94 59.9051  -4
   2   1   4 3499.94 59.9051   1
   2   1   4 3491.39 67.5285  -3
   2   1   4 3491.39 67.5285   1
   3   1   4 1829.73 36.9328  -3
   3   1   4 1829.73 36.9328   1
   4   1   4 1426.62 44.0898  -3
   4   1   4 1426.62 44.0898   1
  -4   1   4 1719.44 46.7615  -4
   4   1   4 1719.44 46.7615   1
  -5   1   5 914.609 20.7495  -2
   5   1   4 914.609 20.7495   1
   6   1   4 1122.85 13.8006   1
  -6   1   8 1209.25 28.5857  -2
   7   1   4 1209.25 28.5857   1
   8   1   4 778.578 14.3320   1
  -7   1  10 481.220 14.9383  -2
   9   1   4 481.220 14.9383   1
  10   1   4 274.324 11.3913   1
  -8   1  13 258.510 16.3598  -2
  11   1   4 258.510 16.3598   1
  12   1   4 122.995 16.8574   1
 -12   2   4 748.345 49.2986   1
  -4   2  17 -6.1781 16.2874  -2
 -11   2   4 -6.1781 16.2874   1
  -3   2  16 1442.00 55.5547  -4
 -10   2   4 1442.00 55.5547   1
  -3   2  15 49.5142 22.3845  -2
  -9   2   4 49.5142 22.3845   1
  -2   2  13 2787.90 76.1827  -4
  -8   2   4 2787.90 76.1827   1
  -2   2  12 27.9418 7.39874  -2
  -7   2   4 27.9418 7.39874   1
  -6   2   4 2124.58 23.6457   1
  -5   2   4 127.907 3.54140   1
   0   2   8 3487.30 80.0715  -4
   0   2   8 3487.30 80.0715  -2
  -4   2   4 3487.30 80.0715   1
  -3   2   4 140.288 11.1674  -3
  -3   2   4 140.288 11.1674   1
   1   2   5 6228.39 159.717  -4
  -2   2   4 6228.39 159.717  -3
   1   2   5 6228.39 159.717  -2
  -2   2   4 6228.39 159.717   1
   1   2   5 5934.96 108.043  -4
   1   2   5 5934.96 108.043  -2
  -2   2   4 5934.96 108.043   1
   1   2   5 5950.21 99.2474  -2
  -2   2   4 5950.21 99.2474   1
  -1   2   4 398.401 7.35724  -3
  -1   2   4 398.401 7.35724   1
   2   2   2 8085.05 190.979  -4
   2   2   2 8085.05 190.979  -2
   0   2   4 8085.05 190.979   1
   2   2   2 8023.83 88.2389  -4
   0   2   4 8023.83 88.2389  -3
   2   2   2 8023.83 88.2389  -2
   0   2   4 8023.83 88.2389   1
   2   2   2 7785.10 178.876  -2
   0   2   4 7785.10 178.876   1
   1   2   4 108.353 3.55163  -3
   1   2   4 108.353 3.55163   1
   2   2   4 4656.66 89.3814  -3
   2   2   4 4656.66 89.3814   1
  -3   2   1 4776.83 116.686  -4
   2   2   4 4776.83 116.686   1
   3   2   4 6.82605 4.72143  -3
   3   2   4 6.82605 4.72143   1
   4   2   4 2248.05 48.2463  -3
   4   2   4 2248.05 48.2463   1
  -5   2   5 61.1007 10.9903  -2
   5   2   4 61.1007 10.9903   1
   6   2   4 1515.44 50.8552  -3
   6   2   4 1515.44 50.8552   1
  -6   2   8 31.6979 8.72505  -2
   7   2   4 31.6979 8.72505   1
   8   2   4 710.371 13.0008   1
  -7   2  10 22.7160 9.33081  -2
   9   2   4 22.7160 9.33081   1
  10   2   4 311.911 11.9555   1
  -8   2  13 3.78982 12.5563  -2
  11   2   4 3.78982 12.5563   1
  -4   3  17 319.044 23.2994  -2
 -11   3   4 319.044 23.2994   1
  -3   3  16 11.5014 31.5858  -4
 -10   3   5 11.5014 31.5858  -3
 -10   3   4 11.5014 31.5858   1
  -3   3  16 53.3888 26.4421  -4
 -10   3   4 53.3888 26.4421   1
  -3   3  15 443.885 31.4397  -2
  -9   3   4 443.885 31.4397   1
  -2   3  13 72.2601 16.9127  -4
  -8   3   4 72.2601 16.9127   1
  -2   3  12 845.753 23.9677  -2
  -7   3   4 845.753 23.9677   1
  -1   3  10 637.336 27.0583  -4
  -6   3   4 637.336 27.0583   1
  -5   3   4 1550.42 19.9214   1
  -4   3   5 1040.55 34.0924  -3
   0   3   8 1040.55 34.0924  -2
  -4   3   4 1040.55 34.0924   1
  -3   3   4 891.476 30.9964  -3
  -3   3   4 891.476 30.9964   1
   1   3   5 269.583 7.04682  -4
   1   3   5 269.583 7.04682  -2
  -2   3   4 269.583 7.04682   1
   1   3   5 267.115 9.55505  -2
  -2   3   4 267.115 9.55505   1
   1   3   5 288.307 15.6102  -4
  -2   3   4 288.307 15.6102  -3
   1   3   5 288.307 15.6102  -2
  -2   3   4 288.307 15.6102   1
  -1   3   4 1779.83 28.6202  -3
  -1   3   4 1779.83 28.6202   1
   2   3   2 2441.53 44.0816  -2
   0   3   4 2441.53 44.0816   1
   2   3   2 2389.69 31.6441  -4
   0   3   4 2389.69 31.6441  -3
   2   3   2 2389.69 31.6441  -2
   0   3   4 2389.69 31.6441   1
   2   3   2 2305.37 61.3616  -4
   2   3   2 2305.37 61.3616  -2
   0   3   4 2305.37 61.3616   1
   1   3   4 2482.39 32.7390  -3
   1   3   4 2482.39 32.7390   1
   2   3   4 1679.26 56.7248  -3
   2   3   4 1679.26 56.7248   1
  -3   3   1 1807.75 52.7960  -4
   2   3   4 1807.75 52.7960   1
  -3   3   1 1877.76 50.1151  -2
   2   3   4 1877.76 50.1151   1
   3   3   4 1197.00 29.4976  -3
   3   3   4 1197.00 29.4976   1
   4   3   4 2177.14 48.2784  -3
   4   3   4 2177.14 48.2784   1
  -5   3   5 1047.26 34.6623  -2
   5   3   4 1047.26 34.6623   1
   6   3   4 549.829 10.1778   1
  -6   3   8 388.116 17.3050  -2
   7   3   4 388.116 17.3050   1
   8   3   4 515.135 11.0016   1
  -7   3  10 402.336 20.9701  -2
   9   3   4 402.336 20.9701   1
  10   3   4 227.034 10.1490   1
  -8   3  13 333.724 22.5220  -2
  11   3   4 333.724 22.5220   1
  -4   4  17 -10.512 30.3066  -2
 -11   4   4 -10.512 30.3066   1
  -3   4  16 18.0171 32.1664  -4
 -10   4   5 18.0171 32.1664  -3
 -10   4   4 18.0171 32.1664   1
  -3   4  16 33.2657 17.4357  -4
 -10   4   4 33.2657 17.4357   1
  -3   4  15 91.3072 19.4486  -2
  -9   4   4 91.3072 19.4486   1
  -2   4  13 26.8928 13.4759  -4
  -8   4   4 26.8928 13.4759   1
  -2   4  12 83.5665 12.7874  -2
  -7   4   4 83.5665 12.7874   1
  -6   4   4 174.805 7.37789   1
  -5   4   4 9.10116 2.97316   1
   0   4   8 21.8317 12.1414  -2
  -4   4   4 21.8317 12.1414   1
  -4   4   4 11.9629 7.70991  -3
  -4   4   4 11.9629 7.70991   1
  -3   4   4 26.9088 7.66724  -3
  -3   4   4 26.9088 7.66724   1
   1   4   5 61.2963 11.0552  -4
  -2   4   4 61.2963 11.0552  -3
   1   4   5 61.2963 11.0552  -2
  -2   4   4 61.2963 11.0552   1
   1   4   5 64.5717 9.22421  -4
   1   4   5 64.5717 9.22421  -2
  -2   4   4 64.5717 9.22421   1
   1   4   5 45.2078 9.53561  -2
  -2   4   4 45.2078 9.53561   1
  -1   4   4 6.27594 3.56474  -3
  -1   4   4 6.27594 3.56474   1
   2   4   2 29.4002 4.01908  -2
   0   4   4 29.4002 4.01908   1
   2   4   2 29.2397 3.99876  -4
   0   4   4 29.2397 3.99876  -3
   2   4   2 29.2397 3.99876  -2
   0   4   4 29.2397 3.99876   1
   2   4   2 24.3887 10.4947  -4
   2   4   2 24.3887 10.4947  -2
   0   4   4 24.3887 10.4947   1
   1   4   4 8.04350 2.97388  -3
   1   4   4 8.04350 2.97388   1
   2   4   4 211.220 16.6279  -3
   2   4   4 211.220 16.6279   1
  -3   4   1 220.486 10.3377  -4
   2   4   4 220.486 10.3377   1
  -3   4   1 214.307 14.0054  -2
   2   4   4 214.307 14.0054   1
  -3   4   1 247.762 14.5844  -4
  -3   4   1 247.762 14.5844  -2
   2   4   4 247.762 14.5844   1
   3   4   4 1.55459 11.1355  -3
   3   4   4 1.55459 11.1355   1
   4   4   4 260.164 14.5982  -3
   4   4   4 260.164 14.5982   1
  -5   4   5 46.2810 13.7611  -2
   5   4   4 46.2810 13.7611   1
   6   4   4 317.706 24.2236  -3
   6   4   4 317.706 24.2236   1
  -6   4   8 19.2865 10.0449  -2
   7   4   4 19.2865 10.0449   1
   8   4   4 278.385 8.59711   1
  -7   4  10 -7.1830 12.0448  -2
   9   4   4 -7.1830 12.0448   1
  10   4   4 436.180 21.2608   1
  -8   4  13 -16.559 23.0856  -2
  11   4   4 -16.559 23.0856   1
  -3   5  16 31.1330 19.1007  -4
 -10   5   4 31.1330 19.1007   1
  -3   5  16 65.9774 35.8510  -4
 -10   5   5 65.9774 35.8510  -3
 -10   5   4 65.9774 35.8510   1
  -3   5  15 287.677 22.7725  -2
  -9   5   4 287.677 22.7725   1
  -2   5  13 74.9900 15.7963  -4
  -8   5   4 74.9900 15.7963   1
  -2   5  12 360.712 14.1826  -2
  -7   5   4 360.712 14.1826   1
  -6   5   4 329.105 12.7866   1
  -5   5   4 440.262 9.44736   1
   0   5   8 711.068 30.4017  -2
  -4   5   4 711.068 30.4017   1
  -3   5   4 335.334 20.6161  -3
  -3   5   4 335.334 20.6161   1
   1   5   5 278.744 11.8464  -2
  -2   5   4 278.744 11.8464   1
   1   5   5 318.695 11.0995  -4
  -2   5   4 318.695 11.0995  -3
   1   5   5 318.695 11.0995  -2
  -2   5   4 318.695 11.0995   1
   1   5   5 307.333 12.9817  -4
   1   5   5 307.333 12.9817  -2
  -2   5   4 307.333 12.9817   1
  -1   5   4 1144.57 18.5012  -3
  -1   5   4 1144.57 18.5012   1
   2   5   2 1411.76 21.6385  -4
   0   5   4 1411.76 21.6385  -3
   2   5   2 1411.76 21.6385  -2
   0   5   4 1411.76 21.6385   1
   2   5   2 1498.37 30.4869  -2
   0   5   4 1498.37 30.4869   1
   1   5   4 1541.49 23.0675  -3
   1   5   4 1541.49 23.0675   1
  -3   5   1 960.773 36.1741  -4
  -3   5   1 960.773 36.1741  -2
   2   5   4 960.773 36.1741   1
  -3   5   1 952.088 32.5136  -2
   2   5   4 952.088 32.5136   1
   3   5   4 444.646 26.8428  -3
   3   5   4 444.646 26.8428   1
   4   5   4 1180.47 25.2629  -3
   4   5   4 1180.47 25.2629   1
  -5   5   5 683.490 30.1034  -2
   5   5   4 683.490 30.1034   1
   6   5   4 463.922 10.0818   1
  -6   5   8 355.906 13.7064  -2
   7   5   4 355.906 13.7064   1
   8   5   4 354.264 9.88219   1
  -7   5  10 406.147 25.2246  -2
   9   5   4 406.147 25.2246   1
  10   5   4 162.872 13.0236   1
  -3   6  15 -2.4929 12.4385  -2
  -9   6   4 -2.4929 12.4385   1
  -2   6  13 1549.50 44.4050  -4
  -8   6   4 1549.50 44.4050   1
  -2   6  14 1571.91 60.5532  -4
  -8   6   4 1571.91 60.5532   1
  -2   6  12 7.85608 11.3000  -2
  -7   6   4 7.85608 11.3000   1
  -1   6  10 1330.50 37.6984  -4
  -6   6   4 1330.50 37.6984   1
  -5   6   4 20.0889 4.95623   1
   0   6   8 2239.14 50.8919  -4
   0   6   8 2239.14 50.8919  -2
  -4   6   4 2239.14 50.8919   1
   0   6   8 2173.01 50.3721  -2
  -4   6   4 2173.01 50.3721   1
  -3   6   4 23.5486 14.4748  -3
  -3   6   4 23.5486 14.4748   1
   1   6   5 2581.25 77.7939  -4
  -2   6   4 2581.25 77.7939  -3
   1   6   5 2581.25 77.7939  -2
  -2   6   4 2581.25 77.7939   1
   1   6   5 2541.85 54.1211  -4
   1   6   5 2541.85 54.1211  -2
  -2   6   4 2541.85 54.1211   1
   1   6   5 2500.79 49.3992  -2
  -2   6   4 2500.79 49.3992   1
  -1   6   4 3.42680 5.39541  -3
  -1   6   4 3.42680 5.39541   1
   2   6   2 2999.38 41.7693  -4
   0   6   4 2999.38 41.7693  -3
   2   6   2 2999.38 41.7693  -2
   0   6   4 2999.38 41.7693   1
   2   6   2 3010.57 57.4439  -2
   0   6   4 3010.57 57.4439   1
   1   6   4 6.26819 6.55565  -3
   1   6   4 6.26819 6.55565   1
  -3   6   1 2217.14 61.6640  -4
   2   6   4 2217.14 61.6640  -3
   2   6   4 2217.14 61.6640   1
  -3   6   1 2265.03 46.5290  -2
   2   6   4 2265.03 46.5290   1
   3   6   4 63.0201 18.6286  -3
   3   6   4 63.0201 18.6286   1
   4   6   4 1107.46 29.0041  -3
   4   6   4 1107.46 29.0041   1
  -5   6   5 100.064 14.1920  -2
   5   6   4 100.064 14.1920   1
  -5   6   6 813.703 26.7059  -4
   6   6   4 813.703 26.7059   1
  -6   6   8 18.9271 9.89166  -2
   7   6   4 18.9271 9.89166   1
  -6   6   9 441.351 41.9633  -4
   8   6   4 441.351 41.9633   1
  -7   6  11 -22.560 23.0161  -4
   9   6   4 -22.560 23.0161   1
  -7   6  10 -11.694 31.7127  -2
   9   6   4 -11.694 31.7127   1
  -7   6  12 237.340 39.0237  -4
  10   6   4 237.340 39.0237   1
  -2   7  13 140.909 19.3716  -4
  -8   7   4 140.909 19.3716   1
  -2   7  12 538.824 21.1751  -2
  -7   7   4 538.824 21.1751   1
  -1   7  10 68.1747 15.4398  -4
  -6   7   4 68.1747 15.4398   1
  -5   7   4 825.057 18.7751   1
   0   7   8 243.168 28.8139  -4
  -4   7   4 243.168 28.8139  -3
   0   7   8 243.168 28.8139  -2
  -4   7   4 243.168 28.8139   1
  -3   7   4 726.514 35.2137  -3
  -3   7   4 726.514 35.2137   1
   1   7   5 329.535 13.1173  -2
  -2   7   4 329.535 13.1173   1
   1   7   5 364.039 16.5073  -4
   1   7   5 364.039 16.5073  -2
  -2   7   4 364.039 16.5073   1
   1   7   5 365.331 25.3385  -4
  -2   7   4 365.331 25.3385  -3
   1   7   5 365.331 25.3385  -2
  -2   7   4 365.331 25.3385   1
  -1   7   4 741.008 19.4116  -3
  -1   7   4 741.008 19.4116   1
   2   7   2 841.925 20.5708  -4
   0   7   4 841.925 20.5708  -3
   2   7   2 841.925 20.5708  -2
   0   7   4 841.925 20.5708   1
   2   7   2 881.324 24.0110  -2
   0   7   4 881.324 24.0110   1
   1   7   4 416.799 14.3411  -3
   1   7   4 416.799 14.3411   1
  -3   7   1 584.687 20.0876  -2
   2   7   4 584.687 20.0876   1
   2   7   4 626.341 38.7879  -3
   2   7   4 626.341 38.7879   1
   3   7   4 613.379 39.2233  -3
   3   7   4 613.379 39.2233   1
   4   7   4 353.086 29.6495  -3
   4   7   4 353.086 29.6495   1
   5   7   4 573.860 16.1909   1
  -5   7   6 373.927 27.8063  -4
   6   7   4 373.927 27.8063   1
  -6   7   8 322.367 15.4602  -2
   7   7   4 322.367 15.4602   1
  -6   7   9 286.555 23.7807  -4
   8   7   4 286.555 23.7807   1
  -2   8  12 49.0623 14.6800  -2
  -7   8   4 49.0623 14.6800   1
  -1   8  10 36.1666 15.4165  -4
  -6   8   4 36.1666 15.4165   1
  -5   8   4 0.40573 5.39312   1
   0   8   8 35.5745 20.3423  -4
   0   8   8 35.5745 20.3423  -2
  -4   8   4 35.5745 20.3423   1
   0   8   7 33.5994 25.9884  -4
   0   8   8 33.5994 25.9884  -2
  -4   8   4 33.5994 25.9884   1
  -3   8   4 12.1542 18.6732  -3
  -3   8   4 12.1542 18.6732   1
   1   8   5 152.084 15.3753  -2
  -2   8   4 152.084 15.3753   1
   1   8   5 164.822 23.7555  -4
  -2   8   4 164.822 23.7555  -3
   1   8   5 164.822 23.7555  -2
  -2   8   4 164.822 23.7555   1
   1   8   5 146.431 23.6226  -4
   1   8   5 146.431 23.6226  -2
  -2   8   4 146.431 23.6226   1
  -1   8   4 49.7669 14.0228  -3
  -1   8   4 49.7669 14.0228   1
   2   8   2 8.77207 14.1851  -4
   0   8   4 8.77207 14.1851  -3
   2   8   2 8.77207 14.1851  -2
   0   8   4 8.77207 14.1851   1
   2   8   2 25.8709 8.20354  -2
   0   8   4 25.8709 8.20354   1
   1   8   4 6.95740 9.71809  -3
   1   8   4 6.95740 9.71809   1
   2   8   4 116.190 27.1359  -3
   2   8   4 116.190 27.1359   1
  -3   8   1 86.0070 12.6113  -2
   2   8   4 86.0070 12.6113   1
   3   8   4 40.2061 23.7774  -3
   3   8   4 40.2061 23.7774   1
   3   8   4 36.1802 19.2026  -3
  -4   8   2 36.1802 19.2026  -2
   3   8   4 36.1802 19.2026   1
   4   8   4 119.063 28.3331  -3
   4   8   4 119.063 28.3331   1
  -5   8   5 63.0581 27.6665  -2
   5   8   4 63.0581 27.6665   1
  -5   8   6 116.720 18.9035  -4
   6   8   4 116.720 18.9035   1
  -6   8   8 14.4283 14.6237  -2
   7   8   4 14.4283 14.6237   1
   8   8   4 154.524 24.7045   1
  -6   9   4 43.4850 15.0085   1
  -5   9   4 51.7063 9.46515   1
   0   9   8 154.957 27.0617  -4
   0   9   8 154.957 27.0617  -2
  -4   9   4 154.957 27.0617   1
  -3   9   4 355.707 30.7105  -3
  -3   9   4 355.707 30.7105   1
   1   9   5 227.761 29.1839  -4
  -2   9   4 227.761 29.1839  -3
   1   9   5 227.761 29.1839  -2
  -2   9   4 227.761 29.1839   1
   1   9   5 169.263 17.2839  -2
  -2   9   4 169.263 17.2839   1
  -1   9   4 221.286 19.9266  -3
  -1   9   4 221.286 19.9266   1
   2   9   2 346.754 16.5944  -2
   0   9   4 346.754 16.5944   1
   2   9   2 397.999 24.2336  -4
   0   9   4 397.999 24.2336  -3
   2   9   2 397.999 24.2336  -2
   0   9   4 397.999 24.2336   1
   1   9   4 261.257 35.5517  -3
   1   9   4 261.257 35.5517   1
  -3   9   1 385.000 19.7154  -2
   2   9   4 385.000 19.7154   1
   3   9   4 436.351 30.8540  -3
  -4   9   2 436.351 30.8540  -2
   3   9   4 436.351 30.8540   1
  -4   9   3 410.213 34.8294  -4
   4   9   4 410.213 34.8294  -3
   4   9   4 410.213 34.8294   1
  -5   9   5 201.186 35.6981  -2
   5   9   4 201.186 35.6981   1
   6   9   4 134.048 32.5694   1
  -3  10   4 61.4216 26.4956  -3
  -3  10   4 61.4216 26.4956   1
  -1  10   4 30.1266 12.1562   1
   2  10   2 826.764 38.8679  -2
   0  10   4 826.764 38.8679   1
   1  10   4 -16.305 31.6255  -3
   1  10   4 -16.305 31.6255   1
   3  10   0 22.8172 22.2096  -4
   1  10   4 22.8172 22.2096   1
  -3  10   1 604.131 25.0621  -2
   2  10   4 604.131 25.0621   1
   2  10   4 596.349 51.0029  -3
   2  10   4 596.349 51.0029   1
   3  10   4 -10.158 7.64210   1
   4  10   4 524.038 42.3314   1
 -10   0   5 2.11059 7.68449   1
  -2   0  15 955.659 46.8780  -4
  -9   0   5 955.659 46.8780   1
  -2   0  14 0.66338 11.6428  -2
  -8   0   5 0.66338 11.6428   1
  -7   0   5 916.143 20.0641   1
  -6   0   5 2.85914 2.79297   1
  -5   0   5 846.465 14.1511   1
  -4   0   5 0.99447 1.91118   1
   1   0   7 1507.79 37.1367  -2
  -3   0   5 1507.79 37.1367   1
   1   0   7 1547.94 33.2611  -4
   1   0   7 1547.94 33.2611  -2
  -3   0   5 1547.94 33.2611   1
  -2   0   5 -1.7479 8.52426  -3
  -2   0   5 -1.7479 8.52426   1
   2   0   4 36.3266 2.91395  -2
  -1   0   5 36.3266 2.91395   1
   2   0   4 36.1100 8.77741  -4
  -1   0   5 36.1100 8.77741  -3
   2   0   4 36.1100 8.77741  -2
  -1   0   5 36.1100 8.77741   1
   0   0   5 -3.7671 7.21494  -3
   0   0   5 -3.7671 7.21494   1
   3   0   1 1827.31 45.6697  -4
   1   0   5 1827.31 45.6697   1
   2   0   5 7.62247 7.15799  -3
   2   0   5 7.62247 7.15799   1
  -4   0   2 192.099 12.1013  -4
   3   0   5 192.099 12.1013   1
   3   0   5 188.600 13.0775  -3
   3   0   5 188.600 13.0775   1
   4   0   5 6.68444 9.72565  -3
   4   0   5 6.68444 9.72565   1
   5   0   5 118.756 5.03075   1
  -6   0   6 123.868 9.43373  -2
   6   0   5 123.868 9.43373   1
   7   0   5 101.404 8.27196   1
   8   0   5 -4.0335 5.60785   1
   9   0   5 19.7163 8.05049   1
  -8   0  11 1.09770 14.5796  -2
  10   0   5 1.09770 14.5796   1
  11   0   5 1.60439 8.68817   1
  -3   1  18 268.061 29.5217  -4
 -11   1   5 268.061 29.5217   1
 -10   1   5 444.483 13.6999   1
  -9   1   5 434.574 24.6555   1
  -2   1  14 647.066 19.8054  -2
  -8   1   5 647.066 19.8054   1
  -7   1   5 697.216 11.7154   1
  -6   1   5 758.024 11.7567   1
  -5   1   5 1357.21 15.8736   1
  -4   1   5 1457.96 14.7939   1
   1   1   7 3509.68 104.742  -4
   1   1   7 3509.68 104.742  -2
  -3   1   5 3509.68 104.742   1
   1   1   7 3552.12 61.1241  -2
  -3   1   5 3552.12 61.1241   1
  -2   1   5 1377.03 30.1445  -3
  -2   1   5 1377.03 30.1445   1
   2   1   4 4102.55 53.6445  -4
  -1   1   5 4102.55 53.6445  -3
   2   1   4 4102.55 53.6445  -2
  -1   1   5 4102.55 53.6445   1
   2   1   4 4123.49 57.7692  -2
  -1   1   5 4123.49 57.7692   1
   0   1   5 2614.21 28.0648  -3
   0   1   5 2614.21 28.0648   1
   3   1   1 1036.99 30.8905  -4
   3   1   1 1036.99 30.8905  -2
   1   1   5 1036.99 30.8905   1
   3   1   1 1089.62 30.3761  -4
   1   1   5 1089.62 30.3761   1
   2   1   5 1404.98 20.5098  -3
   2   1   5 1404.98 20.5098   1
   3   1   5 448.854 13.4760  -3
   3   1   5 448.854 13.4760   1
  -4   1   2 459.947 17.9970  -4
   3   1   5 459.947 17.9970   1
   4   1   5 478.765 21.2241  -3
   4   1   5 478.765 21.2241   1
  -5   1   3 477.317 15.6854  -2
   4   1   5 477.317 15.6854   1
   5   1   5 501.568 22.6276  -3
   5   1   5 501.568 22.6276   1
  -6   1   6 817.034 14.3394  -2
   6   1   5 817.034 14.3394   1
   7   1   5 333.293 8.54007   1
  -7   1   8 669.695 34.7566  -2
   8   1   5 669.695 34.7566   1
   9   1   5 107.123 8.22636   1
  -8   1  11 374.767 14.9703  -2
  10   1   5 374.767 14.9703   1
  11   1   5 5.32926 6.29668   1
 -10   2   5 4.65800 6.70349   1
  -2   2  15 289.450 17.7121  -4
  -9   2   5 289.450 17.7121   1
  -2   2  14 21.7209 8.05892  -2
  -8   2   5 21.7209 8.05892   1
  -7   2   5 348.599 8.35272   1
  -6   2   5 19.0774 3.20301   1
   0   2  10 704.699 27.5223  -4
  -5   2   5 704.699 27.5223   1
  -4   2   5 21.4645 2.23220   1
   1   2   7 1910.18 36.0222  -2
  -3   2   5 1910.18 36.0222   1
   1   2   7 2026.10 42.0114  -4
   1   2   7 2026.10 42.0114  -2
  -3   2   5 2026.10 42.0114   1
  -2   2   5 40.8065 6.58384  -3
  -2   2   5 40.8065 6.58384   1
   2   2   4 4096.77 54.0326  -4
  -1   2   5 4096.77 54.0326  -3
   2   2   4 4096.77 54.0326  -2
  -1   2   5 4096.77 54.0326   1
   2   2   4 3898.24 93.2875  -2
  -1   2   5 3898.24 93.2875   1
   0   2   5 25.0132 3.04169  -3
   0   2   5 25.0132 3.04169   1
   3   2   1 3986.19 99.1582  -4
   1   2   5 3986.19 99.1582   1
   3   2   1 4078.91 97.7161  -2
   1   2   5 4078.91 97.7161   1
   3   2   1 3996.77 112.309  -4
   3   2   1 3996.77 112.309  -2
   1   2   5 3996.77 112.309   1
   3   2   1 4078.96 96.0016  -4
   1   2   5 4078.96 96.0016  -3
   3   2   1 4078.96 96.0016  -2
   1   2   5 4078.96 96.0016   1
   2   2   5 9.35113 2.57001  -3
   2   2   5 9.35113 2.57001   1
  -4   2   2 3323.23 82.6367  -4
   3   2   5 3323.23 82.6367   1
   3   2   5 3220.50 52.2196  -3
   3   2   5 3220.50 52.2196   1
   4   2   5 4.87080 2.27467   1
   5   2   5 2037.31 62.8758  -3
   5   2   5 2037.31 62.8758   1
  -6   2   6 11.9854 6.37538  -2
   6   2   5 11.9854 6.37538   1
   7   2   5 2776.42 32.8074   1
  -7   2   8 -13.190 17.4318  -2
   8   2   5 -13.190 17.4318   1
   9   2   5 1622.32 24.9286   1
  -8   2  11 -12.840 11.3578  -2
  10   2   5 -12.840 11.3578   1
  11   2   5 958.551 22.0736   1
  -3   3  18 209.179 34.8347  -4
 -11   3   5 209.179 34.8347   1
  -3   3  17 283.307 31.3452  -2
 -10   3   5 283.307 31.3452   1
  -2   3  15 466.144 28.3604  -4
  -9   3   5 466.144 28.3604   1
  -2   3  14 330.031 13.7440  -2
  -8   3   5 330.031 13.7440   1
  -1   3  12 900.924 24.3493  -4
  -7   3   5 900.924 24.3493   1
  -6   3   5 790.931 12.9140   1
  -5   3   5 1077.16 21.3588   1
  -4   3   5 872.559 32.3688  -3
  -4   3   5 872.559 32.3688   1
   1   3   7 1738.98 29.7017  -2
  -3   3   5 1738.98 29.7017   1
   1   3   7 1764.63 38.1970  -4
   1   3   7 1764.63 38.1970  -2
  -3   3   5 1764.63 38.1970   1
  -2   3   5 1369.35 32.1864  -3
  -2   3   5 1369.35 32.1864   1
   2   3   4 1970.88 31.5987  -4
  -1   3   5 1970.88 31.5987  -3
   2   3   4 1970.88 31.5987  -2
  -1   3   5 1970.88 31.5987   1
   2   3   4 1916.02 36.4733  -2
  -1   3   5 1916.02 36.4733   1
   0   3   5 1120.56 16.6191  -3
   0   3   5 1120.56 16.6191   1
   3   3   1 660.236 25.7997  -4
   3   3   1 660.236 25.7997  -2
   1   3   5 660.236 25.7997   1
   3   3   1 670.983 23.2628  -2
   1   3   5 670.983 23.2628   1
   3   3   1 691.808 26.4612  -4
   1   3   5 691.808 26.4612  -3
   3   3   1 691.808 26.4612  -2
   1   3   5 691.808 26.4612   1
   2   3   5 1190.94 22.0030  -3
   2   3   5 1190.94 22.0030   1
   3   3   5 889.171 36.6273  -3
   3   3   5 889.171 36.6273   1
   4   3   5 2163.51 72.7858  -3
   4   3   5 2163.51 72.7858   1
   5   3   5 559.379 27.2710  -3
   5   3   5 559.379 27.2710   1
  -6   3   6 971.684 18.9331  -2
   6   3   5 971.684 18.9331   1
   7   3   5 183.215 7.16030   1
  -7   3   8 532.512 32.5561  -2
   8   3   5 532.512 32.5561   1
  -7   3   9 431.679 32.6300  -2
   8   3   5 431.679 32.6300   1
   9   3   5 270.422 9.69633   1
  -8   3  11 396.220 15.3247  -2
  10   3   5 396.220 15.3247   1
  11   3   5 10.2312 6.63633   1
  -3   4  18 499.815 45.6904  -4
 -11   4   5 499.815 45.6904   1
 -10   4   5 10.6217 6.60020   1
  -2   4  15 340.259 21.5431  -4
  -9   4   5 340.259 21.5431   1
  -2   4  14 8.25158 12.9329  -2
  -8   4   5 8.25158 12.9329   1
  -1   4  12 1027.31 37.9506  -4
  -7   4   5 1027.31 37.9506   1
  -6   4   5 2.18537 3.10113   1
  -5   4   5 1262.53 24.6959   1
  -4   4   5 -5.9096 11.4916  -3
  -4   4   5 -5.9096 11.4916   1
   1   4   7 757.721 21.8332  -4
   1   4   7 757.721 21.8332  -2
  -3   4   5 757.721 21.8332   1
   1   4   7 826.554 33.0901  -4
  -3   4   5 826.554 33.0901  -3
   1   4   7 826.554 33.0901  -2
  -3   4   5 826.554 33.0901   1
   1   4   7 784.873 20.2247  -2
  -3   4   5 784.873 20.2247   1
  -2   4   5 5.47947 3.37442  -3
  -2   4   5 5.47947 3.37442   1
   2   4   4 521.694 9.99537  -4
  -1   4   5 521.694 9.99537  -3
   2   4   4 521.694 9.99537  -2
  -1   4   5 521.694 9.99537   1
   2   4   4 510.384 14.6379  -2
  -1   4   5 510.384 14.6379   1
   0   4   5 57.5056 4.08111  -3
   0   4   5 57.5056 4.08111   1
   3   4   1 36.2525 8.89301  -4
   3   4   1 36.2525 8.89301  -2
   1   4   5 36.2525 8.89301   1
   3   4   1 22.5826 8.96018  -2
   1   4   5 22.5826 8.96018   1
   3   4   1 30.2634 11.9851  -4
   1   4   5 30.2634 11.9851  -3
   3   4   1 30.2634 11.9851  -2
   1   4   5 30.2634 11.9851   1
   2   4   5 67.6329 5.79985  -3
   2   4   5 67.6329 5.79985   1
   3   4   5 150.595 10.2939  -3
   3   4   5 150.595 10.2939   1
  -4   4   2 161.217 18.0259  -4
   3   4   5 161.217 18.0259  -3
   3   4   5 161.217 18.0259   1
   4   4   5 -0.4667 2.77090   1
   5   4   5 286.059 16.8160  -3
   5   4   5 286.059 16.8160   1
  -6   4   6 78.9897 12.8713  -2
   6   4   5 78.9897 12.8713   1
   7   4   5 37.5990 4.58848   1
  -7   4   8 3.87736 15.6629  -2
   8   4   5 3.87736 15.6629   1
  -7   4   9 24.6005 21.0311  -4
   8   4   5 24.6005 21.0311   1
   9   4   5 19.9585 5.66828   1
  -8   4  11 3.78225 12.7507  -2
  10   4   5 3.78225 12.7507   1
  11   4   5 -1.9410 14.8598   1
 -10   5   5 160.017 17.5466   1
  -2   5  15 375.874 19.5163  -4
  -9   5   5 375.874 19.5163   1
  -2   5  14 537.583 20.3484  -2
  -8   5   5 537.583 20.3484   1
  -1   5  12 517.700 23.1488  -4
  -7   5   5 517.700 23.1488   1
  -6   5   5 493.040 15.4697   1
  -5   5   5 936.984 20.8729   1
  -4   5   5 241.376 17.4927  -3
  -4   5   5 241.376 17.4927   1
   1   5   7 1057.54 27.9312  -4
   1   5   7 1057.54 27.9312  -2
  -3   5   5 1057.54 27.9312   1
   1   5   7 1112.39 41.7129  -4
  -3   5   5 1112.39 41.7129  -3
   1   5   7 1112.39 41.7129  -2
  -3   5   5 1112.39 41.7129   1
   1   5   7 1056.75 25.8390  -2
  -3   5   5 1056.75 25.8390   1
  -2   5   5 1021.15 25.0024  -3
  -2   5   5 1021.15 25.0024   1
   2   5   4 872.045 15.2711  -4
  -1   5   5 872.045 15.2711  -3
   2   5   4 872.045 15.2711  -2
  -1   5   5 872.045 15.2711   1
   2   5   4 851.319 21.5446  -2
  -1   5   5 851.319 21.5446   1
   0   5   5 690.242 12.8888  -3
   0   5   5 690.242 12.8888   1
   3   5   1 641.360 14.4756  -2
   1   5   5 641.360 14.4756   1
   3   5   1 675.324 22.7219  -4
   1   5   5 675.324 22.7219  -3
   3   5   1 675.324 22.7219  -2
   1   5   5 675.324 22.7219   1
   3   5   1 711.139 31.2405  -4
   3   5   1 711.139 31.2405  -2
   1   5   5 711.139 31.2405   1
   2   5   5 842.649 18.7908  -3
   2   5   5 842.649 18.7908   1
  -4   5   2 496.734 23.6848  -2
   3   5   5 496.734 23.6848   1
   3   5   5 432.827 13.4777  -3
   3   5   5 432.827 13.4777   1
   4   5   5 623.220 15.0457   1
   5   5   5 563.461 23.2322  -3
   5   5   5 563.461 23.2322   1
  -6   5   6 278.082 13.1939  -2
   6   5   5 278.082 13.1939   1
   7   5   5 136.315 7.15813   1
  -7   5   9 290.099 28.4426  -4
   8   5   5 290.099 28.4426   1
   9   5   5 119.268 7.72842   1
  -2   6  15 137.900 20.6212  -4
  -9   6   5 137.900 20.6212   1
  -2   6  14 26.7227 13.4064  -2
  -8   6   5 26.7227 13.4064   1
  -1   6  12 275.853 20.0648  -4
  -7   6   5 275.853 20.0648   1
  -6   6   5 11.6574 5.39400   1
   0   6   9 517.735 29.0529  -4
  -5   6   5 517.735 29.0529   1
  -4   6   5 52.6349 16.2444  -3
  -4   6   5 52.6349 16.2444   1
   1   6   7 558.693 20.4076  -4
   1   6   7 558.693 20.4076  -2
  -3   6   5 558.693 20.4076   1
   1   6   7 569.564 16.5846  -2
  -3   6   5 569.564 16.5846   1
   1   6   7 510.565 29.2746  -4
  -3   6   5 510.565 29.2746  -3
   1   6   7 510.565 29.2746  -2
  -3   6   5 510.565 29.2746   1
  -2   6   5 1.06672 11.7547  -3
  -2   6   5 1.06672 11.7547   1
   2   6   4 1836.44 33.9756  -4
  -1   6   5 1836.44 33.9756  -3
   2   6   4 1836.44 33.9756  -2
  -1   6   5 1836.44 33.9756   1
   2   6   4 1793.75 38.3338  -2
  -1   6   5 1793.75 38.3338   1
   0   6   5 104.351 7.83308  -3
   0   6   5 104.351 7.83308   1
   3   6   1 1661.42 59.0146  -4
   3   6   1 1661.42 59.0146  -2
   1   6   5 1661.42 59.0146   1
   3   6   1 1667.67 36.9014  -2
   1   6   5 1667.67 36.9014   1
   3   6   1 1628.92 41.9848  -4
   1   6   5 1628.92 41.9848  -3
   3   6   1 1628.92 41.9848  -2
   1   6   5 1628.92 41.9848   1
   2   6   5 117.501 8.93064  -3
   2   6   5 117.501 8.93064   1
   3   6   5 1741.05 44.0871  -3
   3   6   5 1741.05 44.0871   1
   4   6   5 3.18342 12.7665  -3
   4   6   5 3.18342 12.7665   1
   4   6   5 -16.276 15.3118  -3
  -5   6   3 -16.276 15.3118  -2
   4   6   5 -16.276 15.3118   1
   5   6   5 1445.15 38.8697  -3
   5   6   5 1445.15 38.8697   1
  -6   6   6 -0.0501 9.04227  -2
   6   6   5 -0.0501 9.04227   1
  -6   6   7 1100.32 49.1375  -4
   7   6   5 1100.32 49.1375   1
  -7   6   9 -6.2195 11.7498  -4
   8   6   5 -6.2195 11.7498   1
  -7   6  10 1099.08 62.0693  -4
   9   6   5 1099.08 62.0693   1
  -2   7  14 253.833 18.3337  -2
  -8   7   5 253.833 18.3337   1
  -1   7  12 240.764 20.5401  -4
  -7   7   5 240.764 20.5401   1
  -6   7   5 387.228 19.7812   1
  -5   7   5 526.215 21.6715   1
  -4   7   5 547.028 32.6376  -3
  -4   7   5 547.028 32.6376   1
   1   7   7 771.477 38.2426  -4
  -3   7   5 771.477 38.2426  -3
   1   7   7 771.477 38.2426  -2
  -3   7   5 771.477 38.2426   1
   1   7   7 763.245 20.5043  -2
  -3   7   5 763.245 20.5043   1
   1   7   7 752.847 25.3692  -4
   1   7   7 752.847 25.3692  -2
  -3   7   5 752.847 25.3692   1
  -2   7   5 528.542 19.3897  -3
  -2   7   5 528.542 19.3897   1
   2   7   4 729.742 26.2836  -4
  -1   7   5 729.742 26.2836  -3
   2   7   4 729.742 26.2836  -2
  -1   7   5 729.742 26.2836   1
   2   7   4 739.767 22.0779  -2
  -1   7   5 739.767 22.0779   1
   0   7   5 564.661 22.7515  -3
   0   7   5 564.661 22.7515   1
   3   7   1 494.092 23.4434  -4
   1   7   5 494.092 23.4434  -3
   3   7   1 494.092 23.4434  -2
   1   7   5 494.092 23.4434   1
   3   7   1 519.958 19.0716  -2
   1   7   5 519.958 19.0716   1
   2   7   5 841.972 21.4432  -3
   2   7   5 841.972 21.4432   1
   3   7   5 207.901 20.6431  -3
   3   7   5 207.901 20.6431   1
   4   7   5 587.181 30.5111  -3
  -5   7   3 587.181 30.5111  -2
   4   7   5 587.181 30.5111   1
   5   7   5 147.896 22.2907  -3
   5   7   5 147.896 22.2907   1
  -6   7   6 529.509 16.5564  -2
   6   7   5 529.509 16.5564   1
  -6   7   7 129.105 19.4067  -4
   7   7   5 129.105 19.4067   1
  -7   7   9 337.056 31.2563  -4
   8   7   5 337.056 31.2563   1
  -1   8  12 322.115 23.9576  -4
  -7   8   5 322.115 23.9576   1
  -6   8   5 39.9556 8.67719   1
   0   8   9 240.545 20.2592  -4
  -5   8   5 240.545 20.2592   1
  -4   8   5 12.1667 21.3688  -3
  -4   8   5 12.1667 21.3688   1
   1   8   8 17.1264 20.2205  -4
  -4   8   5 17.1264 20.2205   1
   1   8   7 379.757 21.3939  -2
  -3   8   5 379.757 21.3939   1
   1   8   7 387.486 20.0453  -4
   1   8   7 387.486 20.0453  -2
  -3   8   5 387.486 20.0453   1
   1   8   7 358.368 30.8009  -4
  -3   8   5 358.368 30.8009  -3
   1   8   7 358.368 30.8009  -2
  -3   8   5 358.368 30.8009   1
  -2   8   5 10.2398 18.1364  -3
  -2   8   5 10.2398 18.1364   1
   2   8   4 112.223 9.71502  -2
  -1   8   5 112.223 9.71502   1
   2   8   4 96.2810 16.3406  -4
  -1   8   5 96.2810 16.3406  -3
   2   8   4 96.2810 16.3406  -2
  -1   8   5 96.2810 16.3406   1
   0   8   5 19.9588 13.1529  -3
   0   8   5 19.9588 13.1529   1
   3   8   1 329.771 22.7694  -4
   1   8   5 329.771 22.7694  -3
   3   8   1 329.771 22.7694  -2
   1   8   5 329.771 22.7694   1
   3   8   1 323.142 16.2241  -2
   1   8   5 323.142 16.2241   1
   2   8   5 34.6399 13.8672  -3
   2   8   5 34.6399 13.8672   1
   3   8   5 76.0787 9.84775   1
   4   8   5 87.8602 17.9474  -3
  -5   8   3 87.8602 17.9474  -2
   4   8   5 87.8602 17.9474   1
   5   8   5 24.4015 18.6103  -3
   5   8   5 24.4015 18.6103   1
  -6   8   6 46.3887 28.3055  -2
   6   8   5 46.3887 28.3055   1
  -6   8   7 27.7310 19.1452  -4
   7   8   5 27.7310 19.1452   1
  -6   9   5 152.513 21.9193   1
   0   9   9 244.011 22.3593  -4
  -5   9   5 244.011 22.3593   1
   1   9   8 332.574 32.5692  -4
  -4   9   5 332.574 32.5692   1
  -4   9   5 322.283 31.3040  -3
  -4   9   5 322.283 31.3040   1
   1   9   7 414.608 35.5880  -4
  -3   9   5 414.608 35.5880  -3
   1   9   7 414.608 35.5880  -2
  -3   9   5 414.608 35.5880   1
   1   9   7 418.182 39.1684  -2
  -3   9   5 418.182 39.1684   1
  -2   9   5 301.898 28.5864  -3
  -2   9   5 301.898 28.5864   1
   2   9   4 461.915 19.8604  -2
  -1   9   5 461.915 19.8604   1
   2   9   4 441.513 31.6781  -4
  -1   9   5 441.513 31.6781  -3
   2   9   4 441.513 31.6781  -2
  -1   9   5 441.513 31.6781   1
   0   9   5 403.046 23.3955  -3
   0   9   5 403.046 23.3955   1
   3   9   2 397.229 28.6697  -4
   0   9   5 397.229 28.6697   1
   3   9   1 315.163 24.8896  -4
   1   9   5 315.163 24.8896  -3
   3   9   1 315.163 24.8896  -2
   1   9   5 315.163 24.8896   1
   3   9   1 259.650 16.9160  -2
   1   9   5 259.650 16.9160   1
   2   9   5 273.112 37.1245  -3
   2   9   5 273.112 37.1245   1
  -4   9   2 239.246 24.3411  -2
   3   9   5 239.246 24.3411   1
   4   9   5 76.3284 11.0927   1
  -5   9   4 88.5413 30.5583  -4
   5   9   5 88.5413 30.5583  -3
   5   9   5 88.5413 30.5583   1
   1  10   7 389.027 41.2159  -2
  -3  10   5 389.027 41.2159   1
   2  10   5 -6.8654 23.1622  -4
  -2  10   5 -6.8654 23.1622   1
  -2  10   5 -15.734 22.4561  -3
  -2  10   5 -15.734 22.4561   1
   2  10   4 609.919 35.2564  -2
  -1  10   5 609.919 35.2564   1
   3  10   2 27.2452 22.5135  -4
   0  10   5 27.2452 22.5135   1
   0  10   5 17.6586 31.0986  -3
   0  10   5 17.6586 31.0986   1
   3  10   1 585.074 24.1036  -2
   1  10   5 585.074 24.1036   1
   3  10   1 636.999 54.1304  -4
   1  10   5 636.999 54.1304  -3
   3  10   1 636.999 54.1304  -2
   1  10   5 636.999 54.1304   1
  -4  10   1 29.0750 16.8930  -4
   2  10   5 29.0750 16.8930   1
   2  10   5 61.0889 34.3531  -3
   2  10   5 61.0889 34.3531   1
  -4  10   2 565.879 26.2808  -2
   3  10   5 565.879 26.2808   1
  -9   0   6 0.94655 11.6517   1
  -8   0   6 1272.40 26.5782   1
  -7   0   6 -3.3624 4.79856   1
  -6   0   6 4294.75 67.9157   1
  -5   0   6 -0.0303 2.35929   1
   1   0   9 4864.28 126.272  -4
   1   0   9 4864.28 126.272  -2
  -4   0   6 4864.28 126.272   1
  -3   0   6 0.21612 1.95483   1
   2   0   6 5907.78 81.8980  -2
  -2   0   6 5907.78 81.8980   1
   2   0   6 6169.24 175.585  -4
  -2   0   6 6169.24 175.585  -3
   2   0   6 6169.24 175.585  -2
  -2   0   6 6169.24 175.585   1
  -1   0   6 -1.0317 7.80069  -3
  -1   0   6 -1.0317 7.80069   1
   1   0   6 -1.9711 5.20891  -3
   1   0   6 -1.9711 5.20891   1
   4   0   0 6201.25 144.765  -4
   2   0   6 6201.25 144.765   1
   3   0   6 4.63401 9.36307  -3
   3   0   6 4.63401 9.36307   1
   4   0   6 7750.88 200.665  -3
   4   0   6 7750.88 200.665   1
  -6   0   4 -1.1049 5.25288  -2
   5   0   6 -1.1049 5.25288   1
   6   0   6 4814.83 70.9405   1
  -7   0   7 -5.4284 14.4653  -2
   7   0   6 -5.4284 14.4653   1
   8   0   6 1728.21 40.1681   1
  -8   0   9 -6.5032 12.8577  -2
   9   0   6 -6.5032 12.8577   1
  10   0   6 1278.74 35.5437   1
  -9   0  12 -10.490 15.0555  -2
  11   0   6 -10.490 15.0555   1
  -2   1  17 278.623 18.0751  -4
 -10   1   6 278.623 18.0751   1
  -2   1  16 398.760 26.8935  -2
  -9   1   6 398.760 26.8935   1
  -1   1  14 146.235 24.1328  -4
  -8   1   6 146.235 24.1328   1
  -1   1  13 539.101 32.1516  -2
  -7   1   6 539.101 32.1516   1
  -6   1   6 268.875 6.07340   1
  -5   1   6 1087.06 13.5493   1
   1   1   9 266.148 21.5979  -4
   1   1   9 266.148 21.5979  -2
  -4   1   6 266.148 21.5979   1
   1   1   9 284.342 10.9359  -2
  -4   1   6 284.342 10.9359   1
  -3   1   6 1441.26 14.4174   1
   2   1   6 27.9828 2.98703  -2
  -2   1   6 27.9828 2.98703   1
   2   1   6 50.6812 13.4511  -4
  -2   1   6 50.6812 13.4511  -3
   2   1   6 50.6812 13.4511  -2
  -2   1   6 50.6812 13.4511   1
   2   1   6 27.8048 10.4128  -4
   2   1   6 27.8048 10.4128  -2
  -2   1   6 27.8048 10.4128   1
  -1   1   6 1700.79 24.1483  -3
  -1   1   6 1700.79 24.1483   1
   3   1   3 93.4238 8.07472  -2
   0   1   6 93.4238 8.07472   1
   3   1   3 89.8322 10.1510  -4
   0   1   6 89.8322 10.1510  -3
   3   1   3 89.8322 10.1510  -2
   0   1   6 89.8322 10.1510   1
   1   1   6 2610.15 28.5466  -3
   1   1   6 2610.15 28.5466   1
   4   1   0 78.4174 7.06318  -4
   2   1   6 78.4174 7.06318   1
   2   1   6 62.8581 5.48045  -3
   2   1   6 62.8581 5.48045   1
   3   1   6 1077.93 25.1240  -3
   3   1   6 1077.93 25.1240   1
   4   1   6 37.3394 10.8945  -3
   4   1   6 37.3394 10.8945   1
  -6   1   4 840.170 13.8161  -2
   5   1   6 840.170 13.8161   1
   6   1   6 156.456 5.74385   1
  -7   1   7 749.520 22.4657  -2
   7   1   6 749.520 22.4657   1
   8   1   6 58.4433 6.56565   1
  -8   1   9 381.175 14.3337  -2
   9   1   6 381.175 14.3337   1
  10   1   6 45.9351 7.20292   1
  -9   1  12 274.668 14.5088  -2
  11   1   6 274.668 14.5088   1
  -3   2  18 2.73820 24.1345  -2
 -11   2   6 2.73820 24.1345   1
 -10   2   6 49.8634 14.8565   1
  -2   2  16 45.7923 13.9416  -2
  -9   2   6 45.7923 13.9416   1
  -8   2   6 51.8124 6.29923   1
  -1   2  13 83.7731 10.3833  -2
  -7   2   6 83.7731 10.3833   1
  -6   2   6 9.94873 3.10450   1
  -5   2   6 24.8293 3.17021   1
   1   2   9 13.7081 6.00209  -2
  -4   2   6 13.7081 6.00209   1
   1   2   9 18.7657 9.82944  -4
   1   2   9 18.7657 9.82944  -2
  -4   2   6 18.7657 9.82944   1
  -3   2   6 9.44775 7.72078  -3
  -3   2   6 9.44775 7.72078   1
   2   2   6 142.816 14.4119  -4
   2   2   6 142.816 14.4119  -2
  -2   2   6 142.816 14.4119   1
   2   2   6 126.173 9.45523  -4
  -2   2   6 126.173 9.45523  -3
   2   2   6 126.173 9.45523  -2
  -2   2   6 126.173 9.45523   1
   2   2   6 118.939 6.41976  -2
  -2   2   6 118.939 6.41976   1
  -1   2   6 19.8619 2.56452  -3
  -1   2   6 19.8619 2.56452   1
   3   2   3 4.65778 4.97833  -2
   0   2   6 4.65778 4.97833   1
   3   2   3 6.39316 6.77862  -4
   0   2   6 6.39316 6.77862  -3
   3   2   3 6.39316 6.77862  -2
   0   2   6 6.39316 6.77862   1
   1   2   6 33.1747 3.06136  -3
   1   2   6 33.1747 3.06136   1
   2   2   6 181.804 8.97076  -3
   2   2   6 181.804 8.97076   1
   4   2   0 193.304 13.7640  -4
   2   2   6 193.304 13.7640   1
   3   2   6 132.905 8.91047  -3
   3   2   6 132.905 8.91047   1
   4   2   6 189.615 10.5955  -3
   4   2   6 189.615 10.5955   1
  -6   2   4 91.8425 7.84396  -2
   5   2   6 91.8425 7.84396   1
   6   2   6 81.3330 4.94327   1
  -7   2   7 87.0428 10.4993  -2
   7   2   6 87.0428 10.4993   1
   8   2   6 21.8024 4.70772   1
  -8   2   9 15.1519 9.63028  -2
   9   2   6 15.1519 9.63028   1
  10   2   6 15.1228 6.10603   1
  -9   2  12 38.0271 13.7501  -2
  11   2   6 38.0271 13.7501   1
 -11   3   6 227.716 16.1188   1
  -2   3  17 245.016 30.5296  -4
 -10   3   6 245.016 30.5296   1
  -2   3  16 417.282 21.9808  -2
  -9   3   6 417.282 21.9808   1
  -1   3  14 78.8926 12.8294  -4
  -8   3   6 78.8926 12.8294   1
  -1   3  13 633.558 35.8572  -2
  -7   3   6 633.558 35.8572   1
  -6   3   6 205.301 6.61093   1
  -5   3   6 541.624 10.0235   1
   1   3   9 73.6700 7.36940  -2
  -4   3   6 73.6700 7.36940   1
   1   3   9 85.7749 19.3412  -4
   1   3   9 85.7749 19.3412  -2
  -4   3   6 85.7749 19.3412   1
  -3   3   6 749.980 28.9613  -3
  -3   3   6 749.980 28.9613   1
   2   3   6 64.5332 5.11170  -2
  -2   3   6 64.5332 5.11170   1
   2   3   6 78.8310 11.1235  -4
  -2   3   6 78.8310 11.1235  -3
   2   3   6 78.8310 11.1235  -2
  -2   3   6 78.8310 11.1235   1
  -1   3   6 775.232 21.5862  -3
  -1   3   6 775.232 21.5862   1
   3   3   3 110.232 6.50534  -4
   0   3   6 110.232 6.50534  -3
   3   3   3 110.232 6.50534  -2
   0   3   6 110.232 6.50534   1
   3   3   3 124.136 10.4712  -2
   0   3   6 124.136 10.4712   1
   1   3   6 683.584 19.5425  -3
   1   3   6 683.584 19.5425   1
   2   3   6 16.3008 10.8141  -3
   2   3   6 16.3008 10.8141   1
   3   3   6 1035.06 27.3454  -3
   3   3   6 1035.06 27.3454   1
   4   3   6 14.3881 9.28491  -3
   4   3   6 14.3881 9.28491   1
   5   3   6 799.022 17.4073   1
   6   3   6 37.1808 17.2936  -3
   6   3   6 37.1808 17.2936   1
  -7   3   7 441.206 25.5525  -2
   7   3   6 441.206 25.5525   1
   8   3   6 83.2963 6.17751   1
  -8   3   9 385.413 14.3921  -2
   9   3   6 385.413 14.3921   1
  10   3   6 54.1970 7.83823   1
  -9   3  12 254.852 21.3417  -2
  11   3   6 254.852 21.3417   1
  -2   4  17 662.052 47.8629  -4
 -10   4   6 662.052 47.8629   1
  -2   4  16 26.3063 15.7712  -2
  -9   4   6 26.3063 15.7712   1
  -1   4  14 1499.39 51.6379  -4
  -8   4   6 1499.39 51.6379   1
  -1   4  13 -15.125 16.8300  -2
  -7   4   6 -15.125 16.8300   1
  -6   4   6 2214.51 31.2118   1
  -5   4   6 3.18071 2.98565   1
   1   4   9 3631.76 73.2960  -4
   1   4   9 3631.76 73.2960  -2
  -4   4   6 3631.76 73.2960   1
   1   4   9 3611.00 66.5475  -2
  -4   4   6 3611.00 66.5475   1
   1   4   9 3651.36 104.217  -4
  -4   4   6 3651.36 104.217  -3
   1   4   9 3651.36 104.217  -2
  -4   4   6 3651.36 104.217   1
  -3   4   6 1.37065 10.3665  -3
  -3   4   6 1.37065 10.3665   1
   2   4   6 6617.33 174.043  -4
  -2   4   6 6617.33 174.043  -3
   2   4   6 6617.33 174.043  -2
  -2   4   6 6617.33 174.043   1
   2   4   6 6304.04 108.380  -2
  -2   4   6 6304.04 108.380   1
  -1   4   6 15.2367 3.75493  -3
  -1   4   6 15.2367 3.75493   1
   3   4   3 4206.39 65.3914  -4
   0   4   6 4206.39 65.3914  -3
   3   4   3 4206.39 65.3914  -2
   0   4   6 4206.39 65.3914   1
   3   4   3 4272.04 76.1780  -2
   0   4   6 4272.04 76.1780   1
   1   4   6 10.1828 4.30760  -3
   1   4   6 10.1828 4.30760   1
   2   4   6 6367.29 125.378  -3
   2   4   6 6367.29 125.378   1
   3   4   6 34.0964 13.6149  -3
   3   4   6 34.0964 13.6149   1
   4   4   6 4351.84 90.2924  -3
   4   4   6 4351.84 90.2924   1
   5   4   6 6.97317 4.05588   1
   6   4   6 2789.47 86.5215  -3
   6   4   6 2789.47 86.5215   1
   7   4   6 -1.0305 3.65090   1
   8   4   6 1338.81 20.5802   1
  -8   4  10 -0.2053 17.9222  -4
   9   4   6 -0.2053 17.9222   1
  -8   4   9 -2.1064 14.3323  -2
   9   4   6 -2.1064 14.3323   1
  10   4   6 831.131 17.9385   1
  -2   5  17 119.680 21.3655  -4
 -10   5   6 119.680 21.3655   1
  -2   5  16 326.397 16.2947  -2
  -9   5   6 326.397 16.2947   1
  -1   5  14 67.4761 16.4568  -4
  -8   5   6 67.4761 16.4568   1
  -1   5  13 549.546 38.1813  -2
  -7   5   6 549.546 38.1813   1
  -6   5   6 134.887 10.9379   1
  -5   5   6 671.371 13.4165   1
   1   5   9 82.3742 10.7461  -2
  -4   5   6 82.3742 10.7461   1
   1   5   9 89.6199 13.1923  -4
   1   5   9 89.6199 13.1923  -2
  -4   5   6 89.6199 13.1923   1
   1   5   9 64.9799 19.8978  -4
  -4   5   6 64.9799 19.8978  -3
   1   5   9 64.9799 19.8978  -2
  -4   5   6 64.9799 19.8978   1
  -3   5   6 737.037 30.8821  -3
  -3   5   6 737.037 30.8821   1
   2   5   6 7.64757 7.11859  -2
  -2   5   6 7.64757 7.11859   1
   2   5   6 3.69151 10.7464  -4
  -2   5   6 3.69151 10.7464  -3
   2   5   6 3.69151 10.7464  -2
  -2   5   6 3.69151 10.7464   1
  -1   5   6 1100.83 22.6320  -3
  -1   5   6 1100.83 22.6320   1
   3   5   3 53.7310 5.40782  -4
   0   5   6 53.7310 5.40782  -3
   3   5   3 53.7310 5.40782  -2
   0   5   6 53.7310 5.40782   1
   3   5   3 45.0340 7.43278  -2
   0   5   6 45.0340 7.43278   1
   1   5   6 893.877 19.1174  -3
   1   5   6 893.877 19.1174   1
   4   5   0 42.9322 13.1359  -2
   2   5   6 42.9322 13.1359   1
   3   5   6 1193.66 22.8969   1
   4   5   6 1.47985 8.41679  -3
   4   5   6 1.47985 8.41679   1
   5   5   6 646.504 20.2382   1
   6   5   6 30.7203 4.98311   1
   7   5   6 521.467 14.2479   1
   8   5   6 67.6447 6.87417   1
  -8   5  10 430.622 29.7166  -4
   9   5   6 430.622 29.7166   1
  10   5   6 29.5280 9.69467   1
  -2   6  16 54.1346 27.0365  -2
  -9   6   6 54.1346 27.0365   1
  -1   6  14 73.3339 17.5968  -4
  -8   6   6 73.3339 17.5968   1
  -1   6  13 70.8614 13.3393  -2
  -7   6   6 70.8614 13.3393   1
   0   6  11 10.2949 13.5796  -4
  -6   6   6 10.2949 13.5796   1
  -5   6   6 21.9888 4.25545   1
   1   6   9 12.6323 13.0161  -4
   1   6   9 12.6323 13.0161  -2
  -4   6   6 12.6323 13.0161   1
   1   6   9 21.7171 12.5393  -2
  -4   6   6 21.7171 12.5393   1
   1   6   9 27.5308 20.9078  -4
  -4   6   6 27.5308 20.9078  -3
   1   6   9 27.5308 20.9078  -2
  -4   6   6 27.5308 20.9078   1
  -3   6   6 17.4935 14.5265  -3
  -3   6   6 17.4935 14.5265   1
   2   6   6 15.6181 8.97281  -4
  -2   6   6 15.6181 8.97281  -3
   2   6   6 15.6181 8.97281  -2
  -2   6   6 15.6181 8.97281   1
   2   6   6 26.9980 8.50135  -2
  -2   6   6 26.9980 8.50135   1
  -1   6   6 -4.7503 7.25356  -3
  -1   6   6 -4.7503 7.25356   1
   3   6   3 69.5695 7.49610  -2
   0   6   6 69.5695 7.49610   1
   3   6   3 62.5275 11.9890  -4
   0   6   6 62.5275 11.9890  -3
   3   6   3 62.5275 11.9890  -2
   0   6   6 62.5275 11.9890   1
   1   6   6 7.12912 6.30611  -3
   1   6   6 7.12912 6.30611   1
   4   6   0 43.2287 10.2529  -2
   2   6   6 43.2287 10.2529   1
   4   6   0 64.0074 18.0150  -4
   2   6   6 64.0074 18.0150  -3
   2   6   6 64.0074 18.0150   1
   3   6   6 57.5434 6.46347   1
   4   6   6 24.7541 9.77538  -3
   4   6   6 24.7541 9.77538   1
  -6   6   4 35.5292 15.5867  -2
   5   6   6 35.5292 15.5867   1
  -6   6   4 26.0769 16.1668  -4
   5   6   6 26.0769 16.1668   1
  -6   6   5 20.9411 21.9429  -4
   6   6   6 20.9411 21.9429   1
  -7   6   7 40.1005 20.0684  -4
   7   6   6 40.1005 20.0684   1
  -7   6   7 52.6716 16.4280  -2
   7   6   6 52.6716 16.4280   1
   8   6   6 8.71538 4.77855   1
  -8   6  10 39.1557 23.7717  -4
   9   6   6 39.1557 23.7717   1
  -8   6   9 23.2903 30.3930  -2
   9   6   6 23.2903 30.3930   1
  -1   7  14 80.9228 18.9403  -4
  -8   7   6 80.9228 18.9403   1
  -1   7  13 194.810 16.4256  -2
  -7   7   6 194.810 16.4256   1
   0   7  11 112.262 17.2184  -4
  -6   7   6 112.262 17.2184   1
  -5   7   6 373.748 12.7037   1
   1   7   9 72.4829 15.8456  -2
  -4   7   6 72.4829 15.8456   1
   1   7   9 67.9003 14.5318  -4
   1   7   9 67.9003 14.5318  -2
  -4   7   6 67.9003 14.5318   1
   1   7   9 91.1303 25.4693  -4
  -4   7   6 91.1303 25.4693  -3
   1   7   9 91.1303 25.4693  -2
  -4   7   6 91.1303 25.4693   1
  -3   7   6 286.150 24.1994  -3
  -3   7   6 286.150 24.1994   1
   2   7   6 15.2510 8.10260  -2
  -2   7   6 15.2510 8.10260   1
   2   7   6 8.05504 16.2860  -4
  -2   7   6 8.05504 16.2860  -3
   2   7   6 8.05504 16.2860  -2
  -2   7   6 8.05504 16.2860   1
  -1   7   6 377.979 19.7886  -3
  -1   7   6 377.979 19.7886   1
   3   7   3 1.07573 8.13648  -2
   0   7   6 1.07573 8.13648   1
   3   7   3 7.91390 12.7397  -4
   0   7   6 7.91390 12.7397  -3
   3   7   3 7.91390 12.7397  -2
   0   7   6 7.91390 12.7397   1
   1   7   6 283.528 17.5133  -3
   1   7   6 283.528 17.5133   1
   4   7   0 20.0402 17.5840  -4
   2   7   6 20.0402 17.5840  -3
   2   7   6 20.0402 17.5840   1
   4   7   0 1.59065 10.9074  -2
   2   7   6 1.59065 10.9074   1
   3   7   6 322.832 15.1379   1
   4   7   6 -4.9031 15.0026  -3
   4   7   6 -4.9031 15.0026   1
   5   7   6 456.236 16.0937   1
  -6   7   5 97.0718 25.1700  -4
   6   7   6 97.0718 25.1700   1
   6   7   6 59.6940 28.5297  -3
   6   7   6 59.6940 28.5297   1
  -7   7   7 143.978 21.8228  -2
   7   7   6 143.978 21.8228   1
   8   7   6 13.4822 6.83506   1
  -7   8   6 46.2092 16.5506   1
   0   8  11 1183.52 39.2801  -4
  -6   8   6 1183.52 39.2801   1
  -5   8   6 7.68838 5.84186   1
   1   8   9 1441.88 60.2458  -4
  -4   8   6 1441.88 60.2458  -3
   1   8   9 1441.88 60.2458  -2
  -4   8   6 1441.88 60.2458   1
   1   8   9 1470.51 66.2068  -2
  -4   8   6 1470.51 66.2068   1
   1   8   9 1487.30 53.7859  -4
   1   8   9 1487.30 53.7859  -2
  -4   8   6 1487.30 53.7859   1
  -3   8   6 16.8289 20.1542  -3
  -3   8   6 16.8289 20.1542   1
   2   8   6 1840.79 36.7475  -2
  -2   8   6 1840.79 36.7475   1
   2   8   6 1850.96 66.5496  -4
  -2   8   6 1850.96 66.5496  -3
   2   8   6 1850.96 66.5496  -2
  -2   8   6 1850.96 66.5496   1
  -1   8   6 -0.2728 13.3117  -3
  -1   8   6 -0.2728 13.3117   1
   3   8   3 2025.04 53.2745  -4
   0   8   6 2025.04 53.2745  -3
   3   8   3 2025.04 53.2745  -2
   0   8   6 2025.04 53.2745   1
   3   8   3 2066.00 46.4599  -2
   0   8   6 2066.00 46.4599   1
   1   8   6 13.8362 13.2258  -3
   1   8   6 13.8362 13.2258   1
   4   8   0 2059.05 47.5512  -2
   2   8   6 2059.05 47.5512   1
   2   8   6 2031.56 83.6079  -3
   2   8   6 2031.56 83.6079   1
   3   8   6 5.54343 6.32544   1
   4   8   6 1210.87 59.9399  -3
   4   8   6 1210.87 59.9399   1
   5   8   6 20.6243 8.34647   1
   6   8   6 1457.16 73.8385  -3
   6   8   6 1457.16 73.8385   1
  -5   9   6 351.103 16.5976   1
   1   9   9 24.6878 18.6421  -2
  -4   9   6 24.6878 18.6421   1
   1   9   9 29.6286 24.4915  -4
   1   9   9 29.6286 24.4915  -2
  -4   9   6 29.6286 24.4915   1
  -3   9   6 395.797 33.4023  -3
  -3   9   6 395.797 33.4023   1
   2   9   6 83.6243 15.2658  -2
  -2   9   6 83.6243 15.2658   1
   2   9   6 75.6238 23.8068  -4
  -2   9   6 75.6238 23.8068  -3
   2   9   6 75.6238 23.8068  -2
  -2   9   6 75.6238 23.8068   1
  -1   9   6 637.741 28.9772  -3
  -1   9   6 637.741 28.9772   1
   3   9   4 637.223 35.6721  -4
  -1   9   6 637.223 35.6721   1
   3   9   3 -0.0069 18.4921  -4
   0   9   6 -0.0069 18.4921  -3
   3   9   3 -0.0069 18.4921  -2
   0   9   6 -0.0069 18.4921   1
   3   9   3 4.42167 16.2027  -2
   0   9   6 4.42167 16.2027   1
   1   9   6 794.019 31.5516  -3
   1   9   6 794.019 31.5516   1
   4   9   1 774.169 39.0000  -4
   1   9   6 774.169 39.0000   1
   4   9   0 -15.598 13.1174  -2
   2   9   6 -15.598 13.1174   1
   2   9   6 -32.148 27.0186  -3
   2   9   6 -32.148 27.0186   1
   3   9   6 409.288 18.8737   1
   4   9   6 -4.4703 6.84538   1
   5   9   6 229.235 17.2687   1
  -3  10   6 -3.1546 14.9966   1
   2  10   6 -13.079 24.5294  -4
  -2  10   6 -13.079 24.5294  -3
   2  10   6 -13.079 24.5294  -2
  -2  10   6 -13.079 24.5294   1
   3  10   4 0.51495 22.7061  -4
  -1  10   6 0.51495 22.7061   1
  -1  10   6 5.84684 23.0885  -3
  -1  10   6 5.84684 23.0885   1
   3  10   3 41.6890 16.8819  -2
   0  10   6 41.6890 16.8819   1
   3  10   3 33.6656 38.0368  -4
   0  10   6 33.6656 38.0368  -3
   3  10   3 33.6656 38.0368  -2
   0  10   6 33.6656 38.0368   1
   1  10   6 -24.856 31.0512  -3
   1  10   6 -24.856 31.0512   1
   4  10   1 24.0931 22.7031  -4
   1  10   6 24.0931 22.7031   1
   4  10   0 5.53608 15.3343  -2
   2  10   6 5.53608 15.3343   1
   3  10   6 6.80056 14.9578   1
  -2   0  19 -32.988 22.2859  -4
 -11   0   7 -32.988 22.2859   1
  -1   0  16 12.4609 23.9801  -4
  -9   0   7 12.4609 23.9801   1
  -1   0  15 72.4572 22.7040  -2
  -8   0   7 72.4572 22.7040   1
  -7   0   7 17.8682 5.06130   1
  -6   0   7 0.66996 3.77195   1
  -5   0   7 68.7780 7.50164   1
  -4   0   7 -2.0487 2.03826   1
   2   0   8 66.4768 14.7637  -4
   2   0   8 66.4768 14.7637  -2
  -3   0   7 66.4768 14.7637   1
   2   0   8 42.3828 4.00810  -2
  -3   0   7 42.3828 4.00810   1
  -2   0   7 0.20857 1.68567   1
   3   0   5 79.8748 6.38024  -2
  -1   0   7 79.8748 6.38024   1
   3   0   5 75.7974 12.8822  -4
  -1   0   7 75.7974 12.8822  -3
   3   0   5 75.7974 12.8822  -2
  -1   0   7 75.7974 12.8822   1
   0   0   7 8.90945 9.01982  -3
   0   0   7 8.90945 9.01982   1
   4   0   2 304.367 15.6031  -4
   4   0   2 304.367 15.6031  -2
   1   0   7 304.367 15.6031   1
   4   0   2 307.243 13.5982  -4
   1   0   7 307.243 13.5982   1
   2   0   7 1.71509 8.88275  -3
   2   0   7 1.71509 8.88275   1
  -5   0   1 62.0863 10.4551  -4
   3   0   7 62.0863 10.4551   1
   4   0   7 2.02966 2.67299   1
   5   0   7 391.816 8.99537   1
  -7   0   5 21.8298 9.56057  -2
   6   0   7 21.8298 9.56057   1
   7   0   7 243.387 12.6737   1
  -8   0   7 7.51623 17.7868  -2
   8   0   7 7.51623 17.7868   1
   9   0   7 376.181 17.8001   1
  -9   0  10 1.23057 13.9292  -2
  10   0   7 1.23057 13.9292   1
  11   0   7 291.556 20.7666   1
  -2   1  19 -15.374 22.4668  -4
 -11   1   7 -15.374 22.4668   1
 -10   1   7 288.614 13.9968   1
  -1   1  16 19.3810 12.0893  -4
  -9   1   7 19.3810 12.0893   1
  -1   1  15 473.388 16.9626  -2
  -8   1   7 473.388 16.9626   1
  -7   1   7 54.4442 5.26769   1
  -6   1   7 902.205 12.4756   1
  -5   1   7 228.027 5.97780   1
  -4   1   7 401.422 6.73697   1
   2   1   8 1082.46 16.7600  -2
  -3   1   7 1082.46 16.7600   1
  -2   1   7 1045.71 11.8687   1
   3   1   5 211.704 10.2548  -4
  -1   1   7 211.704 10.2548  -3
   3   1   5 211.704 10.2548  -2
  -1   1   7 211.704 10.2548   1
   3   1   5 220.683 6.07948  -2
  -1   1   7 220.683 6.07948   1
   3   1   5 228.554 15.8966  -4
   3   1   5 228.554 15.8966  -2
  -1   1   7 228.554 15.8966   1
   0   1   7 2297.66 31.3172  -3
   0   1   7 2297.66 31.3172   1
   4   1   2 2649.20 78.9330  -4
   4   1   2 2649.20 78.9330  -2
   1   1   7 2649.20 78.9330   1
   2   1   7 1342.80 17.9949  -3
   2   1   7 1342.80 17.9949   1
   3   1   7 1334.46 30.1870  -3
   3   1   7 1334.46 30.1870   1
  -6   1   2 1112.24 25.0261  -2
   4   1   7 1112.24 25.0261   1
   5   1   7 585.112 27.8621  -3
   5   1   7 585.112 27.8621   1
  -7   1   5 642.422 14.7370  -2
   6   1   7 642.422 14.7370   1
   7   1   7 503.750 11.0837   1
  -8   1   7 586.458 19.0949  -2
   8   1   7 586.458 19.0949   1
   9   1   7 257.751 10.7798   1
  -9   1  10 359.199 17.4838  -2
  10   1   7 359.199 17.4838   1
  11   1   7 410.823 15.0906   1
 -11   2   7 773.436 45.5027   1
 -10   2   7 -2.9357 5.42784   1
  -1   2  16 1585.45 55.2736  -4
  -9   2   7 1585.45 55.2736   1
  -1   2  15 4.66415 9.32364  -2
  -8   2   7 4.66415 9.32364   1
  -7   2   7 2944.42 35.3978   1
  -6   2   7 4.03488 3.03856   1
  -5   2   7 3879.55 43.3889   1
  -4   2   7 39.1050 11.5438  -3
  -4   2   7 39.1050 11.5438   1
   2   2   8 4834.13 143.198  -4
   2   2   8 4834.13 143.198  -2
  -3   2   7 4834.13 143.198   1
   2   2   8 4862.83 84.1035  -2
  -3   2   7 4862.83 84.1035   1
  -2   2   7 241.773 11.8251  -3
  -2   2   7 241.773 11.8251   1
   3   2   5 4475.19 66.9931  -4
  -1   2   7 4475.19 66.9931  -3
   3   2   5 4475.19 66.9931  -2
  -1   2   7 4475.19 66.9931   1
   3   2   5 4490.82 77.6868  -2
  -1   2   7 4490.82 77.6868   1
   0   2   7 14.9885 3.05220  -3
   0   2   7 14.9885 3.05220   1
   4   2   2 3894.35 72.5504  -2
   1   2   7 3894.35 72.5504   1
   1   2   7 3706.63 100.515  -3
   1   2   7 3706.63 100.515   1
   2   2   7 114.420 5.05497  -3
   2   2   7 114.420 5.05497   1
   3   2   7 3049.68 59.5490  -3
   3   2   7 3049.68 59.5490   1
  -6   2   2 14.0572 7.86832  -2
   4   2   7 14.0572 7.86832   1
   5   2   7 452.006 23.5761  -3
   5   2   7 452.006 23.5761   1
  -7   2   5 33.5920 7.68675  -2
   6   2   7 33.5920 7.68675   1
   7   2   7 1154.95 18.6768   1
  -8   2   7 -5.2670 12.8731  -2
   8   2   7 -5.2670 12.8731   1
  -8   2   8 24.1767 17.6850  -4
   8   2   7 24.1767 17.6850   1
   9   2   7 344.177 12.2170   1
  -9   2  10 6.39629 12.4037  -2
  10   2   7 6.39629 12.4037   1
  11   2   7 219.148 16.0775   1
 -11   3   7 15.9579 15.5419   1
 -10   3   7 359.147 16.4964   1
  -1   3  16 40.9743 13.7102  -4
  -9   3   7 40.9743 13.7102   1
  -1   3  15 505.862 17.5636  -2
  -8   3   7 505.862 17.5636   1
  -7   3   7 42.5591 5.01721   1
  -6   3   7 689.360 12.3731   1
  -5   3   7 88.3740 7.28361   1
  -4   3   7 1578.33 51.4651  -3
  -4   3   7 1578.33 51.4651   1
   2   3   8 521.520 13.5054  -2
  -3   3   7 521.520 13.5054   1
   2   3   8 531.854 22.6740  -4
   2   3   8 531.854 22.6740  -2
  -3   3   7 531.854 22.6740   1
  -2   3   7 1232.25 40.8966  -3
  -2   3   7 1232.25 40.8966   1
   3   3   5 675.966 17.4904  -2
  -1   3   7 675.966 17.4904   1
   3   3   5 706.343 14.1946  -4
  -1   3   7 706.343 14.1946  -3
   3   3   5 706.343 14.1946  -2
  -1   3   7 706.343 14.1946   1
   0   3   7 915.126 24.5618  -3
   0   3   7 915.126 24.5618   1
   4   3   2 1019.46 24.0313  -2
   1   3   7 1019.46 24.0313   1
   2   3   7 881.058 24.3583  -3
   2   3   7 881.058 24.3583   1
   3   3   7 418.675 25.4592  -3
   3   3   7 418.675 25.4592   1
   4   3   7 1012.53 17.1948   1
   5   3   7 954.810 28.3364  -3
   5   3   7 954.810 28.3364   1
  -7   3   5 735.037 19.2845  -2
   6   3   7 735.037 19.2845   1
   7   3   7 415.839 9.81227   1
  -8   3   7 292.173 18.8244  -2
   8   3   7 292.173 18.8244   1
  -8   3   8 313.342 18.3481  -4
   8   3   7 313.342 18.3481   1
   9   3   7 363.521 11.4349   1
  -9   3  10 273.331 20.5545  -2
  10   3   7 273.331 20.5545   1
  11   3   7 366.527 28.3003   1
 -10   4   7 6.25515 9.98545   1
  -9   4   7 11.0957 9.02429   1
  -1   4  15 64.7521 12.4077  -2
  -8   4   7 64.7521 12.4077   1
  -7   4   7 96.7721 6.71770   1
  -6   4   7 10.0224 3.64703   1
   1   4  11 -2.0983 18.3634  -4
  -5   4   7 -2.0983 18.3634   1
  -4   4   7 12.3780 12.6672  -3
  -4   4   7 12.3780 12.6672   1
   2   4   8 15.4726 7.48424  -2
  -3   4   7 15.4726 7.48424   1
   2   4   8 15.7542 13.8837  -4
  -3   4   7 15.7542 13.8837  -3
   2   4   8 15.7542 13.8837  -2
  -3   4   7 15.7542 13.8837   1
   2   4   8 18.6365 9.19095  -4
   2   4   8 18.6365 9.19095  -2
  -3   4   7 18.6365 9.19095   1
  -2   4   7 29.6060 9.05733  -3
  -2   4   7 29.6060 9.05733   1
   3   4   5 9.55275 5.40774  -2
  -1   4   7 9.55275 5.40774   1
   3   4   5 15.7728 6.07595  -4
  -1   4   7 15.7728 6.07595  -3
   3   4   5 15.7728 6.07595  -2
  -1   4   7 15.7728 6.07595   1
   0   4   7 -1.1381 5.83682  -3
   0   4   7 -1.1381 5.83682   1
   4   4   2 132.265 16.0784  -4
   1   4   7 132.265 16.0784  -3
   4   4   2 132.265 16.0784  -2
   1   4   7 132.265 16.0784   1
   4   4   2 118.097 9.70534  -2
   1   4   7 118.097 9.70534   1
   2   4   7 6.14745 6.25397  -3
   2   4   7 6.14745 6.25397   1
   3   4   7 146.463 10.5929  -3
   3   4   7 146.463 10.5929   1
   4   4   7 37.1645 5.31613   1
   5   4   7 870.234 28.3986  -3
   5   4   7 870.234 28.3986   1
   6   4   7 -0.1166 5.27300   1
   7   4   7 136.022 8.03504   1
  -8   4   7 22.6939 12.4302  -2
   8   4   7 22.6939 12.4302   1
  -8   4   8 55.1695 19.4241  -4
   8   4   7 55.1695 19.4241   1
   9   4   7 269.830 10.5518   1
  -9   4  10 -10.261 15.5974  -2
  10   4   7 -10.261 15.5974   1
  -9   4  11 -3.2147 27.6778  -4
  -9   4  10 -3.2147 27.6778  -2
  10   4   7 -3.2147 27.6778   1
  -1   5  16 26.5496 14.6085  -4
  -9   5   7 26.5496 14.6085   1
  -1   5  15 289.607 19.2856  -2
  -8   5   7 289.607 19.2856   1
   0   5  13 60.5961 19.0556  -4
  -7   5   7 60.5961 19.0556   1
  -6   5   7 209.144 7.96532   1
   1   5  11 147.219 27.7382  -4
   1   5  11 147.219 27.7382  -2
  -5   5   7 147.219 27.7382   1
  -4   5   7 857.826 37.0594  -3
  -4   5   7 857.826 37.0594   1
   2   5   8 398.649 15.9817  -2
  -3   5   7 398.649 15.9817   1
   2   5   8 443.187 26.0323  -4
  -3   5   7 443.187 26.0323  -3
   2   5   8 443.187 26.0323  -2
  -3   5   7 443.187 26.0323   1
   2   5   8 437.271 17.9258  -4
   2   5   8 437.271 17.9258  -2
  -3   5   7 437.271 17.9258   1
  -2   5   7 579.786 20.9210  -3
  -2   5   7 579.786 20.9210   1
   3   5   5 368.799 14.0578  -2
  -1   5   7 368.799 14.0578   1
   3   5   5 350.513 11.9041  -4
  -1   5   7 350.513 11.9041  -3
   3   5   5 350.513 11.9041  -2
  -1   5   7 350.513 11.9041   1
   0   5   7 292.527 14.7148  -3
   0   5   7 292.527 14.7148   1
   4   5   2 542.079 18.3350  -2
   1   5   7 542.079 18.3350   1
   4   5   2 498.725 27.2285  -4
   1   5   7 498.725 27.2285  -3
   4   5   2 498.725 27.2285  -2
   1   5   7 498.725 27.2285   1
   4   5   2 539.228 28.1534  -4
   4   5   2 539.228 28.1534  -2
   1   5   7 539.228 28.1534   1
   2   5   7 736.122 17.6790  -3
   2   5   7 736.122 17.6790   1
   3   5   7 453.468 14.4796  -3
   3   5   7 453.468 14.4796   1
  -5   5   1 536.133 26.3184  -2
   3   5   7 536.133 26.3184   1
   4   5   7 380.910 15.0517   1
   5   5   7 642.679 25.9525  -3
   5   5   7 642.679 25.9525   1
  -7   5   5 509.183 20.8291  -2
   6   5   7 509.183 20.8291   1
   7   5   7 357.449 9.88833   1
  -8   5   8 424.706 28.6542  -4
   8   5   7 424.706 28.6542   1
  -8   5   7 431.296 25.6927  -2
   8   5   7 431.296 25.6927   1
   9   5   7 232.089 12.3482   1
  -1   6  16 941.421 46.2428  -4
  -9   6   7 941.421 46.2428   1
  -1   6  15 -2.9634 13.6256  -2
  -8   6   7 -2.9634 13.6256   1
   0   6  13 1480.75 42.5993  -4
  -7   6   7 1480.75 42.5993   1
  -6   6   7 7.66835 5.44083   1
   1   6  11 2223.83 84.7974  -4
   1   6  11 2223.83 84.7974  -2
  -5   6   7 2223.83 84.7974   1
  -4   6   7 -4.1049 8.42027  -3
  -4   6   7 -4.1049 8.42027   1
   2   6   8 2375.20 42.6806  -2
  -3   6   7 2375.20 42.6806   1
   2   6   8 2457.36 54.7029  -4
   2   6   8 2457.36 54.7029  -2
  -3   6   7 2457.36 54.7029   1
   2   6   8 2347.63 75.6505  -4
  -3   6   7 2347.63 75.6505  -3
   2   6   8 2347.63 75.6505  -2
  -3   6   7 2347.63 75.6505   1
  -2   6   7 101.654 10.1837  -3
  -2   6   7 101.654 10.1837   1
   3   6   5 2602.82 52.6445  -2
  -1   6   7 2602.82 52.6445   1
   3   6   5 2585.68 60.1472  -4
  -1   6   7 2585.68 60.1472  -3
   3   6   5 2585.68 60.1472  -2
  -1   6   7 2585.68 60.1472   1
   0   6   7 44.6077 10.4229  -3
   0   6   7 44.6077 10.4229   1
   4   6   2 1583.73 42.5691  -4
   1   6   7 1583.73 42.5691  -3
   4   6   2 1583.73 42.5691  -2
   1   6   7 1583.73 42.5691   1
   4   6   2 1597.45 37.0190  -2
   1   6   7 1597.45 37.0190   1
   2   6   7 8.16613 6.97910  -3
   2   6   7 8.16613 6.97910   1
   3   6   7 1416.89 29.5785  -3
   3   6   7 1416.89 29.5785   1
   4   6   7 71.5283 18.8466  -3
  -6   6   2 71.5283 18.8466  -2
   4   6   7 71.5283 18.8466   1
   5   6   7 725.280 44.2059  -3
   5   6   7 725.280 44.2059   1
  -7   6   5 15.2750 21.0417  -2
   6   6   7 15.2750 21.0417   1
   7   6   7 557.152 12.8649   1
  -8   6   8 29.2097 12.3616  -4
   8   6   7 29.2097 12.3616   1
  -8   6   7 28.1151 30.7781  -2
   8   6   7 28.1151 30.7781   1
   9   6   7 308.602 13.1296   1
  -8   7   7 386.311 29.1436   1
   0   7  13 69.0032 18.0929  -4
  -7   7   7 69.0032 18.0929   1
   0   7  12 377.557 24.2296  -2
  -6   7   7 377.557 24.2296   1
  -5   7   7 91.8992 12.6929   1
  -4   7   7 152.946 17.4549  -3
  -4   7   7 152.946 17.4549   1
   2   7   8 311.223 14.4058  -2
  -3   7   7 311.223 14.4058   1
   2   7   8 314.935 26.7969  -4
  -3   7   7 314.935 26.7969  -3
   2   7   8 314.935 26.7969  -2
  -3   7   7 314.935 26.7969   1
   2   7   8 341.019 18.0120  -4
   2   7   8 341.019 18.0120  -2
  -3   7   7 341.019 18.0120   1
  -2   7   7 751.754 36.6133  -3
  -2   7   7 751.754 36.6133   1
   3   7   5 103.969 14.3543  -4
  -1   7   7 103.969 14.3543  -3
   3   7   5 103.969 14.3543  -2
  -1   7   7 103.969 14.3543   1
   3   7   5 105.831 8.69776  -2
  -1   7   7 105.831 8.69776   1
   0   7   7 810.685 28.4951  -3
   0   7   7 810.685 28.4951   1
   4   7   2 470.588 19.5235  -2
   1   7   7 470.588 19.5235   1
   4   7   2 548.757 39.5015  -4
   1   7   7 548.757 39.5015  -3
   4   7   2 548.757 39.5015  -2
   1   7   7 548.757 39.5015   1
   2   7   7 611.644 24.4227  -3
   2   7   7 611.644 24.4227   1
   3   7   7 381.679 17.4787  -3
   3   7   7 381.679 17.4787   1
   4   7   7 506.906 19.6675   1
   5   7   7 202.457 32.0399  -3
   5   7   7 202.457 32.0399   1
  -7   7   5 343.988 20.5852  -2
   6   7   7 343.988 20.5852   1
   7   7   7 264.862 39.3642  -3
   7   7   7 264.862 39.3642   1
  -7   7   6 300.202 33.9869  -4
   7   7   7 300.202 33.9869   1
  -8   7   7 237.207 40.2878  -2
   8   7   7 237.207 40.2878   1
  -8   7   8 209.937 26.1814  -4
   8   7   7 209.937 26.1814   1
   0   8  12 26.5093 23.8622  -2
  -6   8   7 26.5093 23.8622   1
  -5   8   7 5.75616 8.13234   1
  -4   8   7 38.3534 21.4716  -3
  -4   8   7 38.3534 21.4716   1
   2   8   8 21.6696 10.8904  -2
  -3   8   7 21.6696 10.8904   1
   2   8   8 18.1210 22.1538  -4
   2   8   8 18.1210 22.1538  -2
  -3   8   7 18.1210 22.1538   1
   2   8   8 15.7169 22.0063  -4
  -3   8   7 15.7169 22.0063  -3
   2   8   8 15.7169 22.0063  -2
  -3   8   7 15.7169 22.0063   1
  -2   8   7 7.61993 17.8727  -3
  -2   8   7 7.61993 17.8727   1
   3   8   5 36.6137 14.7002  -4
  -1   8   7 36.6137 14.7002  -3
   3   8   5 36.6137 14.7002  -2
  -1   8   7 36.6137 14.7002   1
   3   8   5 51.3023 9.43687  -2
  -1   8   7 51.3023 9.43687   1
   0   8   7 12.0456 14.0667  -3
   0   8   7 12.0456 14.0667   1
   4   8   3 3.08773 17.4172  -4
   0   8   7 3.08773 17.4172   1
   4   8   2 91.6251 30.0534  -4
   1   8   7 91.6251 30.0534  -3
   4   8   2 91.6251 30.0534  -2
   1   8   7 91.6251 30.0534   1
   4   8   2 84.9254 21.4478  -4
   1   8   7 84.9254 21.4478  -3
   1   8   7 84.9254 21.4478   1
   4   8   2 78.1814 13.1454  -2
   1   8   7 78.1814 13.1454   1
   2   8   7 21.9797 23.1839  -3
   2   8   7 21.9797 23.1839   1
   3   8   7 51.0862 9.25500   1
   4   8   7 29.2830 8.53243   1
   5   8   7 146.145 14.1351   1
  -7   8   5 34.8756 21.5134  -2
   6   8   7 34.8756 21.5134   1
  -7   8   5 14.7725 25.4163  -4
   6   8   7 14.7725 25.4163   1
   7   8   7 96.7763 12.7445   1
   2   9   9 102.839 26.5253  -4
  -4   9   7 102.839 26.5253   1
   2   9   8 156.712 18.7805  -2
  -3   9   7 156.712 18.7805   1
   2   9   8 115.455 27.9970  -4
  -3   9   7 115.455 27.9970  -3
   2   9   8 115.455 27.9970  -2
  -3   9   7 115.455 27.9970   1
  -2   9   7 175.495 24.9241  -3
  -2   9   7 175.495 24.9241   1
   3   9   5 110.207 11.9384  -2
  -1   9   7 110.207 11.9384   1
   3   9   5 119.602 19.1576  -4
  -1   9   7 119.602 19.1576  -3
   3   9   5 119.602 19.1576  -2
  -1   9   7 119.602 19.1576   1
   0   9   7 256.577 21.6502  -3
   0   9   7 256.577 21.6502   1
   4   9   3 329.623 28.4006  -4
   0   9   7 329.623 28.4006   1
   4   9   2 331.564 31.5627  -4
   1   9   7 331.564 31.5627  -3
   1   9   7 331.564 31.5627   1
   4   9   2 315.373 18.8280  -2
   1   9   7 315.373 18.8280   1
   4   9   2 339.477 42.2851  -4
   1   9   7 339.477 42.2851  -3
   4   9   2 339.477 42.2851  -2
   1   9   7 339.477 42.2851   1
   2   9   7 291.293 36.6521  -3
   2   9   7 291.293 36.6521   1
   5   9   0 292.921 27.9792  -4
   2   9   7 292.921 27.9792   1
   3   9   7 172.155 15.3377   1
   4   9   7 197.324 16.1223   1
   5   9   7 145.587 18.8898   1
   3  10   5 761.738 44.5442  -4
  -1  10   7 761.738 44.5442  -3
   3  10   5 761.738 44.5442  -2
  -1  10   7 761.738 44.5442   1
   4  10   3 8.07949 22.7247  -4
   0  10   7 8.07949 22.7247   1
   0  10   7 8.56392 18.1408  -3
   0  10   7 8.56392 18.1408   1
   4  10   2 700.090 40.6938  -2
   1  10   7 700.090 40.6938   1
 -11   0   8 9.93958 13.9299   1
  -1   0  18 457.155 31.6255  -4
 -10   0   8 457.155 31.6255   1
  -1   0  17 -4.7488 26.0601  -2
  -9   0   8 -4.7488 26.0601   1
   0   0  15 622.941 39.7110  -4
  -8   0   8 622.941 39.7110   1
   0   0  14 17.0581 11.0806  -2
  -7   0   8 17.0581 11.0806   1
  -6   0   8 889.142 19.7583   1
  -5   0   8 1.30140 3.52732   1
   2   0  10 628.306 17.2525  -2
  -4   0   8 628.306 17.2525   1
  -3   0   8 1.33399 2.14122   1
   3   0   7 602.123 13.7583  -2
  -2   0   8 602.123 13.7583   1
   3   0   7 632.237 28.9207  -4
   3   0   7 632.237 28.9207  -2
  -2   0   8 632.237 28.9207   1
  -1   0   8 1.69115 1.93398   1
   1   0   8 -2.3334 6.34946  -3
   1   0   8 -2.3334 6.34946   1
   5   0   1 185.392 13.1567  -4
   2   0   8 185.392 13.1567   1
   2   0   8 172.863 14.1139  -3
   2   0   8 172.863 14.1139   1
   3   0   8 1.58551 10.9451  -3
   3   0   8 1.58551 10.9451   1
   4   0   8 265.011 18.9815  -3
   4   0   8 265.011 18.9815   1
  -7   0   3 89.9985 16.9892  -2
   5   0   8 89.9985 16.9892   1
   6   0   8 24.3766 6.40205   1
   7   0   8 6.35517 5.90343   1
   8   0   8 18.7289 7.41599   1
  -9   0   8 19.2452 19.0385  -2
   9   0   8 19.2452 19.0385   1
  10   0   8 45.2599 10.4768   1
 -11   1   8 185.393 23.4779   1
  -1   1  18 125.994 18.3789  -4
 -10   1   8 125.994 18.3789   1
  -1   1  17 388.471 18.9930  -2
  -9   1   8 388.471 18.9930   1
   0   1  15 1010.58 27.0423  -4
  -8   1   8 1010.58 27.0423   1
  -7   1   8 708.205 16.5053   1
  -6   1   8 974.289 16.8914   1
  -5   1   8 868.022 12.0377   1
   2   1  10 653.439 12.4213  -2
  -4   1   8 653.439 12.4213   1
   2   1  10 684.552 35.5401  -4
   2   1  10 684.552 35.5401  -2
  -4   1   8 684.552 35.5401   1
  -3   1   8 1051.71 14.0232   1
   3   1   7 1736.34 27.2618  -2
  -2   1   8 1736.34 27.2618   1
   3   1   7 1807.46 43.3941  -4
   3   1   7 1807.46 43.3941  -2
  -2   1   8 1807.46 43.3941   1
  -1   1   8 459.880 15.2003  -3
  -1   1   8 459.880 15.2003   1
   4   1   4 1560.50 40.7246  -4
   0   1   8 1560.50 40.7246  -3
   0   1   8 1560.50 40.7246   1
   4   1   4 1731.49 51.4319  -4
   0   1   8 1731.49 51.4319  -3
   4   1   4 1731.49 51.4319  -2
   0   1   8 1731.49 51.4319   1
   4   1   4 1715.66 45.9482  -2
   0   1   8 1715.66 45.9482   1
   1   1   8 1308.60 20.2208  -3
   1   1   8 1308.60 20.2208   1
   2   1   8 2006.90 27.7266   1
   3   1   8 1289.46 25.1824  -3
   3   1   8 1289.46 25.1824   1
   6   1   0 1206.77 36.8100  -2
   3   1   8 1206.77 36.8100   1
   4   1   8 1093.87 39.8764  -3
   4   1   8 1093.87 39.8764   1
  -7   1   3 864.706 16.7357  -2
   5   1   8 864.706 16.7357   1
   6   1   8 216.829 7.15102   1
  -8   1   6 538.254 29.0010  -2
   7   1   8 538.254 29.0010   1
   8   1   8 479.854 13.5285   1
  -9   1   8 275.845 15.2821  -2
   9   1   8 275.845 15.2821   1
  10   1   8 68.6983 8.20650   1
 -11   2   8 -4.5643 16.9463   1
  -1   2  18 84.6922 16.6836  -4
 -10   2   8 84.6922 16.6836   1
  -1   2  17 14.6564 21.1213  -2
  -9   2   8 14.6564 21.1213   1
   0   2  15 234.657 18.1524  -4
  -8   2   8 234.657 18.1524   1
  -7   2   8 4.07133 4.68650   1
  -6   2   8 779.415 13.1485   1
  -5   2   8 12.3302 3.00066   1
   2   2  10 1399.00 26.2082  -2
  -4   2   8 1399.00 26.2082   1
   2   2  10 1452.10 56.3550  -4
   2   2  10 1452.10 56.3550  -2
  -4   2   8 1452.10 56.3550   1
  -3   2   8 -6.1298 9.94664  -3
  -3   2   8 -6.1298 9.94664   1
   3   2   7 1587.51 27.6153  -2
  -2   2   8 1587.51 27.6153   1
   3   2   7 1770.47 40.7570  -4
  -2   2   8 1770.47 40.7570  -3
   3   2   7 1770.47 40.7570  -2
  -2   2   8 1770.47 40.7570   1
  -1   2   8 0.14057 3.73876  -3
  -1   2   8 0.14057 3.73876   1
   4   2   4 2135.39 41.8532  -4
   0   2   8 2135.39 41.8532  -3
   4   2   4 2135.39 41.8532  -2
   0   2   8 2135.39 41.8532   1
   4   2   4 2050.73 39.7293  -2
   0   2   8 2050.73 39.7293   1
   1   2   8 121.045 4.90477  -3
   1   2   8 121.045 4.90477   1
   2   2   8 2719.78 37.0358  -3
   2   2   8 2719.78 37.0358   1
   3   2   8 41.7811 6.95296  -3
   3   2   8 41.7811 6.95296   1
   4   2   8 2551.72 56.2811  -3
   4   2   8 2551.72 56.2811   1
  -7   2   3 6.61388 6.15851  -2
   5   2   8 6.61388 6.15851   1
   6   2   8 1736.88 22.7714   1
  -8   2   6 7.22712 16.3138  -2
   7   2   8 7.22712 16.3138   1
   8   2   8 1514.53 26.8597   1
  -9   2   8 -12.644 14.0232  -2
   9   2   8 -12.644 14.0232   1
  10   2   8 874.751 20.9226   1
 -11   3   8 292.403 31.9090   1
 -10   3   8 168.887 23.2178   1
  -1   3  17 351.417 20.5945  -2
  -9   3   8 351.417 20.5945   1
   0   3  15 311.658 25.7524  -4
  -8   3   8 311.658 25.7524   1
   0   3  14 329.528 19.1659  -2
  -7   3   8 329.528 19.1659   1
  -6   3   8 611.321 11.8030   1
  -5   3   8 495.440 11.0168   1
   2   3  10 1187.58 31.5451  -4
   2   3  10 1187.58 31.5451  -2
  -4   3   8 1187.58 31.5451   1
   2   3  10 1181.77 24.0365  -2
  -4   3   8 1181.77 24.0365   1
  -3   3   8 834.009 32.2912  -3
  -3   3   8 834.009 32.2912   1
   3   3   7 755.864 16.5962  -2
  -2   3   8 755.864 16.5962   1
   3   3   7 760.870 23.5837  -4
  -2   3   8 760.870 23.5837  -3
   3   3   7 760.870 23.5837  -2
  -2   3   8 760.870 23.5837   1
  -1   3   8 1956.61 44.8285  -3
  -1   3   8 1956.61 44.8285   1
   4   3   4 2184.22 30.8215  -2
   0   3   8 2184.22 30.8215   1
   4   3   4 2252.13 50.5929  -4
   0   3   8 2252.13 50.5929  -3
   4   3   4 2252.13 50.5929  -2
   0   3   8 2252.13 50.5929   1
   1   3   8 1182.72 18.6248  -3
   1   3   8 1182.72 18.6248   1
   2   3   8 938.516 19.6817  -3
   2   3   8 938.516 19.6817   1
   3   3   8 797.942 18.2740  -3
   3   3   8 797.942 18.2740   1
   4   3   8 1059.35 22.6382  -3
   4   3   8 1059.35 22.6382   1
  -7   3   3 785.221 16.0904  -2
   5   3   8 785.221 16.0904   1
   6   3   8 704.521 12.7227   1
  -8   3   5 537.058 29.6598  -2
   7   3   8 537.058 29.6598   1
  -8   3   6 542.862 29.8481  -2
   7   3   8 542.862 29.8481   1
   8   3   8 135.194 8.12807   1
  -9   3   8 448.312 23.0936  -2
   9   3   8 448.312 23.0936   1
  10   3   8 58.6664 8.22009   1
 -10   4   8 621.152 36.5227   1
  -1   4  17 27.4641 21.8870  -2
  -9   4   8 27.4641 21.8870   1
   0   4  15 646.821 33.6007  -4
  -8   4   8 646.821 33.6007   1
  -7   4   8 -1.1751 4.28992   1
  -6   4   8 334.120 9.12826   1
   1   4  11 29.9672 16.0776  -2
  -5   4   8 29.9672 16.0776   1
   2   4  10 332.792 13.0471  -2
  -4   4   8 332.792 13.0471   1
   2   4  10 328.099 17.7430  -4
   2   4  10 328.099 17.7430  -2
  -4   4   8 328.099 17.7430   1
  -3   4   8 17.7236 13.0263  -3
  -3   4   8 17.7236 13.0263   1
   3   4   7 587.075 14.9118  -2
  -2   4   8 587.075 14.9118   1
   3   4   7 600.421 27.5772  -4
  -2   4   8 600.421 27.5772  -3
   3   4   7 600.421 27.5772  -2
  -2   4   8 600.421 27.5772   1
  -1   4   8 13.8627 8.51981  -3
  -1   4   8 13.8627 8.51981   1
   4   4   4 385.526 11.9572  -2
   0   4   8 385.526 11.9572   1
   4   4   4 383.385 17.3993  -4
   0   4   8 383.385 17.3993  -3
   4   4   4 383.385 17.3993  -2
   0   4   8 383.385 17.3993   1
   1   4   8 7.02955 6.25149  -3
   1   4   8 7.02955 6.25149   1
   2   4   8 95.1720 9.04711  -3
   2   4   8 95.1720 9.04711   1
   3   4   8 6.45228 8.93324  -3
   3   4   8 6.45228 8.93324   1
   4   4   8 38.3268 9.92520  -3
   4   4   8 38.3268 9.92520   1
  -7   4   3 71.6333 15.6586  -2
   5   4   8 71.6333 15.6586   1
   6   4   8 83.2005 15.3235  -3
   6   4   8 83.2005 15.3235   1
  -8   4   6 13.2302 16.8828  -4
   7   4   8 13.2302 16.8828   1
   8   4   8 61.7418 6.54967   1
  -9   4   8 4.21655 15.5679  -2
   9   4   8 4.21655 15.5679   1
  -9   4   9 -5.1637 20.2824  -4
   9   4   8 -5.1637 20.2824   1
  10   4   8 17.5210 8.52767   1
  -1   5  17 396.772 26.9723  -2
  -9   5   8 396.772 26.9723   1
   0   5  15 300.017 28.1007  -4
  -8   5   8 300.017 28.1007   1
   0   5  14 398.567 28.9315  -2
  -7   5   8 398.567 28.9315   1
  -6   5   8 408.017 14.5674   1
   1   5  11 691.374 33.4817  -2
  -5   5   8 691.374 33.4817   1
   2   5  10 665.477 21.6915  -2
  -4   5   8 665.477 21.6915   1
   2   5  10 686.801 25.0443  -4
   2   5  10 686.801 25.0443  -2
  -4   5   8 686.801 25.0443   1
  -3   5   8 674.277 31.5758  -3
  -3   5   8 674.277 31.5758   1
   3   5   7 682.216 17.0913  -2
  -2   5   8 682.216 17.0913   1
   3   5   7 759.031 25.8059  -4
  -2   5   8 759.031 25.8059  -3
   3   5   7 759.031 25.8059  -2
  -2   5   8 759.031 25.8059   1
  -1   5   8 813.349 18.9677  -3
  -1   5   8 813.349 18.9677   1
   4   5   4 1174.05 33.5948  -4
   0   5   8 1174.05 33.5948  -3
   4   5   4 1174.05 33.5948  -2
   0   5   8 1174.05 33.5948   1
   4   5   4 1269.13 30.4413  -2
   0   5   8 1269.13 30.4413   1
   1   5   8 526.400 14.2171  -3
   1   5   8 526.400 14.2171   1
   5   5   1 783.749 31.8825  -2
   2   5   8 783.749 31.8825   1
   2   5   8 643.585 22.1752  -3
   2   5   8 643.585 22.1752   1
   3   5   8 479.891 17.0887   1
   4   5   8 769.433 27.5156  -3
   4   5   8 769.433 27.5156   1
  -7   5   3 291.740 22.0460  -2
   5   5   8 291.740 22.0460   1
   6   5   8 390.996 35.3931  -3
   6   5   8 390.996 35.3931   1
  -8   5   6 360.083 19.9804  -4
   7   5   8 360.083 19.9804   1
   8   5   8 133.771 7.93075   1
  -9   5   8 237.129 20.4124  -2
   9   5   8 237.129 20.4124   1
  -9   5   9 230.824 25.9059  -4
   9   5   8 230.824 25.9059   1
   0   6  15 186.770 21.3019  -4
  -8   6   8 186.770 21.3019   1
   0   6  15 193.234 30.4020  -2
  -8   6   8 193.234 30.4020   1
   0   6  14 29.1386 21.1510  -2
  -7   6   8 29.1386 21.1510   1
   1   6  12 296.577 32.8001  -4
  -6   6   8 296.577 32.8001   1
  -5   6   8 74.0094 8.42370   1
   2   6  10 866.072 28.6924  -4
   2   6  10 866.072 28.6924  -2
  -4   6   8 866.072 28.6924   1
   2   6  10 857.134 26.0997  -2
  -4   6   8 857.134 26.0997   1
   2   6  10 824.529 41.6687  -4
  -4   6   8 824.529 41.6687  -3
   2   6  10 824.529 41.6687  -2
  -4   6   8 824.529 41.6687   1
  -3   6   8 53.5362 12.6610  -3
  -3   6   8 53.5362 12.6610   1
   3   6   7 920.179 25.5660  -2
  -2   6   8 920.179 25.5660   1
   3   6   7 948.480 22.7417  -4
  -2   6   8 948.480 22.7417  -3
   3   6   7 948.480 22.7417  -2
  -2   6   8 948.480 22.7417   1
  -1   6   8 14.7955 9.29894  -3
  -1   6   8 14.7955 9.29894   1
   4   6   4 1115.50 29.2631  -2
   0   6   8 1115.50 29.2631   1
   4   6   4 990.636 31.7261  -4
   0   6   8 990.636 31.7261  -3
   4   6   4 990.636 31.7261  -2
   0   6   8 990.636 31.7261   1
   1   6   8 -2.3005 9.63445  -3
   1   6   8 -2.3005 9.63445   1
   2   6   8 1459.49 53.1911  -3
   2   6   8 1459.49 53.1911   1
   3   6   8 14.9207 6.34232   1
   4   6   8 1202.20 37.3194  -3
   4   6   8 1202.20 37.3194   1
   5   6   8 21.3451 11.4898   1
  -7   6   4 949.055 47.3550  -4
   6   6   8 949.055 47.3550   1
   6   6   8 1096.75 58.2512  -3
   6   6   8 1096.75 58.2512   1
  -8   6   6 20.8397 19.3486  -4
   7   6   8 20.8397 19.3486   1
   8   6   8 924.133 19.7412   1
   0   7  14 199.744 21.9938  -2
  -7   7   8 199.744 21.9938   1
   1   7  12 352.482 37.1465  -4
  -6   7   8 352.482 37.1465   1
  -5   7   8 274.474 12.5152   1
   2   7  10 302.224 15.2722  -2
  -4   7   8 302.224 15.2722   1
   2   7  10 297.931 16.0592  -4
   2   7  10 297.931 16.0592  -2
  -4   7   8 297.931 16.0592   1
  -3   7   8 241.453 21.3506  -3
  -3   7   8 241.453 21.3506   1
   3   7   7 610.745 18.4047  -2
  -2   7   8 610.745 18.4047   1
   3   7   7 563.930 31.7972  -4
  -2   7   8 563.930 31.7972  -3
   3   7   7 563.930 31.7972  -2
  -2   7   8 563.930 31.7972   1
  -1   7   8 527.915 24.0021  -3
  -1   7   8 527.915 24.0021   1
   4   7   4 562.869 20.8592  -2
   0   7   8 562.869 20.8592   1
   4   7   4 493.927 24.1217  -4
   0   7   8 493.927 24.1217  -3
   4   7   4 493.927 24.1217  -2
   0   7   8 493.927 24.1217   1
   5   7   2 551.925 30.4360  -4
   1   7   8 551.925 30.4360   1
   1   7   8 516.182 22.9697  -3
   1   7   8 516.182 22.9697   1
   2   7   8 559.627 31.4038  -3
   2   7   8 559.627 31.4038   1
   3   7   8 547.383 20.5775   1
   4   7   8 337.582 30.6761  -3
   4   7   8 337.582 30.6761   1
  -7   7   3 690.095 35.0935  -2
   5   7   8 690.095 35.0935   1
  -7   7   4 115.625 27.7934  -4
   6   7   8 115.625 27.7934   1
   6   7   8 92.4249 31.1232  -3
   6   7   8 92.4249 31.1232   1
   8   7   8 204.953 16.2782   1
   1   8  12 250.813 35.0219  -4
  -6   8   8 250.813 35.0219   1
   2   8  11 4.93185 23.4988  -4
  -5   8   8 4.93185 23.4988   1
   2   8  10 327.753 22.2750  -2
  -4   8   8 327.753 22.2750   1
  -3   8   8 72.9630 22.6233  -3
  -3   8   8 72.9630 22.6233   1
   3   8   8 52.7926 22.5562  -4
  -3   8   8 52.7926 22.5562   1
   3   8   7 220.997 12.8906  -2
  -2   8   8 220.997 12.8906   1
   3   8   7 201.388 23.8839  -4
  -2   8   8 201.388 23.8839  -3
   3   8   7 201.388 23.8839  -2
  -2   8   8 201.388 23.8839   1
  -1   8   8 24.3648 14.4750  -3
  -1   8   8 24.3648 14.4750   1
   4   8   5 23.8726 18.7503  -4
  -1   8   8 23.8726 18.7503   1
   4   8   4 166.481 19.6004  -4
   0   8   8 166.481 19.6004  -3
   4   8   4 166.481 19.6004  -2
   0   8   8 166.481 19.6004   1
   4   8   4 172.820 14.6246  -2
   0   8   8 172.820 14.6246   1
   5   8   2 16.1746 17.8646  -4
   1   8   8 16.1746 17.8646   1
   1   8   8 17.7611 13.5735  -3
   1   8   8 17.7611 13.5735   1
   5   8   1 164.155 16.6561  -2
   2   8   8 164.155 16.6561   1
   2   8   8 119.543 20.6280  -3
   2   8   8 119.543 20.6280   1
   3   8   8 -1.4023 6.35619   1
   4   8   8 28.7122 17.2777  -3
   4   8   8 28.7122 17.2777   1
   5   8   8 1.85049 7.19195   1
   6   8   8 35.0048 32.4699  -3
   6   8   8 35.0048 32.4699   1
  -7   8   4 55.1677 27.7932  -4
   6   8   8 55.1677 27.7932   1
   2   9  10 367.492 39.3790  -2
  -4   9   8 367.492 39.3790   1
   3   9   8 284.240 30.3416  -4
  -3   9   8 284.240 30.3416   1
  -3   9   8 273.462 30.8033  -3
  -3   9   8 273.462 30.8033   1
   3   9   7 247.917 28.5001  -4
  -2   9   8 247.917 28.5001  -3
   3   9   7 247.917 28.5001  -2
  -2   9   8 247.917 28.5001   1
   3   9   7 236.891 16.7514  -2
  -2   9   8 236.891 16.7514   1
   4   9   5 147.074 17.1765  -4
  -1   9   8 147.074 17.1765   1
  -1   9   8 126.339 23.6606  -3
  -1   9   8 126.339 23.6606   1
   4   9   4 376.453 19.9849  -2
   0   9   8 376.453 19.9849   1
   4   9   4 367.975 26.1794  -4
   0   9   8 367.975 26.1794  -3
   4   9   4 367.975 26.1794  -2
   0   9   8 367.975 26.1794   1
   1   9   8 244.372 21.6490  -3
   1   9   8 244.372 21.6490   1
   5   9   2 257.129 19.7261  -4
   1   9   8 257.129 19.7261   1
   5   9   1 262.443 20.0555  -2
   2   9   8 262.443 20.0555   1
   2   9   8 237.146 21.3970  -3
   2   9   8 237.146 21.3970   1
  -6   9   1 252.129 31.5843  -4
   3   9   8 252.129 31.5843   1
   3   9   8 262.498 32.9847  -3
   6   9   0 262.498 32.9847  -2
   3   9   8 262.498 32.9847   1
   4   9   8 188.520 16.4552   1
  -1  10   8 7.41990 24.4790   1
   4  10   4 476.896 33.0919  -2
   0  10   8 476.896 33.0919   1
 -10   0   9 -6.7624 8.78060   1
   0   0  17 1357.93 40.9713  -4
  -9   0   9 1357.93 40.9713   1
   0   0  16 -11.961 23.1131  -2
  -8   0   9 -11.961 23.1131   1
  -7   0   9 1251.40 34.4250   1
  -6   0   9 0.65106 4.18262   1
   2   0  12 2652.83 90.1206  -2
  -5   0   9 2652.83 90.1206   1
  -4   0   9 -0.1506 3.38646   1
   3   0   9 3729.07 69.0194  -2
  -3   0   9 3729.07 69.0194   1
   3   0   9 3959.97 121.960  -4
   3   0   9 3959.97 121.960  -2
  -3   0   9 3959.97 121.960   1
  -2   0   9 1.57657 2.21528   1
   4   0   6 7580.49 174.868  -2
  -1   0   9 7580.49 174.868   1
   0   0   9 -5.5735 7.75392  -3
   0   0   9 -5.5735 7.75392   1
   5   0   3 4776.64 114.759  -4
   1   0   9 4776.64 114.759   1
   2   0   9 -5.9602 8.18515  -3
   2   0   9 -5.9602 8.18515   1
   3   0   9 4015.80 110.329  -3
   3   0   9 4015.80 110.329   1
  -7   0   1 1.51878 10.5645  -2
   4   0   9 1.51878 10.5645   1
   5   0   9 4099.04 63.9602   1
  -8   0   4 -10.388 14.2366  -2
   6   0   9 -10.388 14.2366   1
   7   0   9 1726.25 40.5402   1
   9   0   9 1550.56 40.4133   1
 -10   0   9 -9.0427 14.8326  -2
  10   0   9 -9.0427 14.8326   1
  -1   1  20 233.525 29.7685  -4
 -11   1   9 233.525 29.7685   1
  -1   1  19 324.503 24.6997  -2
 -10   1   9 324.503 24.6997   1
   0   1  17 216.430 17.0553  -4
  -9   1   9 216.430 17.0553   1
   0   1  16 412.838 25.1742  -2
  -8   1   9 412.838 25.1742   1
  -7   1   9 313.710 9.71899   1
  -6   1   9 781.600 14.9129   1
   2   1  12 234.420 23.3263  -2
  -5   1   9 234.420 23.3263   1
  -4   1   9 875.984 13.1280   1
   3   1   9 573.677 11.1902  -2
  -3   1   9 573.677 11.1902   1
  -2   1   9 1316.36 14.3092   1
   4   1   6 171.621 5.92826  -2
  -1   1   9 171.621 5.92826   1
   0   1   9 987.024 19.0982  -3
   0   1   9 987.024 19.0982   1
   1   1   9 26.8344 7.47407  -3
   1   1   9 26.8344 7.47407   1
   2   1   9 546.582 14.3223  -3
   2   1   9 546.582 14.3223   1
   3   1   9 79.6310 10.3246  -3
   3   1   9 79.6310 10.3246   1
  -7   1   1 1294.13 21.6448  -2
   4   1   9 1294.13 21.6448   1
   5   1   9 12.6887 2.97670   1
  -8   1   4 602.637 17.0056  -2
   6   1   9 602.637 17.0056   1
   7   1   9 26.4488 5.28035   1
  -9   1   7 415.366 30.1376  -4
  -9   1   6 415.366 30.1376  -2
   8   1   9 415.366 30.1376   1
  -9   1   6 448.960 31.4238  -2
   8   1   9 448.960 31.4238   1
   9   1   9 33.9841 6.63676   1
 -10   1   9 339.384 21.3616  -2
  10   1   9 339.384 21.3616   1
 -10   2   9 9.62423 9.24728   1
   0   2  17 24.2768 15.5742  -4
  -9   2   9 24.2768 15.5742   1
   0   2  16 36.3962 10.7599  -2
  -8   2   9 36.3962 10.7599   1
  -7   2   9 74.1493 6.52069   1
  -6   2   9 13.4459 4.19070   1
   2   2  12 4.81363 7.89449  -2
  -5   2   9 4.81363 7.89449   1
   2   2  12 17.9339 23.4741  -4
   2   2  12 17.9339 23.4741  -2
  -5   2   9 17.9339 23.4741   1
  -4   2   9 22.2486 3.28422   1
   3   2   9 44.6913 6.06347  -2
  -3   2   9 44.6913 6.06347   1
  -2   2   9 25.2742 10.2492  -3
  -2   2   9 25.2742 10.2492   1
   4   2   6 241.987 6.66998  -2
  -1   2   9 241.987 6.66998   1
   4   2   6 255.020 13.6712  -4
  -1   2   9 255.020 13.6712  -3
   4   2   6 255.020 13.6712  -2
  -1   2   9 255.020 13.6712   1
   0   2   9 112.187 5.87981  -3
   0   2   9 112.187 5.87981   1
   5   2   3 23.1409 9.25489  -2
   1   2   9 23.1409 9.25489   1
   1   2   9 26.2198 6.16361  -3
   1   2   9 26.2198 6.16361   1
   2   2   9 16.1807 4.74469  -3
   2   2   9 16.1807 4.74469   1
   3   2   9 27.9044 7.48446  -3
   3   2   9 27.9044 7.48446   1
  -7   2   1 108.412 10.7412  -2
   4   2   9 108.412 10.7412   1
   5   2   9 4.10855 16.1872  -3
   5   2   9 4.10855 16.1872   1
  -8   2   4 65.4372 11.9851  -2
   6   2   9 65.4372 11.9851   1
  -8   2   4 41.4020 16.7835  -4
   6   2   9 41.4020 16.7835   1
   7   2   9 19.1523 4.57586   1
  -9   2   7 14.1015 18.3960  -4
   8   2   9 14.1015 18.3960   1
  -9   2   6 -7.2757 13.9155  -2
   8   2   9 -7.2757 13.9155   1
   9   2   9 8.07038 5.96785   1
 -10   2  10 19.7783 27.4223  -4
 -10   2   9 19.7783 27.4223  -2
  10   2   9 19.7783 27.4223   1
 -10   2   9 12.0706 16.1250  -2
  10   2   9 12.0706 16.1250   1
  -1   3  19 245.340 30.5667  -2
 -10   3   9 245.340 30.5667   1
   0   3  17 236.975 26.2738  -4
  -9   3   9 236.975 26.2738   1
   0   3  16 324.674 19.5878  -2
  -8   3   9 324.674 19.5878   1
   1   3  14 131.766 27.2122  -4
  -7   3   9 131.766 27.2122   1
  -6   3   9 394.361 9.63384   1
   2   3  12 479.455 36.1941  -4
   2   3  12 479.455 36.1941  -2
  -5   3   9 479.455 36.1941   1
   2   3  12 475.109 19.5510  -2
  -5   3   9 475.109 19.5510   1
  -4   3   9 485.385 25.9132  -3
  -4   3   9 485.385 25.9132   1
   3   3   9 720.399 17.2789  -2
  -3   3   9 720.399 17.2789   1
   3   3   9 740.561 31.6632  -4
  -3   3   9 740.561 31.6632  -3
   3   3   9 740.561 31.6632  -2
  -3   3   9 740.561 31.6632   1
  -2   3   9 574.609 20.5893  -3
  -2   3   9 574.609 20.5893   1
   4   3   6 15.3542 5.32151  -2
  -1   3   9 15.3542 5.32151   1
   4   3   6 8.77598 10.0354  -4
  -1   3   9 8.77598 10.0354  -3
   4   3   6 8.77598 10.0354  -2
  -1   3   9 8.77598 10.0354   1
   0   3   9 949.028 22.6996  -3
   0   3   9 949.028 22.6996   1
   5   3   3 265.290 13.4863  -2
   1   3   9 265.290 13.4863   1
   1   3   9 262.179 12.8678  -3
   1   3   9 262.179 12.8678   1
   2   3   9 1006.97 21.3163  -3
   2   3   9 1006.97 21.3163   1
   3   3   9 58.8959 8.08669  -3
   3   3   9 58.8959 8.08669   1
   4   3   9 546.742 14.1762   1
   5   3   9 -4.3589 16.9231  -3
   5   3   9 -4.3589 16.9231   1
  -8   3   4 448.182 18.7482  -2
   6   3   9 448.182 18.7482   1
  -8   3   4 442.968 27.2354  -4
   6   3   9 442.968 27.2354   1
   7   3   9 87.4288 6.69689   1
  -9   3   7 341.361 32.1294  -4
  -9   3   6 341.361 32.1294  -2
   8   3   9 341.361 32.1294   1
  -9   3   7 352.578 27.5107  -4
   8   3   9 352.578 27.5107   1
  -9   3   6 327.940 19.8402  -2
   8   3   9 327.940 19.8402   1
   9   3   9 54.2057 7.78648   1
 -10   3   9 175.157 29.0483  -2
  10   3   9 175.157 29.0483   1
  -9   4   9 889.059 42.9555   1
   0   4  16 17.9321 22.1237  -2
  -8   4   9 17.9321 22.1237   1
  -7   4   9 1273.98 20.3079   1
  -6   4   9 9.71265 3.93491   1
   2   4  12 2664.66 47.0095  -2
  -5   4   9 2664.66 47.0095   1
   2   4  12 2680.00 95.6919  -4
   2   4  12 2680.00 95.6919  -2
  -5   4   9 2680.00 95.6919   1
  -4   4   9 6.82020 14.9453  -3
  -4   4   9 6.82020 14.9453   1
   3   4   9 2484.24 76.6403  -4
  -3   4   9 2484.24 76.6403  -3
   3   4   9 2484.24 76.6403  -2
  -3   4   9 2484.24 76.6403   1
   3   4   9 2351.97 41.0268  -2
  -3   4   9 2351.97 41.0268   1
  -2   4   9 2.00065 11.9959  -3
  -2   4   9 2.00065 11.9959   1
   4   4   6 4294.95 67.1305  -2
  -1   4   9 4294.95 67.1305   1
   4   4   6 4360.69 91.1213  -4
  -1   4   9 4360.69 91.1213  -3
   4   4   6 4360.69 91.1213  -2
  -1   4   9 4360.69 91.1213   1
   0   4   9 -0.3597 7.10270  -3
   0   4   9 -0.3597 7.10270   1
   5   4   3 3841.98 93.6382  -4
   1   4   9 3841.98 93.6382  -3
   1   4   9 3841.98 93.6382   1
   5   4   3 4103.86 75.9758  -2
   1   4   9 4103.86 75.9758   1
   2   4   9 20.5699 5.97927  -3
   2   4   9 20.5699 5.97927   1
   3   4   9 2202.84 51.9853  -3
   3   4   9 2202.84 51.9853   1
   4   4   9 17.5879 15.4826  -3
  -7   4   1 17.5879 15.4826  -2
   4   4   9 17.5879 15.4826   1
   5   4   9 1944.35 45.5225  -3
   5   4   9 1944.35 45.5225   1
  -8   4   4 7.91130 17.6446  -2
   6   4   9 7.91130 17.6446   1
   7   4   9 1447.23 24.2384   1
  -9   4   6 -17.448 14.9351  -2
   8   4   9 -17.448 14.9351   1
  -9   4   7 34.8072 18.6354  -4
   8   4   9 34.8072 18.6354   1
   9   4   9 1302.24 26.4102   1
   0   5  17 132.071 29.4979  -4
  -9   5   9 132.071 29.4979   1
   0   5  16 457.068 19.5858  -2
  -8   5   9 457.068 19.5858   1
   1   5  14 151.639 23.6771  -4
  -7   5   9 151.639 23.6771   1
  -6   5   9 417.221 10.8481   1
   2   5  12 252.006 21.5290  -4
   2   5  12 252.006 21.5290  -2
  -5   5   9 252.006 21.5290   1
   2   5  12 222.553 23.0285  -2
  -5   5   9 222.553 23.0285   1
  -4   5   9 767.643 13.9364   1
   3   5   9 551.642 19.3851  -2
  -3   5   9 551.642 19.3851   1
   3   5   9 525.769 29.8902  -4
  -3   5   9 525.769 29.8902  -3
   3   5   9 525.769 29.8902  -2
  -3   5   9 525.769 29.8902   1
  -2   5   9 666.454 20.7435  -3
  -2   5   9 666.454 20.7435   1
   4   5   6 27.9003 11.2981  -4
  -1   5   9 27.9003 11.2981  -3
   4   5   6 27.9003 11.2981  -2
  -1   5   9 27.9003 11.2981   1
   4   5   6 36.1600 7.98713  -2
  -1   5   9 36.1600 7.98713   1
   0   5   9 714.688 24.4256  -3
   0   5   9 714.688 24.4256   1
   5   5   3 74.7292 11.1994  -2
   1   5   9 74.7292 11.1994   1
   1   5   9 79.0678 13.4583  -3
   1   5   9 79.0678 13.4583   1
   2   5   9 1341.98 36.6246  -3
   2   5   9 1341.98 36.6246   1
   3   5   9 20.5942 9.04259  -3
   3   5   9 20.5942 9.04259   1
   4   5   9 445.411 13.5320   1
   5   5   9 2.54127 14.2638  -3
   5   5   9 2.54127 14.2638   1
  -8   5   4 648.760 38.0209  -2
   6   5   9 648.760 38.0209   1
   7   5   9 29.6338 27.3218  -3
   7   5   9 29.6338 27.3218   1
  -9   5   6 419.683 31.3756  -2
   8   5   9 419.683 31.3756   1
  -9   5   7 417.367 29.8505  -4
   8   5   9 417.367 29.8505   1
   9   5   9 40.4613 7.15047   1
   0   6  16 29.6211 18.0690  -2
  -8   6   9 29.6211 18.0690   1
  -7   6   9 36.2506 13.4082   1
  -6   6   9 5.53354 4.94031   1
   2   6  12 15.5704 18.0880  -4
   2   6  12 15.5704 18.0880  -2
  -5   6   9 15.5704 18.0880   1
  -4   6   9 2.06806 17.1812  -3
  -4   6   9 2.06806 17.1812   1
   3   6   9 2.09329 18.3785  -4
   3   6   9 2.09329 18.3785  -2
  -3   6   9 2.09329 18.3785   1
   3   6   9 1.43553 17.2427  -4
  -3   6   9 1.43553 17.2427  -3
   3   6   9 1.43553 17.2427  -2
  -3   6   9 1.43553 17.2427   1
   3   6   9 15.2667 9.81721  -2
  -3   6   9 15.2667 9.81721   1
  -2   6   9 -2.0578 10.3761  -3
  -2   6   9 -2.0578 10.3761   1
   4   6   6 16.5429 8.29635  -2
  -1   6   9 16.5429 8.29635   1
   4   6   6 20.3341 11.9537  -4
  -1   6   9 20.3341 11.9537  -3
   4   6   6 20.3341 11.9537  -2
  -1   6   9 20.3341 11.9537   1
   0   6   9 9.73600 9.55605  -3
   0   6   9 9.73600 9.55605   1
   5   6   3 9.27949 10.4603  -2
   1   6   9 9.27949 10.4603   1
   1   6   9 -0.1607 10.4760  -3
   1   6   9 -0.1607 10.4760   1
   2   6   9 6.39284 14.8041  -3
   2   6   9 6.39284 14.8041   1
   3   6   9 12.9342 10.8014  -3
   3   6   9 12.9342 10.8014   1
   4   6   9 2.40094 6.14258   1
   5   6   9 3.49606 15.1270  -3
   5   6   9 3.49606 15.1270   1
   7   6   9 49.2369 31.0468  -3
   7   6   9 49.2369 31.0468   1
  -9   6   6 -24.334 17.9917  -2
   8   6   9 -24.334 17.9917   1
  -9   6   7 5.20713 30.3057  -4
  -9   6   6 5.20713 30.3057  -2
   8   6   9 5.20713 30.3057   1
  -9   6   7 17.4884 14.4730  -4
   8   6   9 17.4884 14.4730   1
   1   7  14 148.485 35.0315  -4
  -7   7   9 148.485 35.0315   1
  -6   7   9 158.723 11.1097   1
   2   7  12 106.289 29.2787  -2
  -5   7   9 106.289 29.2787   1
   2   7  12 76.1743 24.7372  -4
   2   7  12 76.1743 24.7372  -2
  -5   7   9 76.1743 24.7372   1
  -4   7   9 107.360 17.7431  -3
  -4   7   9 107.360 17.7431   1
   3   7  10 270.246 26.3735  -4
  -4   7   9 270.246 26.3735   1
   3   7   9 184.839 24.1744  -4
  -3   7   9 184.839 24.1744  -3
   3   7   9 184.839 24.1744  -2
  -3   7   9 184.839 24.1744   1
   3   7   9 174.497 12.7188  -2
  -3   7   9 174.497 12.7188   1
   3   7   9 169.940 27.2598  -4
   3   7   9 169.940 27.2598  -2
  -3   7   9 169.940 27.2598   1
  -2   7   9 259.640 21.3315  -3
  -2   7   9 259.640 21.3315   1
   4   7   7 336.708 27.1491  -4
  -2   7   9 336.708 27.1491   1
   4   7   6 63.8953 10.3179  -2
  -1   7   9 63.8953 10.3179   1
   4   7   6 64.0914 15.0286  -4
  -1   7   9 64.0914 15.0286  -3
   4   7   6 64.0914 15.0286  -2
  -1   7   9 64.0914 15.0286   1
   0   7   9 449.598 22.2953  -3
   0   7   9 449.598 22.2953   1
   5   7   4 461.831 28.2718  -4
   0   7   9 461.831 28.2718   1
   5   7   3 10.0353 11.6903  -2
   1   7   9 10.0353 11.6903   1
   1   7   9 18.2715 14.0939  -3
   1   7   9 18.2715 14.0939   1
   6   7   1 123.893 20.1801  -4
   2   7   9 123.893 20.1801   1
   2   7   9 130.053 23.2180  -3
   2   7   9 130.053 23.2180   1
   3   7   9 14.1245 18.0458  -3
   3   7   9 14.1245 18.0458   1
   4   7   9 196.492 15.7272   1
   5   7   9 14.3609 25.6096  -3
   5   7   9 14.3609 25.6096   1
   7   7   9 21.1055 7.41172   1
  -6   8   9 14.6853 9.40349   1
   2   8  12 982.827 56.3511  -2
  -5   8   9 982.827 56.3511   1
   3   8  10 -10.002 22.4987  -4
  -4   8   9 -10.002 22.4987   1
  -4   8   9 -3.5877 14.9964  -3
  -4   8   9 -3.5877 14.9964   1
   3   8   9 1184.98 29.2628  -2
  -3   8   9 1184.98 29.2628   1
   3   8   9 1127.66 51.2704  -4
  -3   8   9 1127.66 51.2704  -3
   3   8   9 1127.66 51.2704  -2
  -3   8   9 1127.66 51.2704   1
   3   8   9 1241.69 63.3614  -4
   3   8   9 1241.69 63.3614  -2
  -3   8   9 1241.69 63.3614   1
   4   8   7 3.67439 13.4606  -4
  -2   8   9 3.67439 13.4606   1
  -2   8   9 8.88813 18.2305  -3
  -2   8   9 8.88813 18.2305   1
   4   8   6 1889.06 45.3534  -2
  -1   8   9 1889.06 45.3534   1
   4   8   6 1790.56 50.9170  -4
  -1   8   9 1790.56 50.9170  -3
   4   8   6 1790.56 50.9170  -2
  -1   8   9 1790.56 50.9170   1
   0   8   9 8.18481 14.1586  -3
   0   8   9 8.18481 14.1586   1
   5   8   4 29.6495 13.5121  -4
   0   8   9 29.6495 13.5121   1
   5   8   3 1509.78 40.2549  -2
   1   8   9 1509.78 40.2549   1
   5   8   3 1478.55 59.7695  -4
   1   8   9 1478.55 59.7695  -3
   1   8   9 1478.55 59.7695   1
   6   8   1 12.5770 14.7355  -4
   2   8   9 12.5770 14.7355   1
   2   8   9 -26.953 20.9460  -3
   2   8   9 -26.953 20.9460   1
   3   8   9 1268.92 35.3166   1
   4   8   9 -5.0765 7.06167   1
   5   8   9 1303.37 68.4066  -3
   5   8   9 1303.37 68.4066   1
  -4   9   9 438.371 35.2293   1
   3   9   9 94.6414 30.4336  -4
   3   9   9 94.6414 30.4336  -2
  -3   9   9 94.6414 30.4336   1
   4   9   7 426.585 23.0557  -4
  -2   9   9 426.585 23.0557   1
  -2   9   9 421.118 33.3239  -3
  -2   9   9 421.118 33.3239   1
   4   9   6 21.3398 11.5108  -2
  -1   9   9 21.3398 11.5108   1
   4   9   6 5.21338 18.6014  -4
  -1   9   9 5.21338 18.6014  -3
   4   9   6 5.21338 18.6014  -2
  -1   9   9 5.21338 18.6014   1
   0   9   9 311.936 23.3185  -3
   0   9   9 311.936 23.3185   1
   5   9   4 333.838 21.0730  -4
   0   9   9 333.838 21.0730   1
   5   9   3 31.9156 14.8804  -2
   1   9   9 31.9156 14.8804   1
   5   9   3 32.5336 22.5539  -4
   1   9   9 32.5336 22.5539  -3
   1   9   9 32.5336 22.5539   1
   2   9   9 480.078 44.1190  -3
   2   9   9 480.078 44.1190   1
   6   9   1 439.289 23.8546  -4
   2   9   9 439.289 23.8546   1
   3   9   9 -2.2512 7.50089   1
   0   0  19 -28.535 17.7375  -4
 -10   0  10 -28.535 17.7375   1
   0   0  18 65.0760 18.2447  -2
  -9   0  10 65.0760 18.2447   1
   1   0  16 2.39355 15.3331  -4
  -8   0  10 2.39355 15.3331   1
  -7   0  10 -3.9080 6.68411   1
  -6   0  10 9.08716 6.65446   1
  -5   0  10 7.45560 4.32794   1
   3   0  11 39.5258 9.95621  -2
  -4   0  10 39.5258 9.95621   1
  -3   0  10 -3.2098 3.13526   1
   4   0   8 57.2716 15.8811  -4
   4   0   8 57.2716 15.8811  -2
  -2   0  10 57.2716 15.8811   1
   4   0   8 85.5517 7.91171  -2
  -2   0  10 85.5517 7.91171   1
  -1   0  10 12.5566 8.55978  -3
  -1   0  10 12.5566 8.55978   1
   5   0   5 34.7135 14.9715  -4
   5   0   5 34.7135 14.9715  -2
   0   0  10 34.7135 14.9715   1
   5   0   5 35.8614 9.32469  -2
   0   0  10 35.8614 9.32469   1
   1   0  10 10.9018 10.6096  -3
   1   0  10 10.9018 10.6096   1
   2   0  10 17.8050 3.84062   1
   7   0   1 30.6662 8.93513  -2
   3   0  10 30.6662 8.93513   1
   4   0  10 218.075 20.1632  -3
   4   0  10 218.075 20.1632   1
  -8   0   2 24.0909 14.8168  -2
   5   0  10 24.0909 14.8168   1
   6   0  10 54.6767 8.42420   1
  -9   0   5 21.2249 16.7292  -4
   7   0  10 21.2249 16.7292   1
   8   0  10 334.013 16.8837   1
 -10   0   8 -18.364 25.7911  -4
 -10   0   7 -18.364 25.7911  -2
   9   0  10 -18.364 25.7911   1
  10   0  10 173.935 16.6376   1
   0   1  19 9.28034 14.4660  -4
 -10   1  10 9.28034 14.4660   1
   0   1  18 322.448 16.3263  -2
  -9   1  10 322.448 16.3263   1
   1   1  16 39.4936 13.8401  -4
  -8   1  10 39.4936 13.8401   1
  -7   1  10 419.641 13.3410   1
  -6   1  10 58.6042 5.65400   1
  -5   1  10 485.052 11.2296   1
   3   1  11 552.813 15.3578  -2
  -4   1  10 552.813 15.3578   1
  -3   1  10 1282.84 17.3535   1
   4   1   8 648.901 23.3188  -4
   4   1   8 648.901 23.3188  -2
  -2   1  10 648.901 23.3188   1
   4   1   8 596.159 12.6282  -2
  -2   1  10 596.159 12.6282   1
  -1   1  10 774.635 28.9508  -3
  -1   1  10 774.635 28.9508   1
   5   1   5 779.641 34.5069  -4
   5   1   5 779.641 34.5069  -2
   0   1  10 779.641 34.5069   1
   5   1   5 743.163 15.6262  -2
   0   1  10 743.163 15.6262   1
   1   1  10 894.219 19.5466  -3
   1   1  10 894.219 19.5466   1
   2   1  10 410.152 22.1240  -3
   2   1  10 410.152 22.1240   1
   7   1   1 1171.78 27.2390  -2
   3   1  10 1171.78 27.2390   1
   3   1  10 1203.35 46.2826  -3
   3   1  10 1203.35 46.2826   1
   4   1  10 633.204 30.9761  -3
   4   1  10 633.204 30.9761   1
  -8   1   2 530.616 13.3252  -2
   5   1  10 530.616 13.3252   1
   6   1  10 1008.62 19.3382   1
  -9   1   5 507.979 29.3489  -4
   7   1  10 507.979 29.3489   1
   8   1  10 274.042 11.1580   1
 -10   1   7 244.163 26.7176  -2
   9   1  10 244.163 26.7176   1
 -10   1   8 308.568 32.4491  -4
 -10   1   7 308.568 32.4491  -2
   9   1  10 308.568 32.4491   1
  10   1  10 229.463 12.5972   1
   0   2  19 993.943 46.1318  -4
 -10   2  10 993.943 46.1318   1
   0   2  18 1.21731 16.8353  -2
  -9   2  10 1.21731 16.8353   1
   1   2  16 1602.99 37.6742  -4
  -8   2  10 1602.99 37.6742   1
  -7   2  10 1.05745 4.16344   1
  -6   2  10 2156.14 31.4502   1
  -5   2  10 39.9847 4.39207   1
   3   2  11 3024.93 49.6149  -2
  -4   2  10 3024.93 49.6149   1
   3   2  11 3170.94 106.235  -4
   3   2  11 3170.94 106.235  -2
  -4   2  10 3170.94 106.235   1
  -3   2  10 4.33312 11.6366  -3
  -3   2  10 4.33312 11.6366   1
   4   2   8 3220.66 51.3993  -2
  -2   2  10 3220.66 51.3993   1
   4   2   8 3411.62 110.335  -4
   4   2   8 3411.62 110.335  -2
  -2   2  10 3411.62 110.335   1
   4   2   8 3281.80 92.3966  -4
  -2   2  10 3281.80 92.3966  -3
   4   2   8 3281.80 92.3966  -2
  -2   2  10 3281.80 92.3966   1
  -1   2  10 2.22499 7.58877  -3
  -1   2  10 2.22499 7.58877   1
   5   2   5 2436.94 34.5413  -2
   0   2  10 2436.94 34.5413   1
   5   2   5 2457.87 72.9934  -4
   0   2  10 2457.87 72.9934  -3
   5   2   5 2457.87 72.9934  -2
   0   2  10 2457.87 72.9934   1
   1   2  10 2.25640 4.96319  -3
   1   2  10 2.25640 4.96319   1
   2   2  10 3145.28 60.1489  -3
   2   2  10 3145.28 60.1489   1
   3   2  10 95.8658 16.6268  -3
   7   2   1 95.8658 16.6268  -2
   3   2  10 95.8658 16.6268   1
   4   2  10 2313.05 53.5503  -3
   4   2  10 2313.05 53.5503   1
  -8   2   2 21.8375 10.8350  -2
   5   2  10 21.8375 10.8350   1
   6   2  10 1245.95 20.0000   1
  -9   2   5 29.3220 17.2253  -4
   7   2  10 29.3220 17.2253   1
   8   2  10 573.366 15.5955   1
 -10   2   8 -1.3521 25.0236  -4
 -10   2   7 -1.3521 25.0236  -2
   9   2  10 -1.3521 25.0236   1
  10   2  10 249.234 14.9474   1
   0   3  19 16.6881 22.2288  -4
 -10   3  10 16.6881 22.2288   1
   0   3  18 358.826 22.3012  -2
  -9   3  10 358.826 22.3012   1
   1   3  16 24.5179 14.0094  -4
  -8   3  10 24.5179 14.0094   1
  -7   3  10 425.361 13.8633   1
  -6   3  10 63.3353 5.44987   1
  -5   3  10 715.860 13.0573   1
   3   3  11 313.204 12.4991  -2
  -4   3  10 313.204 12.4991   1
   3   3  11 336.509 31.4605  -4
   3   3  11 336.509 31.4605  -2
  -4   3  10 336.509 31.4605   1
  -3   3  10 605.694 28.6378  -3
  -3   3  10 605.694 28.6378   1
   4   3   8 496.819 13.7673  -2
  -2   3  10 496.819 13.7673   1
   4   3   8 494.192 19.9892  -4
  -2   3  10 494.192 19.9892  -3
   4   3   8 494.192 19.9892  -2
  -2   3  10 494.192 19.9892   1
  -1   3  10 1159.83 27.3976  -3
  -1   3  10 1159.83 27.3976   1
   5   3   5 498.536 17.2277  -4
   0   3  10 498.536 17.2277  -3
   5   3   5 498.536 17.2277  -2
   0   3  10 498.536 17.2277   1
   5   3   5 530.749 14.5988  -2
   0   3  10 530.749 14.5988   1
   1   3  10 900.151 19.7412  -3
   1   3  10 900.151 19.7412   1
   2   3  10 757.704 20.9129  -3
   2   3  10 757.704 20.9129   1
   3   3  10 536.768 25.9629  -3
   7   3   1 536.768 25.9629  -2
   3   3  10 536.768 25.9629   1
   4   3  10 739.115 19.6500  -3
   4   3  10 739.115 19.6500   1
  -8   3   2 717.803 23.7071  -2
   5   3  10 717.803 23.7071   1
  -8   3   2 707.254 40.3114  -4
  -8   3   2 707.254 40.3114  -2
   5   3  10 707.254 40.3114   1
   6   3  10 649.082 37.2639  -3
   6   3  10 649.082 37.2639   1
  -9   3   5 433.038 16.9809  -4
   7   3  10 433.038 16.9809   1
   8   3  10 327.412 12.3419   1
 -10   3   8 369.514 24.4079  -4
 -10   3   7 369.514 24.4079  -2
   9   3  10 369.514 24.4079   1
 -10   3   7 337.867 22.4974  -2
   9   3  10 337.867 22.4974   1
   0   4  18 10.7491 25.7674  -2
  -9   4  10 10.7491 25.7674   1
   1   4  16 25.9871 21.8467  -4
  -8   4  10 25.9871 21.8467   1
  -7   4  10 -1.0539 5.21847   1
  -6   4  10 10.7911 4.15182   1
  -5   4  10 4.41816 3.55932   1
   3   4  11 32.9230 8.91291  -2
  -4   4  10 32.9230 8.91291   1
   3   4  11 38.6066 23.8425  -4
   3   4  11 38.6066 23.8425  -2
  -4   4  10 38.6066 23.8425   1
  -3   4  10 11.4557 14.1261  -3
  -3   4  10 11.4557 14.1261   1
   4   4   8 14.2882 5.85351  -2
  -2   4  10 14.2882 5.85351   1
   4   4   8 28.5199 11.5472  -4
  -2   4  10 28.5199 11.5472  -3
   4   4   8 28.5199 11.5472  -2
  -2   4  10 28.5199 11.5472   1
  -1   4  10 -2.1048 9.71549  -3
  -1   4  10 -2.1048 9.71549   1
   5   4   5 262.860 17.5045  -4
   0   4  10 262.860 17.5045  -3
   5   4   5 262.860 17.5045  -2
   0   4  10 262.860 17.5045   1
   5   4   5 268.540 11.4637  -2
   0   4  10 268.540 11.4637   1
   1   4  10 15.7318 8.31826  -3
   1   4  10 15.7318 8.31826   1
   2   4  10 16.1086 8.34723  -3
   2   4  10 16.1086 8.34723   1
   3   4  10 43.5566 15.9381  -3
   7   4   1 43.5566 15.9381  -2
   3   4  10 43.5566 15.9381   1
   4   4  10 20.2856 8.70764  -3
   4   4  10 20.2856 8.70764   1
  -8   4   2 18.3119 11.8033  -2
   5   4  10 18.3119 11.8033   1
   6   4  10 180.380 26.2150  -3
   6   4  10 180.380 26.2150   1
  -9   4   5 6.10428 12.8629  -4
   7   4  10 6.10428 12.8629   1
   8   4  10 107.230 8.08582   1
 -10   4   7 14.4924 16.4353  -2
   9   4  10 14.4924 16.4353   1
 -10   4   8 19.0981 27.0145  -4
 -10   4   7 19.0981 27.0145  -2
   9   4  10 19.0981 27.0145   1
  -8   5  10 7.98005 7.13049   1
  -7   5  10 248.339 10.0169   1
  -6   5  10 32.9512 7.14670   1
  -5   5  10 364.567 28.3102  -3
  -5   5  10 364.567 28.3102   1
   3   5  11 173.666 28.7090  -4
   3   5  11 173.666 28.7090  -2
  -4   5  10 173.666 28.7090   1
   3   5  11 161.650 13.8088  -2
  -4   5  10 161.650 13.8088   1
   4   5   9 238.932 23.2749  -4
  -3   5  10 238.932 23.2749   1
  -3   5  10 234.507 22.2902  -3
  -3   5  10 234.507 22.2902   1
   4   5   8 235.234 20.8326  -4
  -2   5  10 235.234 20.8326  -3
   4   5   8 235.234 20.8326  -2
  -2   5  10 235.234 20.8326   1
   4   5   8 296.242 11.7986  -2
  -2   5  10 296.242 11.7986   1
  -1   5  10 318.036 17.6310  -3
  -1   5  10 318.036 17.6310   1
   5   5   5 562.330 20.0557  -2
   0   5  10 562.330 20.0557   1
   5   5   5 581.901 24.6084  -4
   0   5  10 581.901 24.6084  -3
   5   5   5 581.901 24.6084  -2
   0   5  10 581.901 24.6084   1
   1   5  10 478.227 19.9672  -3
   1   5  10 478.227 19.9672   1
   2   5  10 375.602 18.2986  -3
   2   5  10 375.602 18.2986   1
   6   5   2 471.982 26.5434  -2
   2   5  10 471.982 26.5434   1
   3   5  10 474.714 18.0341   1
   4   5  10 418.616 15.5407  -3
   4   5  10 418.616 15.5407   1
  -8   5   2 620.111 23.8276  -2
   5   5  10 620.111 23.8276   1
   6   5  10 506.823 23.4411  -3
   6   5  10 506.823 23.4411   1
  -9   5   5 354.458 20.7789  -4
   7   5  10 354.458 20.7789   1
   8   5  10 234.814 11.0484   1
  -8   6  10 953.774 26.4382   1
   1   6  15 -5.0547 23.0152  -2
  -7   6  10 -5.0547 23.0152   1
  -6   6  10 1355.25 35.5749   1
  -5   6  10 12.2176 5.17909   1
   3   6  11 1618.61 39.9897  -2
  -4   6  10 1618.61 39.9897   1
   3   6  11 1646.21 35.8703  -4
   3   6  11 1646.21 35.8703  -2
  -4   6  10 1646.21 35.8703   1
   4   6   9 -0.4856 17.8951  -4
  -3   6  10 -0.4856 17.8951   1
  -3   6  10 -25.202 16.5778  -3
  -3   6  10 -25.202 16.5778   1
   4   6   8 1484.56 30.8824  -2
  -2   6  10 1484.56 30.8824   1
   4   6   8 1260.01 49.7930  -4
  -2   6  10 1260.01 49.7930  -3
   4   6   8 1260.01 49.7930  -2
  -2   6  10 1260.01 49.7930   1
  -1   6  10 18.0887 10.1978  -3
  -1   6  10 18.0887 10.1978   1
   5   6   6 27.5010 11.9721  -4
  -1   6  10 27.5010 11.9721   1
   5   6   5 1582.40 38.4527  -2
   0   6  10 1582.40 38.4527   1
   5   6   5 1561.52 44.4807  -4
   0   6  10 1561.52 44.4807  -3
   5   6   5 1561.52 44.4807  -2
   0   6  10 1561.52 44.4807   1
   1   6  10 6.01257 9.84658  -3
   1   6  10 6.01257 9.84658   1
   6   6   3 19.3685 17.3745  -4
   1   6  10 19.3685 17.3745   1
   2   6  10 1415.84 40.6904  -3
   2   6  10 1415.84 40.6904   1
   3   6  10 29.1971 7.83045   1
   4   6  10 886.756 31.0630  -3
   4   6  10 886.756 31.0630   1
   5   6  10 -2.8841 10.1745   1
   6   6  10 750.471 29.1199  -3
   6   6  10 750.471 29.1199   1
  -9   6   5 -17.268 23.4474  -4
   7   6  10 -17.268 23.4474   1
   8   6  10 322.381 13.8963   1
  -7   7  10 327.089 26.7404   1
  -6   7  10 32.4796 10.8317   1
   3   7  12 526.936 35.4217  -4
  -5   7  10 526.936 35.4217   1
   3   7  11 131.306 33.5493  -4
   3   7  11 131.306 33.5493  -2
  -4   7  10 131.306 33.5493   1
   3   7  11 129.139 13.5461  -2
  -4   7  10 129.139 13.5461   1
   4   7   9 462.584 31.1317  -4
  -3   7  10 462.584 31.1317   1
  -3   7  10 299.255 24.0404  -3
  -3   7  10 299.255 24.0404   1
   4   7   8 210.893 22.7696  -4
  -2   7  10 210.893 22.7696  -3
   4   7   8 210.893 22.7696  -2
  -2   7  10 210.893 22.7696   1
   4   7   8 226.283 12.3028  -2
  -2   7  10 226.283 12.3028   1
   5   7   6 881.783 28.3690  -4
  -1   7  10 881.783 28.3690   1
  -1   7  10 798.795 29.5335  -3
  -1   7  10 798.795 29.5335   1
   5   7   5 296.640 17.2216  -2
   0   7  10 296.640 17.2216   1
   5   7   5 282.480 21.7861  -4
   0   7  10 282.480 21.7861  -3
   5   7   5 282.480 21.7861  -2
   0   7  10 282.480 21.7861   1
   1   7  10 514.818 24.2249  -3
   1   7  10 514.818 24.2249   1
   6   7   3 583.097 23.7169  -4
   1   7  10 583.097 23.7169   1
   2   7  10 169.337 21.0921  -3
   2   7  10 169.337 21.0921   1
   7   7   0 515.587 34.4434  -4
   3   7  10 515.587 34.4434   1
   4   7  10 227.966 20.4368  -3
   4   7  10 227.966 20.4368   1
  -8   7   2 284.815 27.3894  -2
   5   7  10 284.815 27.3894   1
  -8   7   3 359.826 37.3188  -4
   6   7  10 359.826 37.3188   1
   6   7  10 384.820 40.6184  -3
   6   7  10 384.820 40.6184   1
  -5   8  10 9.62120 10.5819   1
   3   8  11 18.7242 32.0312  -4
   3   8  11 18.7242 32.0312  -2
  -4   8  10 18.7242 32.0312   1
   3   8  11 36.9773 27.4693  -4
  -4   8  10 36.9773 27.4693  -3
   3   8  11 36.9773 27.4693  -2
  -4   8  10 36.9773 27.4693   1
   3   8  11 13.9675 12.5112  -2
  -4   8  10 13.9675 12.5112   1
  -3   8  10 -3.3478 14.5101  -3
  -3   8  10 -3.3478 14.5101   1
   4   8   9 -14.329 14.7574  -4
  -3   8  10 -14.329 14.7574   1
   4   8   8 25.2150 10.8753  -2
  -2   8  10 25.2150 10.8753   1
   4   8   8 26.6308 18.9837  -4
  -2   8  10 26.6308 18.9837  -3
   4   8   8 26.6308 18.9837  -2
  -2   8  10 26.6308 18.9837   1
   5   8   6 45.6304 14.6231  -4
  -1   8  10 45.6304 14.6231   1
  -1   8  10 39.2218 18.7556  -3
  -1   8  10 39.2218 18.7556   1
   5   8   5 30.2341 29.9788  -4
   0   8  10 30.2341 29.9788  -3
   5   8   5 30.2341 29.9788  -2
   0   8  10 30.2341 29.9788   1
   5   8   5 19.3303 11.9653  -2
   0   8  10 19.3303 11.9653   1
   6   8   3 11.3599 14.4185  -4
   1   8  10 11.3599 14.4185   1
   1   8  10 12.9100 13.9307  -3
   1   8  10 12.9100 13.9307   1
   2   8  10 30.6357 18.6375  -3
   2   8  10 30.6357 18.6375   1
   7   8   0 18.6578 21.0504  -4
   3   8  10 18.6578 21.0504   1
   4   8  10 34.0588 21.6896  -3
   4   8  10 34.0588 21.6896   1
  -3   9  10 211.475 31.6886   1
   4   9   8 140.057 20.7637  -2
  -2   9  10 140.057 20.7637   1
   5   9   6 93.7569 23.8525  -4
  -1   9  10 93.7569 23.8525   1
  -1   9  10 84.8117 20.0339  -3
  -1   9  10 84.8117 20.0339   1
   5   9   5 73.7175 35.6802  -4
   0   9  10 73.7175 35.6802  -3
   5   9   5 73.7175 35.6802  -2
   0   9  10 73.7175 35.6802   1
   5   9   5 64.1772 15.3670  -2
   0   9  10 64.1772 15.3670   1
   1   9  10 131.849 17.9003  -3
   1   9  10 131.849 17.9003   1
   6   9   3 141.957 26.0482  -4
   1   9  10 141.957 26.0482   1
   2   9  10 162.805 25.9157  -3
   2   9  10 162.805 25.9157   1
   0   0  20 -7.4539 32.6399  -2
 -10   0  11 -7.4539 32.6399   1
   1   0  18 875.877 33.5216  -4
  -9   0  11 875.877 33.5216   1
  -8   0  11 9.67572 8.46907   1
  -7   0  11 508.608 21.5884   1
  -6   0  11 2.55816 6.58393   1
   3   0  13 1166.34 33.1235  -2
  -5   0  11 1166.34 33.1235   1
  -4   0  11 1.58744 3.80065   1
   4   0  10 1119.75 46.8398  -2
  -3   0  11 1119.75 46.8398   1
  -2   0  11 -0.1272 8.91080  -3
  -2   0  11 -0.1272 8.91080   1
   5   0   7 976.270 22.2373  -2
  -1   0  11 976.270 22.2373   1
   0   0  11 -0.6268 2.58908   1
   1   0  11 275.114 9.29761   1
   2   0  11 11.5018 13.0220  -3
   2   0  11 11.5018 13.0220   1
   3   0  11 103.464 7.29569   1
   8   0   0 73.9675 15.5924  -2
   4   0  11 73.9675 15.5924   1
   5   0  11 39.3596 7.72257   1
   7   0  11 174.496 14.7503   1
 -10   0   6 22.3854 17.6612  -4
 -10   0   5 22.3854 17.6612  -2
   8   0  11 22.3854 17.6612   1
   9   0  11 40.8573 10.3064   1
 -10   1  11 276.673 18.7350   1
   1   1  18 168.031 14.8654  -4
  -9   1  11 168.031 14.8654   1
   1   1  17 372.450 23.8984  -2
  -8   1  11 372.450 23.8984   1
  -7   1  11 525.474 15.5707   1
  -6   1  11 302.037 9.79108   1
   3   1  13 729.374 15.4888  -2
  -5   1  11 729.374 15.4888   1
  -4   1  11 670.718 13.4146   1
   4   1  10 1116.94 25.3873  -2
  -3   1  11 1116.94 25.3873   1
  -2   1  11 908.748 13.6797   1
   5   1   7 813.826 16.5643  -2
  -1   1  11 813.826 16.5643   1
   5   1   7 812.755 32.1799  -4
  -1   1  11 812.755 32.1799  -3
   5   1   7 812.755 32.1799  -2
  -1   1  11 812.755 32.1799   1
   5   1   7 794.929 37.4059  -4
   5   1   7 794.929 37.4059  -2
  -1   1  11 794.929 37.4059   1
   0   1  11 849.988 22.0301  -3
   0   1  11 849.988 22.0301   1
   1   1  11 834.331 13.2681   1
   7   1   3 840.639 30.3090  -2
   2   1  11 840.639 30.3090   1
   2   1  11 859.689 23.8726  -3
   2   1  11 859.689 23.8726   1
   3   1  11 1292.08 46.6306  -3
   3   1  11 1292.08 46.6306   1
   8   1   0 684.504 17.0367  -2
   4   1  11 684.504 17.0367   1
   8   1   0 644.891 33.4644  -4
   8   1   0 644.891 33.4644  -2
   4   1  11 644.891 33.4644   1
   5   1  11 259.773 8.21330   1
  -9   1   3 571.644 32.2614  -4
   6   1  11 571.644 32.2614   1
   7   1  11 270.362 10.6555   1
 -10   1   6 401.361 19.1604  -4
 -10   1   5 401.361 19.1604  -2
   8   1  11 401.361 19.1604   1
   9   1  11 40.5661 7.44793   1
 -10   2  11 11.2748 10.3218   1
   1   2  18 131.880 17.2143  -4
  -9   2  11 131.880 17.2143   1
   1   2  17 10.5407 26.2538  -2
  -8   2  11 10.5407 26.2538   1
  -7   2  11 214.336 11.2835   1
  -6   2  11 10.2732 5.16169   1
   3   2  13 217.872 13.6984  -2
  -5   2  11 217.872 13.6984   1
  -4   2  11 32.6825 3.94764   1
   4   2  10 1087.24 22.7701  -2
  -3   2  11 1087.24 22.7701   1
   4   2  10 1069.32 39.7143  -4
  -3   2  11 1069.32 39.7143  -3
   4   2  10 1069.32 39.7143  -2
  -3   2  11 1069.32 39.7143   1
   4   2  10 1232.96 53.3996  -4
   4   2  10 1232.96 53.3996  -2
  -3   2  11 1232.96 53.3996   1
  -2   2  11 14.7296 11.8950  -3
  -2   2  11 14.7296 11.8950   1
   5   2   7 422.433 19.5094  -4
  -1   2  11 422.433 19.5094  -3
   5   2   7 422.433 19.5094  -2
  -1   2  11 422.433 19.5094   1
   5   2   7 437.864 13.2199  -2
  -1   2  11 437.864 13.2199   1
   0   2  11 4.04849 9.18116  -3
   0   2  11 4.04849 9.18116   1
   1   2  11 1715.02 26.2965   1
   2   2  11 12.5069 7.95352  -3
   2   2  11 12.5069 7.95352   1
   3   2  11 1400.68 28.4396  -3
   3   2  11 1400.68 28.4396   1
   8   2   0 4.41820 7.21016  -2
   4   2  11 4.41820 7.21016   1
   8   2   0 -5.0981 22.4800  -4
   4   2  11 -5.0981 22.4800  -3
   8   2   0 -5.0981 22.4800  -2
   4   2  11 -5.0981 22.4800   1
   5   2  11 1530.24 58.5319  -3
   5   2  11 1530.24 58.5319   1
  -9   2   3 23.8755 18.0678  -4
   6   2  11 23.8755 18.0678   1
   7   2  11 1136.50 22.3983   1
 -10   2   6 -20.767 14.5360  -4
 -10   2   5 -20.767 14.5360  -2
   8   2  11 -20.767 14.5360   1
   9   2  11 662.518 18.1314   1
 -10   3  11 132.794 21.4820   1
   1   3  18 229.673 28.0559  -4
  -9   3  11 229.673 28.0559   1
   1   3  17 317.559 22.9704  -2
  -8   3  11 317.559 22.9704   1
  -7   3  11 624.060 15.0810   1
  -6   3  11 627.495 14.5789   1
   3   3  13 401.520 20.4121  -2
  -5   3  11 401.520 20.4121   1
   3   3  13 385.148 27.1006  -4
   3   3  13 385.148 27.1006  -2
  -5   3  11 385.148 27.1006   1
  -4   3  11 481.440 27.1607  -3
  -4   3  11 481.440 27.1607   1
   4   3  10 978.345 39.3768  -4
  -3   3  11 978.345 39.3768  -3
   4   3  10 978.345 39.3768  -2
  -3   3  11 978.345 39.3768   1
   4   3  10 953.135 21.6161  -2
  -3   3  11 953.135 21.6161   1
  -2   3  11 657.211 30.0837  -3
  -2   3  11 657.211 30.0837   1
   5   3   7 1342.28 28.0445  -4
  -1   3  11 1342.28 28.0445  -3
   5   3   7 1342.28 28.0445  -2
  -1   3  11 1342.28 28.0445   1
   5   3   7 1373.36 27.1550  -2
  -1   3  11 1373.36 27.1550   1
   0   3  11 880.718 20.4500  -3
   0   3  11 880.718 20.4500   1
   1   3  11 760.952 32.8468  -3
   1   3  11 760.952 32.8468   1
   2   3  11 644.487 30.5521  -3
   2   3  11 644.487 30.5521   1
   3   3  11 1025.74 23.5594  -3
   3   3  11 1025.74 23.5594   1
   8   3   0 737.770 23.6982  -2
   4   3  11 737.770 23.6982   1
   5   3  11 89.9910 15.2936  -3
   5   3  11 89.9910 15.2936   1
  -9   3   3 353.051 26.4400  -2
   6   3  11 353.051 26.4400   1
   7   3  11 180.289 9.26159   1
 -10   3   6 433.629 20.4229  -4
 -10   3   5 433.629 20.4229  -2
   8   3  11 433.629 20.4229   1
   9   3  11 101.061 9.51579   1
   1   4  18 352.991 32.7778  -4
  -9   4  11 352.991 32.7778   1
   1   4  17 21.7198 16.6652  -2
  -8   4  11 21.7198 16.6652   1
  -7   4  11 641.453 15.8898   1
  -6   4  11 8.95117 4.31778   1
   3   4  13 918.051 32.7930  -4
   3   4  13 918.051 32.7930  -2
  -5   4  11 918.051 32.7930   1
   3   4  13 946.140 24.1364  -2
  -5   4  11 946.140 24.1364   1
   4   4  11 17.7162 12.2991  -4
  -4   4  11 17.7162 12.2991   1
  -4   4  11 35.8348 17.3323  -3
  -4   4  11 35.8348 17.3323   1
   4   4  10 181.187 10.0925  -2
  -3   4  11 181.187 10.0925   1
   4   4  10 159.128 20.0292  -4
  -3   4  11 159.128 20.0292  -3
   4   4  10 159.128 20.0292  -2
  -3   4  11 159.128 20.0292   1
  -2   4  11 15.1084 13.3299  -3
  -2   4  11 15.1084 13.3299   1
   5   4   8 -2.8128 13.1977  -4
  -2   4  11 -2.8128 13.1977   1
   5   4   7 1127.68 25.5563  -4
  -1   4  11 1127.68 25.5563  -3
   5   4   7 1127.68 25.5563  -2
  -1   4  11 1127.68 25.5563   1
   5   4   7 1226.37 25.9420  -2
  -1   4  11 1226.37 25.9420   1
   0   4  11 17.5207 9.09057  -3
   0   4  11 17.5207 9.09057   1
   6   4   4 243.996 20.0095  -2
   1   4  11 243.996 20.0095   1
   1   4  11 190.651 17.7416  -3
   1   4  11 190.651 17.7416   1
   2   4  11 3.04273 12.5064  -3
   2   4  11 3.04273 12.5064   1
   3   4  11 374.523 14.7257  -3
   3   4  11 374.523 14.7257   1
   8   4   0 67.0248 17.6325  -2
   4   4  11 67.0248 17.6325   1
   5   4  11 72.9895 14.0726  -3
   5   4  11 72.9895 14.0726   1
   7   4  11 22.9857 5.45378   1
 -10   4   6 16.7906 18.9341  -4
   8   4  11 16.7906 18.9341   1
 -10   4   5 3.14272 23.1535  -2
   8   4  11 3.14272 23.1535   1
 -10   4   6 -29.269 29.6090  -4
 -10   4   5 -29.269 29.6090  -2
   8   4  11 -29.269 29.6090   1
   9   4  11 68.4404 17.7651   1
   1   5  17 389.142 34.6021  -2
  -8   5  11 389.142 34.6021   1
   2   5  15 421.104 44.6800  -4
   2   5  15 421.104 44.6800  -2
  -7   5  11 421.104 44.6800   1
  -6   5  11 422.220 11.4412   1
   3   5  13 348.013 19.5361  -2
  -5   5  11 348.013 19.5361   1
   3   5  13 390.859 40.4683  -4
   3   5  13 390.859 40.4683  -2
  -5   5  11 390.859 40.4683   1
   4   5  11 522.982 21.8620  -4
  -4   5  11 522.982 21.8620   1
  -4   5  11 537.072 32.5919  -3
  -4   5  11 537.072 32.5919   1
   4   5  10 693.950 35.2380  -4
  -3   5  11 693.950 35.2380  -3
   4   5  10 693.950 35.2380  -2
  -3   5  11 693.950 35.2380   1
   4   5  10 692.317 22.6742  -2
  -3   5  11 692.317 22.6742   1
  -2   5  11 395.491 25.7946  -3
  -2   5  11 395.491 25.7946   1
   5   5   8 434.204 26.1467  -4
  -2   5  11 434.204 26.1467   1
   5   5   7 927.434 31.9540  -4
  -1   5  11 927.434 31.9540  -3
   5   5   7 927.434 31.9540  -2
  -1   5  11 927.434 31.9540   1
   5   5   7 939.187 26.7181  -2
  -1   5  11 939.187 26.7181   1
   0   5  11 366.494 19.4072  -3
   0   5  11 366.494 19.4072   1
   6   5   5 382.500 17.9799  -4
   0   5  11 382.500 17.9799   1
   1   5  11 596.915 20.2307   1
   2   5  11 494.189 28.0151  -3
   2   5  11 494.189 28.0151   1
   3   5  11 465.929 21.7910  -3
   3   5  11 465.929 21.7910   1
   8   5   0 351.094 25.9159  -2
   4   5  11 351.094 25.9159   1
   5   5  11 103.384 12.1014  -3
   5   5  11 103.384 12.1014   1
   7   5  11 127.418 30.4933  -3
   7   5  11 127.418 30.4933   1
 -10   5   5 104.260 28.0514  -2
   8   5  11 104.260 28.0514   1
  -7   6  11 177.260 11.1882   1
   3   6  14 7.30278 22.8719  -4
  -6   6  11 7.30278 22.8719   1
   3   6  13 211.856 18.5557  -2
  -5   6  11 211.856 18.5557   1
   3   6  13 243.097 39.9960  -4
   3   6  13 243.097 39.9960  -2
  -5   6  11 243.097 39.9960   1
   4   6  11 -4.0504 13.1563  -4
  -4   6  11 -4.0504 13.1563   1
  -4   6  11 18.5143 20.7898  -3
  -4   6  11 18.5143 20.7898   1
   4   6  10 496.690 19.8142  -2
  -3   6  11 496.690 19.8142   1
   4   6  10 412.603 30.0343  -4
  -3   6  11 412.603 30.0343  -3
   4   6  10 412.603 30.0343  -2
  -3   6  11 412.603 30.0343   1
   5   6   8 -7.3529 11.6712  -4
  -2   6  11 -7.3529 11.6712   1
  -2   6  11 -14.848 14.8721  -3
  -2   6  11 -14.848 14.8721   1
   5   6   7 450.010 19.0755  -2
  -1   6  11 450.010 19.0755   1
   5   6   7 415.980 23.2970  -4
  -1   6  11 415.980 23.2970  -3
   5   6   7 415.980 23.2970  -2
  -1   6  11 415.980 23.2970   1
   0   6  11 53.4585 11.6311  -3
   0   6  11 53.4585 11.6311   1
   6   6   5 46.6541 12.5407  -4
   0   6  11 46.6541 12.5407   1
   1   6  11 592.077 30.8778  -3
   1   6  11 592.077 30.8778   1
   6   6   4 801.052 37.0942  -2
   1   6  11 801.052 37.0942   1
   2   6  11 -8.3043 14.1364  -3
   2   6  11 -8.3043 14.1364   1
   7   6   2 29.7383 18.9551  -4
   2   6  11 29.7383 18.9551   1
   3   6  11 718.614 27.8679  -3
   3   6  11 718.614 27.8679   1
   8   6   0 21.3386 14.5897  -2
   4   6  11 21.3386 14.5897   1
   5   6  11 960.505 31.9870  -3
   5   6  11 960.505 31.9870   1
   6   6  11 24.3421 13.9178   1
   7   6  11 525.786 27.9708  -3
   7   6  11 525.786 27.9708   1
  -6   7  11 179.280 10.7357   1
   3   7  13 354.782 24.9338  -2
  -5   7  11 354.782 24.9338   1
   3   7  13 413.171 44.9949  -4
   3   7  13 413.171 44.9949  -2
  -5   7  11 413.171 44.9949   1
  -4   7  11 289.768 29.4802  -3
  -4   7  11 289.768 29.4802   1
   4   7  11 305.380 20.4984  -4
  -4   7  11 305.380 20.4984   1
   4   7  10 409.755 16.5361  -2
  -3   7  11 409.755 16.5361   1
   4   7  10 370.504 30.3704  -4
  -3   7  11 370.504 30.3704  -3
   4   7  10 370.504 30.3704  -2
  -3   7  11 370.504 30.3704   1
   5   7   8 401.570 21.1854  -4
  -2   7  11 401.570 21.1854   1
  -2   7  11 311.973 24.7474  -3
  -2   7  11 311.973 24.7474   1
   5   7   7 357.898 18.1413  -2
  -1   7  11 357.898 18.1413   1
   5   7   7 317.919 22.2361  -4
  -1   7  11 317.919 22.2361  -3
   5   7   7 317.919 22.2361  -2
  -1   7  11 317.919 22.2361   1
   0   7  11 474.482 23.6109  -3
   0   7  11 474.482 23.6109   1
   6   7   5 555.234 23.5461  -4
   0   7  11 555.234 23.5461   1
   6   7   4 390.665 28.5606  -2
   1   7  11 390.665 28.5606   1
   1   7  11 252.121 21.3076  -3
   1   7  11 252.121 21.3076   1
   7   7   2 537.268 35.4635  -4
   2   7  11 537.268 35.4635   1
   2   7  11 377.927 32.8492  -3
   2   7  11 377.927 32.8492   1
   3   7  11 273.068 18.4953  -3
   3   7  11 273.068 18.4953   1
   8   7   0 494.714 33.1047  -2
   4   7  11 494.714 33.1047   1
   5   7  11 153.933 30.9256  -3
   5   7  11 153.933 30.9256   1
   4   8  11 30.3957 19.2096  -4
  -4   8  11 30.3957 19.2096   1
   4   8  10 309.092 30.7194  -4
  -3   8  11 309.092 30.7194  -3
   4   8  10 309.092 30.7194  -2
  -3   8  11 309.092 30.7194   1
   4   8  10 341.228 18.8267  -2
  -3   8  11 341.228 18.8267   1
   5   8   8 32.8298 14.2858  -4
  -2   8  11 32.8298 14.2858   1
  -2   8  11 18.2969 15.2132  -3
  -2   8  11 18.2969 15.2132   1
   5   8   7 295.646 18.6637  -2
  -1   8  11 295.646 18.6637   1
   5   8   7 275.910 24.2716  -4
  -1   8  11 275.910 24.2716  -3
   5   8   7 275.910 24.2716  -2
  -1   8  11 275.910 24.2716   1
   6   8   5 12.7547 13.6890  -4
   0   8  11 12.7547 13.6890   1
   0   8  11 9.75686 13.0318  -3
   0   8  11 9.75686 13.0318   1
   1   8  11 106.994 19.0963  -3
   1   8  11 106.994 19.0963   1
   6   8   4 137.742 23.2340  -2
   1   8  11 137.742 23.2340   1
   7   8   2 6.15228 15.1267  -4
   2   8  11 6.15228 15.1267   1
   3   8  11 99.3927 17.1405  -3
   3   8  11 99.3927 17.1405   1
   1   0  19 -6.4647 29.5235  -2
  -9   0  12 -6.4647 29.5235   1
   2   0  17 786.734 41.0497  -4
  -8   0  12 786.734 41.0497   1
  -7   0  12 -6.9896 7.11613   1
  -6   0  12 2040.79 50.0466   1
  -5   0  12 -2.3839 5.76908   1
   4   0  12 2055.52 48.2691  -2
  -4   0  12 2055.52 48.2691   1
  -3   0  12 0.67977 3.91127   1
   5   0   9 3042.10 83.6187  -2
  -2   0  12 3042.10 83.6187   1
  -1   0  12 1.81462 2.73291   1
   0   0  12 4924.82 74.7362   1
   1   0  12 2.83792 13.0280  -3
   1   0  12 2.83792 13.0280   1
   2   0  12 3250.89 52.1452   1
   8   0   2 9.17574 9.57494  -2
   3   0  12 9.17574 9.57494   1
   4   0  12 2780.02 56.6511   1
   6   0  12 1726.23 41.1097   1
 -10   0   4 -25.081 16.6424  -4
   7   0  12 -25.081 16.6424   1
   8   0  12 1639.27 42.0363   1
 -11   0   7 11.5717 26.2575  -4
 -11   0   6 11.5717 26.2575  -2
   9   0  12 11.5717 26.2575   1
   1   1  19 423.385 30.3689  -2
  -9   1  12 423.385 30.3689   1
   2   1  17 205.756 27.6474  -4
  -8   1  12 205.756 27.6474   1
  -7   1  12 343.792 13.3136   1
   3   1  15 279.141 31.0746  -2
  -6   1  12 279.141 31.0746   1
  -5   1  12 461.013 11.7356   1
   4   1  12 118.372 8.75167  -2
  -4   1  12 118.372 8.75167   1
  -3   1  12 482.507 23.3767  -3
  -3   1  12 482.507 23.3767   1
   5   1   9 46.6537 6.67079  -2
  -2   1  12 46.6537 6.67079   1
   5   1   9 43.6056 14.3197  -4
  -2   1  12 43.6056 14.3197  -3
   5   1   9 43.6056 14.3197  -2
  -2   1  12 43.6056 14.3197   1
  -1   1  12 634.523 27.3582  -3
  -1   1  12 634.523 27.3582   1
   0   1  12 93.9420 13.2860  -3
   0   1  12 93.9420 13.2860   1
   6   1   6 104.529 8.33011  -2
   0   1  12 104.529 8.33011   1
   1   1  12 1203.67 42.9846  -3
   1   1  12 1203.67 42.9846   1
   2   1  12 66.4020 4.23210   1
   8   1   2 596.260 12.8068  -2
   3   1  12 596.260 12.8068   1
   4   1  12 28.0887 18.6872  -3
   4   1  12 28.0887 18.6872   1
   6   1  12 0.94230 4.73095   1
 -10   1   4 475.534 29.6658  -4
   7   1  12 475.534 29.6658   1
 -10   1   4 510.740 35.1830  -4
 -10   1   3 510.740 35.1830  -2
   7   1  12 510.740 35.1830   1
   8   1  12 12.9526 6.10457   1
 -11   1   7 313.661 19.9897  -4
 -11   1   6 313.661 19.9897  -2
   9   1  12 313.661 19.9897   1
   1   2  19 40.7739 22.9288  -2
  -9   2  12 40.7739 22.9288   1
   2   2  17 92.6141 19.0198  -4
  -8   2  12 92.6141 19.0198   1
  -7   2  12 38.2443 7.07241   1
  -6   2  12 15.5384 5.63770   1
  -5   2  12 2.56214 3.94344   1
   4   2  12 16.9460 8.82197  -2
  -4   2  12 16.9460 8.82197   1
  -3   2  12 21.2462 13.6287  -3
  -3   2  12 21.2462 13.6287   1
   5   2  10 9.27933 15.4783  -4
  -3   2  12 9.27933 15.4783   1
   5   2   9 15.4790 6.31993  -2
  -2   2  12 15.4790 6.31993   1
   5   2   9 7.92463 14.3578  -4
  -2   2  12 7.92463 14.3578  -3
   5   2   9 7.92463 14.3578  -2
  -2   2  12 7.92463 14.3578   1
  -1   2  12 11.8844 12.8894  -3
  -1   2  12 11.8844 12.8894   1
   6   2   6 20.2860 9.30034  -2
   0   2  12 20.2860 9.30034   1
   1   2  12 29.7219 12.7429  -3
   1   2  12 29.7219 12.7429   1
   2   2  12 27.2014 4.67043   1
   8   2   2 116.410 12.8064  -2
   3   2  12 116.410 12.8064   1
   8   2   2 114.480 28.1528  -4
   3   2  12 114.480 28.1528  -3
   8   2   2 114.480 28.1528  -2
   3   2  12 114.480 28.1528   1
   4   2  12 19.9475 18.4275  -3
   4   2  12 19.9475 18.4275   1
   6   2  12 15.0869 5.21752   1
 -10   2   4 65.1498 25.7071  -4
 -10   2   3 65.1498 25.7071  -2
   7   2  12 65.1498 25.7071   1
 -10   2   4 16.1043 18.2377  -4
   7   2  12 16.1043 18.2377   1
   8   2  12 8.81901 5.97363   1
 -11   2   7 13.4465 26.6671  -4
 -11   2   6 13.4465 26.6671  -2
   9   2  12 13.4465 26.6671   1
 -11   2   6 29.8107 23.1750  -2
   9   2  12 29.8107 23.1750   1
  -9   3  12 124.526 15.4904   1
  -8   3  12 202.567 13.1363   1
  -7   3  12 300.189 12.9281   1
   3   3  15 161.000 15.7056  -2
  -6   3  12 161.000 15.7056   1
   4   3  13 496.918 30.8654  -4
  -5   3  12 496.918 30.8654   1
   4   3  12 135.432 13.8836  -2
  -4   3  12 135.432 13.8836   1
   4   3  12 181.645 28.1824  -4
   4   3  12 181.645 28.1824  -2
  -4   3  12 181.645 28.1824   1
   5   3  10 634.682 32.2882  -4
  -3   3  12 634.682 32.2882   1
  -3   3  12 571.422 29.1388  -3
  -3   3  12 571.422 29.1388   1
   5   3   9 127.650 25.4723  -4
   5   3   9 127.650 25.4723  -2
  -2   3  12 127.650 25.4723   1
   5   3   9 114.408 8.67155  -2
  -2   3  12 114.408 8.67155   1
   5   3   9 75.3376 16.8602  -4
  -2   3  12 75.3376 16.8602  -3
   5   3   9 75.3376 16.8602  -2
  -2   3  12 75.3376 16.8602   1
   6   3   7 695.980 32.4510  -4
  -1   3  12 695.980 32.4510   1
  -1   3  12 648.600 30.8361  -3
  -1   3  12 648.600 30.8361   1
   6   3   6 129.313 9.88337  -2
   0   3  12 129.313 9.88337   1
   6   3   6 99.5274 20.4241  -4
   0   3  12 99.5274 20.4241  -3
   6   3   6 99.5274 20.4241  -2
   0   3  12 99.5274 20.4241   1
   1   3  12 378.473 18.9723  -3
   1   3  12 378.473 18.9723   1
   2   3  12 -3.4107 4.73784   1
   8   3   2 600.596 41.5554  -4
   3   3  12 600.596 41.5554  -3
   8   3   2 600.596 41.5554  -2
   3   3  12 600.596 41.5554   1
   3   3  12 576.075 28.9483  -3
   8   3   2 576.075 28.9483  -2
   3   3  12 576.075 28.9483   1
   8   3   2 579.491 29.5723  -2
   3   3  12 579.491 29.5723   1
   4   3  12 3.16741 9.93557  -3
   4   3  12 3.16741 9.93557   1
   6   3  12 18.8583 5.04052   1
 -10   3   4 293.873 21.9617  -4
 -10   3   3 293.873 21.9617  -2
   7   3  12 293.873 21.9617   1
 -10   3   4 235.486 24.6074  -4
   7   3  12 235.486 24.6074   1
   8   3  12 11.2857 6.11750   1
  -9   4  12 -0.9961 12.9803   1
   2   4  17 711.619 41.6065  -4
  -8   4  12 711.619 41.6065   1
  -7   4  12 4.31183 5.25519   1
   3   4  15 1365.49 64.2048  -2
  -6   4  12 1365.49 64.2048   1
   4   4  13 -4.8860 19.2781  -4
  -5   4  12 -4.8860 19.2781   1
   4   4  12 2011.07 38.7698  -2
  -4   4  12 2011.07 38.7698   1
  -3   4  12 8.77827 15.8484  -3
  -3   4  12 8.77827 15.8484   1
   5   4  10 -3.7336 11.5684  -4
  -3   4  12 -3.7336 11.5684   1
   5   4   9 2277.54 49.3368  -4
  -2   4  12 2277.54 49.3368  -3
   5   4   9 2277.54 49.3368  -2
  -2   4  12 2277.54 49.3368   1
   5   4   9 2445.17 43.7733  -2
  -2   4  12 2445.17 43.7733   1
   5   4   9 2635.75 97.6309  -4
   5   4   9 2635.75 97.6309  -2
  -2   4  12 2635.75 97.6309   1
   6   4   7 26.5828 15.8084  -4
  -1   4  12 26.5828 15.8084   1
  -1   4  12 -2.1660 9.84661  -3
  -1   4  12 -2.1660 9.84661   1
   6   4   6 2112.07 39.1176  -2
   0   4  12 2112.07 39.1176   1
   6   4   6 2088.59 70.2294  -4
   0   4  12 2088.59 70.2294  -3
   6   4   6 2088.59 70.2294  -2
   0   4  12 2088.59 70.2294   1
   7   4   4 -2.0194 11.5973  -4
   1   4  12 -2.0194 11.5973   1
   1   4  12 5.68506 10.5728  -3
   1   4  12 5.68506 10.5728   1
   7   4   3 2756.16 79.3650  -2
   2   4  12 2756.16 79.3650   1
   2   4  12 2566.85 61.3322  -3
   2   4  12 2566.85 61.3322   1
   3   4  12 0.41721 5.57597   1
   4   4  12 2591.14 48.0371  -3
   4   4  12 2591.14 48.0371   1
   6   4  12 1758.74 72.8357  -3
   6   4  12 1758.74 72.8357   1
 -10   4   4 -27.567 23.7525  -4
 -10   4   3 -27.567 23.7525  -2
   7   4  12 -27.567 23.7525   1
 -10   4   4 -23.374 17.7114  -4
   7   4  12 -23.374 17.7114   1
   8   4  12 1046.33 23.0966   1
  -8   5  12 128.317 14.5820   1
  -7   5  12 314.747 14.3482   1
   3   5  15 153.866 39.2727  -4
   3   5  15 153.866 39.2727  -2
  -6   5  12 153.866 39.2727   1
   4   5  13 404.246 29.2578  -4
  -5   5  12 404.246 29.2578   1
   4   5  12 92.3828 13.4838  -2
  -4   5  12 92.3828 13.4838   1
   5   5  10 893.480 28.2043  -4
  -3   5  12 893.480 28.2043   1
  -3   5  12 760.764 37.5540  -3
  -3   5  12 760.764 37.5540   1
   5   5   9 60.6083 15.0087  -4
  -2   5  12 60.6083 15.0087  -3
   5   5   9 60.6083 15.0087  -2
  -2   5  12 60.6083 15.0087   1
   5   5   9 58.7249 8.55325  -2
  -2   5  12 58.7249 8.55325   1
  -1   5  12 612.991 32.3135  -3
  -1   5  12 612.991 32.3135   1
   6   5   7 678.458 23.5826  -4
  -1   5  12 678.458 23.5826   1
   6   5   6 89.2447 12.8659  -2
   0   5  12 89.2447 12.8659   1
   6   5   6 77.7372 21.9279  -4
   0   5  12 77.7372 21.9279  -3
   6   5   6 77.7372 21.9279  -2
   0   5  12 77.7372 21.9279   1
   7   5   4 570.186 22.8101  -4
   1   5  12 570.186 22.8101   1
   1   5  12 388.561 19.7557  -3
   1   5  12 388.561 19.7557   1
   2   5  12 16.3063 15.2950  -3
   2   5  12 16.3063 15.2950   1
   8   5   2 748.551 49.7002  -4
   3   5  12 748.551 49.7002  -3
   8   5   2 748.551 49.7002  -2
   3   5  12 748.551 49.7002   1
   4   5  12 -0.9153 12.1072  -3
   4   5  12 -0.9153 12.1072   1
   6   5  12 6.37910 15.9279  -3
   6   5  12 6.37910 15.9279   1
 -10   5   4 240.194 26.6826  -4
   7   5  12 240.194 26.6826   1
   8   5  12 11.0468 14.2599   1
  -7   6  12 -3.2362 7.08268   1
   3   6  15 43.3305 38.3775  -4
   3   6  15 43.3305 38.3775  -2
  -6   6  12 43.3305 38.3775   1
   4   6  13 3.64156 14.7457  -4
  -5   6  12 3.64156 14.7457   1
   4   6  12 11.1650 12.7300  -2
  -4   6  12 11.1650 12.7300   1
   4   6  12 34.0998 29.1551  -4
   4   6  12 34.0998 29.1551  -2
  -4   6  12 34.0998 29.1551   1
   5   6  10 15.3073 14.2163  -4
  -3   6  12 15.3073 14.2163   1
  -3   6  12 15.9098 18.9289  -3
  -3   6  12 15.9098 18.9289   1
   5   6   9 11.3413 14.9230  -4
  -2   6  12 11.3413 14.9230  -3
   5   6   9 11.3413 14.9230  -2
  -2   6  12 11.3413 14.9230   1
   5   6   9 7.48128 9.90581  -2
  -2   6  12 7.48128 9.90581   1
   6   6   7 11.5641 12.1678  -4
  -1   6  12 11.5641 12.1678   1
  -1   6  12 20.4389 13.7030  -3
  -1   6  12 20.4389 13.7030   1
   6   6   6 23.4386 12.2008  -2
   0   6  12 23.4386 12.2008   1
   6   6   6 34.5945 17.7874  -4
   0   6  12 34.5945 17.7874  -3
   6   6   6 34.5945 17.7874  -2
   0   6  12 34.5945 17.7874   1
   7   6   4 8.08728 13.0830  -4
   1   6  12 8.08728 13.0830   1
   1   6  12 4.60182 8.70680  -3
   1   6  12 4.60182 8.70680   1
   2   6  12 13.6907 13.0602  -3
   2   6  12 13.6907 13.0602   1
   8   6   2 76.2254 33.7627  -4
   3   6  12 76.2254 33.7627  -3
   8   6   2 76.2254 33.7627  -2
   3   6  12 76.2254 33.7627   1
   4   6  12 2.86990 13.3198  -3
   4   6  12 2.86990 13.3198   1
  -9   6   1 40.5073 22.7889  -2
   5   6  12 40.5073 22.7889   1
   6   6  12 -0.1714 14.9924  -3
   6   6  12 -0.1714 14.9924   1
  -6   7  12 105.235 13.6027   1
   4   7  13 293.272 30.8594  -4
  -5   7  12 293.272 30.8594   1
   4   7  12 83.8831 15.8274  -2
  -4   7  12 83.8831 15.8274   1
   4   7  12 106.785 33.5740  -4
   4   7  12 106.785 33.5740  -2
  -4   7  12 106.785 33.5740   1
   5   7  10 104.808 16.2682  -4
  -3   7  12 104.808 16.2682   1
  -3   7  12 102.337 23.2946  -3
  -3   7  12 102.337 23.2946   1
   5   7   9 40.6464 11.8686  -2
  -2   7  12 40.6464 11.8686   1
   5   7   9 29.1393 19.4086  -4
  -2   7  12 29.1393 19.4086  -3
   5   7   9 29.1393 19.4086  -2
  -2   7  12 29.1393 19.4086   1
   6   7   7 295.880 18.7209  -4
  -1   7  12 295.880 18.7209   1
  -1   7  12 216.976 22.4649  -3
  -1   7  12 216.976 22.4649   1
   6   7   6 51.2608 34.2876  -4
   0   7  12 51.2608 34.2876  -3
   6   7   6 51.2608 34.2876  -2
   0   7  12 51.2608 34.2876   1
   6   7   6 43.0786 14.1460  -2
   0   7  12 43.0786 14.1460   1
   0   7  12 27.7042 14.2849  -3
   0   7  12 27.7042 14.2849   1
   7   7   4 199.085 17.7842  -4
   1   7  12 199.085 17.7842   1
   1   7  12 133.262 14.9273  -3
   1   7  12 133.262 14.9273   1
   2   7  12 23.0134 14.4940  -3
   2   7  12 23.0134 14.4940   1
   8   7   1 231.498 28.3503  -4
   3   7  12 231.498 28.3503   1
   4   7  12 12.7698 14.0430  -3
   4   7  12 12.7698 14.0430   1
   5   7  12 141.439 22.2566   1
   5   8  10 22.5415 21.9106  -4
  -3   8  12 22.5415 21.9106   1
   5   8   9 1124.33 34.5272  -2
  -2   8  12 1124.33 34.5272   1
   5   8   9 954.008 48.6162  -4
  -2   8  12 954.008 48.6162  -3
   5   8   9 954.008 48.6162  -2
  -2   8  12 954.008 48.6162   1
   6   8   7 -4.3473 13.5962  -4
  -1   8  12 -4.3473 13.5962   1
  -1   8  12 -1.6300 12.9780  -3
  -1   8  12 -1.6300 12.9780   1
   6   8   6 1434.72 75.7320  -4
   0   8  12 1434.72 75.7320  -3
   6   8   6 1434.72 75.7320  -2
   0   8  12 1434.72 75.7320   1
   6   8   6 1553.87 42.7366  -2
   0   8  12 1553.87 42.7366   1
   0   8  12 1211.31 52.9887  -3
   0   8  12 1211.31 52.9887   1
   7   8   4 -14.277 14.4182  -4
   1   8  12 -14.277 14.4182   1
   1   8  12 -16.206 12.0901  -3
   1   8  12 -16.206 12.0901   1
   2   8  12 990.980 47.3899  -3
   2   8  12 990.980 47.3899   1
   3   8  12 30.3729 16.1516   1
   2   0  19 92.5162 27.4559  -4
  -9   0  13 92.5162 27.4559   1
  -8   0  13 4.73760 9.51043   1
  -7   0  13 11.5983 8.72728   1
  -6   0  13 3.99358 7.34931   1
   4   0  14 36.1046 13.3569  -2
  -5   0  13 36.1046 13.3569   1
  -4   0  13 9.02778 6.74737   1
   5   0  11 45.2542 14.1028  -2
  -3   0  13 45.2542 14.1028   1
  -2   0  13 0.71705 3.75630   1
   6   0   8 22.1406 14.0673  -2
  -1   0  13 22.1406 14.0673   1
   0   0  13 -0.8530 12.7376  -3
   0   0  13 -0.8530 12.7376   1
   1   0  13 21.5701 4.74772   1
   8   0   4 17.4504 10.9610  -2
   2   0  13 17.4504 10.9610   1
   3   0  13 222.468 9.73222   1
   5   0  13 60.9169 9.44640   1
 -10   0   2 38.6076 29.6697  -4
   6   0  13 38.6076 29.6697  -3
 -10   0   1 38.6076 29.6697  -2
   6   0  13 38.6076 29.6697   1
   7   0  13 197.542 15.6644   1
 -11   0   5 34.3344 18.5568  -4
 -11   0   4 34.3344 18.5568  -2
   8   0  13 34.3344 18.5568   1
   9   0  13 107.719 25.2537   1
   2   1  19 58.9107 17.8335  -4
  -9   1  13 58.9107 17.8335   1
  -8   1  13 243.001 14.0260   1
  -7   1  13 0.53199 5.59889   1
  -6   1  13 525.040 15.7932   1
   4   1  14 109.074 10.4236  -2
  -5   1  13 109.074 10.4236   1
   5   1  12 457.128 28.6192  -4
  -4   1  13 457.128 28.6192   1
   5   1  11 30.6567 6.39005  -2
  -3   1  13 30.6567 6.39005   1
   5   1  11 27.4690 13.9448  -4
  -3   1  13 27.4690 13.9448  -3
   5   1  11 27.4690 13.9448  -2
  -3   1  13 27.4690 13.9448   1
  -2   1  13 542.520 26.1959  -3
  -2   1  13 542.520 26.1959   1
   6   1   8 158.174 8.34530  -2
  -1   1  13 158.174 8.34530   1
   0   1  13 594.830 27.6015  -3
   0   1  13 594.830 27.6015   1
   1   1  13 338.027 7.35585   1
   8   1   4 599.304 26.7886  -2
   2   1  13 599.304 26.7886   1
   2   1  13 568.333 30.1346  -3
   2   1  13 568.333 30.1346   1
   3   1  13 398.996 26.9498  -3
   3   1  13 398.996 26.9498   1
   5   1  13 344.669 11.2502   1
 -10   1   2 339.292 35.7284  -4
   6   1  13 339.292 35.7284  -3
 -10   1   1 339.292 35.7284  -2
   6   1  13 339.292 35.7284   1
   7   1  13 329.421 12.4742   1
 -11   1   5 314.009 16.7434  -4
 -11   1   4 314.009 16.7434  -2
   8   1  13 314.009 16.7434   1
   9   1  13 137.915 26.4633   1
  -8   2  13 1.87234 6.40752   1
  -7   2  13 1249.05 26.7616   1
  -6   2  13 6.43568 5.57639   1
   4   2  14 1813.83 39.7494  -2
  -5   2  13 1813.83 39.7494   1
   5   2  12 42.7672 18.6742  -4
  -4   2  13 42.7672 18.6742   1
   5   2  11 2722.07 81.9776  -4
  -3   2  13 2722.07 81.9776  -3
   5   2  11 2722.07 81.9776  -2
  -3   2  13 2722.07 81.9776   1
   5   2  11 2758.43 52.0260  -2
  -3   2  13 2758.43 52.0260   1
   6   2   9 6.44643 15.5714  -4
  -2   2  13 6.44643 15.5714   1
  -2   2  13 -2.7831 13.4280  -3
  -2   2  13 -2.7831 13.4280   1
   6   2   8 2314.81 72.6405  -4
  -1   2  13 2314.81 72.6405  -3
   6   2   8 2314.81 72.6405  -2
  -1   2  13 2314.81 72.6405   1
   6   2   8 2408.89 42.4202  -2
  -1   2  13 2408.89 42.4202   1
   0   2  13 -5.6462 12.0186  -3
   0   2  13 -5.6462 12.0186   1
   7   2   6 3.20021 15.7436  -4
   0   2  13 3.20021 15.7436   1
   1   2  13 2838.97 42.9592   1
   2   2  13 11.1253 4.35278   1
   3   2  13 1273.28 49.7494  -3
   3   2  13 1273.28 49.7494   1
   9   2   1 47.7859 24.2866  -4
   9   2   1 47.7859 24.2866  -2
   4   2  13 47.7859 24.2866   1
   9   2   1 10.1664 15.5553  -2
   4   2  13 10.1664 15.5553   1
   5   2  13 1127.33 19.2916   1
 -10   2   2 3.18481 19.2274  -4
   6   2  13 3.18481 19.2274   1
   7   2  13 569.248 15.9500   1
 -11   2   5 1.06106 13.5035  -4
 -11   2   4 1.06106 13.5035  -2
   8   2  13 1.06106 13.5035   1
  -8   3  13 275.780 14.8120   1
  -7   3  13 9.74644 5.45135   1
   4   3  15 405.281 30.5763  -4
  -6   3  13 405.281 30.5763   1
   4   3  14 111.022 13.1853  -2
  -5   3  13 111.022 13.1853   1
   5   3  12 523.392 24.2019  -4
  -4   3  13 523.392 24.2019   1
   5   3  11 23.2306 16.4407  -4
  -3   3  13 23.2306 16.4407  -3
   5   3  11 23.2306 16.4407  -2
  -3   3  13 23.2306 16.4407   1
   5   3  11 4.22999 6.27939  -2
  -3   3  13 4.22999 6.27939   1
   6   3   9 632.885 18.4603  -4
  -2   3  13 632.885 18.4603   1
  -2   3  13 617.535 30.9924  -3
  -2   3  13 617.535 30.9924   1
   6   3   8 481.894 15.8910  -2
  -1   3  13 481.894 15.8910   1
   6   3   8 473.608 20.4308  -4
  -1   3  13 473.608 20.4308  -3
   6   3   8 473.608 20.4308  -2
  -1   3  13 473.608 20.4308   1
   0   3  13 720.281 33.5181  -3
   0   3  13 720.281 33.5181   1
   7   3   6 768.536 35.6872  -4
   0   3  13 768.536 35.6872   1
   7   3   5 328.523 23.1853  -2
   1   3  13 328.523 23.1853   1
   8   3   4 762.141 49.1791  -4
   2   3  13 762.141 49.1791  -3
   8   3   4 762.141 49.1791  -2
   2   3  13 762.141 49.1791   1
   3   3  13 190.789 17.3487  -3
   3   3  13 190.789 17.3487   1
   9   3   1 611.466 32.8104  -2
   4   3  13 611.466 32.8104   1
   5   3  13 321.989 9.28684   1
 -10   3   2 483.616 43.1984  -4
   6   3  13 483.616 43.1984  -3
 -10   3   1 483.616 43.1984  -2
   6   3  13 483.616 43.1984   1
 -10   3   2 369.904 19.4907  -4
   6   3  13 369.904 19.4907   1
   7   3  13 134.913 9.96243   1
 -11   3   5 282.042 33.0604  -4
 -11   3   4 282.042 33.0604  -2
   8   3  13 282.042 33.0604   1
 -11   3   5 251.948 29.1344  -4
   8   3  13 251.948 29.1344   1
   2   4  18 31.8887 24.1433  -2
  -8   4  13 31.8887 24.1433   1
  -7   4  13 10.5126 6.55334   1
  -6   4  13 0.38017 6.10374   1
   4   4  14 28.0648 14.2702  -2
  -5   4  13 28.0648 14.2702   1
   4   4  14 23.5462 31.8052  -4
   4   4  14 23.5462 31.8052  -2
  -5   4  13 23.5462 31.8052   1
  -4   4  13 -4.4918 18.0501  -3
  -4   4  13 -4.4918 18.0501   1
   5   4  12 5.86804 11.2003  -4
  -4   4  13 5.86804 11.2003   1
   5   4  11 19.2378 17.9024  -4
  -3   4  13 19.2378 17.9024  -3
   5   4  11 19.2378 17.9024  -2
  -3   4  13 19.2378 17.9024   1
   5   4  11 8.89430 7.86731  -2
  -3   4  13 8.89430 7.86731   1
   5   4  11 27.6463 24.2383  -4
   5   4  11 27.6463 24.2383  -2
  -3   4  13 27.6463 24.2383   1
  -2   4  13 26.7775 15.9152  -3
  -2   4  13 26.7775 15.9152   1
   6   4   9 30.3911 9.98221  -4
  -2   4  13 30.3911 9.98221   1
   6   4   8 31.0663 9.16020  -2
  -1   4  13 31.0663 9.16020   1
   6   4   8 30.8234 17.4216  -4
  -1   4  13 30.8234 17.4216  -3
   6   4   8 30.8234 17.4216  -2
  -1   4  13 30.8234 17.4216   1
   0   4  13 0.34089 13.8156  -3
   0   4  13 0.34089 13.8156   1
   7   4   6 -9.0411 10.9493  -4
   0   4  13 -9.0411 10.9493   1
   1   4  13 28.9211 7.43141   1
   8   4   4 21.5922 31.5691  -4
   2   4  13 21.5922 31.5691  -3
   8   4   4 21.5922 31.5691  -2
   2   4  13 21.5922 31.5691   1
   3   4  13 67.1658 15.6749  -3
   3   4  13 67.1658 15.6749   1
   9   4   1 23.3132 13.6856  -2
   4   4  13 23.3132 13.6856   1
   9   4   1 38.4479 29.8833  -4
   4   4  13 38.4479 29.8833  -3
   9   4   1 38.4479 29.8833  -2
   4   4  13 38.4479 29.8833   1
   5   4  13 55.1773 13.2746  -3
   5   4  13 55.1773 13.2746   1
   7   4  13 131.175 8.89580   1
  -7   5  13 1.98135 5.89483   1
  -6   5  13 69.3947 7.76764   1
   4   5  14 77.4407 22.6168  -2
  -5   5  13 77.4407 22.6168   1
   4   5  14 135.519 35.2896  -4
   4   5  14 135.519 35.2896  -2
  -5   5  13 135.519 35.2896   1
   5   5  12 387.884 20.6983  -4
  -4   5  13 387.884 20.6983   1
  -4   5  13 309.104 28.2247  -3
  -4   5  13 309.104 28.2247   1
   5   5  11 21.6240 8.00851  -2
  -3   5  13 21.6240 8.00851   1
   5   5  11 -11.243 18.5739  -4
  -3   5  13 -11.243 18.5739  -3
   5   5  11 -11.243 18.5739  -2
  -3   5  13 -11.243 18.5739   1
  -2   5  13 343.444 26.6136  -3
  -2   5  13 343.444 26.6136   1
   6   5   9 400.772 16.6774  -4
  -2   5  13 400.772 16.6774   1
   6   5   8 283.399 13.6843  -2
  -1   5  13 283.399 13.6843   1
   6   5   8 253.961 22.4629  -4
  -1   5  13 253.961 22.4629  -3
   6   5   8 253.961 22.4629  -2
  -1   5  13 253.961 22.4629   1
   7   5   6 408.082 19.7724  -4
   0   5  13 408.082 19.7724   1
   0   5  13 193.623 25.0958  -3
   0   5  13 193.623 25.0958   1
   1   5  13 222.670 14.7925   1
   8   5   3 436.812 30.1834  -4
   2   5  13 436.812 30.1834   1
   3   5  13 254.268 20.0699  -3
   3   5  13 254.268 20.0699   1
   9   5   1 263.435 26.2616  -2
   4   5  13 263.435 26.2616   1
   5   5  13 203.681 30.6055  -3
   5   5  13 203.681 30.6055   1
   7   5  13 135.376 12.0534   1
  -6   6  13 2.70238 7.75616   1
   4   6  14 1165.25 67.4150  -4
   4   6  14 1165.25 67.4150  -2
  -5   6  13 1165.25 67.4150   1
   4   6  14 1119.35 34.7769  -2
  -5   6  13 1119.35 34.7769   1
   5   6  12 15.1726 14.3514  -4
  -4   6  13 15.1726 14.3514   1
  -4   6  13 19.7479 22.2717  -3
  -4   6  13 19.7479 22.2717   1
   5   6  11 1597.45 34.7728  -2
  -3   6  13 1597.45 34.7728   1
   5   6  11 1501.33 60.4876  -4
  -3   6  13 1501.33 60.4876  -3
   5   6  11 1501.33 60.4876  -2
  -3   6  13 1501.33 60.4876   1
  -2   6  13 15.6253 19.0764  -3
  -2   6  13 15.6253 19.0764   1
   6   6   9 -0.4227 12.2441  -4
  -2   6  13 -0.4227 12.2441   1
   6   6   8 1620.69 41.2961  -2
  -1   6  13 1620.69 41.2961   1
   6   6   8 1434.27 45.5303  -4
  -1   6  13 1434.27 45.5303  -3
   6   6   8 1434.27 45.5303  -2
  -1   6  13 1434.27 45.5303   1
   7   6   6 5.20837 12.7189  -4
   0   6  13 5.20837 12.7189   1
   0   6  13 -3.5336 12.9910  -3
   0   6  13 -3.5336 12.9910   1
   1   6  13 1052.38 47.1852  -3
   1   6  13 1052.38 47.1852   1
   8   6   3 15.6101 13.5816  -4
   2   6  13 15.6101 13.5816   1
   8   6   4 48.3508 37.1827  -4
   2   6  13 48.3508 37.1827  -3
   8   6   4 48.3508 37.1827  -2
   2   6  13 48.3508 37.1827   1
   3   6  13 715.049 29.4586  -3
   3   6  13 715.049 29.4586   1
   9   6   1 21.7275 21.3198  -2
   4   6  13 21.7275 21.3198   1
   5   6  13 611.329 28.5400  -3
   5   6  13 611.329 28.5400   1
   5   7  12 422.879 23.8908  -4
  -4   7  13 422.879 23.8908   1
  -4   7  13 354.663 33.6544  -3
  -4   7  13 354.663 33.6544   1
   5   7  11 37.0074 12.0834  -2
  -3   7  13 37.0074 12.0834   1
   5   7  11 31.6026 22.2545  -4
  -3   7  13 31.6026 22.2545  -3
   5   7  11 31.6026 22.2545  -2
  -3   7  13 31.6026 22.2545   1
  -2   7  13 426.641 33.0401  -3
  -2   7  13 426.641 33.0401   1
   6   7   9 389.212 21.6636  -4
  -2   7  13 389.212 21.6636   1
   6   7   8 56.0663 20.8093  -4
  -1   7  13 56.0663 20.8093  -3
   6   7   8 56.0663 20.8093  -2
  -1   7  13 56.0663 20.8093   1
   6   7   8 57.5511 13.4548  -2
  -1   7  13 57.5511 13.4548   1
   7   7   6 308.757 19.7411  -4
   0   7  13 308.757 19.7411   1
   0   7  13 269.574 19.9858  -3
   0   7  13 269.574 19.9858   1
   7   7   5 120.167 22.9639  -2
   1   7  13 120.167 22.9639   1
   1   7  13 66.6343 15.9548  -3
   1   7  13 66.6343 15.9548   1
   8   7   3 364.806 21.8982  -4
   2   7  13 364.806 21.8982   1
   8   7   4 368.943 46.7684  -4
   2   7  13 368.943 46.7684  -3
   8   7   4 368.943 46.7684  -2
   2   7  13 368.943 46.7684   1
   3   7  13 166.354 17.1775  -3
   3   7  13 166.354 17.1775   1
   9   7   1 417.196 49.4924  -4
   4   7  13 417.196 49.4924  -3
   9   7   1 417.196 49.4924  -2
   4   7  13 417.196 49.4924   1
   0   8  13 0.31434 12.5148  -3
   0   8  13 0.31434 12.5148   1
   1   8  13 29.6155 23.3394   1
  -8   0  14 555.746 25.8114   1
  -7   0  14 6.53961 9.13261   1
   4   0  16 912.938 33.0055  -2
  -6   0  14 912.938 33.0055   1
   5   0  14 -11.734 17.5850  -4
  -5   0  14 -11.734 17.5850   1
   5   0  13 405.663 20.1329  -2
  -4   0  14 405.663 20.1329   1
   6   0  11 0.95102 13.0303  -4
  -3   0  14 0.95102 13.0303   1
   6   0  10 248.330 15.9467  -2
  -2   0  14 248.330 15.9467   1
  -1   0  14 3.82790 5.60048   1
   0   0  14 284.995 14.4710   1
   1   0  14 28.1654 16.1205  -3
   1   0  14 28.1654 16.1205   1
   2   0  14 216.929 8.68645   1
   4   0  14 274.051 14.4423   1
   6   0  14 110.001 12.2815   1
 -11   0   3 -11.581 25.4804  -4
 -11   0   2 -11.581 25.4804  -2
   7   0  14 -11.581 25.4804   1
   8   0  14 18.5256 9.65163   1
   3   1  18 196.867 28.2091  -4
  -8   1  14 196.867 28.2091   1
  -7   1  14 263.676 14.6055   1
   4   1  16 205.881 13.9917  -2
  -6   1  14 205.881 13.9917   1
   5   1  14 485.432 31.0553  -4
  -5   1  14 485.432 31.0553   1
   5   1  13 498.426 15.4198  -2
  -4   1  14 498.426 15.4198   1
   6   1  11 573.386 21.4295  -4
  -3   1  14 573.386 21.4295   1
   6   1  10 1110.55 25.4082  -2
  -2   1  14 1110.55 25.4082   1
   7   1   8 591.718 30.3577  -4
  -1   1  14 591.718 30.3577   1
   0   1  14 495.300 11.4741   1
   1   1  14 798.085 35.3091  -3
   1   1  14 798.085 35.3091   1
   2   1  14 638.812 11.9094   1
   9   1   3 378.195 31.8478  -4
   9   1   3 378.195 31.8478  -2
   3   1  14 378.195 31.8478   1
   9   1   3 400.553 24.8334  -2
   3   1  14 400.553 24.8334   1
   4   1  14 608.585 14.7842   1
   6   1  14 327.050 12.1058   1
 -11   1   3 309.245 16.5761  -4
 -11   1   2 309.245 16.5761  -2
   7   1  14 309.245 16.5761   1
   8   1  14 241.925 13.1468   1
  -8   2  14 69.2149 9.42667   1
  -7   2  14 10.9420 6.40443   1
   4   2  16 176.586 16.5252  -2
  -6   2  14 176.586 16.5252   1
   5   2  14 8.87252 13.6886  -4
  -5   2  14 8.87252 13.6886   1
   5   2  13 384.651 16.8047  -2
  -4   2  14 384.651 16.8047   1
   6   2  11 25.6991 17.4019  -4
  -3   2  14 25.6991 17.4019   1
   6   2  10 740.325 25.8929  -2
  -2   2  14 740.325 25.8929   1
   6   2  10 701.716 34.4431  -4
  -2   2  14 701.716 34.4431  -3
   6   2  10 701.716 34.4431  -2
  -2   2  14 701.716 34.4431   1
   7   2   8 -3.2595 9.65197  -4
  -1   2  14 -3.2595 9.65197   1
  -1   2  14 20.5238 13.5600  -3
  -1   2  14 20.5238 13.5600   1
   0   2  14 956.028 17.1745   1
   1   2  14 -16.834 14.1538  -3
   1   2  14 -16.834 14.1538   1
   8   2   5 13.0934 16.4792  -4
   1   2  14 13.0934 16.4792   1
   2   2  14 909.958 22.0557   1
   9   2   3 8.97951 11.3974  -2
   3   2  14 8.97951 11.3974   1
   9   2   3 29.8060 23.8236  -4
   9   2   3 29.8060 23.8236  -2
   3   2  14 29.8060 23.8236   1
   4   2  14 802.080 40.9550  -3
   4   2  14 802.080 40.9550   1
   6   2  14 807.212 18.8153   1
 -11   2   3 15.6980 19.1673  -4
 -11   2   2 15.6980 19.1673  -2
   7   2  14 15.6980 19.1673   1
 -11   2   3 -13.120 20.2987  -4
   7   2  14 -13.120 20.2987   1
   8   2  14 687.635 19.4975   1
  -8   3  14 87.9991 14.5752   1
   4   3  17 282.148 31.5278  -4
  -7   3  14 282.148 31.5278   1
   4   3  16 319.809 16.3816  -2
  -6   3  14 319.809 16.3816   1
   5   3  14 393.025 23.3818  -4
  -5   3  14 393.025 23.3818   1
   5   3  13 702.892 22.8787  -2
  -4   3  14 702.892 22.8787   1
   6   3  11 396.032 21.4773  -4
  -3   3  14 396.032 21.4773   1
  -3   3  14 352.896 25.6089  -3
  -3   3  14 352.896 25.6089   1
   6   3  10 509.765 16.6452  -2
  -2   3  14 509.765 16.6452   1
   6   3  10 490.553 30.9745  -4
  -2   3  14 490.553 30.9745  -3
   6   3  10 490.553 30.9745  -2
  -2   3  14 490.553 30.9745   1
   7   3   8 452.188 16.4380  -4
  -1   3  14 452.188 16.4380   1
  -1   3  14 385.868 25.8825  -3
  -1   3  14 385.868 25.8825   1
   7   3   7 630.060 30.5442  -2
   0   3  14 630.060 30.5442   1
   8   3   5 365.477 27.5198  -4
   1   3  14 365.477 27.5198   1
   1   3  14 347.875 25.2441  -3
   1   3  14 347.875 25.2441   1
   2   3  14 368.815 33.5562  -3
   2   3  14 368.815 33.5562   1
   9   3   3 748.171 25.8801  -2
   3   3  14 748.171 25.8801   1
   9   3   3 673.634 44.6839  -4
   9   3   3 673.634 44.6839  -2
   3   3  14 673.634 44.6839   1
   4   3  14 479.079 13.7211   1
  10   3   0 465.028 30.9538  -2
   5   3  14 465.028 30.9538   1
   6   3  14 352.325 12.7264   1
 -11   3   3 331.714 19.9534  -4
 -11   3   2 331.714 19.9534  -2
   7   3  14 331.714 19.9534   1
 -11   3   3 254.723 27.0877  -4
   7   3  14 254.723 27.0877   1
   8   3  14 177.402 25.2341   1
  -7   4  14 -0.3855 5.76174   1
   4   4  16 518.077 23.0698  -2
  -6   4  14 518.077 23.0698   1
   5   4  14 12.8349 16.7277  -4
  -5   4  14 12.8349 16.7277   1
   5   4  13 567.055 24.8565  -2
  -4   4  14 567.055 24.8565   1
   5   4  13 542.082 35.0887  -4
  -4   4  14 542.082 35.0887  -3
   5   4  13 542.082 35.0887  -2
  -4   4  14 542.082 35.0887   1
   6   4  11 -0.9097 10.5395  -4
  -3   4  14 -0.9097 10.5395   1
  -3   4  14 -16.013 17.5720  -3
  -3   4  14 -16.013 17.5720   1
   6   4  10 456.925 16.5732  -2
  -2   4  14 456.925 16.5732   1
   6   4  10 425.711 31.1515  -4
  -2   4  14 425.711 31.1515  -3
   6   4  10 425.711 31.1515  -2
  -2   4  14 425.711 31.1515   1
  -1   4  14 7.53392 16.3537  -3
  -1   4  14 7.53392 16.3537   1
   7   4   8 10.1145 9.69435  -4
  -1   4  14 10.1145 9.69435   1
   7   4   7 185.355 20.6093  -2
   0   4  14 185.355 20.6093   1
   8   4   5 44.3941 19.8322  -4
   1   4  14 44.3941 19.8322   1
   2   4  14 243.314 16.7422   1
   9   4   3 88.4245 34.4558  -4
   3   4  14 88.4245 34.4558  -3
   9   4   3 88.4245 34.4558  -2
   3   4  14 88.4245 34.4558   1
   9   4   3 48.8705 19.1424  -2
   3   4  14 48.8705 19.1424   1
   4   4  14 146.494 19.6137  -3
   4   4  14 146.494 19.6137   1
   6   4  14 46.0743 7.36981   1
  -7   5  14 189.063 21.1697   1
  -6   5  14 182.702 23.4950   1
   5   5  14 212.652 28.8285  -4
  -5   5  14 212.652 28.8285   1
   5   5  13 453.600 17.9594  -2
  -4   5  14 453.600 17.9594   1
   5   5  13 430.904 34.0938  -4
  -4   5  14 430.904 34.0938  -3
   5   5  13 430.904 34.0938  -2
  -4   5  14 430.904 34.0938   1
   5   5  13 493.995 45.4040  -4
   5   5  13 493.995 45.4040  -2
  -4   5  14 493.995 45.4040   1
   6   5  11 446.336 18.4392  -4
  -3   5  14 446.336 18.4392   1
  -3   5  14 340.492 28.9040  -3
  -3   5  14 340.492 28.9040   1
   6   5  10 409.514 26.1731  -4
  -2   5  14 409.514 26.1731  -3
   6   5  10 409.514 26.1731  -2
  -2   5  14 409.514 26.1731   1
   6   5  10 394.197 16.2991  -2
  -2   5  14 394.197 16.2991   1
   7   5   8 508.519 21.8269  -4
  -1   5  14 508.519 21.8269   1
  -1   5  14 402.475 28.2649  -3
  -1   5  14 402.475 28.2649   1
   7   5   7 420.467 28.6581  -2
   0   5  14 420.467 28.6581   1
   8   5   5 288.952 18.9035  -4
   1   5  14 288.952 18.9035   1
   1   5  14 132.061 23.3872  -3
   1   5  14 132.061 23.3872   1
   2   5  14 319.176 16.5892   1
   9   5   3 299.492 42.3075  -4
   3   5  14 299.492 42.3075  -3
   9   5   3 299.492 42.3075  -2
   3   5  14 299.492 42.3075   1
   9   5   3 294.654 27.2580  -2
   3   5  14 294.654 27.2580   1
   4   5  14 296.245 23.1605  -3
   4   5  14 296.245 23.1605   1
   6   5  14 210.342 14.9798   1
   5   6  14 28.5640 24.9855  -4
  -5   6  14 28.5640 24.9855   1
   5   6  13 252.348 18.4786  -2
  -4   6  14 252.348 18.4786   1
   5   6  13 201.327 30.0360  -4
  -4   6  14 201.327 30.0360  -3
   5   6  13 201.327 30.0360  -2
  -4   6  14 201.327 30.0360   1
   5   6  13 260.710 41.1363  -4
   5   6  13 260.710 41.1363  -2
  -4   6  14 260.710 41.1363   1
  -3   6  14 -2.9465 19.7284  -3
  -3   6  14 -2.9465 19.7284   1
   6   6  11 -17.489 13.2421  -4
  -3   6  14 -17.489 13.2421   1
   6   6  10 440.708 21.0718  -2
  -2   6  14 440.708 21.0718   1
   6   6  10 464.083 29.1132  -4
  -2   6  14 464.083 29.1132  -3
   6   6  10 464.083 29.1132  -2
  -2   6  14 464.083 29.1132   1
  -1   6  14 21.0292 18.1979  -3
  -1   6  14 21.0292 18.1979   1
   7   6   8 17.5713 12.4742  -4
  -1   6  14 17.5713 12.4742   1
   7   6   7 550.037 24.2154  -2
   0   6  14 550.037 24.2154   1
   7   6   7 513.010 38.6102  -4
   0   6  14 513.010 38.6102  -3
   7   6   7 513.010 38.6102  -2
   0   6  14 513.010 38.6102   1
   8   6   5 39.4249 14.4463  -4
   1   6  14 39.4249 14.4463   1
   2   6  14 470.943 24.8412  -3
   2   6  14 470.943 24.8412   1
   9   6   3 21.1123 37.6857  -4
   3   6  14 21.1123 37.6857  -3
   9   6   3 21.1123 37.6857  -2
   3   6  14 21.1123 37.6857   1
   9   6   3 57.4517 22.3683  -2
   3   6  14 57.4517 22.3683   1
   9   6   2 16.1864 22.5545  -4
   3   6  14 16.1864 22.5545   1
   4   6  14 401.154 38.9320  -3
   4   6  14 401.154 38.9320   1
   6   7  11 270.385 28.4914  -4
  -3   7  14 270.385 28.4914   1
   6   7  10 397.816 21.2308  -2
  -2   7  14 397.816 21.2308   1
   6   7  10 412.454 29.0800  -4
  -2   7  14 412.454 29.0800  -3
   6   7  10 412.454 29.0800  -2
  -2   7  14 412.454 29.0800   1
   7   7   8 344.742 20.5253  -4
  -1   7  14 344.742 20.5253   1
  -1   7  14 299.054 28.7439  -3
  -1   7  14 299.054 28.7439   1
   7   7   7 274.689 28.8754  -2
   0   7  14 274.689 28.8754   1
   7   7   7 200.986 30.0997  -4
   0   7  14 200.986 30.0997  -3
   7   7   7 200.986 30.0997  -2
   0   7  14 200.986 30.0997   1
   8   7   5 380.581 22.0253  -4
   1   7  14 380.581 22.0253   1
   1   7  14 175.594 27.2978  -3
   1   7  14 175.594 27.2978   1
   2   7  14 272.987 31.8084  -3
   2   7  14 272.987 31.8084   1
  -8   0  15 -7.5670 17.8506   1
  -7   0  15 981.856 34.1549   1
   5   0  16 20.9771 22.4724  -4
  -6   0  15 20.9771 22.4724   1
   5   0  15 1455.51 41.8698  -2
  -5   0  15 1455.51 41.8698   1
   6   0  13 10.4959 15.1061  -4
  -4   0  15 10.4959 15.1061   1
   6   0  12 1614.46 42.5093  -2
  -3   0  15 1614.46 42.5093   1
   7   0  10 -7.5607 16.4539  -4
  -2   0  15 -7.5607 16.4539   1
   7   0   9 1629.95 42.5789  -2
  -1   0  15 1629.95 42.5789   1
   8   0   7 12.1304 16.3893  -4
   0   0  15 12.1304 16.3893   1
   1   0  15 1580.16 39.6728   1
   9   0   5 16.6050 12.2534  -2
   2   0  15 16.6050 12.2534   1
   3   0  15 2196.16 48.1356   1
   5   0  15 1845.37 44.1834   1
 -11   0   1 -18.974 30.0869  -4
   6   0  15 -18.974 30.0869  -3
  11   0   0 -18.974 30.0869  -2
   6   0  15 -18.974 30.0869   1
 -11   0   1 18.6222 20.7895  -4
   6   0  15 18.6222 20.7895   1
   7   0  15 782.498 27.5516   1
  -8   1  15 112.040 28.5500   1
  -7   1  15 138.313 11.3838   1
   5   1  16 411.201 23.1022  -4
  -6   1  15 411.201 23.1022   1
   5   1  15 278.988 13.5617  -2
  -5   1  15 278.988 13.5617   1
   6   1  13 368.239 17.1335  -4
  -4   1  15 368.239 17.1335   1
   6   1  12 158.584 10.3632  -2
  -3   1  15 158.584 10.3632   1
   7   1  10 548.566 18.9598  -4
  -2   1  15 548.566 18.9598   1
   7   1   9 329.485 34.7936  -4
   7   1   9 329.485 34.7936  -2
  -1   1  15 329.485 34.7936   1
   7   1   9 337.563 15.0558  -2
  -1   1  15 337.563 15.0558   1
   0   1  15 512.933 28.4043  -3
   0   1  15 512.933 28.4043   1
   8   1   7 511.874 20.5072  -4
   0   1  15 511.874 20.5072   1
   1   1  15 73.8619 6.93856   1
   9   1   5 476.747 16.5754  -2
   2   1  15 476.747 16.5754   1
   9   1   5 477.433 37.8294  -4
   9   1   5 477.433 37.8294  -2
   2   1  15 477.433 37.8294   1
   3   1  15 54.1685 5.26677   1
   5   1  15 5.13964 5.33935   1
 -11   1   1 271.533 19.0102  -4
   6   1  15 271.533 19.0102   1
 -11   1   1 274.222 36.4130  -4
   6   1  15 274.222 36.4130  -3
  11   1   0 274.222 36.4130  -2
   6   1  15 274.222 36.4130   1
   7   1  15 8.55186 5.93360   1
  -7   2  15 11.1606 7.04754   1
   5   2  16 12.2527 16.4599  -4
  -6   2  15 12.2527 16.4599   1
   5   2  15 33.5268 10.3356  -2
  -5   2  15 33.5268 10.3356   1
   6   2  13 -1.3093 15.0380  -4
  -4   2  15 -1.3093 15.0380   1
   6   2  12 18.7106 9.73397  -2
  -3   2  15 18.7106 9.73397   1
   6   2  12 8.68226 18.4273  -4
  -3   2  15 8.68226 18.4273  -3
   6   2  12 8.68226 18.4273  -2
  -3   2  15 8.68226 18.4273   1
   7   2  10 -16.348 17.4933  -4
  -2   2  15 -16.348 17.4933   1
  -2   2  15 9.85158 15.3038  -3
  -2   2  15 9.85158 15.3038   1
   7   2   9 26.8434 12.7503  -2
  -1   2  15 26.8434 12.7503   1
   7   2   9 1.51930 17.2893  -4
  -1   2  15 1.51930 17.2893  -3
  -1   2  15 1.51930 17.2893   1
   7   2   9 36.0459 27.3921  -4
   7   2   9 36.0459 27.3921  -2
  -1   2  15 36.0459 27.3921   1
   0   2  15 -3.5121 14.9588  -3
   0   2  15 -3.5121 14.9588   1
   8   2   7 -2.7245 12.0889  -4
   0   2  15 -2.7245 12.0889   1
   1   2  15 8.13420 5.24093   1
   9   2   5 86.1243 14.4684  -2
   2   2  15 86.1243 14.4684   1
   9   2   5 167.865 31.2803  -4
   9   2   5 167.865 31.2803  -2
   2   2  15 167.865 31.2803   1
   3   2  15 15.8108 5.57166   1
   5   2  15 4.21058 5.46067   1
 -11   2   1 70.8684 21.3280  -4
   6   2  15 70.8684 21.3280   1
   7   2  15 9.17889 6.17486   1
  -7   3  15 149.125 12.2456   1
   5   3  16 269.239 23.7696  -4
  -6   3  15 269.239 23.7696   1
   5   3  15 299.294 18.0610  -2
  -5   3  15 299.294 18.0610   1
   6   3  13 318.547 21.4839  -4
  -4   3  15 318.547 21.4839   1
   6   3  12 41.8289 27.2904  -4
   6   3  12 41.8289 27.2904  -2
  -3   3  15 41.8289 27.2904   1
   6   3  12 55.6033 12.5759  -2
  -3   3  15 55.6033 12.5759   1
   6   3  12 46.5436 21.0598  -4
  -3   3  15 46.5436 21.0598  -3
   6   3  12 46.5436 21.0598  -2
  -3   3  15 46.5436 21.0598   1
  -2   3  15 348.362 26.7608  -3
  -2   3  15 348.362 26.7608   1
   7   3  10 351.050 20.1619  -4
  -2   3  15 351.050 20.1619   1
   7   3   9 167.737 12.5445  -2
  -1   3  15 167.737 12.5445   1
   8   3   7 347.228 18.1863  -4
   0   3  15 347.228 18.1863   1
   0   3  15 295.389 24.4295  -3
   0   3  15 295.389 24.4295   1
   1   3  15 141.798 11.4080   1
   9   3   5 393.459 28.4262  -2
   2   3  15 393.459 28.4262   1
   9   3   5 394.111 39.7996  -4
   9   3   5 394.111 39.7996  -2
   2   3  15 394.111 39.7996   1
   9   3   4 382.626 29.2993  -4
   2   3  15 382.626 29.2993   1
   3   3  15 10.3484 21.5350  -3
   3   3  15 10.3484 21.5350   1
  10   3   2 308.366 27.9584  -2
   4   3  15 308.366 27.9584   1
   5   3  15 3.94573 5.52394   1
 -11   3   1 243.681 26.0448  -4
   6   3  15 243.681 26.0448   1
   7   3  15 13.3794 13.4141   1
   5   4  16 5.23147 18.1489  -4
  -6   4  15 5.23147 18.1489   1
   5   4  15 698.744 25.2165  -2
  -5   4  15 698.744 25.2165   1
   6   4  13 -11.019 15.6470  -4
  -4   4  15 -11.019 15.6470   1
   6   4  12 1373.74 40.0944  -2
  -3   4  15 1373.74 40.0944   1
   6   4  12 1394.85 69.9704  -4
   6   4  12 1394.85 69.9704  -2
  -3   4  15 1394.85 69.9704   1
   6   4  12 1337.83 54.8315  -4
  -3   4  15 1337.83 54.8315  -3
   6   4  12 1337.83 54.8315  -2
  -3   4  15 1337.83 54.8315   1
   7   4  10 7.36055 10.3326  -4
  -2   4  15 7.36055 10.3326   1
  -2   4  15 14.3819 17.8974  -3
  -2   4  15 14.3819 17.8974   1
   7   4   9 1583.76 34.1207  -2
  -1   4  15 1583.76 34.1207   1
   7   4   9 1461.80 58.8837  -4
  -1   4  15 1461.80 58.8837  -3
   7   4   9 1461.80 58.8837  -2
  -1   4  15 1461.80 58.8837   1
   8   4   7 21.5896 12.8533  -4
   0   4  15 21.5896 12.8533   1
   0   4  15 11.2667 15.9719  -3
   0   4  15 11.2667 15.9719   1
   1   4  15 1684.58 35.7169   1
   9   4   5 -2.1878 37.3245  -4
   2   4  15 -2.1878 37.3245  -3
   9   4   5 -2.1878 37.3245  -2
   2   4  15 -2.1878 37.3245   1
   9   4   4 -7.5124 13.9453  -4
   2   4  15 -7.5124 13.9453   1
   3   4  15 1613.74 63.8284  -3
   3   4  15 1613.74 63.8284   1
  10   4   2 -4.2719 14.0721  -2
   4   4  15 -4.2719 14.0721   1
   5   4  15 1078.27 32.2781   1
   7   4  15 948.096 57.2862   1
  -6   5  15 132.451 20.7336   1
   5   5  15 148.120 26.0384  -2
  -5   5  15 148.120 26.0384   1
   6   5  13 496.477 26.7994  -4
  -4   5  15 496.477 26.7994   1
   6   5  12 54.1816 10.5832  -2
  -3   5  15 54.1816 10.5832   1
   6   5  12 92.6833 23.8655  -4
  -3   5  15 92.6833 23.8655  -3
   6   5  12 92.6833 23.8655  -2
  -3   5  15 92.6833 23.8655   1
   6   5  12 26.4512 31.7412  -4
   6   5  12 26.4512 31.7412  -2
  -3   5  15 26.4512 31.7412   1
   7   5  10 372.702 16.4072  -4
  -2   5  15 372.702 16.4072   1
  -2   5  15 345.361 28.5635  -3
  -2   5  15 345.361 28.5635   1
   7   5   9 133.160 15.7760  -2
  -1   5  15 133.160 15.7760   1
   7   5   9 107.808 27.7006  -4
  -1   5  15 107.808 27.7006  -3
   7   5   9 107.808 27.7006  -2
  -1   5  15 107.808 27.7006   1
   0   5  15 482.850 32.0506  -3
   0   5  15 482.850 32.0506   1
   8   5   7 593.273 24.1731  -4
   0   5  15 593.273 24.1731   1
   1   5  15 75.5115 9.94079   1
   9   5   5 612.231 54.3461  -4
   2   5  15 612.231 54.3461  -3
   9   5   5 612.231 54.3461  -2
   2   5  15 612.231 54.3461   1
   9   5   4 582.005 25.7237  -4
   2   5  15 582.005 25.7237   1
   3   5  15 51.7357 18.8000  -3
   3   5  15 51.7357 18.8000   1
  10   5   2 175.295 28.4490  -2
   4   5  15 175.295 28.4490   1
   5   5  15 -25.278 28.9558  -3
   5   5  15 -25.278 28.9558   1
  -4   6  15 0.55888 16.2258   1
   6   6  12 15.0042 24.7297  -4
  -3   6  15 15.0042 24.7297  -3
   6   6  12 15.0042 24.7297  -2
  -3   6  15 15.0042 24.7297   1
   6   6  12 18.2403 34.2756  -4
   6   6  12 18.2403 34.2756  -2
  -3   6  15 18.2403 34.2756   1
   6   6  12 14.5402 12.5821  -2
  -3   6  15 14.5402 12.5821   1
   7   6  10 -10.510 12.7169  -4
  -2   6  15 -10.510 12.7169   1
  -2   6  15 11.7270 20.5566  -3
  -2   6  15 11.7270 20.5566   1
   7   6   9 -3.6569 21.6929  -4
  -1   6  15 -3.6569 21.6929  -3
   7   6   9 -3.6569 21.6929  -2
  -1   6  15 -3.6569 21.6929   1
   7   6   9 28.1344 14.6254  -2
  -1   6  15 28.1344 14.6254   1
   0   6  15 -13.061 16.2794  -3
   0   6  15 -13.061 16.2794   1
   8   6   7 5.93465 13.0514  -4
   0   6  15 5.93465 13.0514   1
   1   6  15 8.00609 7.65893   1
   9   6   5 39.1534 24.6647  -4
   2   6  15 39.1534 24.6647  -3
   9   6   5 39.1534 24.6647  -2
   2   6  15 39.1534 24.6647   1
   9   6   4 -21.653 14.5338  -4
   2   6  15 -21.653 14.5338   1
   3   6  15 34.4206 18.1595  -3
   3   6  15 34.4206 18.1595   1
  -7   0  16 -2.2751 14.8823   1
   5   0  17 32.5225 16.8097  -2
  -6   0  16 32.5225 16.8097   1
   6   0  15 4.60516 16.9103  -4
  -5   0  16 4.60516 16.9103   1
   6   0  14 10.4791 12.0419  -2
  -4   0  16 10.4791 12.0419   1
   7   0  12 6.75052 14.5844  -4
  -3   0  16 6.75052 14.5844   1
   7   0  11 91.0327 15.0720  -2
  -2   0  16 91.0327 15.0720   1
   8   0   9 -4.6164 17.9760  -4
  -1   0  16 -4.6164 17.9760   1
   0   0  16 11.9923 7.36413   1
   1   0  16 -8.6329 9.59854   1
   2   0  16 12.7504 8.12101   1
   4   0  16 138.161 13.3404   1
   6   0  16 17.6048 9.09835   1
 -12   0   2 30.3688 27.6597  -4
 -12   0   1 30.3688 27.6597  -2
   7   0  16 30.3688 27.6597   1
  -7   1  16 171.669 16.7045   1
   5   1  17 19.2905 14.5418  -2
  -6   1  16 19.2905 14.5418   1
   6   1  15 240.364 15.1018  -4
  -5   1  16 240.364 15.1018   1
   6   1  14 40.7389 9.12687  -2
  -4   1  16 40.7389 9.12687   1
   7   1  12 493.586 17.1671  -4
  -3   1  16 493.586 17.1671   1
   7   1  11 93.9645 10.5677  -2
  -2   1  16 93.9645 10.5677   1
   8   1   9 420.100 21.8173  -4
  -1   1  16 420.100 21.8173   1
   0   1  16 355.061 12.4348   1
   9   1   6 320.099 26.3984  -4
   1   1  16 320.099 26.3984   1
   2   1  16 285.242 12.5474   1
   4   1  16 198.624 10.9443   1
   6   1  16 252.449 12.9062   1
 -12   1   2 321.227 35.2086  -4
 -12   1   1 321.227 35.2086  -2
   7   1  16 321.227 35.2086   1
   5   2  17 1215.04 28.7684  -2
  -6   2  16 1215.04 28.7684   1
   6   2  15 19.9173 12.1083  -4
  -5   2  16 19.9173 12.1083   1
   6   2  14 1285.95 33.2342  -2
  -4   2  16 1285.95 33.2342   1
   7   2  12 -19.794 11.9422  -4
  -3   2  16 -19.794 11.9422   1
   7   2  11 1648.72 44.8034  -2
  -2   2  16 1648.72 44.8034   1
  -1   2  16 -13.810 15.9698  -3
  -1   2  16 -13.810 15.9698   1
   8   2   9 6.21952 13.3702  -4
  -1   2  16 6.21952 13.3702   1
   0   2  16 1345.71 26.7056   1
   9   2   6 -9.9246 18.9793  -4
   1   2  16 -9.9246 18.9793   1
   2   2  16 1414.18 58.0451  -3
   9   2   6 1414.18 58.0451  -2
   2   2  16 1414.18 58.0451   1
  10   2   4 18.5703 18.6452  -2
   3   2  16 18.5703 18.6452   1
  10   2   4 59.2528 28.6537  -4
  10   2   4 59.2528 28.6537  -2
   3   2  16 59.2528 28.6537   1
   4   2  16 781.652 26.2476   1
   6   2  16 709.818 19.0828   1
   6   3  15 435.693 25.6878  -4
  -5   3  16 435.693 25.6878   1
   6   3  14 95.2347 12.8021  -2
  -4   3  16 95.2347 12.8021   1
   7   3  12 367.950 21.7421  -4
  -3   3  16 367.950 21.7421   1
   7   3  11 83.8863 15.3770  -2
  -2   3  16 83.8863 15.3770   1
   7   3  11 89.0382 25.6457  -4
  -2   3  16 89.0382 25.6457  -3
   7   3  11 89.0382 25.6457  -2
  -2   3  16 89.0382 25.6457   1
   8   3   9 474.170 23.5525  -4
  -1   3  16 474.170 23.5525   1
  -1   3  16 432.882 29.2084  -3
  -1   3  16 432.882 29.2084   1
   0   3  16 85.5950 9.65579   1
   9   3   7 612.627 48.5813  -4
   9   3   7 612.627 48.5813  -2
   1   3  16 612.627 48.5813   1
   9   3   6 566.132 23.4388  -4
   1   3  16 566.132 23.4388   1
   2   3  16 316.584 14.4553   1
  10   3   4 443.983 21.9391  -2
   3   3  16 443.983 21.9391   1
  10   3   4 440.612 41.9491  -4
  10   3   4 440.612 41.9491  -2
   3   3  16 440.612 41.9491   1
   4   3  16 201.860 12.0350   1
   6   3  16 152.318 12.7423   1
   6   4  15 3.28887 16.7220  -4
  -5   4  16 3.28887 16.7220   1
   6   4  14 -33.349 23.0667  -4
  -4   4  16 -33.349 23.0667  -3
   6   4  14 -33.349 23.0667  -2
  -4   4  16 -33.349 23.0667   1
   6   4  14 15.6986 11.2107  -2
  -4   4  16 15.6986 11.2107   1
   7   4  12 13.5557 14.5542  -4
  -3   4  16 13.5557 14.5542   1
   7   4  11 49.5005 15.0909  -2
  -2   4  16 49.5005 15.0909   1
   7   4  11 1.57285 24.4893  -4
  -2   4  16 1.57285 24.4893  -3
   7   4  11 1.57285 24.4893  -2
  -2   4  16 1.57285 24.4893   1
   8   4   9 -8.9212 11.7359  -4
  -1   4  16 -8.9212 11.7359   1
  -1   4  16 -0.4808 16.9192  -3
  -1   4  16 -0.4808 16.9192   1
   0   4  16 27.8050 7.62292   1
   9   4   7 -36.585 35.4147  -4
   9   4   7 -36.585 35.4147  -2
   1   4  16 -36.585 35.4147   1
   9   4   6 4.55080 14.0359  -4
   1   4  16 4.55080 14.0359   1
   2   4  16 32.8851 8.06209   1
  10   4   4 36.5691 20.7417  -2
   3   4  16 36.5691 20.7417   1
   4   4  16 20.4607 29.2522  -3
   4   4  16 20.4607 29.2522   1
   6   5  14 44.7086 27.2290  -4
  -4   5  16 44.7086 27.2290  -3
   6   5  14 44.7086 27.2290  -2
  -4   5  16 44.7086 27.2290   1
   6   5  14 61.3784 15.7773  -2
  -4   5  16 61.3784 15.7773   1
   7   5  12 166.792 18.7360  -4
  -3   5  16 166.792 18.7360   1
  -3   5  16 131.781 26.2184  -3
  -3   5  16 131.781 26.2184   1
   7   5  11 78.9662 26.6514  -4
  -2   5  16 78.9662 26.6514  -3
   7   5  11 78.9662 26.6514  -2
  -2   5  16 78.9662 26.6514   1
   7   5  11 79.4447 14.2787  -2
  -2   5  16 79.4447 14.2787   1
  -1   5  16 192.738 24.0017  -3
  -1   5  16 192.738 24.0017   1
   8   5   9 254.264 18.1630  -4
  -1   5  16 254.264 18.1630   1
   0   5  16 104.493 11.2598   1
   9   5   7 343.125 44.7369  -4
   9   5   7 343.125 44.7369  -2
   1   5  16 343.125 44.7369   1
   9   5   6 341.728 21.3648  -4
   1   5  16 341.728 21.3648   1
   2   5  16 168.556 34.2811  -3
   2   5  16 168.556 34.2811   1
   2   5  16 181.993 30.2077  -3
   9   5   6 181.993 30.2077  -2
   2   5  16 181.993 30.2077   1
  10   5   4 208.449 28.3279  -2
   3   5  16 208.449 28.3279   1
   4   5  16 135.353 36.1512  -3
   4   5  16 135.353 36.1512   1
   7   6  11 989.885 45.1686  -2
  -2   6  16 989.885 45.1686   1
  -1   6  16 4.58131 16.7432  -3
  -1   6  16 4.58131 16.7432   1
   8   6   9 8.75263 17.8231  -4
  -1   6  16 8.75263 17.8231   1
   8   6   8 1040.11 47.5209  -2
   0   6  16 1040.11 47.5209   1
   9   6   6 4.20298 20.2913  -4
   1   6  16 4.20298 20.2913   1
   2   6  16 894.496 35.4050   1
   6   0  16 294.956 21.6714  -2
  -5   0  17 294.956 21.6714   1
   7   0  14 16.6131 15.9092  -4
  -4   0  17 16.6131 15.9092   1
   7   0  13 660.695 27.4677  -2
  -3   0  17 660.695 27.4677   1
   8   0  11 -21.669 14.2859  -4
  -2   0  17 -21.669 14.2859   1
   8   0  10 451.013 23.6304  -2
  -1   0  17 451.013 23.6304   1
   0   0  17 -3.0706 10.7793   1
   1   0  17 504.419 32.4194   1
   3   0  17 222.153 23.8217   1
   5   0  17 154.898 14.6849   1
  12   0   0 17.6678 29.9980  -4
  12   0   1 17.6678 29.9980  -2
   6   0  17 17.6678 29.9980   1
  -6   1  17 196.757 31.6139   1
   6   1  16 267.324 14.6483  -2
  -5   1  17 267.324 14.6483   1
   7   1  14 337.686 16.0943  -4
  -4   1  17 337.686 16.0943   1
   7   1  13 421.011 15.9854  -2
  -3   1  17 421.011 15.9854   1
   8   1  11 383.675 15.9225  -4
  -2   1  17 383.675 15.9225   1
   8   1  10 443.370 16.7308  -2
  -1   1  17 443.370 16.7308   1
   9   1   8 303.642 20.7801  -4
   0   1  17 303.642 20.7801   1
   1   1  17 415.370 15.7461   1
   3   1  17 296.463 16.0907   1
   5   1  17 187.042 11.6493   1
   6   2  16 211.958 14.2107  -2
  -5   2  17 211.958 14.2107   1
   7   2  14 4.22158 14.1600  -4
  -4   2  17 4.22158 14.1600   1
   7   2  13 161.472 14.6463  -2
  -3   2  17 161.472 14.6463   1
   8   2  11 -2.7086 11.8964  -4
  -2   2  17 -2.7086 11.8964   1
   8   2  10 256.791 20.1582  -2
  -1   2  17 256.791 20.1582   1
   9   2   8 17.1746 19.9836  -4
   0   2  17 17.1746 19.9836   1
   1   2  17 340.628 30.4033  -3
   9   2   8 340.628 30.4033  -2
   1   2  17 340.628 30.4033   1
  10   2   5 14.5153 26.9842  -4
  10   2   6 14.5153 26.9842  -2
   2   2  17 14.5153 26.9842   1
  10   2   6 34.6312 32.4779  -4
  10   2   6 34.6312 32.4779  -2
   2   2  17 34.6312 32.4779   1
   3   2  17 438.353 15.5261   1
   5   2  17 423.980 20.7149   1
   6   3  16 215.183 31.5569  -2
  -5   3  17 215.183 31.5569   1
   7   3  14 243.720 18.4151  -4
  -4   3  17 243.720 18.4151   1
   7   3  13 277.625 17.2771  -2
  -3   3  17 277.625 17.2771   1
   8   3  11 395.256 22.4324  -4
  -2   3  17 395.256 22.4324   1
  -2   3  17 324.461 27.1663  -3
  -2   3  17 324.461 27.1663   1
   8   3  10 376.746 44.1332  -4
   8   3  10 376.746 44.1332  -2
  -1   3  17 376.746 44.1332   1
   9   3   8 395.160 31.8124  -4
   0   3  17 395.160 31.8124   1
   0   3  17 347.599 29.0538  -3
   0   3  17 347.599 29.0538   1
   1   3  17 381.886 15.9120   1
  10   3   6 369.438 30.0712  -2
   2   3  17 369.438 30.0712   1
  10   3   6 424.667 42.7604  -4
  10   3   6 424.667 42.7604  -2
   2   3  17 424.667 42.7604   1
  10   3   5 296.503 31.6459  -2
   3   3  17 296.503 31.6459   1
   5   3  17 208.062 17.4619   1
   7   4  14 -12.293 26.0789  -4
  -4   4  17 -12.293 26.0789   1
   7   4  13 409.233 23.7314  -2
  -3   4  17 409.233 23.7314   1
   7   4  13 388.938 34.5796  -4
  -3   4  17 388.938 34.5796  -3
   7   4  13 388.938 34.5796  -2
  -3   4  17 388.938 34.5796   1
   7   4  13 432.435 46.8834  -4
   7   4  13 432.435 46.8834  -2
  -3   4  17 432.435 46.8834   1
  -2   4  17 9.83533 21.1735  -3
  -2   4  17 9.83533 21.1735   1
   8   4  11 14.8053 12.3952  -4
  -2   4  17 14.8053 12.3952   1
   8   4  10 398.893 33.0538  -2
  -1   4  17 398.893 33.0538   1
   8   4  10 405.280 48.0872  -4
   8   4  10 405.280 48.0872  -2
  -1   4  17 405.280 48.0872   1
   9   4   8 8.26070 13.9697  -4
   0   4  17 8.26070 13.9697   1
   0   4  17 33.2922 21.0282  -3
   0   4  17 33.2922 21.0282   1
   1   4  17 226.339 15.5433   1
  10   4   6 12.6673 37.4018  -4
  10   4   6 12.6673 37.4018  -2
   2   4  17 12.6673 37.4018   1
  10   4   5 -43.494 21.2750  -4
   2   4  17 -43.494 21.2750   1
   3   4  17 168.586 13.7592   1
  11   4   3 47.3961 26.2942  -2
   4   4  17 47.3961 26.2942   1
   5   4  17 159.475 29.6209   1
   7   5  13 188.895 32.1291  -4
  -3   5  17 188.895 32.1291  -3
   7   5  13 188.895 32.1291  -2
  -3   5  17 188.895 32.1291   1
   7   5  13 197.561 29.2289  -2
  -3   5  17 197.561 29.2289   1
  -2   5  17 172.727 26.2544  -3
  -2   5  17 172.727 26.2544   1
   8   5  10 299.562 21.0668  -2
  -1   5  17 299.562 21.0668   1
   8   5  10 214.719 33.6124  -4
  -1   5  17 214.719 33.6124  -3
   8   5  10 214.719 33.6124  -2
  -1   5  17 214.719 33.6124   1
   9   5   8 329.270 21.0758  -4
   0   5  17 329.270 21.0758   1
   1   5  17 268.997 17.3937   1
  10   5   5 288.444 21.7378  -4
   2   5  17 288.444 21.7378   1
   3   5  17 295.264 44.3054   1
   7   0  15 632.308 27.8208  -2
  -4   0  18 632.308 27.8208   1
   8   0  13 -1.0695 16.1779  -4
  -3   0  18 -1.0695 16.1779   1
   8   0  12 1261.76 39.8182  -2
  -2   0  18 1261.76 39.8182   1
   9   0  10 23.6790 15.3421  -4
  -1   0  18 23.6790 15.3421   1
   0   0  18 1466.31 40.7254   1
   1   0  18 20.3348 13.8577   1
   7   1  15 179.681 12.6442  -2
  -4   1  18 179.681 12.6442   1
   8   1  13 379.147 16.7853  -4
  -3   1  18 379.147 16.7853   1
   8   1  12 102.491 12.6027  -2
  -2   1  18 102.491 12.6027   1
   9   1  10 325.781 18.5166  -4
  -1   1  18 325.781 18.5166   1
   0   1  18 65.0426 9.66282   1
  10   1   8 424.023 43.1105  -4
  10   1   8 424.023 43.1105  -2
   1   1  18 424.023 43.1105   1
   4   1  18 13.0829 9.20877   1
  12   1   2 239.906 40.2379  -4
   5   1  18 239.906 40.2379  -3
  12   1   3 239.906 40.2379  -2
   5   1  18 239.906 40.2379   1
   7   2  15 28.3635 11.6250  -2
  -4   2  18 28.3635 11.6250   1
   8   2  13 2.98316 10.8089  -4
  -3   2  18 2.98316 10.8089   1
   8   2  12 -1.5691 13.2324  -2
  -2   2  18 -1.5691 13.2324   1
   9   2  10 4.89593 14.7384  -4
  -1   2  18 4.89593 14.7384   1
   0   2  18 14.1166 8.89495   1
  10   2   8 24.6685 23.5802  -2
   1   2  18 24.6685 23.5802   1
  10   2   8 71.2994 34.8699  -4
  10   2   8 71.2994 34.8699  -2
   1   2  18 71.2994 34.8699   1
   2   2  18 55.1870 29.3724  -3
  10   2   7 55.1870 29.3724  -2
   2   2  18 55.1870 29.3724   1
   4   2  18 36.5483 10.8572   1
   7   3  15 203.142 27.3243  -2
  -4   3  18 203.142 27.3243   1
   8   3  13 209.894 17.5277  -4
  -3   3  18 209.894 17.5277   1
   8   3  12 80.0881 17.6345  -2
  -2   3  18 80.0881 17.6345   1
  -1   3  18 242.322 26.9356  -3
  -1   3  18 242.322 26.9356   1
   9   3  10 307.661 29.2309  -4
  -1   3  18 307.661 29.2309   1
   0   3  18 64.8369 12.8160   1
  10   3   8 242.131 44.2908  -4
  10   3   8 242.131 44.2908  -2
   1   3  18 242.131 44.2908   1
  10   3   7 215.665 28.1284  -4
   1   3  18 215.665 28.1284   1
   2   3  18 -36.452 29.7920  -3
  10   3   7 -36.452 29.7920  -2
   2   3  18 -36.452 29.7920   1
   4   3  18 2.70844 9.24721   1
   8   4  13 34.0715 25.0625  -4
  -3   4  18 34.0715 25.0625   1
  -3   4  18 17.0181 22.7001  -3
  -3   4  18 17.0181 22.7001   1
  -1   4  18 5.47144 21.3998  -3
  -1   4  18 5.47144 21.3998   1
   9   4  10 -16.091 19.3760  -4
  -1   4  18 -16.091 19.3760   1
   0   4  18 1108.93 38.2437   1
  10   4   7 11.5624 15.6318  -4
   1   4  18 11.5624 15.6318   1
   2   4  18 903.691 51.8641  -3
  10   4   7 903.691 51.8641  -2
   2   4  18 903.691 51.8641   1
  11   4   5 -54.330 34.4208  -4
  11   4   5 -54.330 34.4208  -2
   3   4  18 -54.330 34.4208   1
   0   5  18 58.7782 15.0738   1
   8   0  14 29.6588 16.1468  -2
  -3   0  19 29.6588 16.1468   1
   9   0  12 17.7564 16.2439  -4
  -2   0  19 17.7564 16.2439   1
  -1   0  19 0.63751 8.32795   1
  10   0   9 11.5215 26.7559  -4
   0   0  19 11.5215 26.7559   1
   8   1  14 79.3997 12.2947  -2
  -3   1  19 79.3997 12.2947   1
   9   1  12 247.801 18.0000  -4
  -2   1  19 247.801 18.0000   1
   9   1  11 -35.293 28.3221  -2
  -1   1  19 -35.293 28.3221   1
  10   1   9 364.503 31.0998  -4
   0   1  19 364.503 31.0998   1
   1   1  19 70.2198 19.6976   1
   8   2  14 988.264 55.8645  -2
  -3   2  19 988.264 55.8645   1
   9   2  12 -4.5442 13.3547  -4
  -2   2  19 -4.5442 13.3547   1
  -1   2  19 819.120 31.6368   1
  10   2   9 10.8099 22.5976  -4
   0   2  19 10.8099 22.5976   1
   1   2  19 1032.76 34.9464   1
   3   2  19 780.793 41.6192   1
  -1   3  19 76.9863 18.5532   1
  10   3   9 300.379 31.4404  -4
   0   3  19 300.379 31.4404   1
   1   3  19 53.3358 29.1479  -3
  10   3   9 53.3358 29.1479  -2
   1   3  19 53.3358 29.1479   1
  11   3   7 248.126 45.0800  -4
  11   3   7 248.126 45.0800  -2
   2   3  19 248.126 45.0800   1
   9   0  13 355.251 31.5950  -2
  -2   0  20 355.251 31.5950   1
  10   0  11 41.1940 28.9587  -4
  -1   0  20 41.1940 28.9587   1
   0   0  20 275.404 46.7786   1
  10   1  11 240.042 30.0778  -4
  -1   1  20 240.042 30.0778   1
   0   1  20 145.716 19.3421   1
   0   2  20 207.834 24.6213   1
   0   0   0    0.00    0.00   0
;
_shelx_hkl_checksum              52432
loop_
_space_group_symop_operation_xyz
'x, y, z'
'-x+1/2, y+1/2, -z+1/2'
'-x, -y, -z'
'x-1/2, -y-1/2, z-1/2'
loop_
_atom_site_label
_atom_site_type_symbol
_atom_site_fract_x
_atom_site_fract_y
_atom_site_fract_z
_atom_site_U_iso_or_equiv
_atom_site_adp_type
_atom_site_occupancy
_atom_site_site_symmetry_order
_atom_site_calc_flag
_atom_site_refinement_flags_posn
_atom_site_refinement_flags_occupancy
Th1 Th 0.0000 0.0000 0.0000 0.00956(8) Uani 1 2 d S P
Cs1 Cs -0.01101(4) 0.24548(5) 0.33782(2) 0.01380(9) Uani 1 1 d . .
N1 N -0.0299(6) 0.7452(8) 0.1773(3) 0.0123(8) Uani 1 1 d . .
N2 N 0.7273(6) 0.2498(8) 0.0647(4) 0.0135(9) Uani 1 1 d . .
N3 N 0.2279(5) 0.2604(7) 0.1085(3) 0.0112(8) Uani 1 1 d . .
O1 O 0.0856(5) 0.7281(6) 0.1139(3) 0.0152(8) Uani 1 1 d . .
O2 O -0.0583(6) 0.6312(7) 0.2413(3) 0.0201(9) Uani 1 1 d . .
O3 O 0.8818(5) 0.8943(6) 0.1665(3) 0.0139(8) Uani 1 1 d . .
O4 O 0.6184(6) 0.3646(7) 0.0755(3) 0.0201(9) Uani 1 1 d . .
O5 O 0.7006(5) 0.0958(6) 0.0178(3) 0.0140(8) Uani 1 1 d . .
O6 O 0.8726(5) 0.2727(6) 0.0984(3) 0.0138(8) Uani 1 1 d . .
O7 O 0.1983(5) 0.2780(6) 0.0149(3) 0.0146(8) Uani 1 1 d . .
O8 O 0.2981(5) 0.3784(7) 0.1590(3) 0.0163(8) Uani 1 1 d . .
O9 O 0.1748(5) 0.1095(6) 0.1475(3) 0.0142(8) Uani 1 1 d . .
loop_
_atom_site_aniso_label
_atom_site_aniso_U_11
_atom_site_aniso_U_22
_atom_site_aniso_U_33
_atom_site_aniso_U_23
_atom_site_aniso_U_13
_atom_site_aniso_U_12
Th1 0.01009(14) 0.00925(13) 0.00934(13) 0.00006(10) -0.00019(9) 0.00021(10)
Cs1 0.01640(17) 0.01207(16) 0.01294(16) 0.00064(13) 0.00038(12) 0.00183(14)
N1 0.0136(19) 0.013(2) 0.0103(18) 0.0009(19) 0.0002(15) -0.003(2)
N2 0.016(2) 0.011(2) 0.013(2) 0.0012(19) 0.0014(16) 0.003(2)
N3 0.0120(19) 0.009(2) 0.0127(19) -0.0033(18) 0.0013(15) 0.0001(18)
O1 0.0133(17) 0.017(2) 0.0155(19) 0.0026(17) 0.0037(14) 0.0037(18)
O2 0.031(2) 0.012(2) 0.017(2) 0.0051(17) 0.0019(18) -0.001(2)
O3 0.0127(19) 0.013(2) 0.016(2) 0.0015(16) 0.0008(15) -0.0007(16)
O4 0.020(2) 0.018(2) 0.023(2) -0.0013(19) 0.0043(17) 0.0057(19)
O5 0.0142(19) 0.013(2) 0.015(2) -0.0023(15) -0.0006(15) 0.0006(16)
O6 0.0123(17) 0.015(2) 0.0145(18) 0.0003(16) 0.0018(14) -0.0017(17)
O7 0.0165(19) 0.016(2) 0.0110(18) 0.0004(16) -0.0015(15) -0.0017(17)
O8 0.015(2) 0.013(2) 0.021(2) -0.0054(17) -0.0027(16) -0.0024(17)
O9 0.016(2) 0.0132(19) 0.0131(19) 0.0029(16) 0.0008(15) -0.0035(17)
loop_
_atom_type_symbol
_atom_type_description
_atom_type_scat_dispersion_real
_atom_type_scat_dispersion_imag
_atom_type_scat_source
N N 0.0061 0.0033 'International Tables Vol C Tables 4.2.6.8 and 6.1.1.4'
O O 0.0106 0.0060 'International Tables Vol C Tables 4.2.6.8 and 6.1.1.4'
Cs Cs -0.3680 2.1192 'International Tables Vol C Tables 4.2.6.8 and 6.1.1.4'
Th Th -7.2400 8.8979 'International Tables Vol C Tables 4.2.6.8 and 6.1.1.4'
loop_
_geom_angle_atom_site_label_1
_geom_angle_atom_site_label_2
_geom_angle_atom_site_label_3
_geom_angle
_geom_angle_site_symmetry_1
_geom_angle_site_symmetry_3
O9 Th1 O9 180.0 3 .
O9 Th1 O5 111.62(14) 3 3_655
O9 Th1 O5 68.38(14) . 3_655
O9 Th1 O5 68.38(14) 3 1_455
O9 Th1 O5 111.62(14) . 1_455
O5 Th1 O5 180.00(19) 3_655 1_455
O9 Th1 O3 68.11(13) 3 3_665
O9 Th1 O3 111.89(13) . 3_665
O5 Th1 O3 68.11(14) 3_655 3_665
O5 Th1 O3 111.89(14) 1_455 3_665
O9 Th1 O3 111.89(13) 3 1_445
O9 Th1 O3 68.11(13) . 1_445
O5 Th1 O3 111.89(14) 3_655 1_445
O5 Th1 O3 68.11(14) 1_455 1_445
O3 Th1 O3 180.0(3) 3_665 1_445
O9 Th1 O1 68.34(14) 3 3_565
O9 Th1 O1 111.66(14) . 3_565
O5 Th1 O1 113.72(13) 3_655 3_565
O5 Th1 O1 66.28(13) 1_455 3_565
O3 Th1 O1 50.06(13) 3_665 3_565
O3 Th1 O1 129.94(13) 1_445 3_565
O9 Th1 O1 111.66(14) 3 1_545
O9 Th1 O1 68.34(14) . 1_545
O5 Th1 O1 66.28(13) 3_655 1_545
O5 Th1 O1 113.72(13) 1_455 1_545
O3 Th1 O1 129.94(13) 3_665 1_545
O3 Th1 O1 50.06(13) 1_445 1_545
O1 Th1 O1 180.0(2) 3_565 1_545
O9 Th1 O7 49.97(13) 3 3
O9 Th1 O7 130.03(13) . 3
O5 Th1 O7 112.39(14) 3_655 3
O5 Th1 O7 67.61(14) 1_455 3
O3 Th1 O7 113.98(13) 3_665 3
O3 Th1 O7 66.02(13) 1_445 3
O1 Th1 O7 112.42(13) 3_565 3
O1 Th1 O7 67.58(13) 1_545 3
O9 Th1 O7 130.03(13) 3 .
O9 Th1 O7 49.97(13) . .
O5 Th1 O7 67.61(14) 3_655 .
O5 Th1 O7 112.39(14) 1_455 .
O3 Th1 O7 66.02(13) 3_665 .
O3 Th1 O7 113.98(13) 1_445 .
O1 Th1 O7 67.58(13) 3_565 .
O1 Th1 O7 112.42(13) 1_545 .
O7 Th1 O7 180.0 3 .
O9 Th1 O6 65.97(14) 3 3_655
O9 Th1 O6 114.03(14) . 3_655
O5 Th1 O6 49.97(13) 3_655 3_655
O5 Th1 O6 130.03(13) 1_455 3_655
O3 Th1 O6 67.89(14) 3_665 3_655
O3 Th1 O6 112.11(14) 1_445 3_655
O1 Th1 O6 112.45(13) 3_565 3_655
O1 Th1 O6 67.55(13) 1_545 3_655
O7 Th1 O6 68.04(13) 3 3_655
O7 Th1 O6 111.96(13) . 3_655
O9 Th1 O6 114.03(14) 3 1_455
O9 Th1 O6 65.97(14) . 1_455
O5 Th1 O6 130.03(13) 3_655 1_455
O5 Th1 O6 49.97(13) 1_455 1_455
O3 Th1 O6 112.11(14) 3_665 1_455
O3 Th1 O6 67.89(14) 1_445 1_455
O1 Th1 O6 67.55(13) 3_565 1_455
O1 Th1 O6 112.45(13) 1_545 1_455
O7 Th1 O6 111.96(13) 3 1_455
O7 Th1 O6 68.04(13) . 1_455
O6 Th1 O6 180.0(2) 3_655 1_455
O2 Cs1 O4 156.46(13) . 2_545
O2 Cs1 O9 89.94(12) . .
O4 Cs1 O9 99.75(12) 2_545 .
O2 Cs1 O5 93.31(12) . 4_566
O4 Cs1 O5 100.78(12) 2_545 4_566
O9 Cs1 O5 118.03(11) . 4_566
O2 Cs1 O8 145.44(12) . 2_545
O4 Cs1 O8 54.12(12) 2_545 2_545
O9 Cs1 O8 58.66(11) . 2_545
O5 Cs1 O8 89.99(12) 4_566 2_545
O2 Cs1 O3 65.11(12) . 2_545
O4 Cs1 O3 91.86(12) 2_545 2_545
O9 Cs1 O3 123.65(11) . 2_545
O5 Cs1 O3 113.33(11) 4_566 2_545
O8 Cs1 O3 142.80(11) 2_545 2_545
O2 Cs1 O6 60.81(12) . 1_455
O4 Cs1 O6 109.48(12) 2_545 1_455
O9 Cs1 O6 51.00(11) . 1_455
O5 Cs1 O6 148.99(11) 4_566 1_455
O8 Cs1 O6 102.11(11) 2_545 1_455
O3 Cs1 O6 73.06(11) 2_545 1_455
O2 Cs1 O7 104.78(12) . 4_566
O4 Cs1 O7 59.35(12) 2_545 4_566
O9 Cs1 O7 154.80(11) . 4_566
O5 Cs1 O7 82.02(10) 4_566 4_566
O8 Cs1 O7 109.75(11) 2_545 4_566
O3 Cs1 O7 50.24(10) 2_545 4_566
O6 Cs1 O7 119.09(10) 1_455 4_566
O2 Cs1 O4 129.15(12) . 4_566
O4 Cs1 O4 62.22(14) 2_545 4_566
O9 Cs1 O4 122.47(11) . 4_566
O5 Cs1 O4 38.56(11) 4_566 4_566
O8 Cs1 O4 68.52(12) 2_545 4_566
O3 Cs1 O4 111.75(11) 2_545 4_566
O6 Cs1 O4 169.86(11) 1_455 4_566
O7 Cs1 O4 62.96(10) 4_566 4_566
O2 Cs1 O1 103.05(12) . 2_545
O4 Cs1 O1 100.43(12) 2_545 2_545
O9 Cs1 O1 69.79(11) . 2_545
O5 Cs1 O1 49.25(11) 4_566 2_545
O8 Cs1 O1 55.22(11) 2_545 2_545
O3 Cs1 O1 160.15(11) 2_545 2_545
O6 Cs1 O1 116.38(10) 1_455 2_545
O7 Cs1 O1 124.49(10) 4_566 2_545
O4 Cs1 O1 62.13(10) 4_566 2_545
O2 Cs1 O3 110.19(11) . 1_445
O4 Cs1 O3 62.69(11) 2_545 1_445
O9 Cs1 O3 50.45(10) . 1_445
O5 Cs1 O3 152.43(10) 4_566 1_445
O8 Cs1 O3 62.50(11) 2_545 1_445
O3 Cs1 O3 90.22(8) 2_545 1_445
O6 Cs1 O3 49.48(11) 1_455 1_445
O7 Cs1 O3 104.65(10) 4_566 1_445
O4 Cs1 O3 120.65(11) 4_566 1_445
O1 Cs1 O3 109.23(10) 2_545 1_445
O2 Cs1 O5 62.34(11) . 2
O4 Cs1 O5 107.28(11) 2_545 2
O9 Cs1 O5 152.06(10) . 2
O5 Cs1 O5 64.03(12) 4_566 2
O8 Cs1 O5 146.13(11) 2_545 2
O3 Cs1 O5 49.81(10) 2_545 2
O6 Cs1 O5 111.31(10) 1_455 2
O7 Cs1 O5 48.54(10) 4_566 2
O4 Cs1 O5 77.74(11) 4_566 2
O1 Cs1 O5 111.06(10) 2_545 2
O3 Cs1 O5 139.65(10) 1_445 2
O2 N1 O1 123.6(5) . .
O2 N1 O3 121.9(5) . 1_455
O1 N1 O3 114.5(5) . 1_455
O2 N1 Th1 171.3(4) . 1_565
O1 N1 Th1 57.8(3) . 1_565
O3 N1 Th1 57.3(3) 1_455 1_565
O2 N1 Cs1 80.7(3) . 2_455
O1 N1 Cs1 134.9(3) . 2_455
O3 N1 Cs1 56.1(3) 1_455 2_455
Th1 N1 Cs1 92.78(12) 1_565 2_455
O4 N2 O6 122.9(5) . .
O4 N2 O5 121.4(5) . .
O6 N2 O5 115.7(5) . .
O4 N2 Th1 169.2(4) . 1_655
O6 N2 Th1 59.4(3) . 1_655
O5 N2 Th1 57.6(3) . 1_655
O4 N2 Cs1 73.1(3) . 4_665
O6 N2 Cs1 142.2(3) . 4_665
O5 N2 Cs1 60.6(3) . 4_665
Th1 N2 Cs1 98.87(13) 1_655 4_665
O8 N3 O7 123.6(5) . .
O8 N3 O9 121.3(5) . .
O7 N3 O9 115.0(5) . .
O8 N3 Th1 169.6(4) . .
O7 N3 Th1 58.7(3) . .
O9 N3 Th1 57.2(3) . .
O8 N3 Cs1 78.7(3) . .
O7 N3 Cs1 136.9(3) . .
O9 N3 Cs1 56.5(3) . .
Th1 N3 Cs1 93.27(12) . .
N1 O1 Th1 97.2(3) . 1_565
N1 O1 Cs1 127.1(3) . 2
Th1 O1 Cs1 109.88(14) 1_565 2
N1 O2 Cs1 151.9(4) . .
N1 O2 Cs1 80.6(3) . 2_455
Cs1 O2 Cs1 115.33(14) . 2_455
N1 O3 Th1 97.4(3) 1_655 1_665
N1 O3 Cs1 104.2(3) 1_655 2
Th1 O3 Cs1 116.72(15) 1_665 2
N1 O3 Cs1 112.9(3) 1_655 1_665
Th1 O3 Cs1 105.23(13) 1_665 1_665
Cs1 O3 Cs1 118.52(12) 2 1_665
N2 O4 Cs1 148.2(4) . 2
N2 O4 Cs1 87.0(3) . 4_665
Cs1 O4 Cs1 117.78(14) 2 4_665
N2 O5 Th1 97.1(3) . 1_655
N2 O5 Cs1 98.5(3) . 4_665
Th1 O5 Cs1 122.60(15) 1_655 4_665
N2 O5 Cs1 114.6(3) . 2_545
Th1 O5 Cs1 106.39(14) 1_655 2_545
Cs1 O5 Cs1 115.97(12) 4_665 2_545
N2 O6 Th1 95.6(3) . 1_655
N2 O6 Cs1 125.7(3) . 1_655
Th1 O6 Cs1 109.56(14) 1_655 1_655
N3 O7 Th1 96.2(3) . .
N3 O7 Cs1 124.0(3) . 4_665
Th1 O7 Cs1 110.52(14) . 4_665
N3 O8 Cs1 147.1(4) . 2
N3 O8 Cs1 81.9(3) . .
Cs1 O8 Cs1 126.65(13) 2 .
N3 O9 Th1 97.7(3) . .
N3 O9 Cs1 103.6(3) . .
Th1 O9 Cs1 117.24(15) . .
N3 O9 Cs1 111.1(3) . 2_545
Th1 O9 Cs1 102.77(13) . 2_545
Cs1 O9 Cs1 121.91(12) . 2_545
loop_
_geom_bond_atom_site_label_1
_geom_bond_atom_site_label_2
_geom_bond_distance
_geom_bond_site_symmetry_2
Th1 O9 2.543(4) 3
Th1 O9 2.543(4) .
Th1 O5 2.545(4) 3_655
Th1 O5 2.545(4) 1_455
Th1 O3 2.557(4) 3_665
Th1 O3 2.557(4) 1_445
Th1 O1 2.571(4) 3_565
Th1 O1 2.571(4) 1_545
Th1 O7 2.575(4) 3
Th1 O7 2.575(4) .
Th1 O6 2.588(4) 3_655
Th1 O6 2.588(4) 1_455
Cs1 O2 3.084(5) .
Cs1 O4 3.107(5) 2_545
Cs1 O9 3.138(4) .
Cs1 O5 3.156(4) 4_566
Cs1 O8 3.159(5) 2_545
Cs1 O3 3.199(4) 2_545
Cs1 O6 3.337(4) 1_455
Cs1 O7 3.376(4) 4_566
Cs1 O4 3.433(5) 4_566
Cs1 O1 3.512(4) 2_545
Cs1 O3 3.516(4) 1_445
Cs1 O5 3.544(4) 2
N1 O2 1.211(6) .
N1 O1 1.281(6) .
N1 O3 1.299(7) 1_455
N1 Th1 3.013(5) 1_565
N1 Cs1 3.736(5) 2_455
N2 O4 1.221(6) .
N2 O6 1.270(6) .
N2 O5 1.291(7) .
N2 Th1 2.992(5) 1_655
N2 Cs1 3.582(5) 4_665
N3 O8 1.222(6) .
N3 O7 1.281(6) .
N3 O9 1.283(6) .
O1 Th1 2.571(4) 1_565
O1 Cs1 3.512(4) 2
O2 Cs1 3.736(5) 2_455
O3 N1 1.299(7) 1_655
O3 Th1 2.557(4) 1_665
O3 Cs1 3.199(4) 2
O3 Cs1 3.516(4) 1_665
O4 Cs1 3.107(5) 2
O4 Cs1 3.433(5) 4_665
O5 Th1 2.545(4) 1_655
O5 Cs1 3.156(4) 4_665
O5 Cs1 3.544(4) 2_545
O6 Th1 2.588(4) 1_655
O6 Cs1 3.337(4) 1_655
O7 Cs1 3.376(4) 4_665
O8 Cs1 3.159(5) 2
O9 Cs1 3.789(4) 2_545
